REMARK  9 active torsions:
REMARK  status: ('A' for Active; 'I' for Inactive)
REMARK    1  A    between atoms: C_4  and  C_7 
REMARK    2  A    between atoms: C_15  and  O_22 
REMARK    3  A    between atoms: C_16  and  O_20 
REMARK    4  A    between atoms: C_17  and  O_18 
REMARK    5  A    between atoms: O_22  and  C_23 
REMARK    6  A    between atoms: C_24  and  O_36 
REMARK    7  A    between atoms: C_25  and  O_34 
REMARK    8  A    between atoms: C_26  and  O_32 
REMARK    9  A    between atoms: C_27  and  C_29 
ROOT
HETATM    1  C   LIG     1       9.458  -3.621   1.573  1.00  0.00     0.090 A 
HETATM    2  C   LIG     1      10.129  -4.138   2.612  1.00  0.00     0.094 A 
HETATM    3  C   LIG     1      10.367  -3.306   3.808  1.00  0.00     0.190 A 
HETATM    4  O   LIG     1      10.998  -3.729   4.785  1.00  0.00    -0.287 OA
HETATM    5  C   LIG     1       9.818  -1.950   3.784  1.00  0.00     0.084 A 
HETATM    6  C   LIG     1       9.164  -1.512   2.646  1.00  0.00     0.096 A 
HETATM    7  O   LIG     1       8.974  -2.317   1.544  1.00  0.00    -0.309 OA
HETATM    8  C   LIG     1       8.644  -0.212   2.578  1.00  0.00     0.078 A 
HETATM    9  C   LIG     1       8.811   0.664   3.657  1.00  0.00     0.110 A 
HETATM   10  C   LIG     1       9.443   0.201   4.816  1.00  0.00     0.134 A 
HETATM   11  C   LIG     1       9.962  -1.096   4.882  1.00  0.00     0.118 A 
ENDROOT
BRANCH   9  12
HETATM   12  O   LIG     1       8.369   1.959   3.676  1.00  0.00    -0.315 OA
BRANCH  12  13
HETATM   13  C   LIG     1       8.283   2.629   2.406  1.00  0.00     0.299 C 
HETATM   14  O   LIG     1       7.012   2.375   1.809  1.00  0.00    -0.340 OA
HETATM   15  C   LIG     1       6.859   3.055   0.542  1.00  0.00     0.256 C 
HETATM   16  C   LIG     1       6.851   4.567   0.767  1.00  0.00     0.189 C 
HETATM   17  C   LIG     1       8.167   4.974   1.423  1.00  0.00     0.183 C 
HETATM   18  C   LIG     1       8.488   4.136   2.666  1.00  0.00     0.205 C 
BRANCH  15  19
HETATM   19  C   LIG     1       5.581   2.574  -0.187  1.00  0.00     0.206 C 
HETATM   20  O   LIG     1       5.568   1.350  -0.510  1.00  0.00    -0.646 OA
HETATM   21  O   LIG     1       4.715   3.473  -0.413  1.00  0.00    -0.646 OA
ENDBRANCH  15  19
BRANCH  16  22
HETATM   22  O   LIG     1       5.792   4.984   1.653  1.00  0.00    -0.390 OA
ATOM     23  HO  LIG     1       4.973   4.731   1.245  1.00  0.00     0.210 HD
ENDBRANCH  16  22
BRANCH  17  24
HETATM   24  O   LIG     1       8.111   6.361   1.819  1.00  0.00    -0.390 OA
ATOM     25  HO  LIG     1       7.912   6.880   1.049  1.00  0.00     0.210 HD
ENDBRANCH  17  24
BRANCH  18  26
HETATM   26  O   LIG     1       9.856   4.423   3.036  1.00  0.00    -0.388 OA
ATOM     27  HO  LIG     1       9.982   5.351   3.196  1.00  0.00     0.210 HD
ENDBRANCH  18  26
ENDBRANCH  12  13
ENDBRANCH   9  12
BRANCH  10  28
HETATM   28  O   LIG     1       9.577   1.012   5.913  1.00  0.00    -0.356 OA
ATOM     29  HO  LIG     1      10.006   0.698   6.700  1.00  0.00     0.218 HD
ENDBRANCH  10  28
BRANCH  11  30
HETATM   30  O   LIG     1      10.585  -1.457   6.052  1.00  0.00    -0.357 OA
ATOM     31  HO  LIG     1      10.683  -0.877   6.798  1.00  0.00     0.217 HD
ENDBRANCH  11  30
BRANCH   1  32
HETATM   32  C   LIG     1       9.172  -4.410   0.357  1.00  0.00    -0.002 A 
HETATM   33  C   LIG     1      10.038  -5.423  -0.093  1.00  0.00     0.014 A 
HETATM   34  C   LIG     1       9.746  -6.162  -1.244  1.00  0.00     0.001 A 
HETATM   35  C   LIG     1       8.589  -5.895  -1.970  1.00  0.00     0.000 A 
HETATM   36  C   LIG     1       7.725  -4.888  -1.546  1.00  0.00     0.001 A 
HETATM   37  C   LIG     1       8.017  -4.151  -0.394  1.00  0.00     0.014 A 
ENDBRANCH   1  32
TORSDOF 9
