REMARK  3 active torsions:
REMARK  status: ('A' for Active; 'I' for Inactive)
REMARK    1  A    between atoms: C_5  and  C_33 
REMARK    2  A    between atoms: C_15  and  O_27 
REMARK    3  A    between atoms: C_20  and  O_24 
ROOT
HETATM    1  C   LIG     1       0.683   0.371   0.902  1.00  0.00     0.015 C 
HETATM    2  C   LIG     1       0.789  -1.149   1.139  1.00  0.00    -0.047 C 
HETATM    3  C   LIG     1       1.433  -1.796  -0.101  1.00  0.00     0.010 C 
HETATM    4  C   LIG     1       1.340  -3.321  -0.100  1.00  0.00     0.022 C 
HETATM    5  C   LIG     1      -0.119  -3.818   0.027  1.00  0.00     0.056 C 
HETATM    6  C   LIG     1      -0.111  -5.356   0.102  1.00  0.00     0.022 C 
HETATM    7  C   LIG     1      -1.534  -5.897   0.231  1.00  0.00     0.016 C 
HETATM    8  C   LIG     1      -2.337  -5.390   1.467  1.00  0.00    -0.013 C 
HETATM    9  C   LIG     1      -2.133  -3.860   1.665  1.00  0.00    -0.069 C 
HETATM   10  C   LIG     1      -3.123  -3.104   2.179  1.00  0.00    -0.022 C 
HETATM   11  C   LIG     1      -4.512  -3.595   2.408  1.00  0.00     0.033 C 
HETATM   12  C   LIG     1      -4.874  -4.570   1.282  1.00  0.00     0.007 C 
HETATM   13  C   LIG     1      -3.955  -5.852   1.360  1.00  0.00    -0.026 C 
HETATM   14  C   LIG     1      -4.267  -6.670   0.062  1.00  0.00     0.042 C 
HETATM   15  C   LIG     1      -5.749  -6.931  -0.270  1.00  0.00     0.124 C 
HETATM   16  C   LIG     1      -6.590  -5.629  -0.271  1.00  0.00     0.033 C 
HETATM   17  C   LIG     1      -6.435  -4.792   1.059  1.00  0.00    -0.033 C 
HETATM   18  C   LIG     1      -7.109  -3.401   0.816  1.00  0.00     0.012 C 
HETATM   19  C   LIG     1      -8.532  -3.471   0.269  1.00  0.00     0.033 C 
HETATM   20  C   LIG     1      -8.617  -4.293  -1.010  1.00  0.00     0.126 C 
HETATM   21  C   LIG     1      -8.056  -5.740  -0.853  1.00  0.00    -0.015 C 
HETATM   22  C   LIG     1      -8.007  -6.378  -2.269  1.00  0.00     0.018 C 
HETATM   23  C   LIG     1      -9.022  -6.614  -0.028  1.00  0.00     0.018 C 
HETATM   24  C   LIG     1      -7.117  -5.405   2.302  1.00  0.00     0.016 C 
HETATM   25  C   LIG     1      -4.308  -6.761   2.567  1.00  0.00     0.016 C 
HETATM   26  C   LIG     1      -0.741  -3.265   1.335  1.00  0.00     0.035 C 
HETATM   27  C   LIG     1      -0.631  -1.714   1.394  1.00  0.00     0.019 C 
HETATM   28  C   LIG     1      -1.642  -6.017   2.720  1.00  0.00     0.021 C 
HETATM   29  C   LIG     1       1.678  -1.371   2.379  1.00  0.00     0.015 C 
ENDROOT
BRANCH   5  30
HETATM   30  C   LIG     1      -0.806  -3.451  -1.335  1.00  0.00     0.182 C 
HETATM   31  O   LIG     1      -1.827  -2.714  -1.275  1.00  0.00    -0.647 OA
HETATM   32  O   LIG     1      -0.267  -3.948  -2.370  1.00  0.00    -0.647 OA
ENDBRANCH   5  30
BRANCH  15  33
HETATM   33  O   LIG     1      -6.296  -7.945   0.556  1.00  0.00    -0.395 OA
ATOM     34  HO  LIG     1      -7.210  -8.106   0.351  1.00  0.00     0.210 HD
ENDBRANCH  15  33
BRANCH  20  35
HETATM   35  O   LIG     1      -9.986  -4.291  -1.423  1.00  0.00    -0.395 OA
ATOM     36  HO  LIG     1     -10.039  -4.804  -2.221  1.00  0.00     0.210 HD
ENDBRANCH  20  35
TORSDOF 3
