REMARK  3 active torsions:
REMARK  status: ('A' for Active; 'I' for Inactive)
REMARK    1  A    between atoms: C_5  and  O_35 
REMARK    2  A    between atoms: C_8  and  O_31 
REMARK    3  A    between atoms: C_18  and  C_26 
ROOT
HETATM    1  C   LIG     1      -6.878  -5.471  -0.348  1.00  0.00     0.016 C 
HETATM    2  C   LIG     1      -6.985  -4.037  -0.960  1.00  0.00    -0.033 C 
HETATM    3  C   LIG     1      -7.330  -4.216  -2.464  1.00  0.00     0.012 C 
HETATM    4  C   LIG     1      -8.716  -4.823  -2.713  1.00  0.00     0.033 C 
HETATM    5  C   LIG     1      -9.848  -4.063  -2.027  1.00  0.00     0.126 C 
HETATM    6  C   LIG     1      -9.607  -3.711  -0.521  1.00  0.00    -0.015 C 
HETATM    7  C   LIG     1      -8.127  -3.168  -0.324  1.00  0.00     0.033 C 
HETATM    8  C   LIG     1      -7.698  -2.705   1.087  1.00  0.00     0.124 C 
HETATM    9  C   LIG     1      -6.457  -1.788   1.098  1.00  0.00     0.042 C 
HETATM   10  C   LIG     1      -5.431  -1.951  -0.064  1.00  0.00    -0.026 C 
HETATM   11  C   LIG     1      -5.543  -3.398  -0.674  1.00  0.00     0.007 C 
HETATM   12  C   LIG     1      -4.520  -3.584  -1.802  1.00  0.00     0.033 C 
HETATM   13  C   LIG     1      -4.574  -2.494  -2.812  1.00  0.00    -0.022 C 
HETATM   14  C   LIG     1      -5.016  -1.237  -2.601  1.00  0.00    -0.069 C 
HETATM   15  C   LIG     1      -5.475  -0.754  -1.197  1.00  0.00    -0.013 C 
HETATM   16  C   LIG     1      -6.865  -0.044  -1.323  1.00  0.00     0.016 C 
HETATM   17  C   LIG     1      -7.423   0.027  -2.743  1.00  0.00     0.022 C 
HETATM   18  C   LIG     1      -6.421   0.641  -3.737  1.00  0.00     0.056 C 
HETATM   19  C   LIG     1      -5.089  -0.178  -3.756  1.00  0.00     0.035 C 
HETATM   20  C   LIG     1      -4.836  -0.795  -5.161  1.00  0.00     0.019 C 
HETATM   21  C   LIG     1      -4.934   0.179  -6.358  1.00  0.00    -0.047 C 
HETATM   22  C   LIG     1      -6.163   1.105  -6.252  1.00  0.00     0.010 C 
HETATM   23  C   LIG     1      -7.111   0.701  -5.125  1.00  0.00     0.022 C 
HETATM   24  C   LIG     1      -5.045  -0.662  -7.649  1.00  0.00     0.015 C 
HETATM   25  C   LIG     1      -3.651   1.024  -6.464  1.00  0.00     0.015 C 
HETATM   26  C   LIG     1      -4.493   0.391  -0.776  1.00  0.00     0.021 C 
HETATM   27  C   LIG     1      -4.028  -1.922   0.665  1.00  0.00     0.016 C 
HETATM   28  C   LIG     1     -10.661  -2.628  -0.145  1.00  0.00     0.018 C 
HETATM   29  C   LIG     1      -9.933  -4.934   0.360  1.00  0.00     0.018 C 
ENDROOT
BRANCH  18  30
HETATM   30  C   LIG     1      -6.228   2.163  -3.398  1.00  0.00     0.182 C 
HETATM   31  O   LIG     1      -5.085   2.647  -3.634  1.00  0.00    -0.647 OA
HETATM   32  O   LIG     1      -7.246   2.761  -2.942  1.00  0.00    -0.647 OA
ENDBRANCH  18  30
BRANCH   8  33
HETATM   33  O   LIG     1      -8.721  -2.018   1.797  1.00  0.00    -0.395 OA
ATOM     34  HO  LIG     1      -8.457  -1.733   2.664  1.00  0.00     0.210 HD
ENDBRANCH   8  33
BRANCH   5  35
HETATM   35  O   LIG     1     -10.112  -2.892  -2.806  1.00  0.00    -0.395 OA
ATOM     36  HO  LIG     1     -10.817  -2.419  -2.379  1.00  0.00     0.210 HD
ENDBRANCH   5  35
TORSDOF 3
