REMARK  7 active torsions:
REMARK  status: ('A' for Active; 'I' for Inactive)
REMARK    1  A    between atoms: C_3  and  C_4 
REMARK    2  A    between atoms: C_4  and  C_5 
REMARK    3  A    between atoms: C_6  and  O_30 
REMARK    4  A    between atoms: C_10  and  O_11 
REMARK    5  A    between atoms: C_15  and  C_24 
REMARK    6  A    between atoms: C_16  and  O_22 
REMARK    7  A    between atoms: C_24  and  C_25 
ROOT
HETATM    1  C   LIG     1       0.031  -2.696   3.195  1.00  0.00     0.013 A 
HETATM    2  C   LIG     1       0.679  -2.059   4.258  1.00  0.00     0.077 A 
HETATM    3  C   LIG     1       0.959  -2.737   5.437  1.00  0.00     0.075 A 
HETATM    4  C   LIG     1       0.627  -4.087   5.571  1.00  0.00     0.095 A 
HETATM    5  C   LIG     1      -0.026  -4.788   4.565  1.00  0.00     0.083 A 
HETATM    6  C   LIG     1      -0.302  -4.055   3.377  1.00  0.00     0.092 A 
HETATM    7  C   LIG     1      -0.390  -6.260   4.759  1.00  0.00     0.201 C 
HETATM    8  C   LIG     1       0.083  -6.837   5.911  1.00  0.00     0.058 C 
HETATM    9  C   LIG     1      -0.046  -8.321   6.236  1.00  0.00    -0.000 C 
HETATM   10  C   LIG     1       0.182  -8.772   7.499  1.00  0.00     0.126 C 
HETATM   11  C   LIG     1       0.675  -7.825   8.565  1.00  0.00     0.208 C 
HETATM   12  O   LIG     1       0.854  -8.126   9.728  1.00  0.00    -0.285 OA
HETATM   13  C   LIG     1       0.996  -6.454   8.161  1.00  0.00     0.096 C 
HETATM   14  C   LIG     1       0.727  -6.001   6.951  1.00  0.00     0.095 C 
HETATM   15  O   LIG     1       1.020  -4.664   6.740  1.00  0.00    -0.309 OA
HETATM   16  O   LIG     1      -1.097  -6.786   3.836  1.00  0.00    -0.286 OA
ENDROOT
BRANCH   1  17
HETATM   17  C   LIG     1      -0.347  -1.991   1.904  1.00  0.00     0.071 C 
BRANCH  17  18
HETATM   18  C   LIG     1       0.713  -2.071   0.830  1.00  0.00    -0.020 C 
HETATM   19  C   LIG     1       0.911  -1.212  -0.192  1.00  0.00    -0.091 C 
HETATM   20  C   LIG     1       2.099  -1.368  -1.105  1.00  0.00     0.042 C 
HETATM   21  C   LIG     1       0.006  -0.060  -0.541  1.00  0.00     0.042 C 
ENDBRANCH  17  18
ENDBRANCH   1  17
BRANCH   6  22
HETATM   22  O   LIG     1      -0.930  -4.686   2.319  1.00  0.00    -0.359 OA
ATOM     23  HO  LIG     1      -1.154  -5.601   2.442  1.00  0.00     0.217 HD
ENDBRANCH   6  22
BRANCH   2  24
HETATM   24  O   LIG     1       1.090  -0.756   4.206  1.00  0.00    -0.360 OA
ATOM     25  HO  LIG     1       1.530  -0.323   4.928  1.00  0.00     0.217 HD
ENDBRANCH   2  24
BRANCH   9  26
HETATM   26  C   LIG     1      -0.446  -9.346   5.165  1.00  0.00     0.070 C 
BRANCH  26  27
HETATM   27  C   LIG     1       0.721  -9.931   4.389  1.00  0.00    -0.020 C 
HETATM   28  C   LIG     1       1.085 -11.229   4.291  1.00  0.00    -0.091 C 
HETATM   29  C   LIG     1       2.232 -11.657   3.412  1.00  0.00     0.042 C 
HETATM   30  C   LIG     1       0.396 -12.362   4.999  1.00  0.00     0.042 C 
ENDBRANCH  26  27
ENDBRANCH   9  26
BRANCH  10  31
HETATM   31  O   LIG     1       0.031 -10.128   7.806  1.00  0.00    -0.351 OA
HETATM   32  C   LIG     1      -0.396 -10.431   9.128  1.00  0.00     0.210 C 
ENDBRANCH  10  31
TORSDOF 7
