REMARK  1 active torsions:
REMARK  status: ('A' for Active; 'I' for Inactive)
REMARK    1  A    between atoms: C_18  and  N_20 
ROOT
HETATM    1  C   LIG     1       3.187   2.210  -2.529  1.00  0.00     0.043 C 
HETATM    2  C   LIG     1       2.918   2.897  -0.542  1.00  0.00     0.223 C 
HETATM    3  C   LIG     1       2.835   1.993   0.977  1.00  0.00     0.029 C 
HETATM    4  C   LIG     1       2.693   0.507   1.461  1.00  0.00     0.008 C 
HETATM    5  C   LIG     1       4.036  -0.061   1.254  1.00  0.00     0.006 C 
HETATM    6  C   LIG     1       4.601   1.146   0.569  1.00  0.00     0.001 C 
HETATM    7  C   LIG     1       4.205   2.498   1.500  1.00  0.00    -0.004 C 
HETATM    8  C   LIG     1       5.565   3.215   1.024  1.00  0.00     0.012 C 
HETATM    9  C   LIG     1       6.024   3.240  -0.466  1.00  0.00     0.007 C 
HETATM   10  C   LIG     1       5.019   2.783  -1.562  1.00  0.00     0.003 A 
HETATM   11  C   LIG     1       4.036   1.197  -0.917  1.00  0.00    -0.001 A 
HETATM   12  C   LIG     1       2.028   1.185  -1.216  1.00  0.00     0.033 A 
HETATM   13  C   LIG     1       1.257   2.841  -1.924  1.00  0.00    -0.023 A 
HETATM   14  C   LIG     1       2.059   4.084  -2.339  1.00  0.00    -0.073 A 
HETATM   15  C   LIG     1       3.959   4.265  -2.285  1.00  0.00    -0.017 A 
HETATM   16  C   LIG     1       4.265   5.666  -1.656  1.00  0.00     0.016 C 
HETATM   17  C   LIG     1       3.168   6.753  -1.815  1.00  0.00     0.037 C 
HETATM   18  C   LIG     1       2.144   6.658  -2.970  1.00  0.00     0.226 C 
HETATM   19  C   LIG     1       1.392   5.285  -2.992  1.00  0.00     0.070 C 
HETATM   20  C   LIG     1       4.541   4.407  -3.771  1.00  0.00     0.020 C 
HETATM   21  C   LIG     1       3.321   3.961   1.581  1.00  0.00     0.282 C 
HETATM   22  N   LIG     1       2.380   4.141   0.260  1.00  0.00     0.089 N 
HETATM   23  C   LIG     1       0.914   4.293   0.608  1.00  0.00     0.310 C 
ENDROOT
BRANCH  18  24
HETATM   24  N   LIG     1       2.765   7.100  -4.307  1.00  0.00     0.084 N 
HETATM   25  C   LIG     1       1.909   6.822  -5.531  1.00  0.00     0.309 C 
HETATM   26  C   LIG     1       3.134   8.580  -4.325  1.00  0.00     0.309 C 
ENDBRANCH  18  24
TORSDOF 1
