REMARK  9 active torsions:
REMARK  status: ('A' for Active; 'I' for Inactive)
REMARK    1  A    between atoms: C_4  and  C_7 
REMARK    2  A    between atoms: C_15  and  O_22 
REMARK    3  A    between atoms: C_16  and  O_20 
REMARK    4  A    between atoms: C_17  and  O_18 
REMARK    5  A    between atoms: O_22  and  C_23 
REMARK    6  A    between atoms: C_24  and  O_36 
REMARK    7  A    between atoms: C_25  and  O_34 
REMARK    8  A    between atoms: C_26  and  O_32 
REMARK    9  A    between atoms: C_27  and  C_29 
ROOT
HETATM    1  C   LIG     1       9.545  -4.303   1.527  1.00  0.00     0.090 A 
HETATM    2  C   LIG     1       9.812  -4.929   2.682  1.00  0.00     0.094 A 
HETATM    3  C   LIG     1      10.023  -4.120   3.905  1.00  0.00     0.190 A 
HETATM    4  O   LIG     1      10.270  -4.648   4.994  1.00  0.00    -0.287 OA
HETATM    5  C   LIG     1       9.912  -2.686   3.803  1.00  0.00     0.084 A 
HETATM    6  C   LIG     1       9.713  -2.194   2.543  1.00  0.00     0.096 A 
HETATM    7  O   LIG     1       9.527  -2.938   1.412  1.00  0.00    -0.309 OA
HETATM    8  C   LIG     1       9.706  -0.841   2.354  1.00  0.00     0.078 C 
HETATM    9  C   LIG     1       9.697   0.112   3.364  1.00  0.00     0.110 C 
HETATM   10  C   LIG     1       9.904  -0.387   4.646  1.00  0.00     0.134 C 
HETATM   11  C   LIG     1      10.038  -1.774   4.863  1.00  0.00     0.118 C 
ENDROOT
BRANCH   9  12
HETATM   12  O   LIG     1       9.619   1.456   3.119  1.00  0.00    -0.315 OA
BRANCH  12  13
HETATM   13  C   LIG     1       8.655   1.998   2.164  1.00  0.00     0.299 C 
HETATM   14  O   LIG     1       9.116   3.277   1.682  1.00  0.00    -0.340 OA
HETATM   15  C   LIG     1       8.170   3.933   0.782  1.00  0.00     0.256 C 
HETATM   16  C   LIG     1       7.908   3.089  -0.476  1.00  0.00     0.189 C 
HETATM   17  C   LIG     1       7.351   1.746  -0.026  1.00  0.00     0.183 C 
HETATM   18  C   LIG     1       8.332   1.122   0.935  1.00  0.00     0.205 C 
BRANCH  15  19
HETATM   19  C   LIG     1       8.703   5.324   0.349  1.00  0.00     0.206 C 
HETATM   20  O   LIG     1       8.745   6.200   1.257  1.00  0.00    -0.646 OA
HETATM   21  O   LIG     1       9.005   5.435  -0.880  1.00  0.00    -0.646 OA
ENDBRANCH  15  19
BRANCH  16  22
HETATM   22  O   LIG     1       9.146   2.860  -1.199  1.00  0.00    -0.390 OA
ATOM     23  HO  LIG     1       9.494   3.698  -1.480  1.00  0.00     0.210 HD
ENDBRANCH  16  22
BRANCH  17  24
HETATM   24  O   LIG     1       7.221   0.845  -1.141  1.00  0.00    -0.390 OA
ATOM     25  HO  LIG     1       6.603   1.238  -1.746  1.00  0.00     0.210 HD
ENDBRANCH  17  24
BRANCH  18  26
HETATM   26  O   LIG     1       9.527   0.845   0.144  1.00  0.00    -0.388 OA
ATOM     27  HO  LIG     1       9.328   0.306  -0.612  1.00  0.00     0.210 HD
ENDBRANCH  18  26
ENDBRANCH  12  13
ENDBRANCH   9  12
BRANCH  10  28
HETATM   28  O   LIG     1      10.005   0.457   5.724  1.00  0.00    -0.356 OA
ATOM     29  HO  LIG     1      10.146   0.116   6.599  1.00  0.00     0.218 HD
ENDBRANCH  10  28
BRANCH  11  30
HETATM   30  O   LIG     1      10.295  -2.198   6.143  1.00  0.00    -0.357 OA
ATOM     31  HO  LIG     1      10.380  -1.581   6.860  1.00  0.00     0.217 HD
ENDBRANCH  11  30
BRANCH   1  32
HETATM   32  C   LIG     1       9.271  -5.007   0.252  1.00  0.00    -0.002 A 
HETATM   33  C   LIG     1       8.654  -6.263   0.256  1.00  0.00     0.014 A 
HETATM   34  C   LIG     1       8.394  -6.941  -0.937  1.00  0.00     0.001 A 
HETATM   35  C   LIG     1       8.730  -6.363  -2.156  1.00  0.00     0.000 A 
HETATM   36  C   LIG     1       9.319  -5.102  -2.185  1.00  0.00     0.001 A 
HETATM   37  C   LIG     1       9.582  -4.424  -0.991  1.00  0.00     0.014 A 
ENDBRANCH   1  32
TORSDOF 9
