REMARK  5 active torsions:
REMARK  status: ('A' for Active; 'I' for Inactive)
REMARK    1  A    between atoms: O_2  and  C_3 
REMARK    2  A    between atoms: C_11  and  C_12 
REMARK    3  A    between atoms: C_12  and  C_14 
REMARK    4  A    between atoms: C_14  and  C_15 
REMARK    5  A    between atoms: C_15  and  C_16 
ROOT
HETATM    1  C   LIG     1       0.146  -2.254   3.566  1.00  0.00     0.095 A 
HETATM    2  C   LIG     1       0.246  -3.674   3.600  1.00  0.00     0.034 A 
HETATM    3  C   LIG     1      -0.285  -4.749   2.820  1.00  0.00     0.041 A 
HETATM    4  C   LIG     1       0.209  -5.912   3.363  1.00  0.00     0.143 A 
HETATM    5  O   LIG     1       1.002  -5.643   4.430  1.00  0.00    -0.322 OA
HETATM    6  C   LIG     1       1.026  -4.287   4.574  1.00  0.00     0.088 A 
HETATM    7  C   LIG     1       1.728  -3.607   5.558  1.00  0.00     0.039 A 
HETATM    8  C   LIG     1       1.622  -2.217   5.530  1.00  0.00     0.021 A 
HETATM    9  C   LIG     1       0.853  -1.521   4.563  1.00  0.00     0.048 A 
ENDROOT
BRANCH   9  10
HETATM   10  C   LIG     1       0.868  -0.017   4.742  1.00  0.00     0.188 C 
HETATM   11  O   LIG     1       1.880   0.631   4.357  1.00  0.00    -0.287 OA
BRANCH  10  12
HETATM   12  C   LIG     1      -0.237   0.391   5.417  1.00  0.00     0.111 C 
BRANCH  12  13
HETATM   13  C   LIG     1      -0.663   1.726   5.947  1.00  0.00     0.185 C 
HETATM   14  O   LIG     1      -1.536   1.738   6.826  1.00  0.00    -0.287 OA
BRANCH  13  15
HETATM   15  C   LIG     1      -0.139   3.040   5.484  1.00  0.00     0.014 A 
HETATM   16  C   LIG     1       0.309   3.279   4.184  1.00  0.00     0.015 A 
HETATM   17  C   LIG     1       0.796   4.539   3.819  1.00  0.00     0.001 A 
HETATM   18  C   LIG     1       0.793   5.588   4.737  1.00  0.00     0.000 A 
HETATM   19  C   LIG     1       0.284   5.384   6.017  1.00  0.00     0.001 A 
HETATM   20  C   LIG     1      -0.184   4.119   6.385  1.00  0.00     0.015 A 
ENDBRANCH  13  15
ENDBRANCH  12  13
ENDBRANCH  10  12
ENDBRANCH   9  10
BRANCH   1  21
HETATM   21  O   LIG     1      -0.674  -1.750   2.591  1.00  0.00    -0.354 OA
HETATM   22  C   LIG     1      -0.302  -0.490   2.046  1.00  0.00     0.210 C 
ENDBRANCH   1  21
TORSDOF 5
