REMARK  6 active torsions:
REMARK  status: ('A' for Active; 'I' for Inactive)
REMARK    1  A    between atoms: C_5  and  O_27 
REMARK    2  A    between atoms: C_6  and  C_24 
REMARK    3  A    between atoms: C_12  and  C_13 
REMARK    4  A    between atoms: C_13  and  C_14 
REMARK    5  A    between atoms: C_16  and  O_21 
REMARK    6  A    between atoms: C_24  and  O_25 
ROOT
HETATM    1  C   LIG     1       0.847  -0.184  -1.341  1.00  0.00     0.016 C 
HETATM    2  C   LIG     1       1.530   0.051   0.027  1.00  0.00    -0.032 C 
HETATM    3  C   LIG     1       2.442  -1.166   0.336  1.00  0.00     0.012 C 
HETATM    4  C   LIG     1       1.674  -2.444   0.660  1.00  0.00     0.033 C 
HETATM    5  C   LIG     1       0.740  -2.260   1.855  1.00  0.00     0.128 C 
HETATM    6  C   LIG     1      -0.295  -1.108   1.672  1.00  0.00     0.008 C 
HETATM    7  C   LIG     1       0.472   0.190   1.200  1.00  0.00     0.007 C 
HETATM    8  C   LIG     1      -0.441   1.425   0.965  1.00  0.00     0.010 C 
HETATM    9  C   LIG     1       0.332   2.672   0.515  1.00  0.00     0.034 C 
HETATM   10  C   LIG     1       1.794   2.489   0.792  1.00  0.00    -0.084 C 
HETATM   11  C   LIG     1       2.428   3.141   1.781  1.00  0.00     0.015 C 
HETATM   12  C   LIG     1       2.455   1.372  -0.013  1.00  0.00     0.025 C 
HETATM   13  C   LIG     1      -1.446  -1.550   0.739  1.00  0.00     0.020 C 
ENDROOT
BRANCH  12  14
HETATM   14  C   LIG     1       2.873   1.861  -1.432  1.00  0.00     0.037 C 
BRANCH  14  15
HETATM   15  C   LIG     1       3.790   3.062  -1.438  1.00  0.00    -0.010 C 
HETATM   16  C   LIG     1       5.132   3.050  -1.508  1.00  0.00     0.044 C 
HETATM   17  C   LIG     1       5.910   4.313  -1.505  1.00  0.00     0.291 C 
HETATM   18  C   LIG     1       6.123   1.948  -1.566  1.00  0.00     0.181 C 
HETATM   19  O   LIG     1       7.225   4.012  -1.318  1.00  0.00    -0.315 OA
HETATM   20  O   LIG     1       5.466   5.439  -1.675  1.00  0.00    -0.260 OA
HETATM   21  C   LIG     1       7.343   2.631  -0.985  1.00  0.00     0.215 C 
BRANCH  18  22
HETATM   22  O   LIG     1       5.749   0.806  -0.819  1.00  0.00    -0.389 OA
ATOM     23  HO  LIG     1       6.384   0.100  -0.856  1.00  0.00     0.210 HD
ENDBRANCH  18  22
ENDBRANCH  14  15
ENDBRANCH  12  14
BRANCH   6  24
HETATM   24  C   LIG     1      -0.938  -0.817   3.068  1.00  0.00     0.176 C 
BRANCH  24  25
HETATM   25  O   LIG     1      -1.574  -1.972   3.616  1.00  0.00    -0.400 OA
ATOM     26  HO  LIG     1      -1.965  -1.795   4.464  1.00  0.00     0.209 HD
ENDBRANCH  24  25
ENDBRANCH   6  24
BRANCH   5  27
HETATM   27  O   LIG     1       0.099  -3.510   2.108  1.00  0.00    -0.395 OA
ATOM     28  HO  LIG     1      -0.482  -3.396   2.851  1.00  0.00     0.210 HD
ENDBRANCH   5  27
TORSDOF 6
