REMARK  6 active torsions:
REMARK  status: ('A' for Active; 'I' for Inactive)
REMARK    1  A    between atoms: C_14  and  C_17 
REMARK    2  A    between atoms: C_18  and  O_30 
REMARK    3  A    between atoms: C_19  and  O_28 
REMARK    4  A    between atoms: C_20  and  O_26 
REMARK    5  A    between atoms: C_21  and  C_23 
REMARK    6  A    between atoms: C_23  and  O_24 
ROOT
HETATM    1  C   LIG     1       3.609   0.188   1.802  1.00  0.00     0.001 A 
HETATM    2  C   LIG     1       3.396   1.552   2.011  1.00  0.00     0.003 A 
HETATM    3  C   LIG     1       2.097   2.065   2.042  1.00  0.00     0.038 A 
HETATM    4  C   LIG     1       1.006   1.217   1.858  1.00  0.00     0.083 A 
HETATM    5  C   LIG     1       1.224  -0.146   1.673  1.00  0.00     0.044 A 
HETATM    6  C   LIG     1       2.521  -0.667   1.634  1.00  0.00     0.018 A 
HETATM    7  C   LIG     1       0.062  -1.036   1.527  1.00  0.00     0.176 C 
HETATM    8  O   LIG     1       0.199  -2.197   1.175  1.00  0.00    -0.291 OA
HETATM    9  C   LIG     1      -1.270  -0.429   1.855  1.00  0.00     0.161 C 
HETATM   10  C   LIG     1      -1.313   1.014   1.372  1.00  0.00     0.154 C 
HETATM   11  O   LIG     1      -0.230   1.803   1.881  1.00  0.00    -0.343 OA
HETATM   12  C   LIG     1      -1.403   1.137  -0.148  1.00  0.00     0.113 C 
HETATM   13  C   LIG     1      -2.635   0.405  -0.619  1.00  0.00     0.143 C 
HETATM   14  C   LIG     1      -2.814  -1.030  -0.165  1.00  0.00     0.157 C 
HETATM   15  C   LIG     1      -2.438  -1.202   1.291  1.00  0.00     0.154 C 
HETATM   16  O   LIG     1      -3.057  -2.009   1.988  1.00  0.00    -0.296 OA
HETATM   17  O   LIG     1      -3.443   0.935  -1.382  1.00  0.00    -0.297 OA
ENDROOT
BRANCH  14  18
HETATM   18  C   LIG     1      -2.058  -1.981  -1.109  1.00  0.00     0.172 C 
HETATM   19  O   LIG     1      -2.542  -1.838  -2.466  1.00  0.00    -0.372 OA
HETATM   20  C   LIG     1      -3.853  -2.376  -2.725  1.00  0.00     0.176 C 
HETATM   21  C   LIG     1      -3.906  -3.874  -2.395  1.00  0.00     0.180 C 
HETATM   22  C   LIG     1      -3.438  -4.114  -0.952  1.00  0.00     0.180 C 
HETATM   23  C   LIG     1      -2.069  -3.470  -0.702  1.00  0.00     0.179 C 
BRANCH  20  24
HETATM   24  C   LIG     1      -4.212  -2.103  -4.194  1.00  0.00     0.198 C 
BRANCH  24  25
HETATM   25  O   LIG     1      -4.250  -0.703  -4.490  1.00  0.00    -0.398 OA
ATOM     26  HO  LIG     1      -4.472  -0.534  -5.398  1.00  0.00     0.209 HD
ENDBRANCH  24  25
ENDBRANCH  20  24
BRANCH  21  27
HETATM   27  O   LIG     1      -3.069  -4.640  -3.278  1.00  0.00    -0.390 OA
ATOM     28  HO  LIG     1      -3.358  -4.492  -4.171  1.00  0.00     0.210 HD
ENDBRANCH  21  27
BRANCH  22  29
HETATM   29  O   LIG     1      -3.340  -5.526  -0.711  1.00  0.00    -0.390 OA
ATOM     30  HO  LIG     1      -4.188  -5.925  -0.866  1.00  0.00     0.210 HD
ENDBRANCH  22  29
BRANCH  23  31
HETATM   31  O   LIG     1      -1.090  -4.162  -1.508  1.00  0.00    -0.390 OA
ATOM     32  HO  LIG     1      -1.097  -5.078  -1.258  1.00  0.00     0.210 HD
ENDBRANCH  23  31
ENDBRANCH  14  18
TORSDOF 6
