REMARK  8 active torsions:
REMARK  status: ('A' for Active; 'I' for Inactive)
REMARK    1  A    between atoms: C_13  and  O_33 
REMARK    2  A    between atoms: C_14  and  C_18 
REMARK    3  A    between atoms: C_15  and  O_16 
REMARK    4  A    between atoms: C_19  and  O_31 
REMARK    5  A    between atoms: C_20  and  O_29 
REMARK    6  A    between atoms: C_21  and  O_27 
REMARK    7  A    between atoms: C_22  and  C_24 
REMARK    8  A    between atoms: C_24  and  O_25 
ROOT
HETATM    1  C   LIG     1       3.874  -0.199   0.120  1.00  0.00     0.001 A 
HETATM    2  C   LIG     1       3.552   1.148   0.283  1.00  0.00     0.003 A 
HETATM    3  C   LIG     1       2.233   1.578   0.121  1.00  0.00     0.038 A 
HETATM    4  C   LIG     1       1.234   0.664  -0.212  1.00  0.00     0.083 A 
HETATM    5  C   LIG     1       1.555  -0.682  -0.356  1.00  0.00     0.044 A 
HETATM    6  C   LIG     1       2.875  -1.119  -0.198  1.00  0.00     0.018 A 
HETATM    7  C   LIG     1       0.478  -1.651  -0.592  1.00  0.00     0.175 C 
HETATM    8  O   LIG     1       0.709  -2.864  -0.564  1.00  0.00    -0.291 OA
HETATM    9  C   LIG     1      -0.934  -1.136  -0.728  1.00  0.00     0.151 C 
HETATM   10  C   LIG     1      -0.921   0.352  -1.105  1.00  0.00     0.172 C 
HETATM   11  O   LIG     1      -0.033   1.157  -0.318  1.00  0.00    -0.340 OA
HETATM   12  C   LIG     1      -2.284   0.942  -0.905  1.00  0.00     0.043 C 
HETATM   13  C   LIG     1      -3.130   0.463   0.016  1.00  0.00     0.075 C 
HETATM   14  C   LIG     1      -2.757  -0.639   0.926  1.00  0.00     0.036 C 
HETATM   15  C   LIG     1      -1.739  -1.438   0.530  1.00  0.00     0.069 C 
ENDROOT
BRANCH  14  16
HETATM   16  C   LIG     1      -3.574  -0.830   2.216  1.00  0.00     0.191 C 
HETATM   17  O   LIG     1      -4.049   0.470   2.682  1.00  0.00    -0.368 OA
HETATM   18  C   LIG     1      -3.016   1.282   3.282  1.00  0.00     0.177 C 
HETATM   19  C   LIG     1      -2.427   0.614   4.535  1.00  0.00     0.180 C 
HETATM   20  C   LIG     1      -1.953  -0.807   4.202  1.00  0.00     0.181 C 
HETATM   21  C   LIG     1      -3.003  -1.617   3.424  1.00  0.00     0.183 C 
BRANCH  18  22
HETATM   22  C   LIG     1      -3.641   2.649   3.584  1.00  0.00     0.198 C 
BRANCH  22  23
HETATM   23  O   LIG     1      -4.707   2.509   4.526  1.00  0.00    -0.398 OA
ATOM     24  HO  LIG     1      -5.094   3.356   4.713  1.00  0.00     0.209 HD
ENDBRANCH  22  23
ENDBRANCH  18  22
BRANCH  19  25
HETATM   25  O   LIG     1      -3.339   0.518   5.644  1.00  0.00    -0.390 OA
ATOM     26  HO  LIG     1      -3.632   1.398   5.850  1.00  0.00     0.210 HD
ENDBRANCH  19  25
BRANCH  20  27
HETATM   27  O   LIG     1      -1.648  -1.489   5.435  1.00  0.00    -0.390 OA
ATOM     28  HO  LIG     1      -0.999  -0.989   5.916  1.00  0.00     0.210 HD
ENDBRANCH  20  27
BRANCH  21  29
HETATM   29  O   LIG     1      -4.098  -1.965   4.302  1.00  0.00    -0.390 OA
ATOM     30  HO  LIG     1      -3.748  -2.447   5.042  1.00  0.00     0.210 HD
ENDBRANCH  21  29
ENDBRANCH  14  16
BRANCH  13  31
HETATM   31  O   LIG     1      -4.375   1.040   0.135  1.00  0.00    -0.360 OA
ATOM     32  HO  LIG     1      -4.975   0.700   0.788  1.00  0.00     0.217 HD
ENDBRANCH  13  31
BRANCH  15  33
HETATM   33  O   LIG     1      -1.417  -2.592   1.218  1.00  0.00    -0.363 OA
ATOM     34  HO  LIG     1      -1.919  -2.780   2.002  1.00  0.00     0.217 HD
ENDBRANCH  15  33
TORSDOF 8
