REMARK  0 active torsions:
REMARK  status: ('A' for Active; 'I' for Inactive)
ROOT
HETATM    1  C   LIG     1      -0.612   2.139  -0.595  1.00  0.00     0.011 C 
HETATM    2  C   LIG     1      -0.069   2.097   0.847  1.00  0.00     0.026 C 
HETATM    3  C   LIG     1       1.468   2.338   0.957  1.00  0.00     0.093 C 
HETATM    4  C   LIG     1       2.407   1.260   1.540  1.00  0.00     0.042 C 
HETATM    5  C   LIG     1       2.061   0.759   2.950  1.00  0.00     0.010 C 
HETATM    6  C   LIG     1       1.086  -0.413   3.012  1.00  0.00     0.031 C 
HETATM    7  C   LIG     1       1.316  -1.468   1.940  1.00  0.00     0.273 C 
HETATM    8  C   LIG     1       2.662   0.102   0.575  1.00  0.00     0.234 C 
HETATM    9  C   LIG     1       3.113   0.588  -0.807  1.00  0.00     0.038 C 
HETATM   10  C   LIG     1       3.033  -0.528  -1.858  1.00  0.00     0.010 C 
HETATM   11  C   LIG     1       1.670  -1.208  -1.865  1.00  0.00     0.031 C 
HETATM   12  C   LIG     1       1.376  -1.840  -0.519  1.00  0.00     0.273 C 
HETATM   13  C   LIG     1       2.443   1.869  -1.318  1.00  0.00     0.133 C 
HETATM   14  N   LIG     1       1.996   2.827  -0.311  1.00  0.00    -0.347 N 
HETATM   15  C   LIG     1       1.180   3.873  -0.776  1.00  0.00     0.220 C 
HETATM   16  O   LIG     1       1.376   5.056  -0.491  1.00  0.00    -0.273 OA
HETATM   17  C   LIG     1      -0.114   3.366  -1.379  1.00  0.00     0.103 C 
HETATM   18  N   LIG     1       1.445  -0.806   0.574  1.00  0.00     0.093 N 
ENDROOT
TORSDOF 0
