REMARK  4 active torsions:
REMARK  status: ('A' for Active; 'I' for Inactive)
REMARK    1  A    between atoms: C_3  and  C_4 
REMARK    2  A    between atoms: C_6  and  O_14 
REMARK    3  A    between atoms: C_7  and  O_12 
REMARK    4  A    between atoms: C_9  and  O_10 
ROOT
HETATM    1  C   LIG     1      -0.638   3.168   0.840  1.00  0.00    -0.000 A 
HETATM    2  C   LIG     1      -1.731   3.545   1.639  1.00  0.00     0.054 A 
HETATM    3  C   LIG     1      -1.948   4.879   2.028  1.00  0.00     0.102 A 
HETATM    4  C   LIG     1      -1.063   5.869   1.588  1.00  0.00     0.104 A 
HETATM    5  C   LIG     1       0.044   5.502   0.817  1.00  0.00     0.077 A 
HETATM    6  C   LIG     1       0.286   4.165   0.468  1.00  0.00     0.081 A 
ENDROOT
BRANCH   1   7
HETATM    7  C   LIG     1      -0.438   1.743   0.486  1.00  0.00     0.010 C 
HETATM    8  C   LIG     1      -1.420   0.883   0.188  1.00  0.00    -0.030 C 
HETATM    9  C   LIG     1      -1.197  -0.549  -0.193  1.00  0.00     0.036 C 
ENDBRANCH   1   7
BRANCH   6  10
HETATM   10  O   LIG     1       1.393   3.795  -0.264  1.00  0.00    -0.355 OA
HETATM   11  C   LIG     1       2.552   4.605  -0.063  1.00  0.00     0.210 C 
ENDBRANCH   6  10
BRANCH   3  12
HETATM   12  O   LIG     1      -3.058   5.030   2.819  1.00  0.00    -0.353 OA
HETATM   13  C   LIG     1      -3.392   6.340   3.256  1.00  0.00     0.210 C 
ENDBRANCH   3  12
BRANCH   4  14
HETATM   14  O   LIG     1      -1.226   7.166   1.996  1.00  0.00    -0.353 OA
HETATM   15  C   LIG     1      -0.953   8.166   1.020  1.00  0.00     0.210 C 
ENDBRANCH   4  14
TORSDOF 4
