REMARK  4 active torsions:
REMARK  status: ('A' for Active; 'I' for Inactive)
REMARK    1  A    between atoms: C_7  and  O_45 
REMARK    2  A    between atoms: C_25  and  O_26 
REMARK    3  A    between atoms: C_33  and  O_39 
REMARK    4  A    between atoms: C_34  and  O_37 
ROOT
HETATM    1  C   LIG     1       2.229  -2.547   0.526  1.00  0.00     0.310 C 
HETATM    2  N   LIG     1       2.730  -1.966   1.771  1.00  0.00     0.093 N 
HETATM    3  C   LIG     1       2.347  -0.562   1.930  1.00  0.00     0.277 C 
HETATM    4  C   LIG     1       0.846  -0.371   2.142  1.00  0.00     0.069 C 
HETATM    5  C   LIG     1       0.342  -1.244   3.261  1.00  0.00    -0.045 A 
HETATM    6  C   LIG     1      -0.925  -0.986   3.809  1.00  0.00     0.047 A 
HETATM    7  C   LIG     1      -1.447  -1.775   4.838  1.00  0.00     0.102 A 
HETATM    8  C   LIG     1      -0.646  -2.778   5.394  1.00  0.00     0.110 A 
HETATM    9  C   LIG     1       0.599  -3.081   4.812  1.00  0.00     0.050 A 
HETATM   10  C   LIG     1       1.099  -2.339   3.716  1.00  0.00    -0.016 A 
HETATM   11  C   LIG     1       2.364  -2.787   2.961  1.00  0.00     0.260 C 
HETATM   12  C   LIG     1       3.645  -2.929   3.846  1.00  0.00     0.079 C 
HETATM   13  C   LIG     1       3.831  -4.327   4.402  1.00  0.00    -0.056 C 
HETATM   14  C   LIG     1       3.806  -5.437   3.544  1.00  0.00     0.010 C 
HETATM   15  C   LIG     1       3.735  -6.726   4.060  1.00  0.00     0.038 C 
HETATM   16  C   LIG     1       3.723  -6.907   5.443  1.00  0.00     0.076 C 
HETATM   17  C   LIG     1       3.937  -5.834   6.304  1.00  0.00     0.038 C 
HETATM   18  C   LIG     1       3.977  -4.537   5.784  1.00  0.00     0.010 C 
HETATM   19  O   LIG     1       3.343  -8.119   5.959  1.00  0.00    -0.308 OA
HETATM   20  C   LIG     1       2.000  -8.389   5.771  1.00  0.00     0.109 A 
HETATM   21  C   LIG     1       1.052  -7.483   6.288  1.00  0.00     0.047 A 
HETATM   22  C   LIG     1      -0.281  -7.575   5.909  1.00  0.00    -0.053 A 
HETATM   23  C   LIG     1      -0.680  -8.648   5.105  1.00  0.00     0.010 A 
HETATM   24  C   LIG     1       0.240  -9.604   4.671  1.00  0.00     0.040 A 
HETATM   25  C   LIG     1       1.595  -9.463   4.960  1.00  0.00     0.102 A 
HETATM   26  C   LIG     1      -1.266  -6.453   6.172  1.00  0.00     0.079 C 
HETATM   27  C   LIG     1      -1.686  -6.078   7.626  1.00  0.00     0.263 C 
HETATM   28  C   LIG     1      -0.894  -4.921   8.303  1.00  0.00     0.018 A 
HETATM   29  C   LIG     1      -0.616  -5.000   9.682  1.00  0.00    -0.042 A 
HETATM   30  C   LIG     1      -0.010  -3.937  10.360  1.00  0.00     0.047 A 
HETATM   31  C   LIG     1       0.242  -2.720   9.729  1.00  0.00     0.104 A 
HETATM   32  C   LIG     1      -0.070  -2.569   8.361  1.00  0.00     0.136 A 
HETATM   33  C   LIG     1      -0.625  -3.677   7.650  1.00  0.00     0.121 A 
HETATM   34  O   LIG     1      -1.170  -3.584   6.376  1.00  0.00    -0.304 OA
HETATM   35  C   LIG     1      -1.007  -6.205  10.494  1.00  0.00     0.069 C 
HETATM   36  C   LIG     1      -2.181  -6.931   9.862  1.00  0.00     0.277 C 
HETATM   37  N   LIG     1      -1.844  -7.298   8.484  1.00  0.00     0.093 N 
HETATM   38  C   LIG     1      -2.860  -8.226   7.986  1.00  0.00     0.310 C 
ENDROOT
BRANCH   7  39
HETATM   39  O   LIG     1      -2.725  -1.434   5.200  1.00  0.00    -0.353 OA
HETATM   40  C   LIG     1      -3.555  -2.480   5.693  1.00  0.00     0.210 C 
ENDBRANCH   7  39
BRANCH  32  41
HETATM   41  O   LIG     1       0.062  -1.402   7.648  1.00  0.00    -0.351 OA
HETATM   42  C   LIG     1       0.413  -0.197   8.312  1.00  0.00     0.210 C 
ENDBRANCH  32  41
BRANCH  31  43
HETATM   43  O   LIG     1       0.828  -1.694  10.428  1.00  0.00    -0.353 OA
HETATM   44  C   LIG     1       0.426  -1.533  11.787  1.00  0.00     0.210 C 
ENDBRANCH  31  43
BRANCH  25  45
HETATM   45  O   LIG     1       2.558 -10.306   4.471  1.00  0.00    -0.353 OA
HETATM   46  C   LIG     1       2.213 -10.978   3.247  1.00  0.00     0.210 C 
ENDBRANCH  25  45
TORSDOF 4
