REMARK  10 active torsions:
REMARK  status: ('A' for Active; 'I' for Inactive)
REMARK    1  A    between atoms: C_5  and  O_9 
REMARK    2  A    between atoms: C_6  and  O_7 
REMARK    3  A    between atoms: C_14  and  O_37 
REMARK    4  A    between atoms: C_15  and  C_22 
REMARK    5  A    between atoms: C_16  and  O_20 
REMARK    6  A    between atoms: C_23  and  O_35 
REMARK    7  A    between atoms: C_24  and  O_33 
REMARK    8  A    between atoms: C_25  and  O_31 
REMARK    9  A    between atoms: C_26  and  C_28 
REMARK   10  A    between atoms: C_28  and  O_29 
ROOT
HETATM    1  C   LIG     1      -3.516   0.841   0.180  1.00  0.00     0.057 A 
HETATM    2  C   LIG     1      -2.205   0.355   0.210  1.00  0.00     0.052 A 
HETATM    3  C   LIG     1      -1.943  -1.017   0.163  1.00  0.00     0.093 A 
HETATM    4  C   LIG     1      -3.003  -1.919   0.071  1.00  0.00     0.077 A 
HETATM    5  C   LIG     1      -4.305  -1.435   0.024  1.00  0.00     0.101 A 
HETATM    6  C   LIG     1      -4.560  -0.067   0.103  1.00  0.00     0.099 A 
HETATM    7  O   LIG     1      -0.678  -1.551   0.195  1.00  0.00    -0.309 OA
HETATM    8  C   LIG     1       0.394  -0.693   0.245  1.00  0.00     0.095 A 
HETATM    9  C   LIG     1       1.660  -1.277   0.244  1.00  0.00     0.075 A 
HETATM   10  C   LIG     1       2.803  -0.470   0.283  1.00  0.00     0.080 A 
HETATM   11  C   LIG     1       2.717   0.932   0.322  1.00  0.00     0.041 A 
HETATM   12  C   LIG     1       1.429   1.498   0.334  1.00  0.00     0.094 A 
HETATM   13  C   LIG     1       0.279   0.692   0.294  1.00  0.00     0.083 A 
HETATM   14  C   LIG     1      -1.070   1.275   0.298  1.00  0.00     0.200 A 
HETATM   15  O   LIG     1      -1.222   2.494   0.368  1.00  0.00    -0.286 OA
ENDROOT
BRANCH  11  16
HETATM   16  C   LIG     1       3.975   1.796   0.346  1.00  0.00     0.192 C 
HETATM   17  O   LIG     1       3.914   2.586   1.546  1.00  0.00    -0.368 OA
HETATM   18  C   LIG     1       5.054   3.446   1.722  1.00  0.00     0.177 C 
HETATM   19  C   LIG     1       5.301   4.377   0.517  1.00  0.00     0.180 C 
HETATM   20  C   LIG     1       4.243   4.179  -0.575  1.00  0.00     0.181 C 
HETATM   21  C   LIG     1       4.117   2.680  -0.927  1.00  0.00     0.183 C 
BRANCH  18  22
HETATM   22  C   LIG     1       4.764   4.257   2.990  1.00  0.00     0.198 C 
BRANCH  22  23
HETATM   23  O   LIG     1       4.568   3.364   4.088  1.00  0.00    -0.398 OA
ATOM     24  HO  LIG     1       4.388   3.867   4.874  1.00  0.00     0.209 HD
ENDBRANCH  22  23
ENDBRANCH  18  22
BRANCH  19  25
HETATM   25  O   LIG     1       6.592   4.076  -0.045  1.00  0.00    -0.390 OA
ATOM     26  HO  LIG     1       7.248   4.199   0.632  1.00  0.00     0.210 HD
ENDBRANCH  19  25
BRANCH  20  27
HETATM   27  O   LIG     1       3.018   4.778  -0.157  1.00  0.00    -0.390 OA
ATOM     28  HO  LIG     1       3.095   5.700   0.059  1.00  0.00     0.210 HD
ENDBRANCH  20  27
BRANCH  21  29
HETATM   29  O   LIG     1       5.281   2.259  -1.670  1.00  0.00    -0.390 OA
ATOM     30  HO  LIG     1       5.368   2.799  -2.447  1.00  0.00     0.210 HD
ENDBRANCH  21  29
ENDBRANCH  11  16
BRANCH  10  31
HETATM   31  O   LIG     1       4.035  -1.062   0.285  1.00  0.00    -0.360 OA
ATOM     32  HO  LIG     1       4.811  -0.514   0.311  1.00  0.00     0.217 HD
ENDBRANCH  10  31
BRANCH  12  33
HETATM   33  O   LIG     1       1.318   2.866   0.382  1.00  0.00    -0.359 OA
ATOM     34  HO  LIG     1       0.448   3.248   0.390  1.00  0.00     0.217 HD
ENDBRANCH  12  33
BRANCH   6  35
HETATM   35  O   LIG     1      -5.842   0.397   0.132  1.00  0.00    -0.358 OA
ATOM     36  HO  LIG     1      -6.558  -0.225   0.079  1.00  0.00     0.217 HD
ENDBRANCH   6  35
BRANCH   5  37
HETATM   37  O   LIG     1      -5.330  -2.322  -0.132  1.00  0.00    -0.358 OA
ATOM     38  HO  LIG     1      -6.220  -1.991  -0.164  1.00  0.00     0.217 HD
ENDBRANCH   5  37
TORSDOF 10
