REMARK  2 active torsions:
REMARK  status: ('A' for Active; 'I' for Inactive)
REMARK    1  A    between atoms: C_5  and  C_33 
REMARK    2  A    between atoms: C_16  and  O_29 
ROOT
HETATM    1  C   LIG     1      -1.823   0.186   1.955  1.00  0.00     0.016 C 
HETATM    2  C   LIG     1      -2.351   0.274   0.501  1.00  0.00    -0.036 C 
HETATM    3  C   LIG     1      -2.951   1.684   0.269  1.00  0.00     0.011 C 
HETATM    4  C   LIG     1      -1.901   2.797   0.231  1.00  0.00     0.021 C 
HETATM    5  C   LIG     1      -0.795   2.517  -0.798  1.00  0.00     0.045 C 
HETATM    6  C   LIG     1      -0.174   1.126  -0.549  1.00  0.00     0.030 C 
HETATM    7  C   LIG     1      -1.235  -0.005  -0.545  1.00  0.00     0.025 C 
HETATM    8  C   LIG     1      -0.701  -1.452  -0.440  1.00  0.00    -0.062 C 
HETATM    9  C   LIG     1       0.618  -1.713  -0.384  1.00  0.00     0.054 C 
HETATM   10  C   LIG     1       1.181  -3.083  -0.443  1.00  0.00     0.155 C 
HETATM   11  O   LIG     1       2.390  -3.219  -0.271  1.00  0.00    -0.293 OA
HETATM   12  C   LIG     1       0.229  -4.230  -0.794  1.00  0.00     0.077 C 
HETATM   13  C   LIG     1       0.867  -5.689  -0.750  1.00  0.00    -0.028 C 
HETATM   14  C   LIG     1       1.986  -5.787  -1.837  1.00  0.00     0.013 C 
HETATM   15  C   LIG     1       2.485  -7.210  -2.112  1.00  0.00     0.033 C 
HETATM   16  C   LIG     1       1.363  -8.187  -2.455  1.00  0.00     0.126 C 
HETATM   17  C   LIG     1       0.191  -8.187  -1.430  1.00  0.00    -0.017 C 
HETATM   18  C   LIG     1      -0.267  -6.707  -1.151  1.00  0.00     0.005 C 
HETATM   19  C   LIG     1      -1.484  -6.574  -0.213  1.00  0.00     0.007 C 
HETATM   20  C   LIG     1      -2.102  -5.180  -0.339  1.00  0.00     0.011 C 
HETATM   21  C   LIG     1      -1.129  -4.009  -0.028  1.00  0.00    -0.021 C 
HETATM   22  C   LIG     1      -1.766  -2.576  -0.490  1.00  0.00    -0.012 C 
HETATM   23  C   LIG     1      -2.986  -2.208   0.416  1.00  0.00     0.015 C 
HETATM   24  C   LIG     1      -3.480  -0.765   0.291  1.00  0.00     0.011 C 
HETATM   25  C   LIG     1      -2.291  -2.631  -1.959  1.00  0.00     0.021 C 
HETATM   26  C   LIG     1      -0.895  -4.015   1.515  1.00  0.00     0.017 C 
HETATM   27  C   LIG     1      -0.986  -8.995  -2.044  1.00  0.00     0.018 C 
HETATM   28  C   LIG     1       0.618  -8.952  -0.161  1.00  0.00     0.018 C 
HETATM   29  C   LIG     1       1.508  -5.999   0.628  1.00  0.00     0.016 C 
HETATM   30  C   LIG     1       0.297   3.594  -0.689  1.00  0.00     0.027 C 
ENDROOT
BRANCH   5  31
HETATM   31  C   LIG     1      -1.296   2.695  -2.266  1.00  0.00     0.181 C 
HETATM   32  O   LIG     1      -0.730   1.969  -3.131  1.00  0.00    -0.647 OA
HETATM   33  O   LIG     1      -2.210   3.552  -2.435  1.00  0.00    -0.647 OA
ENDBRANCH   5  31
BRANCH  16  34
HETATM   34  O   LIG     1       0.895  -7.899  -3.777  1.00  0.00    -0.395 OA
ATOM     35  HO  LIG     1       0.197  -8.507  -3.990  1.00  0.00     0.210 HD
ENDBRANCH  16  34
TORSDOF 2
