REMARK  9 active torsions:
REMARK  status: ('A' for Active; 'I' for Inactive)
REMARK    1  A    between atoms: C_4  and  C_7 
REMARK    2  A    between atoms: C_15  and  O_22 
REMARK    3  A    between atoms: C_16  and  O_20 
REMARK    4  A    between atoms: C_17  and  O_18 
REMARK    5  A    between atoms: O_22  and  C_23 
REMARK    6  A    between atoms: C_24  and  O_36 
REMARK    7  A    between atoms: C_25  and  O_34 
REMARK    8  A    between atoms: C_26  and  O_32 
REMARK    9  A    between atoms: C_27  and  C_29 
ROOT
HETATM    1  C   LIG     1       1.217  -1.258  -2.013  1.00  0.00     0.090 A 
HETATM    2  C   LIG     1       1.232  -2.601  -2.027  1.00  0.00     0.094 A 
HETATM    3  C   LIG     1       2.226  -3.310  -1.211  1.00  0.00     0.190 A 
HETATM    4  O   LIG     1       2.253  -4.542  -1.149  1.00  0.00    -0.287 OA
HETATM    5  C   LIG     1       3.197  -2.498  -0.476  1.00  0.00     0.084 A 
HETATM    6  C   LIG     1       3.088  -1.112  -0.551  1.00  0.00     0.096 A 
HETATM    7  O   LIG     1       2.078  -0.488  -1.241  1.00  0.00    -0.309 OA
HETATM    8  C   LIG     1       4.041  -0.292   0.063  1.00  0.00     0.078 C 
HETATM    9  C   LIG     1       5.143  -0.864   0.703  1.00  0.00     0.110 C 
HETATM   10  C   LIG     1       5.189  -2.254   0.855  1.00  0.00     0.134 C 
HETATM   11  C   LIG     1       4.229  -3.074   0.262  1.00  0.00     0.118 C 
ENDROOT
BRANCH   9  12
HETATM   12  O   LIG     1       6.227  -0.168   1.157  1.00  0.00    -0.315 OA
BRANCH  12  13
HETATM   13  C   LIG     1       6.611   1.039   0.473  1.00  0.00     0.299 C 
HETATM   14  O   LIG     1       6.370   1.095  -0.937  1.00  0.00    -0.340 OA
HETATM   15  C   LIG     1       7.146   0.166  -1.730  1.00  0.00     0.256 C 
HETATM   16  C   LIG     1       8.647   0.386  -1.531  1.00  0.00     0.189 C 
HETATM   17  C   LIG     1       8.976   0.319  -0.034  1.00  0.00     0.183 C 
HETATM   18  C   LIG     1       8.106   1.310   0.763  1.00  0.00     0.205 C 
BRANCH  15  19
HETATM   19  C   LIG     1       6.747   0.306  -3.225  1.00  0.00     0.206 C 
HETATM   20  O   LIG     1       5.544   0.029  -3.500  1.00  0.00    -0.646 OA
HETATM   21  O   LIG     1       7.680   0.674  -4.004  1.00  0.00    -0.646 OA
ENDBRANCH  15  19
BRANCH  16  22
HETATM   22  O   LIG     1       9.054   1.694  -2.005  1.00  0.00    -0.390 OA
ATOM     23  HO  LIG     1       8.850   1.735  -2.932  1.00  0.00     0.210 HD
ENDBRANCH  16  22
BRANCH  17  24
HETATM   24  O   LIG     1      10.367   0.627   0.158  1.00  0.00    -0.390 OA
ATOM     25  HO  LIG     1      10.903   0.016  -0.333  1.00  0.00     0.210 HD
ENDBRANCH  17  24
BRANCH  18  26
HETATM   26  O   LIG     1       8.448   2.670   0.414  1.00  0.00    -0.388 OA
ATOM     27  HO  LIG     1       9.366   2.836   0.592  1.00  0.00     0.210 HD
ENDBRANCH  18  26
ENDBRANCH  12  13
ENDBRANCH   9  12
BRANCH  10  28
HETATM   28  O   LIG     1       6.214  -2.843   1.553  1.00  0.00    -0.356 OA
ATOM     29  HO  LIG     1       6.245  -3.787   1.656  1.00  0.00     0.218 HD
ENDBRANCH  10  28
BRANCH  11  30
HETATM   30  O   LIG     1       4.385  -4.431   0.417  1.00  0.00    -0.357 OA
ATOM     31  HO  LIG     1       5.089  -4.824   0.920  1.00  0.00     0.217 HD
ENDBRANCH  11  30
BRANCH   1  32
HETATM   32  C   LIG     1       0.236  -0.464  -2.793  1.00  0.00    -0.002 A 
HETATM   33  C   LIG     1      -0.179   0.792  -2.319  1.00  0.00     0.014 A 
HETATM   34  C   LIG     1      -1.108   1.563  -3.023  1.00  0.00     0.001 A 
HETATM   35  C   LIG     1      -1.636   1.096  -4.222  1.00  0.00     0.000 A 
HETATM   36  C   LIG     1      -1.219  -0.134  -4.726  1.00  0.00     0.001 A 
HETATM   37  C   LIG     1      -0.286  -0.904  -4.021  1.00  0.00     0.014 A 
ENDBRANCH   1  32
TORSDOF 9
