REMARK  8 active torsions:
REMARK  status: ('A' for Active; 'I' for Inactive)
REMARK    1  A    between atoms: C_2  and  C_3 
REMARK    2  A    between atoms: C_2  and  O_18 
REMARK    3  A    between atoms: C_3  and  C_4 
REMARK    4  A    between atoms: C_4  and  C_6 
REMARK    5  A    between atoms: C_6  and  C_7 
REMARK    6  A    between atoms: C_7  and  C_8 
REMARK    7  A    between atoms: C_11  and  O_16 
REMARK    8  A    between atoms: C_12  and  O_14 
ROOT
HETATM    1  C   LIG     1      -1.633  -2.403   1.427  1.00  0.00    -0.055 A 
HETATM    2  C   LIG     1      -1.269  -3.197   2.519  1.00  0.00     0.010 A 
HETATM    3  C   LIG     1      -1.234  -4.588   2.401  1.00  0.00     0.040 A 
HETATM    4  C   LIG     1      -1.574  -5.203   1.193  1.00  0.00     0.099 A 
HETATM    5  C   LIG     1      -1.960  -4.430   0.094  1.00  0.00     0.101 A 
HETATM    6  C   LIG     1      -1.973  -3.034   0.220  1.00  0.00     0.046 A 
ENDROOT
BRANCH   1   7
HETATM    7  C   LIG     1      -1.679  -0.898   1.554  1.00  0.00     0.046 C 
BRANCH   7   8
HETATM    8  C   LIG     1      -0.720  -0.204   0.587  1.00  0.00     0.083 C 
BRANCH   8   9
HETATM    9  C   LIG     1      -0.733   1.305   0.747  1.00  0.00     0.129 C 
HETATM   10  O   LIG     1      -1.437   1.868   1.579  1.00  0.00    -0.298 OA
BRANCH   9  11
HETATM   11  C   LIG     1       0.220   2.086  -0.143  1.00  0.00     0.109 C 
BRANCH  11  12
HETATM   12  C   LIG     1      -0.481   3.051  -1.091  1.00  0.00     0.121 C 
HETATM   13  C   LIG     1      -1.317   4.121  -0.403  1.00  0.00     0.040 C 
BRANCH  12  14
HETATM   14  O   LIG     1      -1.287   2.308  -2.004  1.00  0.00    -0.396 OA
ATOM     15  HO  LIG     1      -0.765   1.640  -2.433  1.00  0.00     0.210 HD
ENDBRANCH  12  14
ENDBRANCH  11  12
ENDBRANCH   9  11
ENDBRANCH   8   9
ENDBRANCH   7   8
ENDBRANCH   1   7
BRANCH   5  16
HETATM   16  O   LIG     1      -2.302  -4.873  -1.156  1.00  0.00    -0.353 OA
HETATM   17  C   LIG     1      -2.868  -6.176  -1.233  1.00  0.00     0.210 C 
ENDBRANCH   5  16
BRANCH   4  18
HETATM   18  O   LIG     1      -1.499  -6.565   1.112  1.00  0.00    -0.358 OA
ATOM     19  HO  LIG     1      -1.730  -6.983   0.291  1.00  0.00     0.217 HD
ENDBRANCH   4  18
TORSDOF 8
