REMARK  5 active torsions:
REMARK  status: ('A' for Active; 'I' for Inactive)
REMARK    1  A    between atoms: O_2  and  C_3 
REMARK    2  A    between atoms: C_5  and  C_13 
REMARK    3  A    between atoms: C_7  and  O_11 
REMARK    4  A    between atoms: C_8  and  O_9 
REMARK    5  A    between atoms: C_14  and  C_15 
REMARK       I    between atoms: C_15  and  N_17 
ROOT
HETATM    1  C   LIG     1       0.928  -1.501   1.461  1.00  0.00     0.105 C 
HETATM    2  C   LIG     1       1.800  -1.865   2.497  1.00  0.00     0.051 C 
HETATM    3  C   LIG     1       1.880  -3.194   2.917  1.00  0.00    -0.031 C 
HETATM    4  C   LIG     1       1.083  -4.155   2.272  1.00  0.00     0.051 C 
HETATM    5  C   LIG     1       0.291  -3.835   1.166  1.00  0.00     0.105 C 
HETATM    6  C   LIG     1       0.170  -2.489   0.788  1.00  0.00     0.135 C 
ENDROOT
BRANCH   3   7
HETATM    7  C   LIG     1       2.775  -3.570   4.029  1.00  0.00     0.017 C 
HETATM    8  C   LIG     1       3.333  -4.789   4.072  1.00  0.00     0.075 C 
BRANCH   8   9
HETATM    9  C   LIG     1       4.258  -5.244   5.149  1.00  0.00     0.250 C 
HETATM   10  O   LIG     1       4.622  -4.439   5.993  1.00  0.00    -0.268 OA
HETATM   11  N   LIG     1       4.693  -6.598   5.129  1.00  0.00    -0.285 N 
HETATM   12  C   LIG     1       4.326  -7.597   4.201  1.00  0.00     0.226 C 
HETATM   13  C   LIG     1       5.776  -6.850   6.086  1.00  0.00     0.135 C 
HETATM   14  C   LIG     1       4.732  -9.016   4.513  1.00  0.00     0.103 C 
HETATM   15  O   LIG     1       3.621  -7.431   3.201  1.00  0.00    -0.273 OA
HETATM   16  C   LIG     1       6.076  -9.137   5.189  1.00  0.00     0.011 C 
HETATM   17  C   LIG     1       6.033  -8.302   6.446  1.00  0.00     0.021 C 
ENDBRANCH   8   9
ENDBRANCH   3   7
BRANCH   1  18
HETATM   18  O   LIG     1       0.725  -0.208   1.038  1.00  0.00    -0.353 OA
HETATM   19  C   LIG     1       1.438   0.831   1.689  1.00  0.00     0.210 C 
ENDBRANCH   1  18
BRANCH   5  20
HETATM   20  O   LIG     1      -0.388  -4.793   0.461  1.00  0.00    -0.353 OA
HETATM   21  C   LIG     1       0.178  -6.101   0.397  1.00  0.00     0.210 C 
ENDBRANCH   5  20
BRANCH   6  22
HETATM   22  O   LIG     1      -0.595  -2.023  -0.256  1.00  0.00    -0.351 OA
HETATM   23  C   LIG     1      -1.806  -2.710  -0.538  1.00  0.00     0.210 C 
ENDBRANCH   6  22
TORSDOF 5
