REMARK  12 active torsions:
REMARK  status: ('A' for Active; 'I' for Inactive)
REMARK    1  A    between atoms: C_2  and  C_3 
REMARK    2  A    between atoms: C_3  and  C_4 
REMARK    3  A    between atoms: C_4  and  C_5 
REMARK    4  A    between atoms: C_5  and  C_6 
REMARK    5  A    between atoms: C_6  and  C_7 
REMARK    6  A    between atoms: C_6  and  O_22 
REMARK    7  A    between atoms: C_7  and  C_8 
REMARK    8  A    between atoms: C_8  and  C_10 
REMARK    9  A    between atoms: C_10  and  C_11 
REMARK   10  A    between atoms: C_11  and  C_12 
REMARK   11  A    between atoms: C_15  and  O_20 
REMARK   12  A    between atoms: C_16  and  O_18 
ROOT
HETATM    1  C   LIG     1      -3.543   0.689   1.869  1.00  0.00     0.083 C 
ENDROOT
BRANCH   1   2
HETATM    2  C   LIG     1      -3.992  -0.773   1.914  1.00  0.00     0.129 C 
HETATM    3  O   LIG     1      -4.934  -1.160   1.233  1.00  0.00    -0.298 OA
BRANCH   2   4
HETATM    4  C   LIG     1      -3.202  -1.727   2.818  1.00  0.00     0.110 C 
BRANCH   4   5
HETATM    5  C   LIG     1      -3.730  -3.171   2.746  1.00  0.00     0.125 C 
BRANCH   5   6
HETATM    6  C   LIG     1      -3.004  -4.111   3.727  1.00  0.00     0.032 C 
BRANCH   6   7
HETATM    7  C   LIG     1      -3.423  -5.598   3.652  1.00  0.00     0.002 C 
BRANCH   7   8
HETATM    8  C   LIG     1      -4.884  -5.872   4.036  1.00  0.00    -0.000 C 
BRANCH   8   9
HETATM    9  C   LIG     1      -5.310  -7.346   3.931  1.00  0.00    -0.005 C 
HETATM   10  C   LIG     1      -4.548  -8.290   4.851  1.00  0.00     0.005 C 
ENDBRANCH   8   9
ENDBRANCH   7   8
ENDBRANCH   6   7
ENDBRANCH   5   6
BRANCH   5  11
HETATM   11  O   LIG     1      -3.531  -3.676   1.427  1.00  0.00    -0.395 OA
ATOM     12  HO  LIG     1      -3.979  -3.096   0.822  1.00  0.00     0.210 HD
ENDBRANCH   5  11
ENDBRANCH   4   5
ENDBRANCH   2   4
ENDBRANCH   1   2
BRANCH   1  13
HETATM   13  C   LIG     1      -4.276   1.636   2.821  1.00  0.00     0.046 C 
BRANCH  13  14
HETATM   14  C   LIG     1      -4.136   1.309   4.288  1.00  0.00    -0.055 A 
HETATM   15  C   LIG     1      -5.046   0.421   4.887  1.00  0.00     0.046 A 
HETATM   16  C   LIG     1      -4.929   0.079   6.234  1.00  0.00     0.101 A 
HETATM   17  C   LIG     1      -3.925   0.677   6.998  1.00  0.00     0.099 A 
HETATM   18  C   LIG     1      -3.023   1.569   6.432  1.00  0.00     0.040 A 
HETATM   19  C   LIG     1      -3.121   1.878   5.072  1.00  0.00     0.010 A 
BRANCH  16  20
HETATM   20  O   LIG     1      -5.750  -0.795   6.898  1.00  0.00    -0.353 OA
HETATM   21  C   LIG     1      -6.323  -1.818   6.086  1.00  0.00     0.210 C 
ENDBRANCH  16  20
BRANCH  17  22
HETATM   22  O   LIG     1      -3.797   0.377   8.327  1.00  0.00    -0.358 OA
ATOM     23  HO  LIG     1      -4.414  -0.233   8.714  1.00  0.00     0.217 HD
ENDBRANCH  17  22
ENDBRANCH  13  14
ENDBRANCH   1  13
TORSDOF 12
