REMARK  15 active torsions:
REMARK  status: ('A' for Active; 'I' for Inactive)
REMARK    1  A    between atoms: C_3  and  O_50 
REMARK    2  A    between atoms: C_4  and  O_48 
REMARK    3  A    between atoms: C_5  and  O_46 
REMARK    4  A    between atoms: C_6  and  O_8 
REMARK    5  A    between atoms: O_8  and  C_9 
REMARK    6  A    between atoms: C_9  and  C_10 
REMARK    7  A    between atoms: C_11  and  O_44 
REMARK    8  A    between atoms: C_12  and  O_42 
REMARK    9  A    between atoms: C_13  and  O_40 
REMARK   10  A    between atoms: C_14  and  O_16 
REMARK   11  A    between atoms: O_16  and  C_17 
REMARK   12  A    between atoms: C_19  and  O_38 
REMARK   13  A    between atoms: C_24  and  C_28 
REMARK   14  A    between atoms: C_31  and  O_36 
REMARK   15  A    between atoms: C_32  and  O_34 
ROOT
HETATM    1  C   LIG     1       0.479  -2.908  -1.952  1.00  0.00     0.180 C 
HETATM    2  C   LIG     1      -0.843  -3.685  -1.987  1.00  0.00     0.180 C 
HETATM    3  C   LIG     1      -1.918  -2.919  -1.200  1.00  0.00     0.183 C 
HETATM    4  C   LIG     1      -2.040  -1.463  -1.683  1.00  0.00     0.205 C 
HETATM    5  C   LIG     1      -0.654  -0.782  -1.634  1.00  0.00     0.298 C 
HETATM    6  O   LIG     1       0.299  -1.542  -2.396  1.00  0.00    -0.348 OA
ENDROOT
BRANCH   5   7
HETATM    7  O   LIG     1      -0.757   0.556  -2.177  1.00  0.00    -0.318 OA
BRANCH   7   8
HETATM    8  C   LIG     1      -0.456   1.649  -1.409  1.00  0.00     0.077 A 
HETATM    9  C   LIG     1      -0.531   2.909  -2.034  1.00  0.00     0.074 A 
HETATM   10  C   LIG     1      -0.243   4.091  -1.326  1.00  0.00     0.089 A 
HETATM   11  C   LIG     1       0.155   3.998   0.023  1.00  0.00     0.076 A 
HETATM   12  O   LIG     1      -0.331   5.282  -1.982  1.00  0.00    -0.340 OA
HETATM   13  C   LIG     1       0.199   2.765   0.635  1.00  0.00     0.085 A 
HETATM   14  C   LIG     1       0.565   5.224   0.711  1.00  0.00     0.167 C 
HETATM   15  C   LIG     1      -0.096   1.604  -0.063  1.00  0.00     0.074 A 
HETATM   16  C   LIG     1       0.599   6.492  -0.052  1.00  0.00     0.121 C 
HETATM   17  O   LIG     1       0.939   5.156   1.891  1.00  0.00    -0.292 OA
HETATM   18  C   LIG     1      -0.493   6.422  -1.108  1.00  0.00     0.169 C 
BRANCH  13  19
HETATM   19  O   LIG     1       0.548   2.604   1.951  1.00  0.00    -0.360 OA
ATOM     20  HO  LIG     1       0.750   3.400   2.429  1.00  0.00     0.217 HD
ENDBRANCH  13  19
BRANCH  18  21
HETATM   21  C   LIG     1      -0.469   7.691  -1.935  1.00  0.00    -0.026 A 
HETATM   22  C   LIG     1      -1.165   8.827  -1.500  1.00  0.00     0.049 A 
HETATM   23  C   LIG     1      -1.153   9.978  -2.279  1.00  0.00     0.099 A 
HETATM   24  C   LIG     1      -0.448  10.039  -3.486  1.00  0.00     0.101 A 
HETATM   25  C   LIG     1       0.276   8.923  -3.900  1.00  0.00     0.040 A 
HETATM   26  C   LIG     1       0.271   7.762  -3.125  1.00  0.00     0.012 A 
BRANCH  23  27
HETATM   27  O   LIG     1      -1.858  11.065  -1.835  1.00  0.00    -0.358 OA
ATOM     28  HO  LIG     1      -2.337  11.024  -1.015  1.00  0.00     0.217 HD
ENDBRANCH  23  27
BRANCH  24  29
HETATM   29  O   LIG     1      -0.540  11.231  -4.156  1.00  0.00    -0.353 OA
HETATM   30  C   LIG     1       0.151  11.299  -5.399  1.00  0.00     0.210 C 
ENDBRANCH  24  29
ENDBRANCH  18  21
ENDBRANCH   7   8
ENDBRANCH   5   7
BRANCH   4  31
HETATM   31  O   LIG     1      -2.596  -1.482  -3.013  1.00  0.00    -0.388 OA
ATOM     32  HO  LIG     1      -2.671  -0.583  -3.311  1.00  0.00     0.210 HD
ENDBRANCH   4  31
BRANCH   3  33
HETATM   33  O   LIG     1      -3.175  -3.591  -1.361  1.00  0.00    -0.390 OA
ATOM     34  HO  LIG     1      -3.840  -3.117  -0.875  1.00  0.00     0.210 HD
ENDBRANCH   3  33
BRANCH   1  35
HETATM   35  C   LIG     1       1.520  -3.537  -2.894  1.00  0.00     0.205 C 
BRANCH  35  36
HETATM   36  O   LIG     1       1.834  -4.891  -2.562  1.00  0.00    -0.356 OA
BRANCH  36  37
HETATM   37  C   LIG     1       2.733  -5.496  -3.511  1.00  0.00     0.291 C 
HETATM   38  C   LIG     1       4.126  -4.829  -3.444  1.00  0.00     0.204 C 
HETATM   39  C   LIG     1       5.112  -5.543  -4.358  1.00  0.00     0.183 C 
HETATM   40  C   LIG     1       5.166  -7.033  -4.024  1.00  0.00     0.178 C 
HETATM   41  C   LIG     1       3.748  -7.624  -4.033  1.00  0.00     0.152 C 
HETATM   42  C   LIG     1       3.779  -9.066  -3.529  1.00  0.00     0.042 C 
HETATM   43  O   LIG     1       2.861  -6.883  -3.168  1.00  0.00    -0.351 OA
BRANCH  38  44
HETATM   44  O   LIG     1       4.671  -4.885  -2.104  1.00  0.00    -0.388 OA
ATOM     45  HO  LIG     1       4.056  -4.439  -1.534  1.00  0.00     0.210 HD
ENDBRANCH  38  44
BRANCH  39  46
HETATM   46  O   LIG     1       6.425  -4.989  -4.165  1.00  0.00    -0.390 OA
ATOM     47  HO  LIG     1       6.391  -4.063  -4.373  1.00  0.00     0.210 HD
ENDBRANCH  39  46
BRANCH  40  48
HETATM   48  O   LIG     1       6.034  -7.680  -4.959  1.00  0.00    -0.390 OA
ATOM     49  HO  LIG     1       6.911  -7.315  -4.953  1.00  0.00     0.210 HD
ENDBRANCH  40  48
ENDBRANCH  36  37
ENDBRANCH  35  36
ENDBRANCH   1  35
BRANCH   2  50
HETATM   50  O   LIG     1      -1.266  -3.841  -3.353  1.00  0.00    -0.390 OA
ATOM     51  HO  LIG     1      -2.085  -4.322  -3.375  1.00  0.00     0.210 HD
ENDBRANCH   2  50
TORSDOF 15
