REMARK  4 active torsions:
REMARK  status: ('A' for Active; 'I' for Inactive)
REMARK    1  A    between atoms: C_3  and  C_4 
REMARK    2  A    between atoms: C_6  and  O_14 
REMARK    3  A    between atoms: C_7  and  O_12 
REMARK    4  A    between atoms: C_9  and  O_10 
ROOT
HETATM    1  C   LIG     1      -0.732   2.115   1.379  1.00  0.00    -0.000 A 
HETATM    2  C   LIG     1       0.140   2.727   0.463  1.00  0.00     0.054 A 
HETATM    3  C   LIG     1      -0.057   4.047   0.019  1.00  0.00     0.102 A 
HETATM    4  C   LIG     1      -1.151   4.777   0.507  1.00  0.00     0.104 A 
HETATM    5  C   LIG     1      -2.033   4.161   1.404  1.00  0.00     0.077 A 
HETATM    6  C   LIG     1      -1.841   2.845   1.840  1.00  0.00     0.081 A 
ENDROOT
BRANCH   1   7
HETATM    7  C   LIG     1      -0.449   0.750   1.851  1.00  0.00     0.010 C 
HETATM    8  C   LIG     1      -0.816  -0.406   1.284  1.00  0.00    -0.030 C 
HETATM    9  C   LIG     1      -1.580  -0.608   0.021  1.00  0.00     0.036 C 
ENDBRANCH   1   7
BRANCH   6  10
HETATM   10  O   LIG     1      -2.676   2.237   2.748  1.00  0.00    -0.355 OA
HETATM   11  C   LIG     1      -4.027   2.694   2.730  1.00  0.00     0.210 C 
ENDBRANCH   6  10
BRANCH   3  12
HETATM   12  O   LIG     1       0.905   4.460  -0.868  1.00  0.00    -0.353 OA
HETATM   13  C   LIG     1       0.879   5.808  -1.318  1.00  0.00     0.210 C 
ENDBRANCH   3  12
BRANCH   4  14
HETATM   14  O   LIG     1      -1.376   6.051   0.055  1.00  0.00    -0.353 OA
HETATM   15  C   LIG     1      -2.016   6.946   0.960  1.00  0.00     0.210 C 
ENDBRANCH   4  14
TORSDOF 4
