REMARK  3 active torsions:
REMARK  status: ('A' for Active; 'I' for Inactive)
REMARK    1  A    between atoms: O_2  and  C_3 
REMARK    2  A    between atoms: C_8  and  C_9 
REMARK    3  A    between atoms: C_9  and  O_10 
ROOT
HETATM    1  C   LIG     1       0.464  -2.302  -2.038  1.00  0.00     0.076 A 
HETATM    2  C   LIG     1       0.734  -1.148  -2.779  1.00  0.00     0.037 A 
HETATM    3  C   LIG     1       1.270  -1.238  -4.067  1.00  0.00     0.003 A 
HETATM    4  C   LIG     1       1.545  -2.484  -4.623  1.00  0.00     0.001 A 
HETATM    5  C   LIG     1       1.276  -3.640  -3.895  1.00  0.00     0.012 A 
HETATM    6  C   LIG     1       0.721  -3.565  -2.606  1.00  0.00    -0.002 A 
ENDROOT
BRANCH   6   7
HETATM    7  C   LIG     1       0.468  -4.844  -1.849  1.00  0.00     0.205 C 
BRANCH   7   8
HETATM    8  O   LIG     1       1.643  -5.258  -1.163  1.00  0.00    -0.396 OA
ATOM      9  HO  LIG     1       1.484  -6.064  -0.686  1.00  0.00     0.209 HD
ENDBRANCH   7   8
ENDBRANCH   6   7
BRANCH   1  10
HETATM   10  O   LIG     1      -0.035  -2.310  -0.762  1.00  0.00    -0.355 OA
HETATM   11  C   LIG     1      -0.314  -1.053  -0.159  1.00  0.00     0.210 C 
ENDBRANCH   1  10
TORSDOF 3
