REMARK  1 active torsions:
REMARK  status: ('A' for Active; 'I' for Inactive)
REMARK    1  A    between atoms: C_12  and  O_17 
ROOT
HETATM    1  C   LIG     1       0.984   0.094   0.058  1.00  0.00     0.070 C 
HETATM    2  C   LIG     1       0.630  -1.085   0.906  1.00  0.00     0.033 A 
HETATM    3  C   LIG     1       1.010  -2.403   0.647  1.00  0.00     0.066 A 
HETATM    4  C   LIG     1       0.650  -3.463   1.477  1.00  0.00     0.006 A 
HETATM    5  C   LIG     1      -0.124  -3.189   2.615  1.00  0.00     0.031 A 
HETATM    6  C   LIG     1      -0.486  -1.871   2.849  1.00  0.00     0.089 A 
HETATM    7  N   LIG     1      -0.109  -0.896   2.013  1.00  0.00    -0.368 N 
ATOM      8  HN  LIG     1      -0.403   0.056   2.231  1.00  0.00     0.165 HD
HETATM    9  C   LIG     1       1.200  -4.658   0.921  1.00  0.00     0.003 A 
HETATM   10  C   LIG     1       1.178  -6.014   1.298  1.00  0.00     0.017 A 
HETATM   11  C   LIG     1       1.843  -6.955   0.502  1.00  0.00     0.038 A 
HETATM   12  C   LIG     1       2.525  -6.576  -0.655  1.00  0.00     0.070 A 
HETATM   13  C   LIG     1       2.557  -5.233  -1.045  1.00  0.00     0.067 A 
HETATM   14  C   LIG     1       1.886  -4.301  -0.237  1.00  0.00     0.046 A 
HETATM   15  N   LIG     1       1.757  -2.939  -0.382  1.00  0.00    -0.353 N 
ATOM     16  HN  LIG     1       2.159  -2.398  -1.147  1.00  0.00     0.166 HD
ENDROOT
BRANCH  12  17
HETATM   17  O   LIG     1       3.122  -7.613  -1.319  1.00  0.00    -0.356 OA
HETATM   18  C   LIG     1       3.849  -7.300  -2.500  1.00  0.00     0.210 C 
ENDBRANCH  12  17
TORSDOF 1
