REMARK  3 active torsions:
REMARK  status: ('A' for Active; 'I' for Inactive)
REMARK    1  A    between atoms: C_6  and  O_14 
REMARK    2  A    between atoms: C_6  and  C_12 
REMARK    3  A    between atoms: C_7  and  C_10 
ROOT
HETATM    1  C   LIG     1      -1.346   0.166   0.885  1.00  0.00     0.033 C 
HETATM    2  C   LIG     1      -1.316  -1.090   0.024  1.00  0.00     0.080 C 
HETATM    3  C   LIG     1       0.021  -1.521  -0.578  1.00  0.00     0.130 C 
HETATM    4  O   LIG     1      -0.006  -2.208  -1.607  1.00  0.00    -0.298 OA
HETATM    5  C   LIG     1       1.295  -1.349   0.235  1.00  0.00     0.130 C 
HETATM    6  C   LIG     1       2.118  -0.073  -0.008  1.00  0.00     0.188 C 
HETATM    7  C   LIG     1       1.359   1.246   0.209  1.00  0.00     0.267 C 
HETATM    8  O   LIG     1       0.177   1.256  -0.648  1.00  0.00    -0.371 OA
HETATM    9  C   LIG     1      -1.020   1.425   0.089  1.00  0.00     0.169 C 
ENDROOT
BRANCH   6  10
HETATM   10  O   LIG     1       2.674  -0.145  -1.346  1.00  0.00    -0.376 OA
ATOM     11  HO  LIG     1       3.182   0.643  -1.496  1.00  0.00     0.211 HD
ENDBRANCH   6  10
BRANCH   6  12
HETATM   12  C   LIG     1       3.224  -0.238   1.106  1.00  0.00     0.212 C 
HETATM   13  O   LIG     1       2.858   0.060   2.287  1.00  0.00    -0.646 OA
HETATM   14  O   LIG     1       4.309  -0.796   0.762  1.00  0.00    -0.646 OA
ENDBRANCH   6  12
BRANCH   7  15
HETATM   15  C   LIG     1       2.176   2.547  -0.072  1.00  0.00     0.206 C 
HETATM   16  O   LIG     1       1.673   3.613   0.410  1.00  0.00    -0.646 OA
HETATM   17  O   LIG     1       3.208   2.429  -0.801  1.00  0.00    -0.646 OA
ENDBRANCH   7  15
TORSDOF 3
