REMARK  5 active torsions:
REMARK  status: ('A' for Active; 'I' for Inactive)
REMARK    1  A    between atoms: C_3  and  C_4 
REMARK    2  A    between atoms: C_5  and  C_20 
REMARK    3  A    between atoms: C_6  and  C_7 
REMARK    4  A    between atoms: C_7  and  O_15 
REMARK    5  A    between atoms: C_20  and  O_23 
ROOT
HETATM    1  C   LIG     1      -3.837   1.118   1.345  1.00  0.00     0.170 C 
HETATM    2  C   LIG     1      -4.532  -0.225   1.527  1.00  0.00     0.068 C 
HETATM    3  C   LIG     1      -3.303  -1.119   1.308  1.00  0.00     0.130 C 
HETATM    4  C   LIG     1      -2.343  -0.379   2.203  1.00  0.00     0.267 C 
HETATM    5  O   LIG     1      -1.389  -0.857   2.787  1.00  0.00    -0.265 OA
HETATM    6  O   LIG     1      -2.663   0.949   2.175  1.00  0.00    -0.312 OA
ENDROOT
BRANCH   2   7
HETATM    7  C   LIG     1      -5.832  -0.496   0.748  1.00  0.00     0.058 C 
HETATM    8  C   LIG     1      -6.379  -1.895   1.057  1.00  0.00     0.046 C 
HETATM    9  C   LIG     1      -6.899   0.545   1.111  1.00  0.00     0.046 C 
BRANCH   7  10
HETATM   10  O   LIG     1      -5.635  -0.387  -0.651  1.00  0.00    -0.390 OA
ATOM     11  HO  LIG     1      -6.437  -0.554  -1.132  1.00  0.00     0.210 HD
ENDBRANCH   7  10
ENDBRANCH   2   7
BRANCH   1  12
HETATM   12  C   LIG     1      -3.407   1.421  -0.106  1.00  0.00     0.176 C 
HETATM   13  C   LIG     1      -2.676   0.261  -0.833  1.00  0.00     0.060 C 
HETATM   14  C   LIG     1      -2.998   0.256  -2.339  1.00  0.00     0.025 C 
HETATM   15  C   LIG     1      -2.750  -1.148  -0.137  1.00  0.00     0.087 C 
HETATM   16  C   LIG     1      -1.263   0.699  -0.631  1.00  0.00     0.187 A 
HETATM   17  C   LIG     1      -1.277  -1.677  -0.213  1.00  0.00     0.075 C 
HETATM   18  C   LIG     1      -0.419  -0.445  -0.226  1.00  0.00     0.172 A 
HETATM   19  O   LIG     1      -0.262   0.173  -1.509  1.00  0.00    -0.357 OA
HETATM   20  C   LIG     1      -1.189   2.092  -0.219  1.00  0.00     0.298 C 
HETATM   21  O   LIG     1      -2.475   2.546  -0.082  1.00  0.00    -0.310 OA
HETATM   22  O   LIG     1      -0.173   2.742  -0.051  1.00  0.00    -0.262 OA
BRANCH  15  23
HETATM   23  O   LIG     1      -3.602  -2.032  -0.884  1.00  0.00    -0.388 OA
ATOM     24  HO  LIG     1      -3.647  -2.883  -0.464  1.00  0.00     0.210 HD
ENDBRANCH  15  23
ENDBRANCH   1  12
TORSDOF 5
