REMARK  6 active torsions:
REMARK  status: ('A' for Active; 'I' for Inactive)
REMARK    1  A    between atoms: C_2  and  O_4 
REMARK    2  A    between atoms: O_4  and  C_5 
REMARK    3  A    between atoms: C_6  and  O_31 
REMARK    4  A    between atoms: C_9  and  O_15 
REMARK    5  A    between atoms: C_17  and  O_28 
REMARK    6  A    between atoms: C_20  and  C_25 
ROOT
HETATM    1  C   LIG     1       1.185   3.796   0.283  1.00  0.00     0.198 C 
HETATM    2  C   LIG     1       0.739   2.493   0.985  1.00  0.00     0.156 C 
HETATM    3  C   LIG     1       1.826   2.003   1.986  1.00  0.00     0.039 C 
HETATM    4  C   LIG     1       2.090   3.106   3.107  1.00  0.00     0.030 C 
HETATM    5  C   LIG     1       3.362   2.639   3.907  1.00  0.00     0.130 C 
HETATM    6  C   LIG     1       3.243   1.213   4.460  1.00  0.00     0.033 C 
HETATM    7  C   LIG     1       2.904   0.176   3.406  1.00  0.00     0.012 C 
HETATM    8  C   LIG     1       1.677   0.509   2.517  1.00  0.00    -0.041 C 
HETATM    9  C   LIG     1       0.364   0.207   3.272  1.00  0.00     0.015 C 
HETATM   10  C   LIG     1       1.728  -0.528   1.360  1.00  0.00     0.015 C 
HETATM   11  C   LIG     1       2.295   4.563   2.441  1.00  0.00     0.161 C 
HETATM   12  C   LIG     1       1.307   4.967   1.304  1.00  0.00     0.126 C 
HETATM   13  O   LIG     1      -0.016   5.201   1.829  1.00  0.00    -0.359 OA
HETATM   14  C   LIG     1      -0.214   6.249   2.791  1.00  0.00     0.082 C 
HETATM   15  C   LIG     1       1.043   6.604   3.605  1.00  0.00     0.123 C 
HETATM   16  C   LIG     1       2.249   5.696   3.477  1.00  0.00     0.168 C 
HETATM   17  O   LIG     1       3.255   5.908   4.171  1.00  0.00    -0.294 OA
HETATM   18  C   LIG     1      -0.725   7.513   2.052  1.00  0.00     0.051 C 
HETATM   19  C   LIG     1       1.785   6.211   0.508  1.00  0.00     0.052 C 
HETATM   20  C   LIG     1       0.924   3.185   4.104  1.00  0.00     0.022 C 
ENDROOT
BRANCH   1  21
HETATM   21  O   LIG     1       2.469   3.541  -0.354  1.00  0.00    -0.310 OA
BRANCH  21  22
HETATM   22  C   LIG     1       2.717   4.066  -1.574  1.00  0.00     0.255 C 
HETATM   23  C   LIG     1       4.186   4.020  -1.878  1.00  0.00     0.126 C 
HETATM   24  O   LIG     1       1.876   4.578  -2.311  1.00  0.00    -0.266 OA
ENDBRANCH  21  22
ENDBRANCH   1  21
BRANCH   2  25
HETATM   25  O   LIG     1       0.489   1.520  -0.029  1.00  0.00    -0.392 OA
ATOM     26  HO  LIG     1       0.215   0.719   0.402  1.00  0.00     0.210 HD
ENDBRANCH   2  25
BRANCH  11  27
HETATM   27  O   LIG     1       3.637   4.610   1.898  1.00  0.00    -0.378 OA
ATOM     28  HO  LIG     1       3.758   5.467   1.506  1.00  0.00     0.211 HD
ENDBRANCH  11  27
BRANCH  14  29
HETATM   29  C   LIG     1      -1.423   5.802   3.617  1.00  0.00     0.001 C 
HETATM   30  C   LIG     1      -1.496   5.241   4.832  1.00  0.00     0.010 C 
ENDBRANCH  14  29
BRANCH   5  31
HETATM   31  O   LIG     1       3.624   3.451   5.051  1.00  0.00    -0.395 OA
ATOM     32  HO  LIG     1       4.392   3.169   5.534  1.00  0.00     0.210 HD
ENDBRANCH   5  31
TORSDOF 6
