REMARK  4 active torsions:
REMARK  status: ('A' for Active; 'I' for Inactive)
REMARK    1  A    between atoms: C_5  and  O_37 
REMARK    2  A    between atoms: C_8  and  O_33 
REMARK    3  A    between atoms: C_26  and  O_27 
REMARK    4  A    between atoms: C_26  and  O_29 
ROOT
HETATM    1  C   LIG     1      -6.678  -5.263  -0.395  1.00  0.00     0.016 C 
HETATM    2  C   LIG     1      -6.660  -3.808  -0.968  1.00  0.00    -0.033 C 
HETATM    3  C   LIG     1      -6.699  -3.976  -2.509  1.00  0.00     0.012 C 
HETATM    4  C   LIG     1      -8.050  -4.425  -3.062  1.00  0.00     0.033 C 
HETATM    5  C   LIG     1      -9.191  -3.521  -2.613  1.00  0.00     0.126 C 
HETATM    6  C   LIG     1      -9.302  -3.338  -1.067  1.00  0.00    -0.015 C 
HETATM    7  C   LIG     1      -7.890  -2.946  -0.486  1.00  0.00     0.033 C 
HETATM    8  C   LIG     1      -7.747  -2.662   1.023  1.00  0.00     0.124 C 
HETATM    9  C   LIG     1      -6.568  -1.722   1.310  1.00  0.00     0.042 C 
HETATM   10  C   LIG     1      -5.368  -1.766   0.315  1.00  0.00    -0.026 C 
HETATM   11  C   LIG     1      -5.293  -3.168  -0.415  1.00  0.00     0.007 C 
HETATM   12  C   LIG     1      -4.067  -3.260  -1.358  1.00  0.00     0.033 C 
HETATM   13  C   LIG     1      -4.027  -2.221  -2.423  1.00  0.00    -0.022 C 
HETATM   14  C   LIG     1      -4.592  -1.006  -2.310  1.00  0.00    -0.060 C 
HETATM   15  C   LIG     1      -5.310  -0.464  -0.739  1.00  0.00    -0.012 C 
HETATM   16  C   LIG     1      -6.880   0.563  -0.728  1.00  0.00     0.025 C 
HETATM   17  C   LIG     1      -7.516   1.344  -2.347  1.00  0.00     0.060 A 
HETATM   18  C   LIG     1      -6.591   1.030  -3.989  1.00  0.00     0.037 A 
HETATM   19  C   LIG     1      -5.073  -0.116  -3.870  1.00  0.00     0.050 A 
HETATM   20  C   LIG     1      -5.133  -1.053  -5.109  1.00  0.00     0.029 C 
HETATM   21  C   LIG     1      -5.501  -0.334  -6.433  1.00  0.00    -0.046 C 
HETATM   22  C   LIG     1      -6.875   0.394  -6.393  1.00  0.00     0.010 C 
HETATM   23  C   LIG     1      -7.548   0.483  -5.026  1.00  0.00     0.017 C 
HETATM   24  C   LIG     1      -5.537  -1.397  -7.553  1.00  0.00     0.015 C 
HETATM   25  C   LIG     1      -4.401   0.685  -6.803  1.00  0.00     0.015 C 
HETATM   26  C   LIG     1      -6.250   0.428  -2.825  1.00  0.00     0.137 A 
HETATM   27  C   LIG     1      -4.248   0.545  -0.118  1.00  0.00     0.021 C 
HETATM   28  C   LIG     1      -4.112  -1.778   1.283  1.00  0.00     0.016 C 
HETATM   29  C   LIG     1     -10.340  -2.200  -0.837  1.00  0.00     0.018 C 
HETATM   30  C   LIG     1      -9.896  -4.611  -0.432  1.00  0.00     0.018 C 
ENDROOT
BRANCH  26  31
HETATM   31  O   LIG     1      -5.391   1.308  -2.285  1.00  0.00    -0.368 OA
ATOM     32  HO  LIG     1      -5.152   0.886  -1.468  1.00  0.00     0.213 HD
ENDBRANCH  26  31
BRANCH  26  33
HETATM   33  O   LIG     1      -6.894  -0.716  -2.647  1.00  0.00    -0.368 OA
ATOM     34  HO  LIG     1      -6.655  -1.138  -1.830  1.00  0.00     0.213 HD
ENDBRANCH  26  33
BRANCH   8  35
HETATM   35  O   LIG     1      -8.885  -2.084   1.653  1.00  0.00    -0.395 OA
ATOM     36  HO  LIG     1      -8.797  -1.909   2.583  1.00  0.00     0.210 HD
ENDBRANCH   8  35
BRANCH   5  37
HETATM   37  O   LIG     1      -9.076  -2.270  -3.291  1.00  0.00    -0.395 OA
ATOM     38  HO  LIG     1      -9.788  -1.706  -3.011  1.00  0.00     0.210 HD
ENDBRANCH   5  37
TORSDOF 4
