REMARK  2 active torsions:
REMARK  status: ('A' for Active; 'I' for Inactive)
REMARK    1  A    between atoms: C_5  and  O_33 
REMARK    2  A    between atoms: C_18  and  C_26 
ROOT
HETATM    1  C   LIG     1      -6.960  -5.460  -0.121  1.00  0.00     0.016 C 
HETATM    2  C   LIG     1      -7.060  -4.042  -0.764  1.00  0.00    -0.035 C 
HETATM    3  C   LIG     1      -7.406  -4.247  -2.266  1.00  0.00     0.012 C 
HETATM    4  C   LIG     1      -8.807  -4.832  -2.505  1.00  0.00     0.033 C 
HETATM    5  C   LIG     1      -9.933  -4.050  -1.827  1.00  0.00     0.126 C 
HETATM    6  C   LIG     1      -9.670  -3.684  -0.330  1.00  0.00    -0.017 C 
HETATM    7  C   LIG     1      -8.194  -3.159  -0.165  1.00  0.00     0.004 C 
HETATM    8  C   LIG     1      -7.819  -2.660   1.235  1.00  0.00     0.007 C 
HETATM    9  C   LIG     1      -6.579  -1.752   1.264  1.00  0.00     0.011 C 
HETATM   10  C   LIG     1      -5.538  -1.925   0.112  1.00  0.00    -0.028 C 
HETATM   11  C   LIG     1      -5.628  -3.386  -0.476  1.00  0.00     0.007 C 
HETATM   12  C   LIG     1      -4.598  -3.584  -1.593  1.00  0.00     0.033 C 
HETATM   13  C   LIG     1      -4.649  -2.511  -2.621  1.00  0.00    -0.022 C 
HETATM   14  C   LIG     1      -5.099  -1.253  -2.436  1.00  0.00    -0.069 C 
HETATM   15  C   LIG     1      -5.573  -0.746  -1.044  1.00  0.00    -0.013 C 
HETATM   16  C   LIG     1      -6.962  -0.037  -1.194  1.00  0.00     0.016 C 
HETATM   17  C   LIG     1      -7.504   0.016  -2.621  1.00  0.00     0.022 C 
HETATM   18  C   LIG     1      -6.491   0.611  -3.616  1.00  0.00     0.056 C 
HETATM   19  C   LIG     1      -5.163  -0.215  -3.612  1.00  0.00     0.035 C 
HETATM   20  C   LIG     1      -4.908  -0.861  -5.003  1.00  0.00     0.019 C 
HETATM   21  C   LIG     1      -4.996   0.087  -6.222  1.00  0.00    -0.047 C 
HETATM   22  C   LIG     1      -6.214   1.028  -6.137  1.00  0.00     0.010 C 
HETATM   23  C   LIG     1      -7.172   0.650  -5.010  1.00  0.00     0.022 C 
HETATM   24  C   LIG     1      -5.115  -0.781  -7.493  1.00  0.00     0.015 C 
HETATM   25  C   LIG     1      -3.703   0.916  -6.344  1.00  0.00     0.015 C 
HETATM   26  C   LIG     1      -4.595   0.406  -0.635  1.00  0.00     0.021 C 
HETATM   27  C   LIG     1      -4.144  -1.875   0.858  1.00  0.00     0.016 C 
HETATM   28  C   LIG     1     -10.668  -2.562   0.078  1.00  0.00     0.018 C 
HETATM   29  C   LIG     1     -10.011  -4.891   0.567  1.00  0.00     0.018 C 
ENDROOT
BRANCH  18  30
HETATM   30  C   LIG     1      -6.291   2.138  -3.305  1.00  0.00     0.182 C 
HETATM   31  O   LIG     1      -5.144   2.610  -3.541  1.00  0.00    -0.647 OA
HETATM   32  O   LIG     1      -7.311   2.752  -2.874  1.00  0.00    -0.647 OA
ENDBRANCH  18  30
BRANCH   5  33
HETATM   33  O   LIG     1     -10.195  -2.888  -2.617  1.00  0.00    -0.395 OA
ATOM     34  HO  LIG     1     -10.894  -2.402  -2.196  1.00  0.00     0.210 HD
ENDBRANCH   5  33
TORSDOF 2
