REMARK  1 active torsions:
REMARK  status: ('A' for Active; 'I' for Inactive)
REMARK    1  A    between atoms: C_18  and  N_25 
ROOT
HETATM    1  C   LIG     1      -3.348  -0.752   1.614  1.00  0.00     0.043 C 
HETATM    2  C   LIG     1      -3.201   0.045   0.329  1.00  0.00     0.223 C 
HETATM    3  C   LIG     1      -2.312  -0.578  -0.748  1.00  0.00     0.029 C 
HETATM    4  C   LIG     1      -2.499  -2.086  -1.032  1.00  0.00     0.008 C 
HETATM    5  C   LIG     1      -2.544  -2.248  -2.563  1.00  0.00     0.006 C 
HETATM    6  C   LIG     1      -2.202  -0.865  -3.114  1.00  0.00     0.001 C 
HETATM    7  C   LIG     1      -2.755   0.095  -2.048  1.00  0.00    -0.004 C 
HETATM    8  C   LIG     1      -2.200   1.497  -2.313  1.00  0.00     0.012 C 
HETATM    9  C   LIG     1      -2.532   1.976  -3.738  1.00  0.00     0.007 C 
HETATM   10  C   LIG     1      -2.249   0.961  -4.882  1.00  0.00     0.003 C 
HETATM   11  C   LIG     1      -2.711  -0.478  -4.506  1.00  0.00    -0.001 C 
HETATM   12  C   LIG     1      -2.410  -1.492  -5.615  1.00  0.00     0.033 C 
HETATM   13  C   LIG     1      -1.114  -1.293  -6.326  1.00  0.00    -0.023 C 
HETATM   14  C   LIG     1      -0.392  -0.161  -6.315  1.00  0.00    -0.073 C 
HETATM   15  C   LIG     1      -0.805   1.092  -5.541  1.00  0.00    -0.017 C 
HETATM   16  C   LIG     1       0.347   1.355  -4.530  1.00  0.00     0.016 C 
HETATM   17  C   LIG     1       1.746   1.451  -5.175  1.00  0.00     0.037 C 
HETATM   18  C   LIG     1       2.070   0.241  -6.067  1.00  0.00     0.226 C 
HETATM   19  C   LIG     1       0.934  -0.096  -7.048  1.00  0.00     0.070 C 
HETATM   20  C   LIG     1      -0.900   2.297  -6.524  1.00  0.00     0.020 C 
HETATM   21  C   LIG     1      -4.292   0.121  -1.876  1.00  0.00     0.282 C 
HETATM   22  C   LIG     1      -5.771  -0.294   0.113  1.00  0.00     0.310 C 
HETATM   23  N   LIG     1      -4.513   0.356  -0.386  1.00  0.00     0.089 N 
ENDROOT
BRANCH  18  24
HETATM   24  N   LIG     1       3.420   0.434  -6.767  1.00  0.00     0.084 N 
HETATM   25  C   LIG     1       3.912  -0.821  -7.452  1.00  0.00     0.309 C 
HETATM   26  C   LIG     1       3.538   1.620  -7.693  1.00  0.00     0.309 C 
ENDBRANCH  18  24
TORSDOF 1
