REMARK  3 active torsions:
REMARK  status: ('A' for Active; 'I' for Inactive)
REMARK    1  A    between atoms: C_5  and  O_35 
REMARK    2  A    between atoms: C_8  and  O_31 
REMARK    3  A    between atoms: C_18  and  C_26 
ROOT
HETATM    1  C   LIG     1      -6.846  -5.559  -0.408  1.00  0.00     0.016 C 
HETATM    2  C   LIG     1      -6.998  -4.089  -0.917  1.00  0.00    -0.033 C 
HETATM    3  C   LIG     1      -7.394  -4.166  -2.414  1.00  0.00     0.012 C 
HETATM    4  C   LIG     1      -8.785  -4.766  -2.651  1.00  0.00     0.033 C 
HETATM    5  C   LIG     1      -9.894  -4.070  -1.865  1.00  0.00     0.126 C 
HETATM    6  C   LIG     1      -9.598  -3.833  -0.342  1.00  0.00    -0.015 C 
HETATM    7  C   LIG     1      -8.123  -3.291  -0.171  1.00  0.00     0.033 C 
HETATM    8  C   LIG     1      -7.602  -2.883   1.225  1.00  0.00     0.124 C 
HETATM    9  C   LIG     1      -6.505  -1.802   1.120  1.00  0.00     0.042 C 
HETATM   10  C   LIG     1      -5.468  -1.976  -0.039  1.00  0.00    -0.026 C 
HETATM   11  C   LIG     1      -5.565  -3.434  -0.635  1.00  0.00     0.007 C 
HETATM   12  C   LIG     1      -4.540  -3.633  -1.759  1.00  0.00     0.033 C 
HETATM   13  C   LIG     1      -4.566  -2.545  -2.772  1.00  0.00    -0.022 C 
HETATM   14  C   LIG     1      -5.008  -1.286  -2.579  1.00  0.00    -0.069 C 
HETATM   15  C   LIG     1      -5.507  -0.793  -1.192  1.00  0.00    -0.013 C 
HETATM   16  C   LIG     1      -6.904  -0.109  -1.369  1.00  0.00     0.016 C 
HETATM   17  C   LIG     1      -7.406  -0.005  -2.807  1.00  0.00     0.022 C 
HETATM   18  C   LIG     1      -6.365   0.600  -3.765  1.00  0.00     0.056 C 
HETATM   19  C   LIG     1      -5.043  -0.233  -3.743  1.00  0.00     0.035 C 
HETATM   20  C   LIG     1      -4.762  -0.862  -5.138  1.00  0.00     0.019 C 
HETATM   21  C   LIG     1      -4.818   0.103  -6.346  1.00  0.00    -0.047 C 
HETATM   22  C   LIG     1      -6.032   1.051  -6.274  1.00  0.00     0.010 C 
HETATM   23  C   LIG     1      -7.015   0.666  -5.173  1.00  0.00     0.022 C 
HETATM   24  C   LIG     1      -4.916  -0.747  -7.631  1.00  0.00     0.015 C 
HETATM   25  C   LIG     1      -3.518   0.925  -6.430  1.00  0.00     0.015 C 
HETATM   26  C   LIG     1      -4.555   0.369  -0.754  1.00  0.00     0.021 C 
HETATM   27  C   LIG     1      -4.068  -1.939   0.695  1.00  0.00     0.016 C 
HETATM   28  C   LIG     1     -10.640  -2.789   0.155  1.00  0.00     0.018 C 
HETATM   29  C   LIG     1      -9.871  -5.127   0.449  1.00  0.00     0.018 C 
ENDROOT
BRANCH  18  30
HETATM   30  C   LIG     1      -6.162   2.121  -3.429  1.00  0.00     0.182 C 
HETATM   31  O   LIG     1      -5.009   2.591  -3.646  1.00  0.00    -0.647 OA
HETATM   32  O   LIG     1      -7.183   2.735  -3.002  1.00  0.00    -0.647 OA
ENDBRANCH  18  30
BRANCH   8  33
HETATM   33  O   LIG     1      -8.595  -2.362   2.094  1.00  0.00    -0.395 OA
ATOM     34  HO  LIG     1      -8.275  -2.111   2.952  1.00  0.00     0.210 HD
ENDBRANCH   8  33
BRANCH   5  35
HETATM   35  O   LIG     1     -10.195  -2.845  -2.541  1.00  0.00    -0.395 OA
ATOM     36  HO  LIG     1     -10.885  -2.412  -2.052  1.00  0.00     0.210 HD
ENDBRANCH   5  35
TORSDOF 3
