REMARK  1 active torsions:
REMARK  status: ('A' for Active; 'I' for Inactive)
REMARK    1  A    between atoms: C_15  and  O_17 
ROOT
HETATM    1  C   LIG     1      -1.594   1.726   3.228  1.00  0.00     0.065 C 
HETATM    2  C   LIG     1      -0.651   2.410   2.264  1.00  0.00     0.002 C 
HETATM    3  N   LIG     1       0.427   2.923   2.754  1.00  0.00    -0.395 N 
ATOM      4  HN  LIG     1       0.639   2.840   3.748  1.00  0.00     0.159 HD
HETATM    5  C   LIG     1       1.336   3.625   1.853  1.00  0.00     0.120 C 
HETATM    6  C   LIG     1       1.438   2.920   0.515  1.00  0.00     0.031 C 
HETATM    7  C   LIG     1       0.072   2.933  -0.155  1.00  0.00     0.051 C 
HETATM    8  C   LIG     1      -1.058   2.458   0.788  1.00  0.00     0.135 C 
HETATM    9  N   LIG     1      -1.552   1.127   0.322  1.00  0.00    -0.379 N 
ATOM     10  HN  LIG     1      -2.168   0.479   0.812  1.00  0.00     0.160 HD
HETATM   11  C   LIG     1      -0.965   0.974  -0.960  1.00  0.00     0.038 A 
HETATM   12  C   LIG     1      -0.029   1.952  -1.275  1.00  0.00    -0.025 A 
HETATM   13  C   LIG     1       0.686   1.901  -2.459  1.00  0.00     0.012 A 
HETATM   14  C   LIG     1       0.443   0.835  -3.330  1.00  0.00     0.037 A 
HETATM   15  C   LIG     1      -0.501  -0.159  -3.017  1.00  0.00     0.070 A 
HETATM   16  C   LIG     1      -1.207  -0.092  -1.813  1.00  0.00     0.066 A 
ENDROOT
BRANCH  15  17
HETATM   17  O   LIG     1      -0.626  -1.141  -3.963  1.00  0.00    -0.356 OA
HETATM   18  C   LIG     1      -1.624  -2.127  -3.732  1.00  0.00     0.210 C 
ENDBRANCH  15  17
TORSDOF 1
