REMARK  10 active torsions:
REMARK  status: ('A' for Active; 'I' for Inactive)
REMARK    1  A    between atoms: C_3  and  O_28 
REMARK    2  A    between atoms: C_4  and  O_26 
REMARK    3  A    between atoms: C_5  and  O_24 
REMARK    4  A    between atoms: C_6  and  O_8 
REMARK    5  A    between atoms: O_8  and  C_9 
REMARK    6  A    between atoms: C_10  and  O_22 
REMARK    7  A    between atoms: C_11  and  O_20 
REMARK    8  A    between atoms: C_12  and  C_17 
REMARK    9  A    between atoms: C_14  and  O_15 
REMARK   10  A    between atoms: C_17  and  O_18 
ROOT
HETATM    1  C   LIG     1      -0.062  -0.439   2.336  1.00  0.00     0.211 C 
HETATM    2  C   LIG     1       1.370  -0.078   1.886  1.00  0.00     0.183 C 
HETATM    3  C   LIG     1       1.732  -0.713   0.534  1.00  0.00     0.180 C 
HETATM    4  C   LIG     1       0.636  -0.483  -0.513  1.00  0.00     0.179 C 
HETATM    5  O   LIG     1      -0.582  -1.054  -0.029  1.00  0.00    -0.349 OA
HETATM    6  C   LIG     1      -1.099  -0.442   1.159  1.00  0.00     0.291 C 
ENDROOT
BRANCH   1   7
HETATM    7  O   LIG     1      -0.564   0.330   3.446  1.00  0.00    -0.346 OA
BRANCH   7   8
HETATM    8  C   LIG     1       0.257   0.356   4.623  1.00  0.00     0.292 C 
HETATM    9  C   LIG     1      -0.457   1.299   5.622  1.00  0.00     0.204 C 
HETATM   10  C   LIG     1       0.248   1.291   6.975  1.00  0.00     0.183 C 
HETATM   11  C   LIG     1       0.397  -0.141   7.492  1.00  0.00     0.178 C 
HETATM   12  C   LIG     1       1.065  -1.017   6.421  1.00  0.00     0.152 C 
HETATM   13  C   LIG     1       1.081  -2.477   6.868  1.00  0.00     0.042 C 
HETATM   14  O   LIG     1       0.370  -0.963   5.163  1.00  0.00    -0.351 OA
BRANCH   9  15
HETATM   15  O   LIG     1      -1.821   0.868   5.841  1.00  0.00    -0.388 OA
ATOM     16  HO  LIG     1      -2.260   0.873   4.999  1.00  0.00     0.210 HD
ENDBRANCH   9  15
BRANCH  10  17
HETATM   17  O   LIG     1      -0.508   2.042   7.942  1.00  0.00    -0.390 OA
ATOM     18  HO  LIG     1      -0.601   2.931   7.621  1.00  0.00     0.210 HD
ENDBRANCH  10  17
BRANCH  11  19
HETATM   19  O   LIG     1       1.171  -0.121   8.697  1.00  0.00    -0.390 OA
ATOM     20  HO  LIG     1       0.758   0.421   9.359  1.00  0.00     0.210 HD
ENDBRANCH  11  19
ENDBRANCH   7   8
ENDBRANCH   1   7
BRANCH   6  21
HETATM   21  O   LIG     1      -1.657   0.838   0.860  1.00  0.00    -0.363 OA
HETATM   22  C   LIG     1      -2.723   0.739  -0.087  1.00  0.00     0.204 C 
ENDBRANCH   6  21
BRANCH   2  23
HETATM   23  O   LIG     1       1.595   1.335   1.841  1.00  0.00    -0.390 OA
ATOM     24  HO  LIG     1       2.476   1.557   1.564  1.00  0.00     0.210 HD
ENDBRANCH   2  23
BRANCH   3  25
HETATM   25  O   LIG     1       3.006  -0.213   0.104  1.00  0.00    -0.390 OA
ATOM     26  HO  LIG     1       3.230  -0.606  -0.732  1.00  0.00     0.210 HD
ENDBRANCH   3  25
BRANCH   4  27
HETATM   27  C   LIG     1       0.528   0.971  -1.031  1.00  0.00     0.198 C 
BRANCH  27  28
HETATM   28  O   LIG     1       1.732   1.375  -1.690  1.00  0.00    -0.398 OA
ATOM     29  HO  LIG     1       1.666   2.268  -2.008  1.00  0.00     0.209 HD
ENDBRANCH  27  28
ENDBRANCH   4  27
TORSDOF 10
