REMARK  6 active torsions:
REMARK  status: ('A' for Active; 'I' for Inactive)
REMARK    1  A    between atoms: C_5  and  O_27 
REMARK    2  A    between atoms: C_6  and  C_24 
REMARK    3  A    between atoms: C_12  and  C_13 
REMARK    4  A    between atoms: C_13  and  C_14 
REMARK    5  A    between atoms: C_16  and  O_21 
REMARK    6  A    between atoms: C_24  and  O_25 
ROOT
HETATM    1  C   LIG     1       0.222  -0.194  -1.920  1.00  0.00     0.016 C 
HETATM    2  C   LIG     1       1.278  -0.172  -0.786  1.00  0.00    -0.032 C 
HETATM    3  C   LIG     1       2.049  -1.517  -0.812  1.00  0.00     0.012 C 
HETATM    4  C   LIG     1       1.244  -2.716  -0.307  1.00  0.00     0.033 C 
HETATM    5  C   LIG     1       0.688  -2.507   1.096  1.00  0.00     0.128 C 
HETATM    6  C   LIG     1      -0.187  -1.225   1.232  1.00  0.00     0.008 C 
HETATM    7  C   LIG     1       0.642   0.003   0.668  1.00  0.00     0.007 C 
HETATM    8  C   LIG     1      -0.067   1.374   0.827  1.00  0.00     0.010 C 
HETATM    9  C   LIG     1       0.846   2.546   0.457  1.00  0.00     0.034 C 
HETATM   10  C   LIG     1       1.435   2.343  -0.915  1.00  0.00    -0.084 C 
HETATM   11  C   LIG     1       1.169   3.204  -1.912  1.00  0.00     0.015 C 
HETATM   12  C   LIG     1       2.267   1.064  -1.032  1.00  0.00     0.025 C 
HETATM   13  C   LIG     1      -0.445  -1.025   2.756  1.00  0.00     0.020 C 
ENDROOT
BRANCH  12  14
HETATM   14  C   LIG     1       3.207   0.995  -2.293  1.00  0.00     0.037 C 
BRANCH  14  15
HETATM   15  C   LIG     1       4.195   2.148  -2.363  1.00  0.00    -0.010 C 
HETATM   16  C   LIG     1       4.749   2.763  -3.425  1.00  0.00     0.044 C 
HETATM   17  C   LIG     1       5.778   3.822  -3.188  1.00  0.00     0.291 C 
HETATM   18  C   LIG     1       4.712   2.601  -4.901  1.00  0.00     0.181 C 
HETATM   19  O   LIG     1       6.549   3.923  -4.312  1.00  0.00    -0.315 OA
HETATM   20  O   LIG     1       5.910   4.486  -2.185  1.00  0.00    -0.260 OA
HETATM   21  C   LIG     1       6.166   2.891  -5.221  1.00  0.00     0.215 C 
BRANCH  18  22
HETATM   22  O   LIG     1       4.316   1.321  -5.341  1.00  0.00    -0.389 OA
ATOM     23  HO  LIG     1       4.292   1.217  -6.285  1.00  0.00     0.210 HD
ENDBRANCH  18  22
ENDBRANCH  14  15
ENDBRANCH  12  14
BRANCH   6  24
HETATM   24  C   LIG     1      -1.577  -1.398   0.559  1.00  0.00     0.176 C 
BRANCH  24  25
HETATM   25  O   LIG     1      -2.350  -2.449   1.136  1.00  0.00    -0.400 OA
ATOM     26  HO  LIG     1      -3.200  -2.555   0.725  1.00  0.00     0.209 HD
ENDBRANCH  24  25
ENDBRANCH   6  24
BRANCH   5  27
HETATM   27  O   LIG     1      -0.055  -3.677   1.457  1.00  0.00    -0.395 OA
ATOM     28  HO  LIG     1      -0.402  -3.547   2.332  1.00  0.00     0.210 HD
ENDBRANCH   5  27
TORSDOF 6
