REMARK  10 active torsions:
REMARK  status: ('A' for Active; 'I' for Inactive)
REMARK    1  A    between atoms: C_3  and  O_28 
REMARK    2  A    between atoms: C_4  and  O_26 
REMARK    3  A    between atoms: C_5  and  O_24 
REMARK    4  A    between atoms: C_6  and  O_8 
REMARK    5  A    between atoms: O_8  and  C_9 
REMARK    6  A    between atoms: C_10  and  O_22 
REMARK    7  A    between atoms: C_11  and  O_20 
REMARK    8  A    between atoms: C_12  and  C_17 
REMARK    9  A    between atoms: C_14  and  O_15 
REMARK   10  A    between atoms: C_17  and  O_18 
ROOT
HETATM    1  C   LIG     1      -2.010  -0.777  -2.474  1.00  0.00     0.211 C 
HETATM    2  C   LIG     1      -3.281   0.051  -2.706  1.00  0.00     0.183 C 
HETATM    3  C   LIG     1      -3.335   0.570  -4.146  1.00  0.00     0.180 C 
HETATM    4  C   LIG     1      -3.118  -0.548  -5.184  1.00  0.00     0.179 C 
HETATM    5  O   LIG     1      -1.928  -1.297  -4.897  1.00  0.00    -0.349 OA
HETATM    6  C   LIG     1      -1.845  -1.860  -3.579  1.00  0.00     0.291 C 
ENDROOT
BRANCH   1   7
HETATM    7  O   LIG     1      -1.901  -1.353  -1.152  1.00  0.00    -0.346 OA
BRANCH   7   8
HETATM    8  C   LIG     1      -2.061  -0.398  -0.092  1.00  0.00     0.292 C 
HETATM    9  C   LIG     1      -1.924  -1.149   1.254  1.00  0.00     0.204 C 
HETATM   10  C   LIG     1      -1.926  -0.157   2.417  1.00  0.00     0.183 C 
HETATM   11  C   LIG     1      -0.864   0.924   2.197  1.00  0.00     0.178 C 
HETATM   12  C   LIG     1      -1.063   1.605   0.835  1.00  0.00     0.152 C 
HETATM   13  C   LIG     1      -2.271   2.545   0.769  1.00  0.00     0.042 C 
HETATM   14  O   LIG     1      -1.089   0.643  -0.229  1.00  0.00    -0.351 OA
BRANCH   9  15
HETATM   15  O   LIG     1      -0.695  -1.904   1.316  1.00  0.00    -0.388 OA
ATOM     16  HO  LIG     1      -0.694  -2.521   0.593  1.00  0.00     0.210 HD
ENDBRANCH   9  15
BRANCH  10  17
HETATM   17  O   LIG     1      -1.640  -0.829   3.655  1.00  0.00    -0.390 OA
ATOM     18  HO  LIG     1      -2.299  -1.500   3.791  1.00  0.00     0.210 HD
ENDBRANCH  10  17
BRANCH  11  19
HETATM   19  O   LIG     1      -0.903   1.868   3.270  1.00  0.00    -0.390 OA
ATOM     20  HO  LIG     1      -0.780   1.447   4.113  1.00  0.00     0.210 HD
ENDBRANCH  11  19
ENDBRANCH   7   8
ENDBRANCH   1   7
BRANCH   6  21
HETATM   21  O   LIG     1      -2.743  -2.960  -3.440  1.00  0.00    -0.363 OA
HETATM   22  C   LIG     1      -2.326  -4.076  -4.220  1.00  0.00     0.204 C 
ENDBRANCH   6  21
BRANCH   2  23
HETATM   23  O   LIG     1      -4.461  -0.695  -2.377  1.00  0.00    -0.390 OA
ATOM     24  HO  LIG     1      -5.248  -0.182  -2.521  1.00  0.00     0.210 HD
ENDBRANCH   2  23
BRANCH   3  25
HETATM   25  O   LIG     1      -4.554   1.298  -4.304  1.00  0.00    -0.390 OA
ATOM     26  HO  LIG     1      -4.587   1.620  -5.197  1.00  0.00     0.210 HD
ENDBRANCH   3  25
BRANCH   4  27
HETATM   27  C   LIG     1      -4.360  -1.411  -5.469  1.00  0.00     0.198 C 
BRANCH  27  28
HETATM   28  O   LIG     1      -5.394  -0.611  -6.060  1.00  0.00    -0.398 OA
ATOM     29  HO  LIG     1      -6.161  -1.144  -6.236  1.00  0.00     0.209 HD
ENDBRANCH  27  28
ENDBRANCH   4  27
TORSDOF 10
