REMARK  1 active torsions:
REMARK  status: ('A' for Active; 'I' for Inactive)
REMARK    1  A    between atoms: C_18  and  N_25 
ROOT
HETATM    1  C   LIG     1       1.370   3.573   2.103  1.00  0.00     0.043 C 
HETATM    2  C   LIG     1       2.209   2.555   2.858  1.00  0.00     0.223 C 
HETATM    3  C   LIG     1       3.621   2.338   2.326  1.00  0.00     0.029 C 
HETATM    4  C   LIG     1       4.455   3.605   2.014  1.00  0.00     0.008 C 
HETATM    5  C   LIG     1       5.824   3.415   2.688  1.00  0.00     0.006 C 
HETATM    6  C   LIG     1       5.828   1.953   3.122  1.00  0.00     0.001 C 
HETATM    7  C   LIG     1       4.361   1.687   3.500  1.00  0.00    -0.004 C 
HETATM    8  C   LIG     1       4.156   0.177   3.680  1.00  0.00     0.012 C 
HETATM    9  C   LIG     1       5.162  -0.430   4.683  1.00  0.00     0.007 C 
HETATM   10  C   LIG     1       6.648  -0.023   4.486  1.00  0.00     0.003 C 
HETATM   11  C   LIG     1       6.776   1.510   4.238  1.00  0.00    -0.001 C 
HETATM   12  C   LIG     1       8.235   1.933   4.047  1.00  0.00     0.033 C 
HETATM   13  C   LIG     1       9.061   0.992   3.237  1.00  0.00    -0.023 C 
HETATM   14  C   LIG     1       8.748  -0.288   2.977  1.00  0.00    -0.073 C 
HETATM   15  C   LIG     1       7.474  -0.964   3.497  1.00  0.00    -0.017 C 
HETATM   16  C   LIG     1       7.867  -2.271   4.284  1.00  0.00     0.016 C 
HETATM   17  C   LIG     1       9.338  -2.701   4.157  1.00  0.00     0.037 C 
HETATM   18  C   LIG     1       9.828  -2.587   2.712  1.00  0.00     0.226 C 
HETATM   19  C   LIG     1       9.716  -1.145   2.176  1.00  0.00     0.070 C 
HETATM   20  C   LIG     1       6.653  -1.408   2.260  1.00  0.00     0.020 C 
HETATM   21  C   LIG     1       3.807   2.462   4.723  1.00  0.00     0.282 C 
HETATM   22  C   LIG     1       1.329   2.643   5.230  1.00  0.00     0.310 C 
HETATM   23  N   LIG     1       2.443   2.996   4.290  1.00  0.00     0.089 N 
ENDROOT
BRANCH  18  24
HETATM   24  N   LIG     1      11.229  -3.178   2.566  1.00  0.00     0.084 N 
HETATM   25  C   LIG     1      11.640  -3.343   1.122  1.00  0.00     0.309 C 
HETATM   26  C   LIG     1      12.324  -2.525   3.371  1.00  0.00     0.309 C 
ENDBRANCH  18  24
TORSDOF 1
