REMARK  6 active torsions:
REMARK  status: ('A' for Active; 'I' for Inactive)
REMARK    1  A    between atoms: C_5  and  O_27 
REMARK    2  A    between atoms: C_6  and  C_24 
REMARK    3  A    between atoms: C_12  and  C_13 
REMARK    4  A    between atoms: C_13  and  C_14 
REMARK    5  A    between atoms: C_16  and  O_21 
REMARK    6  A    between atoms: C_24  and  O_25 
ROOT
HETATM    1  C   LIG     1      -0.792   0.584   1.661  1.00  0.00     0.016 C 
HETATM    2  C   LIG     1      -1.679   0.315   0.420  1.00  0.00    -0.032 C 
HETATM    3  C   LIG     1      -2.418   1.625   0.042  1.00  0.00     0.012 C 
HETATM    4  C   LIG     1      -1.494   2.712  -0.505  1.00  0.00     0.033 C 
HETATM    5  C   LIG     1      -0.649   2.262  -1.697  1.00  0.00     0.128 C 
HETATM    6  C   LIG     1       0.147   0.940  -1.464  1.00  0.00     0.008 C 
HETATM    7  C   LIG     1      -0.850  -0.137  -0.863  1.00  0.00     0.007 C 
HETATM    8  C   LIG     1      -0.261  -1.564  -0.731  1.00  0.00     0.010 C 
HETATM    9  C   LIG     1      -1.314  -2.595  -0.332  1.00  0.00     0.034 C 
HETATM   10  C   LIG     1      -1.944  -2.138   0.953  1.00  0.00    -0.084 C 
HETATM   11  C   LIG     1      -1.710  -2.801   2.098  1.00  0.00     0.015 C 
HETATM   12  C   LIG     1      -2.726  -0.835   0.781  1.00  0.00     0.025 C 
HETATM   13  C   LIG     1       0.637   0.442  -2.859  1.00  0.00     0.020 C 
ENDROOT
BRANCH  12  14
HETATM   14  C   LIG     1      -3.719  -0.500   1.932  1.00  0.00     0.037 C 
BRANCH  14  15
HETATM   15  C   LIG     1      -4.748  -1.582   2.189  1.00  0.00    -0.010 C 
HETATM   16  C   LIG     1      -5.975  -1.660   1.658  1.00  0.00     0.044 C 
HETATM   17  C   LIG     1      -6.901  -2.769   2.011  1.00  0.00     0.291 C 
HETATM   18  C   LIG     1      -6.652  -0.779   0.691  1.00  0.00     0.181 C 
HETATM   19  O   LIG     1      -8.120  -2.451   1.469  1.00  0.00    -0.315 OA
HETATM   20  O   LIG     1      -6.632  -3.783   2.631  1.00  0.00    -0.260 OA
HETATM   21  C   LIG     1      -8.105  -1.102   1.001  1.00  0.00     0.215 C 
BRANCH  18  22
HETATM   22  O   LIG     1      -6.312  -1.152  -0.643  1.00  0.00    -0.389 OA
ATOM     23  HO  LIG     1      -6.749  -0.584  -1.267  1.00  0.00     0.210 HD
ENDBRANCH  18  22
ENDBRANCH  14  15
ENDBRANCH  12  14
BRANCH   6  24
HETATM   24  C   LIG     1       1.434   1.229  -0.644  1.00  0.00     0.176 C 
BRANCH  24  25
HETATM   25  O   LIG     1       2.217   0.065  -0.414  1.00  0.00    -0.400 OA
ATOM     26  HO  LIG     1       3.004   0.242   0.088  1.00  0.00     0.209 HD
ENDBRANCH  24  25
ENDBRANCH   6  24
BRANCH   5  27
HETATM   27  O   LIG     1       0.215   3.355  -2.017  1.00  0.00    -0.395 OA
ATOM     28  HO  LIG     1       0.740   3.075  -2.758  1.00  0.00     0.210 HD
ENDBRANCH   5  27
TORSDOF 6
