REMARK  6 active torsions:
REMARK  status: ('A' for Active; 'I' for Inactive)
REMARK    1  A    between atoms: C_2  and  O_4 
REMARK    2  A    between atoms: O_4  and  C_5 
REMARK    3  A    between atoms: C_8  and  C_30 
REMARK    4  A    between atoms: C_12  and  O_27 
REMARK    5  A    between atoms: C_14  and  O_24 
REMARK    6  A    between atoms: C_19  and  O_20 
ROOT
HETATM    1  C   LIG     1      -0.571   2.856  -1.754  1.00  0.00     0.168 C 
HETATM    2  C   LIG     1      -0.095   4.303  -1.972  1.00  0.00     0.062 C 
HETATM    3  C   LIG     1       0.345   4.540  -3.434  1.00  0.00     0.024 C 
HETATM    4  C   LIG     1      -0.364   5.618  -4.266  1.00  0.00    -0.020 C 
HETATM    5  C   LIG     1      -0.646   6.885  -3.435  1.00  0.00     0.094 C 
HETATM    6  C   LIG     1      -0.613   6.742  -1.922  1.00  0.00     0.163 C 
HETATM    7  O   LIG     1      -0.332   7.730  -1.232  1.00  0.00    -0.295 OA
HETATM    8  C   LIG     1      -0.944   5.387  -1.253  1.00  0.00     0.134 C 
HETATM    9  C   LIG     1      -2.504   5.113  -0.934  1.00  0.00     0.027 C 
HETATM   10  C   LIG     1      -2.942   5.810   0.406  1.00  0.00     0.130 C 
HETATM   11  C   LIG     1      -4.382   5.514   0.835  1.00  0.00     0.033 C 
HETATM   12  C   LIG     1      -4.648   4.023   0.968  1.00  0.00     0.012 C 
HETATM   13  C   LIG     1      -4.229   3.156  -0.253  1.00  0.00    -0.041 C 
HETATM   14  C   LIG     1      -2.763   3.562  -0.699  1.00  0.00     0.039 C 
HETATM   15  C   LIG     1      -2.107   2.763  -1.855  1.00  0.00     0.154 C 
HETATM   16  C   LIG     1      -5.285   3.248  -1.369  1.00  0.00     0.015 C 
HETATM   17  C   LIG     1      -4.281   1.691   0.270  1.00  0.00     0.015 C 
HETATM   18  C   LIG     1      -3.381   5.688  -2.071  1.00  0.00     0.022 C 
HETATM   19  C   LIG     1       0.604   5.993  -5.423  1.00  0.00     0.020 C 
ENDROOT
BRANCH   1  20
HETATM   20  O   LIG     1      -0.175   2.388  -0.431  1.00  0.00    -0.313 OA
BRANCH  20  21
HETATM   21  C   LIG     1       1.157   2.200  -0.223  1.00  0.00     0.255 C 
HETATM   22  C   LIG     1       1.439   1.958   1.227  1.00  0.00     0.126 C 
HETATM   23  O   LIG     1       2.019   2.224  -1.099  1.00  0.00    -0.266 OA
ENDBRANCH  20  21
ENDBRANCH   1  20
BRANCH  15  24
HETATM   24  O   LIG     1      -2.473   1.391  -1.887  1.00  0.00    -0.393 OA
ATOM     25  HO  LIG     1      -3.419   1.334  -1.949  1.00  0.00     0.210 HD
ENDBRANCH  15  24
BRANCH   8  26
HETATM   26  O   LIG     1      -0.296   5.476   0.053  1.00  0.00    -0.381 OA
ATOM     27  HO  LIG     1      -0.815   6.139   0.493  1.00  0.00     0.211 HD
ENDBRANCH   8  26
BRANCH   4  28
HETATM   28  C   LIG     1      -1.604   5.023  -4.924  1.00  0.00    -0.027 C 
HETATM   29  C   LIG     1      -2.471   5.678  -5.712  1.00  0.00     0.007 C 
ENDBRANCH   4  28
BRANCH  10  30
HETATM   30  O   LIG     1      -2.751   7.217   0.338  1.00  0.00    -0.395 OA
ATOM     31  HO  LIG     1      -3.016   7.638   1.147  1.00  0.00     0.210 HD
ENDBRANCH  10  30
TORSDOF 6
