REMARK  8 active torsions:
REMARK  status: ('A' for Active; 'I' for Inactive)
REMARK    1  A    between atoms: C_13  and  O_33 
REMARK    2  A    between atoms: C_14  and  C_18 
REMARK    3  A    between atoms: C_15  and  O_16 
REMARK    4  A    between atoms: C_19  and  O_31 
REMARK    5  A    between atoms: C_20  and  O_29 
REMARK    6  A    between atoms: C_21  and  O_27 
REMARK    7  A    between atoms: C_22  and  C_24 
REMARK    8  A    between atoms: C_24  and  O_25 
ROOT
HETATM    1  C   LIG     1      -3.762   0.185   0.161  1.00  0.00     0.001 A 
HETATM    2  C   LIG     1      -3.449  -1.154  -0.063  1.00  0.00     0.003 A 
HETATM    3  C   LIG     1      -2.131  -1.596   0.070  1.00  0.00     0.038 A 
HETATM    4  C   LIG     1      -1.123  -0.702   0.433  1.00  0.00     0.083 A 
HETATM    5  C   LIG     1      -1.436   0.634   0.645  1.00  0.00     0.044 A 
HETATM    6  C   LIG     1      -2.755   1.084   0.514  1.00  0.00     0.018 A 
HETATM    7  C   LIG     1      -0.356   1.590   0.924  1.00  0.00     0.175 C 
HETATM    8  O   LIG     1      -0.595   2.795   1.018  1.00  0.00    -0.291 OA
HETATM    9  C   LIG     1       1.067   1.082   0.938  1.00  0.00     0.151 C 
HETATM   10  C   LIG     1       1.097  -0.429   1.211  1.00  0.00     0.172 C 
HETATM   11  O   LIG     1       0.136  -1.215   0.499  1.00  0.00    -0.340 OA
HETATM   12  C   LIG     1       2.424  -1.014   0.816  1.00  0.00     0.044 C 
HETATM   13  C   LIG     1       3.157  -0.475  -0.170  1.00  0.00     0.079 C 
HETATM   14  C   LIG     1       2.714   0.710  -0.918  1.00  0.00     0.059 C 
HETATM   15  C   LIG     1       1.773   1.495  -0.344  1.00  0.00     0.073 C 
ENDROOT
BRANCH  14  16
HETATM   16  C   LIG     1       3.306   0.904  -2.323  1.00  0.00     0.093 C 
HETATM   17  O   LIG     1       4.458   1.761  -2.313  1.00  0.00    -0.342 OA
HETATM   18  C   LIG     1       4.151   3.161  -2.382  1.00  0.00     0.183 C 
HETATM   19  C   LIG     1       3.355   3.496  -3.658  1.00  0.00     0.181 C 
HETATM   20  C   LIG     1       2.067   2.672  -3.762  1.00  0.00     0.184 C 
HETATM   21  C   LIG     1       2.344   1.182  -3.515  1.00  0.00     0.207 C 
BRANCH  18  22
HETATM   22  C   LIG     1       5.496   3.899  -2.328  1.00  0.00     0.199 C 
BRANCH  22  23
HETATM   23  O   LIG     1       6.316   3.523  -3.440  1.00  0.00    -0.398 OA
ATOM     24  HO  LIG     1       7.148   3.980  -3.407  1.00  0.00     0.209 HD
ENDBRANCH  22  23
ENDBRANCH  18  22
BRANCH  19  25
HETATM   25  O   LIG     1       4.111   3.221  -4.861  1.00  0.00    -0.390 OA
ATOM     26  HO  LIG     1       4.909   3.732  -4.797  1.00  0.00     0.210 HD
ENDBRANCH  19  25
BRANCH  20  27
HETATM   27  O   LIG     1       1.523   2.858  -5.089  1.00  0.00    -0.390 OA
ATOM     28  HO  LIG     1       1.352   3.780  -5.242  1.00  0.00     0.210 HD
ENDBRANCH  20  27
BRANCH  21  29
HETATM   29  O   LIG     1       1.119   0.439  -3.402  1.00  0.00    -0.386 OA
ATOM     30  HO  LIG     1       0.532   0.609  -4.129  1.00  0.00     0.210 HD
ENDBRANCH  21  29
ENDBRANCH  14  16
BRANCH  13  31
HETATM   31  O   LIG     1       4.373  -0.999  -0.537  1.00  0.00    -0.360 OA
ATOM     32  HO  LIG     1       4.892  -0.617  -1.235  1.00  0.00     0.217 HD
ENDBRANCH  13  31
BRANCH  15  33
HETATM   33  O   LIG     1       1.432   2.724  -0.876  1.00  0.00    -0.363 OA
ATOM     34  HO  LIG     1       1.873   2.982  -1.677  1.00  0.00     0.217 HD
ENDBRANCH  15  33
TORSDOF 8
