REMARK  1 active torsions:
REMARK  status: ('A' for Active; 'I' for Inactive)
REMARK    1  A    between atoms: C_15  and  O_17 
ROOT
HETATM    1  C   LIG     1       0.996   1.406   1.023  1.00  0.00     0.065 C 
HETATM    2  C   LIG     1       0.929   0.243   1.976  1.00  0.00     0.002 C 
HETATM    3  N   LIG     1       1.361  -0.911   1.584  1.00  0.00    -0.395 N 
ATOM      4  HN  LIG     1       1.738  -1.006   0.641  1.00  0.00     0.159 HD
HETATM    5  C   LIG     1       1.323  -2.096   2.466  1.00  0.00     0.120 C 
HETATM    6  C   LIG     1       0.806  -1.869   3.893  1.00  0.00     0.031 C 
HETATM    7  C   LIG     1      -0.243  -0.786   3.847  1.00  0.00     0.051 C 
HETATM    8  C   LIG     1       0.471   0.488   3.387  1.00  0.00     0.135 C 
HETATM    9  N   LIG     1      -0.472   1.600   3.626  1.00  0.00    -0.379 N 
ATOM     10  HN  LIG     1      -0.666   2.435   3.073  1.00  0.00     0.160 HD
HETATM   11  C   LIG     1      -1.035   1.154   4.872  1.00  0.00     0.038 A 
HETATM   12  C   LIG     1      -0.897  -0.232   5.062  1.00  0.00    -0.025 A 
HETATM   13  C   LIG     1      -1.409  -0.859   6.178  1.00  0.00     0.012 A 
HETATM   14  C   LIG     1      -2.078  -0.065   7.114  1.00  0.00     0.037 A 
HETATM   15  C   LIG     1      -2.253   1.320   6.915  1.00  0.00     0.070 A 
HETATM   16  C   LIG     1      -1.736   1.937   5.771  1.00  0.00     0.066 A 
ENDROOT
BRANCH  15  17
HETATM   17  O   LIG     1      -2.952   1.946   7.914  1.00  0.00    -0.356 OA
HETATM   18  C   LIG     1      -3.221   3.331   7.737  1.00  0.00     0.210 C 
ENDBRANCH  15  17
TORSDOF 1
