REMARK  4 active torsions:
REMARK  status: ('A' for Active; 'I' for Inactive)
REMARK    1  A    between atoms: C_7  and  O_45 
REMARK    2  A    between atoms: C_25  and  O_26 
REMARK    3  A    between atoms: C_33  and  O_39 
REMARK    4  A    between atoms: C_34  and  O_37 
ROOT
HETATM    1  C   LIG     1       0.655  -2.161  -3.752  1.00  0.00     0.310 C 
HETATM    2  N   LIG     1       0.756  -1.536  -5.068  1.00  0.00     0.093 N 
HETATM    3  C   LIG     1       1.417  -0.226  -4.980  1.00  0.00     0.277 C 
HETATM    4  C   LIG     1       1.209   0.643  -6.226  1.00  0.00     0.069 C 
HETATM    5  C   LIG     1      -0.267   0.892  -6.362  1.00  0.00    -0.045 A 
HETATM    6  C   LIG     1      -0.779   2.142  -6.719  1.00  0.00     0.047 A 
HETATM    7  C   LIG     1      -2.161   2.396  -6.704  1.00  0.00     0.102 A 
HETATM    8  C   LIG     1      -3.046   1.356  -6.356  1.00  0.00     0.110 A 
HETATM    9  C   LIG     1      -2.518   0.080  -6.069  1.00  0.00     0.050 A 
HETATM   10  C   LIG     1      -1.134  -0.166  -6.069  1.00  0.00    -0.016 A 
HETATM   11  C   LIG     1      -0.548  -1.549  -5.784  1.00  0.00     0.260 C 
HETATM   12  C   LIG     1      -0.319  -2.352  -7.099  1.00  0.00     0.079 C 
HETATM   13  C   LIG     1      -1.615  -2.895  -7.663  1.00  0.00    -0.056 C 
HETATM   14  C   LIG     1      -2.245  -2.258  -8.732  1.00  0.00     0.010 C 
HETATM   15  C   LIG     1      -3.543  -2.613  -9.090  1.00  0.00     0.038 C 
HETATM   16  C   LIG     1      -4.212  -3.589  -8.337  1.00  0.00     0.076 C 
HETATM   17  C   LIG     1      -3.548  -4.319  -7.366  1.00  0.00     0.038 C 
HETATM   18  C   LIG     1      -2.247  -3.976  -7.019  1.00  0.00     0.010 C 
HETATM   19  O   LIG     1      -5.575  -3.750  -8.482  1.00  0.00    -0.308 OA
HETATM   20  C   LIG     1      -6.272  -2.891  -7.645  1.00  0.00     0.109 A 
HETATM   21  C   LIG     1      -6.455  -1.567  -8.062  1.00  0.00     0.047 A 
HETATM   22  C   LIG     1      -7.060  -0.628  -7.223  1.00  0.00    -0.053 A 
HETATM   23  C   LIG     1      -7.514  -1.060  -5.971  1.00  0.00     0.010 A 
HETATM   24  C   LIG     1      -7.378  -2.397  -5.570  1.00  0.00     0.040 A 
HETATM   25  C   LIG     1      -6.776  -3.331  -6.417  1.00  0.00     0.102 A 
HETATM   26  C   LIG     1      -7.345   0.784  -7.691  1.00  0.00     0.079 C 
HETATM   27  C   LIG     1      -6.211   1.555  -8.459  1.00  0.00     0.263 C 
HETATM   28  C   LIG     1      -5.814   2.759  -7.586  1.00  0.00     0.018 C 
HETATM   29  C   LIG     1      -6.263   4.043  -7.922  1.00  0.00    -0.042 C 
HETATM   30  C   LIG     1      -6.236   5.055  -6.963  1.00  0.00     0.047 C 
HETATM   31  C   LIG     1      -5.719   4.823  -5.682  1.00  0.00     0.104 C 
HETATM   32  C   LIG     1      -5.146   3.574  -5.370  1.00  0.00     0.136 C 
HETATM   33  C   LIG     1      -5.108   2.585  -6.377  1.00  0.00     0.121 C 
HETATM   34  O   LIG     1      -4.431   1.397  -6.222  1.00  0.00    -0.304 OA
HETATM   35  C   LIG     1      -6.771   4.316  -9.310  1.00  0.00     0.069 C 
HETATM   36  C   LIG     1      -6.289   3.225 -10.271  1.00  0.00     0.277 C 
HETATM   37  N   LIG     1      -6.777   1.934  -9.791  1.00  0.00     0.093 N 
HETATM   38  C   LIG     1      -6.595   0.888 -10.791  1.00  0.00     0.310 C 
ENDROOT
BRANCH   7  39
HETATM   39  O   LIG     1      -2.658   3.621  -7.064  1.00  0.00    -0.353 OA
HETATM   40  C   LIG     1      -1.816   4.742  -6.804  1.00  0.00     0.210 C 
ENDBRANCH   7  39
BRANCH  32  41
HETATM   41  O   LIG     1      -4.616   3.398  -4.116  1.00  0.00    -0.351 OA
HETATM   42  C   LIG     1      -4.921   2.157  -3.484  1.00  0.00     0.210 C 
ENDBRANCH  32  41
BRANCH  31  43
HETATM   43  O   LIG     1      -5.901   5.902  -4.855  1.00  0.00    -0.353 OA
HETATM   44  C   LIG     1      -4.959   6.096  -3.814  1.00  0.00     0.210 C 
ENDBRANCH  31  43
BRANCH  25  45
HETATM   45  O   LIG     1      -6.587  -4.648  -6.091  1.00  0.00    -0.353 OA
HETATM   46  C   LIG     1      -7.592  -5.225  -5.265  1.00  0.00     0.210 C 
ENDBRANCH  25  45
TORSDOF 4
