REMARK  6 active torsions:
REMARK  status: ('A' for Active; 'I' for Inactive)
REMARK    1  A    between atoms: C_2  and  O_4 
REMARK    2  A    between atoms: O_4  and  C_5 
REMARK    3  A    between atoms: C_8  and  C_30 
REMARK    4  A    between atoms: C_12  and  O_27 
REMARK    5  A    between atoms: C_14  and  O_24 
REMARK    6  A    between atoms: C_19  and  O_20 
ROOT
HETATM    1  C   LIG     1       1.282  -1.485  -2.581  1.00  0.00     0.168 C 
HETATM    2  C   LIG     1       2.423  -0.661  -3.218  1.00  0.00     0.062 C 
HETATM    3  C   LIG     1       2.653   0.748  -2.643  1.00  0.00     0.024 C 
HETATM    4  C   LIG     1       3.940   1.438  -3.197  1.00  0.00    -0.020 C 
HETATM    5  C   LIG     1       4.536   0.677  -4.406  1.00  0.00     0.094 C 
HETATM    6  C   LIG     1       3.466   0.189  -5.360  1.00  0.00     0.163 C 
HETATM    7  O   LIG     1       3.561   0.432  -6.565  1.00  0.00    -0.295 OA
HETATM    8  C   LIG     1       2.353  -0.710  -4.772  1.00  0.00     0.134 C 
HETATM    9  C   LIG     1       0.909  -0.431  -5.424  1.00  0.00     0.027 C 
HETATM   10  C   LIG     1       0.873  -0.777  -6.961  1.00  0.00     0.130 C 
HETATM   11  C   LIG     1      -0.538  -0.787  -7.560  1.00  0.00     0.033 C 
HETATM   12  C   LIG     1      -1.459  -1.757  -6.834  1.00  0.00     0.012 C 
HETATM   13  C   LIG     1      -1.581  -1.487  -5.315  1.00  0.00    -0.041 C 
HETATM   14  C   LIG     1      -0.137  -1.373  -4.683  1.00  0.00     0.039 C 
HETATM   15  C   LIG     1      -0.117  -1.179  -3.147  1.00  0.00     0.154 C 
HETATM   16  C   LIG     1      -2.321  -2.718  -4.719  1.00  0.00     0.015 C 
HETATM   17  C   LIG     1      -2.509  -0.284  -5.068  1.00  0.00     0.015 C 
HETATM   18  C   LIG     1       0.580   1.082  -5.338  1.00  0.00     0.022 C 
HETATM   19  C   LIG     1       3.594   2.876  -3.648  1.00  0.00     0.020 C 
ENDROOT
BRANCH   1  20
HETATM   20  O   LIG     1       1.274  -1.301  -1.144  1.00  0.00    -0.313 OA
BRANCH  20  21
HETATM   21  C   LIG     1       0.826  -2.369  -0.420  1.00  0.00     0.255 C 
HETATM   22  C   LIG     1       0.845  -2.059   1.047  1.00  0.00     0.126 C 
HETATM   23  O   LIG     1       0.406  -3.414  -0.887  1.00  0.00    -0.266 OA
ENDBRANCH  20  21
ENDBRANCH   1  20
BRANCH  15  24
HETATM   24  O   LIG     1      -0.526   0.133  -2.771  1.00  0.00    -0.393 OA
ATOM     25  HO  LIG     1      -1.389   0.322  -3.120  1.00  0.00     0.210 HD
ENDBRANCH  15  24
BRANCH   8  26
HETATM   26  O   LIG     1       2.772  -2.062  -5.060  1.00  0.00    -0.381 OA
ATOM     27  HO  LIG     1       2.729  -2.092  -6.009  1.00  0.00     0.211 HD
ENDBRANCH   8  26
BRANCH   4  28
HETATM   28  C   LIG     1       4.996   1.465  -2.084  1.00  0.00    -0.027 C 
HETATM   29  C   LIG     1       5.209   2.456  -1.204  1.00  0.00     0.007 C 
ENDBRANCH   4  28
BRANCH  10  30
HETATM   30  O   LIG     1       1.464  -2.058  -7.207  1.00  0.00    -0.395 OA
ATOM     31  HO  LIG     1       1.442  -2.267  -8.134  1.00  0.00     0.210 HD
ENDBRANCH  10  30
TORSDOF 6
