REMARK  10 active torsions:
REMARK  status: ('A' for Active; 'I' for Inactive)
REMARK    1  A    between atoms: O_2  and  C_3 
REMARK    2  A    between atoms: C_4  and  O_16 
REMARK    3  A    between atoms: C_5  and  O_14 
REMARK    4  A    between atoms: C_6  and  O_12 
REMARK    5  A    between atoms: C_7  and  C_9 
REMARK    6  A    between atoms: O_16  and  C_17 
REMARK    7  A    between atoms: C_18  and  O_30 
REMARK    8  A    between atoms: C_19  and  O_28 
REMARK    9  A    between atoms: C_20  and  O_26 
REMARK   10  A    between atoms: C_21  and  C_23 
ROOT
HETATM    1  O   LIG     1       1.411  -3.976   3.180  1.00  0.00    -0.346 OA
ENDROOT
BRANCH   1   2
HETATM    2  C   LIG     1       0.222  -3.162   3.007  1.00  0.00     0.211 C 
HETATM    3  C   LIG     1       0.522  -1.643   2.976  1.00  0.00     0.291 C 
HETATM    4  O   LIG     1       1.339  -1.318   1.846  1.00  0.00    -0.340 OA
HETATM    5  C   LIG     1       0.656  -1.546   0.589  1.00  0.00     0.256 C 
HETATM    6  C   LIG     1       0.237  -3.011   0.423  1.00  0.00     0.189 C 
HETATM    7  C   LIG     1      -0.513  -3.499   1.678  1.00  0.00     0.183 C 
BRANCH   3   8
HETATM    8  O   LIG     1      -0.684  -0.865   3.008  1.00  0.00    -0.363 OA
HETATM    9  C   LIG     1      -0.380   0.523   3.106  1.00  0.00     0.204 C 
ENDBRANCH   3   8
BRANCH   5  10
HETATM   10  C   LIG     1       1.527  -1.029  -0.583  1.00  0.00     0.206 C 
HETATM   11  O   LIG     1       2.225  -1.906  -1.182  1.00  0.00    -0.646 OA
HETATM   12  O   LIG     1       1.412   0.204  -0.848  1.00  0.00    -0.646 OA
ENDBRANCH   5  10
BRANCH   6  13
HETATM   13  O   LIG     1       1.335  -3.911   0.189  1.00  0.00    -0.390 OA
ATOM     14  HO  LIG     1       1.797  -3.610  -0.585  1.00  0.00     0.210 HD
ENDBRANCH   6  13
BRANCH   7  15
HETATM   15  O   LIG     1      -0.774  -4.907   1.546  1.00  0.00    -0.390 OA
ATOM     16  HO  LIG     1      -1.223  -5.113   0.734  1.00  0.00     0.210 HD
ENDBRANCH   7  15
ENDBRANCH   1   2
BRANCH   1  17
HETATM   17  C   LIG     1       2.139  -3.735   4.397  1.00  0.00     0.293 C 
HETATM   18  O   LIG     1       1.348  -4.054   5.547  1.00  0.00    -0.340 OA
HETATM   19  C   LIG     1       2.026  -3.717   6.787  1.00  0.00     0.256 C 
HETATM   20  C   LIG     1       3.302  -4.551   6.956  1.00  0.00     0.189 C 
HETATM   21  C   LIG     1       4.208  -4.318   5.736  1.00  0.00     0.183 C 
HETATM   22  C   LIG     1       3.453  -4.562   4.411  1.00  0.00     0.204 C 
BRANCH  19  23
HETATM   23  C   LIG     1       1.083  -3.917   8.003  1.00  0.00     0.206 C 
HETATM   24  O   LIG     1       1.195  -5.017   8.616  1.00  0.00    -0.646 OA
HETATM   25  O   LIG     1       0.356  -2.913   8.291  1.00  0.00    -0.646 OA
ENDBRANCH  19  23
BRANCH  20  26
HETATM   26  O   LIG     1       3.016  -5.963   7.047  1.00  0.00    -0.390 OA
ATOM     27  HO  LIG     1       2.456  -6.107   7.801  1.00  0.00     0.210 HD
ENDBRANCH  20  26
BRANCH  21  28
HETATM   28  O   LIG     1       5.346  -5.192   5.814  1.00  0.00    -0.390 OA
ATOM     29  HO  LIG     1       5.810  -5.042   6.629  1.00  0.00     0.210 HD
ENDBRANCH  21  28
BRANCH  22  30
HETATM   30  O   LIG     1       3.195  -5.976   4.278  1.00  0.00    -0.388 OA
ATOM     31  HO  LIG     1       3.999  -6.482   4.287  1.00  0.00     0.210 HD
ENDBRANCH  22  30
ENDBRANCH   1  17
TORSDOF 10
