REMARK  18 active torsions:
REMARK  status: ('A' for Active; 'I' for Inactive)
REMARK    1  A    between atoms: C_3  and  O_56 
REMARK    2  A    between atoms: C_4  and  O_54 
REMARK    3  A    between atoms: C_5  and  O_52 
REMARK    4  A    between atoms: C_6  and  O_8 
REMARK    5  A    between atoms: O_8  and  C_9 
REMARK    6  A    between atoms: C_10  and  O_11 
REMARK    7  A    between atoms: C_14  and  O_50 
REMARK    8  A    between atoms: C_16  and  O_34 
REMARK    9  A    between atoms: C_17  and  C_29 
REMARK   10  A    between atoms: C_20  and  C_21 
REMARK   11  A    between atoms: C_24  and  O_27 
REMARK   12  A    between atoms: C_29  and  C_30 
REMARK   13  A    between atoms: O_34  and  C_35 
REMARK   14  A    between atoms: C_36  and  O_48 
REMARK   15  A    between atoms: C_37  and  O_46 
REMARK   16  A    between atoms: C_38  and  O_44 
REMARK   17  A    between atoms: C_39  and  C_41 
REMARK   18  A    between atoms: C_41  and  O_42 
ROOT
HETATM    1  C   LIG     1     -15.363  -5.792   3.786  1.00  0.00     0.141 C 
HETATM    2  C   LIG     1     -14.113  -5.347   3.249  1.00  0.00     0.118 C 
HETATM    3  C   LIG     1     -13.569  -6.095   2.161  1.00  0.00     0.068 C 
HETATM    4  C   LIG     1     -12.884  -5.466   1.131  1.00  0.00     0.084 C 
HETATM    5  C   LIG     1     -12.033  -6.272   0.479  1.00  0.00     0.075 C 
HETATM    6  C   LIG     1     -11.852  -7.661   0.583  1.00  0.00     0.084 C 
HETATM    7  C   LIG     1     -12.580  -8.266   1.638  1.00  0.00     0.014 C 
HETATM    8  C   LIG     1     -13.471  -7.434   2.385  1.00  0.00     0.101 C 
HETATM    9  O   LIG     1     -14.225  -7.889   3.432  1.00  0.00    -0.305 OA
HETATM   10  C   LIG     1     -15.435  -7.175   3.778  1.00  0.00     0.122 C 
ENDROOT
BRANCH   6  11
HETATM   11  O   LIG     1     -10.998  -8.395  -0.216  1.00  0.00    -0.317 OA
BRANCH  11  12
HETATM   12  C   LIG     1     -10.160  -7.870  -1.319  1.00  0.00     0.298 C 
HETATM   13  O   LIG     1     -10.383  -8.554  -2.577  1.00  0.00    -0.348 OA
HETATM   14  C   LIG     1      -9.478  -8.095  -3.622  1.00  0.00     0.179 C 
HETATM   15  C   LIG     1      -9.620  -6.586  -3.948  1.00  0.00     0.180 C 
HETATM   16  C   LIG     1      -9.357  -5.811  -2.673  1.00  0.00     0.183 C 
HETATM   17  C   LIG     1     -10.242  -6.371  -1.605  1.00  0.00     0.205 C 
BRANCH  14  18
HETATM   18  C   LIG     1      -9.655  -8.951  -4.877  1.00  0.00     0.198 C 
BRANCH  18  19
HETATM   19  O   LIG     1     -10.944  -8.803  -5.453  1.00  0.00    -0.398 OA
ATOM     20  HO  LIG     1     -11.054  -9.335  -6.233  1.00  0.00     0.209 HD
ENDBRANCH  18  19
ENDBRANCH  14  18
BRANCH  15  21
HETATM   21  O   LIG     1     -10.915  -6.219  -4.449  1.00  0.00    -0.390 OA
ATOM     22  HO  LIG     1     -11.080  -6.705  -5.248  1.00  0.00     0.210 HD
ENDBRANCH  15  21
BRANCH  16  23
HETATM   23  O   LIG     1      -9.714  -4.421  -2.818  1.00  0.00    -0.390 OA
ATOM     24  HO  LIG     1      -9.152  -4.065  -3.496  1.00  0.00     0.210 HD
ENDBRANCH  16  23
BRANCH  17  25
HETATM   25  O   LIG     1     -11.601  -6.069  -2.046  1.00  0.00    -0.388 OA
ATOM     26  HO  LIG     1     -11.652  -5.137  -2.224  1.00  0.00     0.210 HD
ENDBRANCH  17  25
ENDBRANCH  11  12
ENDBRANCH   6  11
BRANCH   7  27
HETATM   27  C   LIG     1     -12.227  -9.692   2.042  1.00  0.00     0.072 C 
BRANCH  27  28
HETATM   28  C   LIG     1     -12.951 -10.390   3.161  1.00  0.00    -0.020 C 
HETATM   29  C   LIG     1     -14.185 -10.928   3.162  1.00  0.00    -0.091 C 
HETATM   30  C   LIG     1     -14.573 -11.696   4.587  1.00  0.00     0.042 C 
HETATM   31  C   LIG     1     -15.120 -10.596   1.893  1.00  0.00     0.042 C 
ENDBRANCH  27  28
ENDBRANCH   7  27
BRANCH   4  32
HETATM   32  O   LIG     1     -12.942  -4.135   0.851  1.00  0.00    -0.360 OA
ATOM     33  HO  LIG     1     -12.473  -3.704   0.146  1.00  0.00     0.217 HD
ENDBRANCH   4  32
BRANCH   2  34
HETATM   34  O   LIG     1     -13.264  -4.494   3.841  1.00  0.00    -0.357 OA
ATOM     35  HO  LIG     1     -12.434  -4.199   3.485  1.00  0.00     0.217 HD
ENDBRANCH   2  34
BRANCH  10  36
HETATM   36  C   LIG     1     -16.575  -8.138   4.063  1.00  0.00     0.001 C 
HETATM   37  C   LIG     1     -17.941  -8.125   3.799  1.00  0.00     0.017 C 
HETATM   38  C   LIG     1     -18.744  -9.328   3.556  1.00  0.00     0.037 C 
HETATM   39  C   LIG     1     -18.160 -10.558   3.477  1.00  0.00     0.068 C 
HETATM   40  C   LIG     1     -16.921 -10.566   3.983  1.00  0.00     0.037 C 
HETATM   41  C   LIG     1     -16.173  -9.402   4.385  1.00  0.00     0.017 C 
BRANCH  39  42
HETATM   42  O   LIG     1     -18.457 -11.681   2.770  1.00  0.00    -0.356 OA
HETATM   43  C   LIG     1     -19.730 -12.229   3.005  1.00  0.00     0.210 C 
ENDBRANCH  39  42
ENDBRANCH  10  36
BRANCH   1  44
HETATM   44  O   LIG     1     -16.430  -4.981   4.098  1.00  0.00    -0.312 OA
BRANCH  44  45
HETATM   45  C   LIG     1     -16.188  -3.683   4.708  1.00  0.00     0.298 C 
HETATM   46  C   LIG     1     -16.262  -3.810   6.247  1.00  0.00     0.205 C 
HETATM   47  C   LIG     1     -16.114  -2.392   6.834  1.00  0.00     0.183 C 
HETATM   48  C   LIG     1     -14.715  -1.849   6.490  1.00  0.00     0.178 C 
HETATM   49  C   LIG     1     -14.668  -1.756   4.943  1.00  0.00     0.152 C 
HETATM   50  C   LIG     1     -13.281  -1.362   4.435  1.00  0.00     0.042 C 
HETATM   51  O   LIG     1     -15.036  -2.965   4.272  1.00  0.00    -0.351 OA
BRANCH  46  52
HETATM   52  O   LIG     1     -15.258  -4.726   6.731  1.00  0.00    -0.388 OA
ATOM     53  HO  LIG     1     -15.349  -5.600   6.369  1.00  0.00     0.210 HD
ENDBRANCH  46  52
BRANCH  47  54
HETATM   54  O   LIG     1     -16.468  -2.307   8.216  1.00  0.00    -0.390 OA
ATOM     55  HO  LIG     1     -17.331  -2.642   8.428  1.00  0.00     0.210 HD
ENDBRANCH  47  54
BRANCH  48  56
HETATM   56  O   LIG     1     -13.694  -2.707   7.031  1.00  0.00    -0.390 OA
ATOM     57  HO  LIG     1     -13.723  -2.764   7.979  1.00  0.00     0.210 HD
ENDBRANCH  48  56
ENDBRANCH  44  45
ENDBRANCH   1  44
TORSDOF 18
