REMARK  1 active torsions:
REMARK  status: ('A' for Active; 'I' for Inactive)
REMARK    1  A    between atoms: C_18  and  N_25 
ROOT
HETATM    1  C   LIG     1      -1.129   3.098   2.377  1.00  0.00     0.043 C 
HETATM    2  C   LIG     1      -0.077   2.327   3.157  1.00  0.00     0.223 C 
HETATM    3  C   LIG     1       1.371   2.648   2.806  1.00  0.00     0.029 C 
HETATM    4  C   LIG     1       1.754   4.145   2.711  1.00  0.00     0.008 C 
HETATM    5  C   LIG     1       3.030   4.334   3.548  1.00  0.00     0.006 C 
HETATM    6  C   LIG     1       3.485   2.912   3.861  1.00  0.00     0.001 C 
HETATM    7  C   LIG     1       2.165   2.139   4.015  1.00  0.00    -0.004 C 
HETATM    8  C   LIG     1       2.466   0.634   4.046  1.00  0.00     0.012 C 
HETATM    9  C   LIG     1       3.512   0.274   5.123  1.00  0.00     0.007 C 
HETATM   10  C   LIG     1       4.785   1.164   5.160  1.00  0.00     0.003 C 
HETATM   11  C   LIG     1       4.410   2.672   5.056  1.00  0.00    -0.001 C 
HETATM   12  C   LIG     1       5.650   3.568   5.098  1.00  0.00     0.033 C 
HETATM   13  C   LIG     1       6.819   3.056   4.325  1.00  0.00    -0.023 C 
HETATM   14  C   LIG     1       6.984   1.786   3.921  1.00  0.00    -0.073 C 
HETATM   15  C   LIG     1       5.974   0.672   4.216  1.00  0.00    -0.017 C 
HETATM   16  C   LIG     1       6.713  -0.516   4.941  1.00  0.00     0.016 C 
HETATM   17  C   LIG     1       8.248  -0.422   4.964  1.00  0.00     0.037 C 
HETATM   18  C   LIG     1       8.800   0.018   3.607  1.00  0.00     0.226 C 
HETATM   19  C   LIG     1       8.256   1.398   3.182  1.00  0.00     0.070 C 
HETATM   20  C   LIG     1       5.476   0.131   2.851  1.00  0.00     0.020 C 
HETATM   21  C   LIG     1       1.260   2.538   5.209  1.00  0.00     0.282 C 
HETATM   22  C   LIG     1      -1.171   1.839   5.387  1.00  0.00     0.310 C 
HETATM   23  N   LIG     1      -0.153   2.646   4.637  1.00  0.00     0.089 N 
ENDROOT
BRANCH  18  24
HETATM   24  N   LIG     1      10.326  -0.060   3.588  1.00  0.00     0.084 N 
HETATM   25  C   LIG     1      10.896   0.090   2.198  1.00  0.00     0.309 C 
HETATM   26  C   LIG     1      11.058   0.815   4.574  1.00  0.00     0.309 C 
ENDBRANCH  18  24
TORSDOF 1
