REMARK  3 active torsions:
REMARK  status: ('A' for Active; 'I' for Inactive)
REMARK    1  A    between atoms: C_5  and  C_33 
REMARK    2  A    between atoms: C_15  and  O_27 
REMARK    3  A    between atoms: C_20  and  O_24 
ROOT
HETATM    1  C   LIG     1       3.196  -0.233   0.158  1.00  0.00     0.015 C 
HETATM    2  C   LIG     1       2.153   0.392   1.106  1.00  0.00    -0.047 C 
HETATM    3  C   LIG     1       1.017  -0.622   1.328  1.00  0.00     0.010 C 
HETATM    4  C   LIG     1      -0.184  -0.024   2.059  1.00  0.00     0.022 C 
HETATM    5  C   LIG     1      -0.759   1.227   1.352  1.00  0.00     0.056 C 
HETATM    6  C   LIG     1      -1.825   1.851   2.271  1.00  0.00     0.022 C 
HETATM    7  C   LIG     1      -2.488   3.059   1.618  1.00  0.00     0.016 C 
HETATM    8  C   LIG     1      -1.516   4.173   1.092  1.00  0.00    -0.013 C 
HETATM    9  C   LIG     1      -0.172   3.619   0.572  1.00  0.00    -0.069 C 
HETATM   10  C   LIG     1       0.553   4.358  -0.292  1.00  0.00    -0.022 C 
HETATM   11  C   LIG     1       0.192   5.714  -0.806  1.00  0.00     0.033 C 
HETATM   12  C   LIG     1      -1.292   6.148  -0.710  1.00  0.00     0.007 C 
HETATM   13  C   LIG     1      -2.237   5.050  -0.072  1.00  0.00    -0.026 C 
HETATM   14  C   LIG     1      -3.647   5.595   0.341  1.00  0.00     0.042 C 
HETATM   15  C   LIG     1      -3.849   7.096   0.560  1.00  0.00     0.124 C 
HETATM   16  C   LIG     1      -3.066   7.957  -0.451  1.00  0.00     0.033 C 
HETATM   17  C   LIG     1      -1.518   7.685  -0.360  1.00  0.00    -0.033 C 
HETATM   18  C   LIG     1      -0.795   8.533  -1.457  1.00  0.00     0.012 C 
HETATM   19  C   LIG     1      -1.172  10.008  -1.450  1.00  0.00     0.033 C 
HETATM   20  C   LIG     1      -2.672  10.190  -1.634  1.00  0.00     0.126 C 
HETATM   21  C   LIG     1      -3.529   9.470  -0.550  1.00  0.00    -0.015 C 
HETATM   22  C   LIG     1      -5.005   9.522  -1.046  1.00  0.00     0.018 C 
HETATM   23  C   LIG     1      -3.519  10.246   0.783  1.00  0.00     0.018 C 
HETATM   24  C   LIG     1      -0.878   8.081   0.987  1.00  0.00     0.016 C 
HETATM   25  C   LIG     1      -2.553   4.066  -1.283  1.00  0.00     0.016 C 
HETATM   26  C   LIG     1       0.349   2.285   1.149  1.00  0.00     0.035 C 
HETATM   27  C   LIG     1       1.613   1.694   0.466  1.00  0.00     0.019 C 
HETATM   28  C   LIG     1      -1.148   5.017   2.335  1.00  0.00     0.021 C 
HETATM   29  C   LIG     1       2.862   0.707   2.439  1.00  0.00     0.015 C 
ENDROOT
BRANCH   5  30
HETATM   30  C   LIG     1      -1.474   0.651   0.085  1.00  0.00     0.182 C 
HETATM   31  O   LIG     1      -0.913   0.862  -1.025  1.00  0.00    -0.647 OA
HETATM   32  O   LIG     1      -2.541   0.003   0.306  1.00  0.00    -0.647 OA
ENDBRANCH   5  30
BRANCH  15  33
HETATM   33  O   LIG     1      -3.580   7.450   1.908  1.00  0.00    -0.395 OA
ATOM     34  HO  LIG     1      -3.705   8.382   2.044  1.00  0.00     0.210 HD
ENDBRANCH  15  33
BRANCH  20  35
HETATM   35  O   LIG     1      -2.961  11.588  -1.703  1.00  0.00    -0.395 OA
ATOM     36  HO  LIG     1      -3.897  11.702  -1.818  1.00  0.00     0.210 HD
ENDBRANCH  20  35
TORSDOF 3
