REMARK  8 active torsions:
REMARK  status: ('A' for Active; 'I' for Inactive)
REMARK    1  A    between atoms: C_9  and  O_14 
REMARK    2  A    between atoms: C_10  and  O_12 
REMARK    3  A    between atoms: O_14  and  C_15 
REMARK    4  A    between atoms: C_16  and  O_28 
REMARK    5  A    between atoms: C_17  and  O_26 
REMARK    6  A    between atoms: C_18  and  O_24 
REMARK    7  A    between atoms: C_19  and  C_21 
REMARK    8  A    between atoms: C_21  and  O_22 
ROOT
HETATM    1  C   LIG     1       5.670  -0.113   0.096  1.00  0.00     0.298 C 
HETATM    2  C   LIG     1       6.382  -0.210   1.460  1.00  0.00     0.205 C 
HETATM    3  C   LIG     1       6.288  -1.628   2.040  1.00  0.00     0.183 C 
HETATM    4  C   LIG     1       6.726  -2.676   1.012  1.00  0.00     0.180 C 
HETATM    5  C   LIG     1       5.962  -2.472  -0.302  1.00  0.00     0.179 C 
HETATM    6  O   LIG     1       6.139  -1.129  -0.805  1.00  0.00    -0.348 OA
ENDROOT
BRANCH   1   7
HETATM    7  O   LIG     1       4.255  -0.175   0.291  1.00  0.00    -0.315 OA
BRANCH   7   8
HETATM    8  C   LIG     1       3.491   0.556  -0.584  1.00  0.00     0.106 A 
HETATM    9  C   LIG     1       3.847   0.795  -1.917  1.00  0.00     0.054 A 
HETATM   10  C   LIG     1       3.006   1.541  -2.749  1.00  0.00     0.001 A 
HETATM   11  C   LIG     1       3.355   1.826  -4.131  1.00  0.00     0.020 A 
HETATM   12  C   LIG     1       1.800   2.021  -2.243  1.00  0.00     0.092 A 
HETATM   13  C   LIG     1       2.513   2.530  -4.891  1.00  0.00     0.083 A 
HETATM   14  C   LIG     1       1.225   3.039  -4.384  1.00  0.00     0.288 A 
HETATM   15  O   LIG     1       0.474   3.675  -5.110  1.00  0.00    -0.260 OA
HETATM   16  O   LIG     1       0.923   2.764  -3.055  1.00  0.00    -0.275 OA
HETATM   17  C   LIG     1       1.412   1.780  -0.927  1.00  0.00     0.077 A 
HETATM   18  C   LIG     1       2.265   1.044  -0.105  1.00  0.00     0.101 A 
BRANCH  18  19
HETATM   19  O   LIG     1       1.920   0.804   1.198  1.00  0.00    -0.358 OA
ATOM     20  HO  LIG     1       1.090   1.134   1.522  1.00  0.00     0.217 HD
ENDBRANCH  18  19
ENDBRANCH   7   8
ENDBRANCH   1   7
BRANCH   2  21
HETATM   21  O   LIG     1       7.779   0.135   1.337  1.00  0.00    -0.388 OA
ATOM     22  HO  LIG     1       8.218   0.075   2.177  1.00  0.00     0.210 HD
ENDBRANCH   2  21
BRANCH   5  23
HETATM   23  C   LIG     1       6.463  -3.422  -1.396  1.00  0.00     0.198 C 
BRANCH  23  24
HETATM   24  O   LIG     1       5.692  -3.225  -2.584  1.00  0.00    -0.398 OA
ATOM     25  HO  LIG     1       6.002  -3.814  -3.262  1.00  0.00     0.209 HD
ENDBRANCH  23  24
ENDBRANCH   5  23
BRANCH   3  26
HETATM   26  O   LIG     1       7.149  -1.739   3.189  1.00  0.00    -0.390 OA
ATOM     27  HO  LIG     1       7.091  -2.617   3.548  1.00  0.00     0.210 HD
ENDBRANCH   3  26
BRANCH   4  28
HETATM   28  O   LIG     1       8.143  -2.532   0.791  1.00  0.00    -0.390 OA
ATOM     29  HO  LIG     1       8.415  -3.182   0.154  1.00  0.00     0.210 HD
ENDBRANCH   4  28
TORSDOF 8
