REMARK  6 active torsions:
REMARK  status: ('A' for Active; 'I' for Inactive)
REMARK    1  A    between atoms: C_5  and  O_27 
REMARK    2  A    between atoms: C_6  and  C_24 
REMARK    3  A    between atoms: C_12  and  C_13 
REMARK    4  A    between atoms: C_13  and  C_14 
REMARK    5  A    between atoms: C_16  and  O_21 
REMARK    6  A    between atoms: C_24  and  O_25 
ROOT
HETATM    1  C   LIG     1      -0.365   0.444   1.555  1.00  0.00     0.016 C 
HETATM    2  C   LIG     1      -1.368   0.234   0.393  1.00  0.00    -0.032 C 
HETATM    3  C   LIG     1      -2.237   1.511   0.263  1.00  0.00     0.012 C 
HETATM    4  C   LIG     1      -1.488   2.712  -0.314  1.00  0.00     0.033 C 
HETATM    5  C   LIG     1      -0.847   2.420  -1.669  1.00  0.00     0.128 C 
HETATM    6  C   LIG     1       0.115   1.193  -1.655  1.00  0.00     0.008 C 
HETATM    7  C   LIG     1      -0.664  -0.028  -1.014  1.00  0.00     0.007 C 
HETATM    8  C   LIG     1       0.099  -1.377  -1.049  1.00  0.00     0.010 C 
HETATM    9  C   LIG     1      -0.780  -2.554  -0.634  1.00  0.00     0.034 C 
HETATM   10  C   LIG     1      -1.367  -2.266   0.721  1.00  0.00    -0.084 C 
HETATM   11  C   LIG     1      -1.001  -2.990   1.792  1.00  0.00     0.015 C 
HETATM   12  C   LIG     1      -2.279  -1.038   0.719  1.00  0.00     0.025 C 
HETATM   13  C   LIG     1       0.456   0.850  -3.139  1.00  0.00     0.020 C 
ENDROOT
BRANCH  12  14
HETATM   14  C   LIG     1      -3.238  -0.904   1.940  1.00  0.00     0.037 C 
BRANCH  14  15
HETATM   15  C   LIG     1      -4.152  -2.099   2.128  1.00  0.00    -0.010 C 
HETATM   16  C   LIG     1      -5.385  -2.279   1.620  1.00  0.00     0.044 C 
HETATM   17  C   LIG     1      -6.122  -3.547   1.850  1.00  0.00     0.291 C 
HETATM   18  C   LIG     1      -6.224  -1.419   0.754  1.00  0.00     0.181 C 
HETATM   19  O   LIG     1      -7.351  -3.443   1.277  1.00  0.00    -0.315 OA
HETATM   20  O   LIG     1      -5.705  -4.523   2.438  1.00  0.00    -0.260 OA
HETATM   21  C   LIG     1      -7.573  -2.112   0.812  1.00  0.00     0.215 C 
BRANCH  18  22
HETATM   22  O   LIG     1      -6.318  -0.080   1.217  1.00  0.00    -0.389 OA
ATOM     23  HO  LIG     1      -6.856   0.472   0.662  1.00  0.00     0.210 HD
ENDBRANCH  18  22
ENDBRANCH  14  15
ENDBRANCH  12  14
BRANCH   6  24
HETATM   24  C   LIG     1       1.459   1.574  -0.980  1.00  0.00     0.176 C 
BRANCH  24  25
HETATM   25  O   LIG     1       2.394   0.504  -0.969  1.00  0.00    -0.400 OA
ATOM     26  HO  LIG     1       3.217   0.737  -0.556  1.00  0.00     0.209 HD
ENDBRANCH  24  25
ENDBRANCH   6  24
BRANCH   5  27
HETATM   27  O   LIG     1      -0.184   3.617  -2.077  1.00  0.00    -0.395 OA
ATOM     28  HO  LIG     1       0.215   3.435  -2.920  1.00  0.00     0.210 HD
ENDBRANCH   5  27
TORSDOF 6
