REMARK  7 active torsions:
REMARK  status: ('A' for Active; 'I' for Inactive)
REMARK    1  A    between atoms: C_3  and  C_4 
REMARK    2  A    between atoms: C_4  and  C_5 
REMARK    3  A    between atoms: C_5  and  C_6 
REMARK    4  A    between atoms: C_6  and  C_8 
REMARK    5  A    between atoms: C_6  and  C_10 
REMARK    6  A    between atoms: C_11  and  C_12 
REMARK    7  A    between atoms: C_15  and  O_18 
ROOT
HETATM    1  C   LIG     1       2.285  -1.251   4.042  1.00  0.00    -0.009 C 
HETATM    2  C   LIG     1       2.402  -2.744   3.646  1.00  0.00     0.024 C 
ENDROOT
BRANCH   1   3
HETATM    3  C   LIG     1       0.778  -0.821   3.984  1.00  0.00     0.021 C 
BRANCH   3   4
HETATM    4  C   LIG     1      -0.195  -1.622   4.872  1.00  0.00     0.028 C 
BRANCH   4   5
HETATM    5  C   LIG     1      -1.606  -1.089   4.805  1.00  0.00    -0.025 C 
HETATM    6  C   LIG     1      -2.623  -1.518   4.029  1.00  0.00    -0.091 C 
HETATM    7  C   LIG     1      -3.985  -0.875   4.114  1.00  0.00     0.042 C 
HETATM    8  C   LIG     1      -2.533  -2.622   3.012  1.00  0.00     0.042 C 
ENDBRANCH   4   5
ENDBRANCH   3   4
ENDBRANCH   1   3
BRANCH   1   9
HETATM    9  C   LIG     1       3.084  -0.379   3.064  1.00  0.00    -0.024 C 
HETATM   10  C   LIG     1       4.216  -0.710   2.421  1.00  0.00     0.008 C 
ENDBRANCH   1   9
BRANCH   1  11
HETATM   11  C   LIG     1       2.821  -1.108   5.465  1.00  0.00    -0.013 C 
HETATM   12  C   LIG     1       3.449  -0.057   6.030  1.00  0.00     0.008 C 
BRANCH  12  13
HETATM   13  C   LIG     1       3.955  -0.076   7.413  1.00  0.00    -0.036 A 
HETATM   14  C   LIG     1       3.356  -0.864   8.409  1.00  0.00     0.014 A 
HETATM   15  C   LIG     1       3.864  -0.894   9.710  1.00  0.00     0.037 A 
HETATM   16  C   LIG     1       4.967  -0.114  10.029  1.00  0.00     0.065 A 
HETATM   17  C   LIG     1       5.560   0.699   9.071  1.00  0.00     0.037 A 
HETATM   18  C   LIG     1       5.052   0.723   7.766  1.00  0.00     0.014 A 
BRANCH  16  19
HETATM   19  O   LIG     1       5.497  -0.118  11.284  1.00  0.00    -0.361 OA
ATOM     20  HO  LIG     1       5.092  -0.674  11.939  1.00  0.00     0.217 HD
ENDBRANCH  16  19
ENDBRANCH  12  13
ENDBRANCH   1  11
TORSDOF 7
