REMARK  10 active torsions:
REMARK  status: ('A' for Active; 'I' for Inactive)
REMARK    1  A    between atoms: C_3  and  O_28 
REMARK    2  A    between atoms: C_4  and  O_26 
REMARK    3  A    between atoms: C_5  and  O_24 
REMARK    4  A    between atoms: C_6  and  O_8 
REMARK    5  A    between atoms: O_8  and  C_9 
REMARK    6  A    between atoms: C_10  and  O_22 
REMARK    7  A    between atoms: C_11  and  O_20 
REMARK    8  A    between atoms: C_12  and  C_17 
REMARK    9  A    between atoms: C_14  and  O_15 
REMARK   10  A    between atoms: C_17  and  O_18 
ROOT
HETATM    1  C   LIG     1       0.192  -4.567   0.194  1.00  0.00     0.211 C 
HETATM    2  C   LIG     1       0.536  -5.002   1.625  1.00  0.00     0.183 C 
HETATM    3  C   LIG     1      -0.239  -6.264   2.016  1.00  0.00     0.180 C 
HETATM    4  C   LIG     1      -0.115  -7.383   0.964  1.00  0.00     0.179 C 
HETATM    5  O   LIG     1      -0.432  -6.901  -0.349  1.00  0.00    -0.349 OA
HETATM    6  C   LIG     1       0.321  -5.763  -0.794  1.00  0.00     0.291 C 
ENDROOT
BRANCH   1   7
HETATM    7  O   LIG     1       0.925  -3.416  -0.280  1.00  0.00    -0.346 OA
BRANCH   7   8
HETATM    8  C   LIG     1       0.865  -2.283   0.600  1.00  0.00     0.292 C 
HETATM    9  C   LIG     1       1.685  -1.143  -0.040  1.00  0.00     0.204 C 
HETATM   10  C   LIG     1       1.569   0.116   0.826  1.00  0.00     0.183 C 
HETATM   11  C   LIG     1       0.094   0.496   1.029  1.00  0.00     0.178 C 
HETATM   12  C   LIG     1      -0.703  -0.702   1.577  1.00  0.00     0.152 C 
HETATM   13  C   LIG     1      -0.436  -0.967   3.058  1.00  0.00     0.042 C 
HETATM   14  O   LIG     1      -0.498  -1.893   0.795  1.00  0.00    -0.351 OA
BRANCH   9  15
HETATM   15  O   LIG     1       1.183  -0.847  -1.365  1.00  0.00    -0.388 OA
ATOM     16  HO  LIG     1       1.255  -1.627  -1.902  1.00  0.00     0.210 HD
ENDBRANCH   9  15
BRANCH  10  17
HETATM   17  O   LIG     1       2.277   1.197   0.213  1.00  0.00    -0.390 OA
ATOM     18  HO  LIG     1       3.189   0.962   0.087  1.00  0.00     0.210 HD
ENDBRANCH  10  17
BRANCH  11  19
HETATM   19  O   LIG     1      -0.485   0.921  -0.218  1.00  0.00    -0.390 OA
ATOM     20  HO  LIG     1       0.007   1.660  -0.556  1.00  0.00     0.210 HD
ENDBRANCH  11  19
ENDBRANCH   7   8
ENDBRANCH   1   7
BRANCH   6  21
HETATM   21  O   LIG     1       1.672  -6.129  -1.071  1.00  0.00    -0.363 OA
HETATM   22  C   LIG     1       1.765  -6.954  -2.229  1.00  0.00     0.204 C 
ENDBRANCH   6  21
BRANCH   2  23
HETATM   23  O   LIG     1       1.946  -5.190   1.795  1.00  0.00    -0.390 OA
ATOM     24  HO  LIG     1       2.159  -5.459   2.681  1.00  0.00     0.210 HD
ENDBRANCH   2  23
BRANCH   3  25
HETATM   25  O   LIG     1       0.175  -6.639   3.332  1.00  0.00    -0.390 OA
ATOM     26  HO  LIG     1      -0.306  -7.422   3.575  1.00  0.00     0.210 HD
ENDBRANCH   3  25
BRANCH   4  27
HETATM   27  C   LIG     1       1.186  -8.199   1.046  1.00  0.00     0.198 C 
BRANCH  27  28
HETATM   28  O   LIG     1       1.249  -8.905   2.294  1.00  0.00    -0.398 OA
ATOM     29  HO  LIG     1       2.053  -9.409   2.345  1.00  0.00     0.209 HD
ENDBRANCH  27  28
ENDBRANCH   4  27
TORSDOF 10
