REMARK  6 active torsions:
REMARK  status: ('A' for Active; 'I' for Inactive)
REMARK    1  A    between atoms: C_2  and  O_4 
REMARK    2  A    between atoms: O_4  and  C_5 
REMARK    3  A    between atoms: C_8  and  C_30 
REMARK    4  A    between atoms: C_12  and  O_27 
REMARK    5  A    between atoms: C_14  and  O_24 
REMARK    6  A    between atoms: C_19  and  O_20 
ROOT
HETATM    1  C   LIG     1       1.528   3.017  -0.040  1.00  0.00     0.168 C 
HETATM    2  C   LIG     1       1.143   2.207   1.222  1.00  0.00     0.062 C 
HETATM    3  C   LIG     1      -0.289   2.469   1.732  1.00  0.00     0.024 C 
HETATM    4  C   LIG     1      -0.694   1.620   2.963  1.00  0.00    -0.020 C 
HETATM    5  C   LIG     1       0.377   1.705   4.067  1.00  0.00     0.094 C 
HETATM    6  C   LIG     1       1.788   1.516   3.551  1.00  0.00     0.163 C 
HETATM    7  O   LIG     1       2.564   0.732   4.107  1.00  0.00    -0.295 OA
HETATM    8  C   LIG     1       2.251   2.296   2.302  1.00  0.00     0.134 C 
HETATM    9  C   LIG     1       2.853   3.748   2.604  1.00  0.00     0.027 C 
HETATM   10  C   LIG     1       4.201   3.668   3.414  1.00  0.00     0.130 C 
HETATM   11  C   LIG     1       4.825   5.052   3.631  1.00  0.00     0.033 C 
HETATM   12  C   LIG     1       5.166   5.727   2.304  1.00  0.00     0.012 C 
HETATM   13  C   LIG     1       3.993   5.823   1.291  1.00  0.00    -0.041 C 
HETATM   14  C   LIG     1       3.192   4.455   1.224  1.00  0.00     0.039 C 
HETATM   15  C   LIG     1       1.983   4.460   0.262  1.00  0.00     0.154 C 
HETATM   16  C   LIG     1       3.154   7.082   1.591  1.00  0.00     0.015 C 
HETATM   17  C   LIG     1       4.645   6.096  -0.097  1.00  0.00     0.015 C 
HETATM   18  C   LIG     1       1.870   4.546   3.492  1.00  0.00     0.022 C 
HETATM   19  C   LIG     1      -1.998   2.216   3.547  1.00  0.00     0.020 C 
ENDROOT
BRANCH   1  20
HETATM   20  O   LIG     1       0.404   3.040  -0.953  1.00  0.00    -0.313 OA
BRANCH  20  21
HETATM   21  C   LIG     1       0.712   3.183  -2.273  1.00  0.00     0.255 C 
HETATM   22  C   LIG     1      -0.537   3.213  -3.099  1.00  0.00     0.126 C 
HETATM   23  O   LIG     1       1.836   3.334  -2.724  1.00  0.00    -0.266 OA
ENDBRANCH  20  21
ENDBRANCH   1  20
BRANCH  15  24
HETATM   24  O   LIG     1       0.901   5.216   0.800  1.00  0.00    -0.393 OA
ATOM     25  HO  LIG     1       1.181   6.105   0.986  1.00  0.00     0.210 HD
ENDBRANCH  15  24
BRANCH   8  26
HETATM   26  O   LIG     1       3.338   1.491   1.753  1.00  0.00    -0.381 OA
ATOM     27  HO  LIG     1       4.017   1.546   2.415  1.00  0.00     0.211 HD
ENDBRANCH   8  26
BRANCH   4  28
HETATM   28  C   LIG     1      -0.887   0.162   2.541  1.00  0.00    -0.027 C 
HETATM   29  C   LIG     1      -2.039  -0.423   2.178  1.00  0.00     0.007 C 
ENDBRANCH   4  28
BRANCH  10  30
HETATM   30  O   LIG     1       5.211   2.891   2.768  1.00  0.00    -0.395 OA
ATOM     31  HO  LIG     1       6.024   2.843   3.257  1.00  0.00     0.210 HD
ENDBRANCH  10  30
TORSDOF 6
