REMARK  4 active torsions:
REMARK  status: ('A' for Active; 'I' for Inactive)
REMARK    1  A    between atoms: C_2  and  O_14 
REMARK    2  A    between atoms: C_3  and  O_12 
REMARK    3  A    between atoms: C_4  and  O_10 
REMARK    4  A    between atoms: C_6  and  C_7 
ROOT
HETATM    1  C   LIG     1      -1.002   1.162   0.004  1.00  0.00     0.079 C 
HETATM    2  C   LIG     1       0.463   1.466   0.371  1.00  0.00     0.154 C 
HETATM    3  C   LIG     1       1.443   0.498  -0.298  1.00  0.00     0.179 C 
HETATM    4  C   LIG     1       1.070  -0.978  -0.026  1.00  0.00     0.173 C 
HETATM    5  C   LIG     1      -0.394  -1.263  -0.095  1.00  0.00     0.021 C 
HETATM    6  C   LIG     1      -1.338  -0.305  -0.094  1.00  0.00     0.020 C 
ENDROOT
BRANCH   6   7
HETATM    7  C   LIG     1      -2.842  -0.682  -0.188  1.00  0.00     0.205 C 
HETATM    8  O   LIG     1      -3.630   0.292  -0.344  1.00  0.00    -0.644 OA
HETATM    9  O   LIG     1      -3.100  -1.919  -0.116  1.00  0.00    -0.644 OA
ENDBRANCH   6   7
BRANCH   2  10
HETATM   10  O   LIG     1       0.640   1.438   1.796  1.00  0.00    -0.393 OA
ATOM     11  HO  LIG     1       1.543   1.625   2.022  1.00  0.00     0.210 HD
ENDBRANCH   2  10
BRANCH   4  12
HETATM   12  O   LIG     1       1.752  -1.785  -1.001  1.00  0.00    -0.389 OA
ATOM     13  HO  LIG     1       1.523  -2.692  -0.834  1.00  0.00     0.210 HD
ENDBRANCH   4  12
BRANCH   3  14
HETATM   14  O   LIG     1       1.519   0.760  -1.712  1.00  0.00    -0.390 OA
ATOM     15  HO  LIG     1       2.127   0.159  -2.127  1.00  0.00     0.210 HD
ENDBRANCH   3  14
TORSDOF 4
