REMARK  5 active torsions:
REMARK  status: ('A' for Active; 'I' for Inactive)
REMARK    1  A    between atoms: N_2  and  C_4 
REMARK    2  A    between atoms: C_4  and  C_5 
REMARK    3  A    between atoms: C_5  and  C_6 
REMARK    4  A    between atoms: C_5  and  O_14 
REMARK    5  A    between atoms: C_9  and  O_12 
ROOT
HETATM    1  C   LIG     1       1.604   1.993   3.948  1.00  0.00    -0.028 A 
HETATM    2  C   LIG     1       2.853   2.306   3.375  1.00  0.00     0.012 A 
HETATM    3  C   LIG     1       3.817   2.993   4.111  1.00  0.00     0.037 A 
HETATM    4  C   LIG     1       3.542   3.384   5.411  1.00  0.00     0.065 A 
HETATM    5  C   LIG     1       2.314   3.096   5.999  1.00  0.00     0.037 A 
HETATM    6  C   LIG     1       1.349   2.397   5.266  1.00  0.00     0.012 A 
ENDROOT
BRANCH   1   7
HETATM    7  C   LIG     1       0.556   1.220   3.176  1.00  0.00     0.168 C 
BRANCH   7   8
HETATM    8  C   LIG     1       0.645  -0.308   3.401  1.00  0.00     0.149 C 
BRANCH   8   9
HETATM    9  N   LIG     1       1.972  -0.838   2.917  1.00  0.00    -0.423 N 
HETATM   10  C   LIG     1       2.148  -2.303   3.050  1.00  0.00     0.139 C 
ATOM     11  HN  LIG     1       2.694  -0.233   2.527  1.00  0.00     0.152 HD
ENDBRANCH   8   9
ENDBRANCH   7   8
BRANCH   7  12
HETATM   12  O   LIG     1       0.703   1.471   1.776  1.00  0.00    -0.389 OA
ATOM     13  HO  LIG     1       0.648   2.409   1.638  1.00  0.00     0.210 HD
ENDBRANCH   7  12
ENDBRANCH   1   7
BRANCH   4  14
HETATM   14  O   LIG     1       4.513   4.060   6.083  1.00  0.00    -0.361 OA
ATOM     15  HO  LIG     1       4.324   4.328   6.975  1.00  0.00     0.217 HD
ENDBRANCH   4  14
TORSDOF 5
