REMARK  3 active torsions:
REMARK  status: ('A' for Active; 'I' for Inactive)
REMARK    1  A    between atoms: C_6  and  O_14 
REMARK    2  A    between atoms: C_6  and  C_12 
REMARK    3  A    between atoms: C_7  and  C_10 
ROOT
HETATM    1  C   LIG     1      -1.727  -0.276   0.724  1.00  0.00     0.033 C 
HETATM    2  C   LIG     1      -1.369  -1.306  -0.329  1.00  0.00     0.080 C 
HETATM    3  C   LIG     1       0.099  -1.598  -0.592  1.00  0.00     0.130 C 
HETATM    4  O   LIG     1       0.378  -2.226  -1.626  1.00  0.00    -0.298 OA
HETATM    5  C   LIG     1       1.141  -1.345   0.482  1.00  0.00     0.130 C 
HETATM    6  C   LIG     1       1.848   0.004   0.411  1.00  0.00     0.188 C 
HETATM    7  C   LIG     1       1.010   1.256   0.736  1.00  0.00     0.267 C 
HETATM    8  O   LIG     1      -0.114   1.338  -0.216  1.00  0.00    -0.371 OA
HETATM    9  C   LIG     1      -1.418   1.154   0.304  1.00  0.00     0.169 C 
ENDROOT
BRANCH   6  10
HETATM   10  O   LIG     1       2.352   0.171  -0.968  1.00  0.00    -0.376 OA
ATOM     11  HO  LIG     1       2.793   1.012  -1.012  1.00  0.00     0.211 HD
ENDBRANCH   6  10
BRANCH   6  12
HETATM   12  C   LIG     1       3.143   0.019   1.319  1.00  0.00     0.212 C 
HETATM   13  O   LIG     1       3.948   0.961   1.005  1.00  0.00    -0.646 OA
HETATM   14  O   LIG     1       3.366  -0.975   2.068  1.00  0.00    -0.646 OA
ENDBRANCH   6  12
BRANCH   7  15
HETATM   15  C   LIG     1       0.601   1.560   2.215  1.00  0.00     0.206 C 
HETATM   16  O   LIG     1       0.404   0.565   2.970  1.00  0.00    -0.646 OA
HETATM   17  O   LIG     1       0.366   2.783   2.477  1.00  0.00    -0.646 OA
ENDBRANCH   7  15
TORSDOF 3
