REMARK  3 active torsions:
REMARK  status: ('A' for Active; 'I' for Inactive)
REMARK    1  A    between atoms: O_2  and  C_3 
REMARK    2  A    between atoms: C_6  and  C_9 
REMARK    3  A    between atoms: C_14  and  O_20 
ROOT
HETATM    1  C   LIG     1       2.003  -6.467   0.755  1.00  0.00     0.048 A 
HETATM    2  C   LIG     1       2.915  -6.944  -0.111  1.00  0.00     0.159 A 
HETATM    3  O   LIG     1       3.195  -8.260  -0.391  1.00  0.00    -0.321 OA
HETATM    4  C   LIG     1       2.486  -9.219   0.280  1.00  0.00     0.091 A 
HETATM    5  C   LIG     1       2.778 -10.551  -0.010  1.00  0.00     0.074 A 
HETATM    6  C   LIG     1       2.082 -11.563   0.643  1.00  0.00     0.068 A 
HETATM    7  C   LIG     1       1.097 -11.267   1.582  1.00  0.00     0.037 A 
HETATM    8  C   LIG     1       0.809  -9.932   1.872  1.00  0.00     0.021 A 
HETATM    9  C   LIG     1       1.507  -8.909   1.217  1.00  0.00     0.049 A 
HETATM   10  C   LIG     1       1.214  -7.494   1.508  1.00  0.00     0.197 A 
HETATM   11  O   LIG     1       0.353  -7.213   2.332  1.00  0.00    -0.286 OA
ENDROOT
BRANCH   1  12
HETATM   12  C   LIG     1       1.827  -5.005   0.953  1.00  0.00    -0.020 A 
HETATM   13  C   LIG     1       2.020  -4.090  -0.095  1.00  0.00     0.015 A 
HETATM   14  C   LIG     1       1.855  -2.713   0.104  1.00  0.00     0.037 A 
HETATM   15  C   LIG     1       1.476  -2.215   1.349  1.00  0.00     0.068 A 
HETATM   16  C   LIG     1       1.267  -3.108   2.396  1.00  0.00     0.037 A 
HETATM   17  C   LIG     1       1.448  -4.483   2.199  1.00  0.00     0.015 A 
BRANCH  15  18
HETATM   18  O   LIG     1       1.342  -0.856   1.414  1.00  0.00    -0.356 OA
HETATM   19  C   LIG     1       0.963  -0.314   2.674  1.00  0.00     0.210 C 
ENDBRANCH  15  18
ENDBRANCH   1  12
BRANCH   6  20
HETATM   20  O   LIG     1       2.397 -12.852   0.330  1.00  0.00    -0.361 OA
ATOM     21  HO  LIG     1       1.922 -13.543   0.776  1.00  0.00     0.217 HD
ENDBRANCH   6  20
TORSDOF 3
