REMARK  8 active torsions:
REMARK  status: ('A' for Active; 'I' for Inactive)
REMARK    1  A    between atoms: C_9  and  O_14 
REMARK    2  A    between atoms: C_10  and  O_12 
REMARK    3  A    between atoms: O_14  and  C_15 
REMARK    4  A    between atoms: C_16  and  O_28 
REMARK    5  A    between atoms: C_17  and  O_26 
REMARK    6  A    between atoms: C_18  and  O_24 
REMARK    7  A    between atoms: C_19  and  C_21 
REMARK    8  A    between atoms: C_21  and  O_22 
ROOT
HETATM    1  C   LIG     1       5.121   0.033  -0.002  1.00  0.00     0.298 C 
HETATM    2  C   LIG     1       5.897   0.224   1.323  1.00  0.00     0.205 C 
HETATM    3  C   LIG     1       5.974  -1.098   2.089  1.00  0.00     0.183 C 
HETATM    4  C   LIG     1       6.544  -2.203   1.200  1.00  0.00     0.180 C 
HETATM    5  C   LIG     1       5.749  -2.299  -0.114  1.00  0.00     0.179 C 
HETATM    6  O   LIG     1       5.668  -1.036  -0.778  1.00  0.00    -0.348 OA
ENDROOT
BRANCH   1   7
HETATM    7  O   LIG     1       3.718  -0.167   0.235  1.00  0.00    -0.315 OA
BRANCH   7   8
HETATM    8  C   LIG     1       2.864   0.815  -0.208  1.00  0.00     0.106 A 
HETATM    9  C   LIG     1       1.556   0.382  -0.501  1.00  0.00     0.054 A 
HETATM   10  C   LIG     1       0.587   1.289  -0.949  1.00  0.00     0.001 A 
HETATM   11  C   LIG     1      -0.806   0.922  -1.191  1.00  0.00     0.020 A 
HETATM   12  C   LIG     1       0.954   2.620  -1.140  1.00  0.00     0.092 A 
HETATM   13  C   LIG     1      -1.674   1.850  -1.582  1.00  0.00     0.083 A 
HETATM   14  C   LIG     1      -1.302   3.261  -1.791  1.00  0.00     0.288 A 
HETATM   15  O   LIG     1      -2.130   4.090  -2.138  1.00  0.00    -0.260 OA
HETATM   16  O   LIG     1       0.039   3.583  -1.586  1.00  0.00    -0.275 OA
HETATM   17  C   LIG     1       2.235   3.073  -0.856  1.00  0.00     0.077 A 
HETATM   18  C   LIG     1       3.171   2.178  -0.348  1.00  0.00     0.101 A 
BRANCH  18  19
HETATM   19  O   LIG     1       4.375   2.689   0.066  1.00  0.00    -0.358 OA
ATOM     20  HO  LIG     1       4.583   3.611  -0.029  1.00  0.00     0.217 HD
ENDBRANCH  18  19
ENDBRANCH   7   8
ENDBRANCH   1   7
BRANCH   2  21
HETATM   21  O   LIG     1       5.346   1.210   2.213  1.00  0.00    -0.388 OA
ATOM     22  HO  LIG     1       5.822   1.327   3.026  1.00  0.00     0.210 HD
ENDBRANCH   2  21
BRANCH   5  23
HETATM   23  C   LIG     1       6.388  -3.274  -1.119  1.00  0.00     0.198 C 
BRANCH  23  24
HETATM   24  O   LIG     1       7.714  -2.903  -1.500  1.00  0.00    -0.398 OA
ATOM     25  HO  LIG     1       8.108  -3.505  -2.120  1.00  0.00     0.209 HD
ENDBRANCH  23  24
ENDBRANCH   5  23
BRANCH   3  26
HETATM   26  O   LIG     1       6.843  -0.934   3.227  1.00  0.00    -0.390 OA
ATOM     27  HO  LIG     1       6.891  -1.755   3.703  1.00  0.00     0.210 HD
ENDBRANCH   3  26
BRANCH   4  28
HETATM   28  O   LIG     1       7.931  -1.906   0.946  1.00  0.00    -0.390 OA
ATOM     29  HO  LIG     1       8.285  -2.593   0.393  1.00  0.00     0.210 HD
ENDBRANCH   4  28
TORSDOF 8
