REMARK  1 active torsions:
REMARK  status: ('A' for Active; 'I' for Inactive)
REMARK    1  A    between atoms: C_15  and  O_17 
ROOT
HETATM    1  C   LIG     1       1.516   2.427  -0.822  1.00  0.00     0.065 C 
HETATM    2  C   LIG     1       0.970   2.212   0.570  1.00  0.00     0.002 C 
HETATM    3  N   LIG     1      -0.044   1.424   0.699  1.00  0.00    -0.395 N 
ATOM      4  HN  LIG     1      -0.484   0.996  -0.116  1.00  0.00     0.159 HD
HETATM    5  C   LIG     1      -0.542   1.164   2.047  1.00  0.00     0.120 C 
HETATM    6  C   LIG     1      -0.520   2.421   2.897  1.00  0.00     0.031 C 
HETATM    7  C   LIG     1       0.899   2.952   3.041  1.00  0.00     0.051 C 
HETATM    8  C   LIG     1       1.681   2.954   1.709  1.00  0.00     0.135 C 
HETATM    9  N   LIG     1       3.018   2.335   1.917  1.00  0.00    -0.379 N 
ATOM     10  HN  LIG     1       3.790   2.278   1.253  1.00  0.00     0.160 HD
HETATM   11  C   LIG     1       2.977   1.844   3.242  1.00  0.00     0.038 A 
HETATM   12  C   LIG     1       1.795   2.132   3.916  1.00  0.00    -0.025 A 
HETATM   13  C   LIG     1       1.606   1.727   5.226  1.00  0.00     0.012 A 
HETATM   14  C   LIG     1       2.629   1.008   5.849  1.00  0.00     0.037 A 
HETATM   15  C   LIG     1       3.825   0.711   5.173  1.00  0.00     0.070 A 
HETATM   16  C   LIG     1       4.002   1.141   3.856  1.00  0.00     0.066 A 
ENDROOT
BRANCH  15  17
HETATM   17  O   LIG     1       4.733   0.002   5.914  1.00  0.00    -0.356 OA
HETATM   18  C   LIG     1       5.936  -0.377   5.257  1.00  0.00     0.210 C 
ENDBRANCH  15  17
TORSDOF 1
