REMARK  18 active torsions:
REMARK  status: ('A' for Active; 'I' for Inactive)
REMARK    1  A    between atoms: C_3  and  O_49 
REMARK    2  A    between atoms: C_4  and  O_47 
REMARK    3  A    between atoms: C_5  and  O_45 
REMARK    4  A    between atoms: C_6  and  O_8 
REMARK    5  A    between atoms: O_8  and  C_9 
REMARK    6  A    between atoms: C_10  and  O_43 
REMARK    7  A    between atoms: C_11  and  O_41 
REMARK    8  A    between atoms: C_12  and  C_38 
REMARK    9  A    between atoms: C_14  and  O_15 
REMARK   10  A    between atoms: O_15  and  C_16 
REMARK   11  A    between atoms: C_18  and  O_36 
REMARK   12  A    between atoms: C_19  and  C_24 
REMARK   13  A    between atoms: C_20  and  O_22 
REMARK   14  A    between atoms: C_24  and  C_26 
REMARK   15  A    between atoms: C_26  and  C_27 
REMARK   16  A    between atoms: C_27  and  C_28 
REMARK   17  A    between atoms: C_31  and  O_34 
REMARK   18  A    between atoms: C_38  and  O_39 
ROOT
HETATM    1  C   LIG     1       1.300   1.873  -2.352  1.00  0.00     0.211 C 
HETATM    2  C   LIG     1       0.434   1.861  -3.644  1.00  0.00     0.183 C 
HETATM    3  C   LIG     1       1.094   1.240  -4.875  1.00  0.00     0.180 C 
HETATM    4  C   LIG     1       2.037   0.074  -4.505  1.00  0.00     0.179 C 
HETATM    5  O   LIG     1       1.831  -0.398  -3.155  1.00  0.00    -0.348 OA
HETATM    6  C   LIG     1       2.171   0.588  -2.171  1.00  0.00     0.298 C 
ENDROOT
BRANCH   6   7
HETATM    7  O   LIG     1       2.092   0.005  -0.862  1.00  0.00    -0.318 OA
BRANCH   7   8
HETATM    8  C   LIG     1       2.936   0.413   0.135  1.00  0.00     0.077 C 
HETATM    9  C   LIG     1       2.690  -0.139   1.399  1.00  0.00     0.074 C 
HETATM   10  C   LIG     1       3.585   0.083   2.464  1.00  0.00     0.085 C 
HETATM   11  C   LIG     1       4.647   0.981   2.341  1.00  0.00     0.076 C 
HETATM   12  C   LIG     1       4.795   1.630   1.103  1.00  0.00     0.085 C 
HETATM   13  C   LIG     1       4.004   1.283  -0.007  1.00  0.00     0.074 C 
BRANCH  10  14
HETATM   14  O   LIG     1       3.395  -0.619   3.624  1.00  0.00    -0.360 OA
ATOM     15  HO  LIG     1       2.672  -1.230   3.708  1.00  0.00     0.217 HD
ENDBRANCH  10  14
BRANCH  11  16
HETATM   16  C   LIG     1       5.632   1.293   3.470  1.00  0.00     0.165 C 
HETATM   17  O   LIG     1       6.110   2.386   3.551  1.00  0.00    -0.292 OA
BRANCH  16  18
HETATM   18  C   LIG     1       6.045   0.147   4.413  1.00  0.00     0.088 C 
BRANCH  18  19
HETATM   19  C   LIG     1       7.051   0.439   5.540  1.00  0.00     0.046 C 
BRANCH  19  20
HETATM   20  C   LIG     1       6.586   1.418   6.599  1.00  0.00    -0.058 C 
HETATM   21  C   LIG     1       5.937   0.973   7.761  1.00  0.00     0.010 C 
HETATM   22  C   LIG     1       5.282   1.880   8.596  1.00  0.00     0.037 C 
HETATM   23  C   LIG     1       5.287   3.228   8.274  1.00  0.00     0.065 C 
HETATM   24  C   LIG     1       6.057   3.708   7.223  1.00  0.00     0.037 C 
HETATM   25  C   LIG     1       6.719   2.799   6.397  1.00  0.00     0.010 C 
BRANCH  23  26
HETATM   26  O   LIG     1       4.446   4.057   8.956  1.00  0.00    -0.361 OA
ATOM     27  HO  LIG     1       3.919   3.729   9.675  1.00  0.00     0.217 HD
ENDBRANCH  23  26
ENDBRANCH  19  20
ENDBRANCH  18  19
ENDBRANCH  16  18
ENDBRANCH  11  16
BRANCH  12  28
HETATM   28  O   LIG     1       5.724   2.611   0.894  1.00  0.00    -0.360 OA
ATOM     29  HO  LIG     1       6.258   2.845   1.644  1.00  0.00     0.217 HD
ENDBRANCH  12  28
ENDBRANCH   7   8
ENDBRANCH   6   7
BRANCH   1  30
HETATM   30  O   LIG     1       0.629   2.416  -1.183  1.00  0.00    -0.346 OA
BRANCH  30  31
HETATM   31  C   LIG     1      -0.334   1.591  -0.522  1.00  0.00     0.292 C 
HETATM   32  C   LIG     1      -0.932   2.295   0.710  1.00  0.00     0.204 C 
HETATM   33  C   LIG     1      -1.979   1.352   1.336  1.00  0.00     0.183 C 
HETATM   34  C   LIG     1      -3.033   0.885   0.310  1.00  0.00     0.178 C 
HETATM   35  C   LIG     1      -2.362   0.363  -0.953  1.00  0.00     0.152 C 
HETATM   36  C   LIG     1      -1.738  -1.032  -0.859  1.00  0.00     0.042 C 
HETATM   37  O   LIG     1      -1.441   1.368  -1.381  1.00  0.00    -0.351 OA
BRANCH  32  38
HETATM   38  O   LIG     1      -1.621   3.512   0.336  1.00  0.00    -0.388 OA
ATOM     39  HO  LIG     1      -0.976   4.093  -0.050  1.00  0.00     0.210 HD
ENDBRANCH  32  38
BRANCH  33  40
HETATM   40  O   LIG     1      -2.665   2.019   2.404  1.00  0.00    -0.390 OA
ATOM     41  HO  LIG     1      -2.016   2.306   3.036  1.00  0.00     0.210 HD
ENDBRANCH  33  40
BRANCH  34  42
HETATM   42  O   LIG     1      -3.897  -0.089   0.882  1.00  0.00    -0.390 OA
ATOM     43  HO  LIG     1      -4.316   0.237   1.670  1.00  0.00     0.210 HD
ENDBRANCH  34  42
ENDBRANCH  30  31
ENDBRANCH   1  30
BRANCH   2  44
HETATM   44  O   LIG     1      -0.775   1.101  -3.536  1.00  0.00    -0.390 OA
ATOM     45  HO  LIG     1      -1.304   1.094  -4.325  1.00  0.00     0.210 HD
ENDBRANCH   2  44
BRANCH   4  46
HETATM   46  C   LIG     1       1.945  -1.125  -5.460  1.00  0.00     0.198 C 
BRANCH  46  47
HETATM   47  O   LIG     1       0.672  -1.763  -5.376  1.00  0.00    -0.398 OA
ATOM     48  HO  LIG     1       0.615  -2.505  -5.967  1.00  0.00     0.209 HD
ENDBRANCH  46  47
ENDBRANCH   4  46
BRANCH   3  49
HETATM   49  O   LIG     1       0.024   0.841  -5.755  1.00  0.00    -0.390 OA
ATOM     50  HO  LIG     1       0.434   0.455  -6.520  1.00  0.00     0.210 HD
ENDBRANCH   3  49
TORSDOF 18
