REMARK  1 active torsions:
REMARK  status: ('A' for Active; 'I' for Inactive)
REMARK    1  A    between atoms: C_11  and  O_12 
ROOT
HETATM    1  C   LIG     1       1.029   0.174  -0.007  1.00  0.00     0.052 C 
HETATM    2  C   LIG     1       0.558  -1.238  -0.172  1.00  0.00    -0.007 A 
HETATM    3  C   LIG     1      -0.657  -1.536  -0.648  1.00  0.00     0.066 A 
HETATM    4  C   LIG     1      -1.124  -2.924  -0.814  1.00  0.00     0.186 A 
HETATM    5  O   LIG     1      -2.253  -3.160  -1.230  1.00  0.00    -0.287 OA
HETATM    6  C   LIG     1      -0.200  -4.017  -0.472  1.00  0.00     0.061 A 
HETATM    7  C   LIG     1       1.075  -3.723   0.009  1.00  0.00     0.031 A 
HETATM    8  C   LIG     1       1.962  -4.762   0.325  1.00  0.00     0.017 A 
HETATM    9  C   LIG     1       1.570  -6.092   0.163  1.00  0.00     0.004 A 
HETATM   10  C   LIG     1       0.293  -6.387  -0.312  1.00  0.00     0.037 A 
HETATM   11  C   LIG     1      -0.588  -5.355  -0.628  1.00  0.00     0.080 A 
HETATM   12  C   LIG     1       1.509  -2.322   0.197  1.00  0.00     0.189 A 
HETATM   13  O   LIG     1       2.620  -2.069   0.642  1.00  0.00    -0.287 OA
ENDROOT
BRANCH  11  14
HETATM   14  O   LIG     1      -1.822  -5.729  -1.089  1.00  0.00    -0.360 OA
ATOM     15  HO  LIG     1      -2.085  -6.636  -1.195  1.00  0.00     0.217 HD
ENDBRANCH  11  14
TORSDOF 1
