REMARK  6 active torsions:
REMARK  status: ('A' for Active; 'I' for Inactive)
REMARK    1  A    between atoms: C_5  and  O_27 
REMARK    2  A    between atoms: C_6  and  C_24 
REMARK    3  A    between atoms: C_12  and  C_13 
REMARK    4  A    between atoms: C_13  and  C_14 
REMARK    5  A    between atoms: C_16  and  O_21 
REMARK    6  A    between atoms: C_24  and  O_25 
ROOT
HETATM    1  C   LIG     1       0.504  -0.185  -1.714  1.00  0.00     0.016 C 
HETATM    2  C   LIG     1       1.499  -0.033  -0.534  1.00  0.00    -0.032 C 
HETATM    3  C   LIG     1       2.362  -1.317  -0.430  1.00  0.00     0.012 C 
HETATM    4  C   LIG     1       1.582  -2.543   0.044  1.00  0.00     0.033 C 
HETATM    5  C   LIG     1       0.925  -2.323   1.402  1.00  0.00     0.128 C 
HETATM    6  C   LIG     1      -0.010  -1.076   1.450  1.00  0.00     0.008 C 
HETATM    7  C   LIG     1       0.783   0.170   0.875  1.00  0.00     0.007 C 
HETATM    8  C   LIG     1       0.000   1.505   0.937  1.00  0.00     0.010 C 
HETATM    9  C   LIG     1       0.889   2.700   0.587  1.00  0.00     0.034 C 
HETATM   10  C   LIG     1       1.528   2.486  -0.761  1.00  0.00    -0.084 C 
HETATM   11  C   LIG     1       1.246   3.313  -1.781  1.00  0.00     0.015 C 
HETATM   12  C   LIG     1       2.419   1.242  -0.816  1.00  0.00     0.025 C 
HETATM   13  C   LIG     1      -0.338  -0.827   2.953  1.00  0.00     0.020 C 
ENDROOT
BRANCH  12  14
HETATM   14  C   LIG     1       3.349   1.125  -2.071  1.00  0.00     0.037 C 
BRANCH  14  15
HETATM   15  C   LIG     1       4.271   2.307  -2.272  1.00  0.00    -0.010 C 
HETATM   16  C   LIG     1       4.732   2.766  -3.449  1.00  0.00     0.044 C 
HETATM   17  C   LIG     1       5.653   3.928  -3.517  1.00  0.00     0.291 C 
HETATM   18  C   LIG     1       4.576   2.255  -4.829  1.00  0.00     0.181 C 
HETATM   19  O   LIG     1       6.223   3.947  -4.754  1.00  0.00    -0.315 OA
HETATM   20  O   LIG     1       5.876   4.718  -2.624  1.00  0.00    -0.260 OA
HETATM   21  C   LIG     1       5.859   2.757  -5.466  1.00  0.00     0.215 C 
BRANCH  18  22
HETATM   22  O   LIG     1       3.451   2.864  -5.454  1.00  0.00    -0.389 OA
ATOM     23  HO  LIG     1       3.351   2.536  -6.340  1.00  0.00     0.210 HD
ENDBRANCH  18  22
ENDBRANCH  14  15
ENDBRANCH  12  14
BRANCH   6  24
HETATM   24  C   LIG     1      -1.362  -1.337   0.732  1.00  0.00     0.176 C 
BRANCH  24  25
HETATM   25  O   LIG     1      -2.103  -2.397   1.334  1.00  0.00    -0.400 OA
ATOM     26  HO  LIG     1      -2.930  -2.557   0.895  1.00  0.00     0.209 HD
ENDBRANCH  24  25
ENDBRANCH   6  24
BRANCH   5  27
HETATM   27  O   LIG     1       0.226  -3.526   1.736  1.00  0.00    -0.395 OA
ATOM     28  HO  LIG     1      -0.183  -3.389   2.582  1.00  0.00     0.210 HD
ENDBRANCH   5  27
TORSDOF 6
