REMARK  3 active torsions:
REMARK  status: ('A' for Active; 'I' for Inactive)
REMARK    1  A    between atoms: C_5  and  C_33 
REMARK    2  A    between atoms: C_15  and  O_27 
REMARK    3  A    between atoms: C_20  and  O_24 
ROOT
HETATM    1  C   LIG     1       1.660   0.215   1.007  1.00  0.00     0.015 C 
HETATM    2  C   LIG     1       1.208  -1.102   1.671  1.00  0.00    -0.047 C 
HETATM    3  C   LIG     1       1.053  -2.176   0.578  1.00  0.00     0.010 C 
HETATM    4  C   LIG     1       0.362  -3.443   1.079  1.00  0.00     0.022 C 
HETATM    5  C   LIG     1      -1.027  -3.149   1.694  1.00  0.00     0.056 C 
HETATM    6  C   LIG     1      -1.600  -4.462   2.263  1.00  0.00     0.022 C 
HETATM    7  C   LIG     1      -2.993  -4.232   2.846  1.00  0.00     0.016 C 
HETATM    8  C   LIG     1      -3.083  -3.149   3.965  1.00  0.00    -0.013 C 
HETATM    9  C   LIG     1      -2.187  -1.916   3.656  1.00  0.00    -0.069 C 
HETATM   10  C   LIG     1      -2.509  -0.710   4.166  1.00  0.00    -0.022 C 
HETATM   11  C   LIG     1      -3.808  -0.424   4.845  1.00  0.00     0.033 C 
HETATM   12  C   LIG     1      -4.900  -1.195   4.097  1.00  0.00     0.007 C 
HETATM   13  C   LIG     1      -4.688  -2.749   4.281  1.00  0.00    -0.026 C 
HETATM   14  C   LIG     1      -5.690  -3.414   3.279  1.00  0.00     0.042 C 
HETATM   15  C   LIG     1      -7.155  -2.936   3.322  1.00  0.00     0.124 C 
HETATM   16  C   LIG     1      -7.273  -1.396   3.208  1.00  0.00     0.033 C 
HETATM   17  C   LIG     1      -6.376  -0.624   4.254  1.00  0.00    -0.033 C 
HETATM   18  C   LIG     1      -6.377   0.886   3.843  1.00  0.00     0.012 C 
HETATM   19  C   LIG     1      -7.764   1.484   3.623  1.00  0.00     0.033 C 
HETATM   20  C   LIG     1      -8.580   0.692   2.610  1.00  0.00     0.126 C 
HETATM   21  C   LIG     1      -8.725  -0.817   2.979  1.00  0.00    -0.015 C 
HETATM   22  C   LIG     1      -9.387  -1.533   1.770  1.00  0.00     0.018 C 
HETATM   23  C   LIG     1      -9.695  -0.998   4.163  1.00  0.00     0.018 C 
HETATM   24  C   LIG     1      -6.865  -0.689   5.716  1.00  0.00     0.016 C 
HETATM   25  C   LIG     1      -5.062  -3.245   5.701  1.00  0.00     0.016 C 
HETATM   26  C   LIG     1      -0.878  -2.142   2.860  1.00  0.00     0.035 C 
HETATM   27  C   LIG     1      -0.132  -0.856   2.406  1.00  0.00     0.019 C 
HETATM   28  C   LIG     1      -2.382  -3.777   5.216  1.00  0.00     0.021 C 
HETATM   29  C   LIG     1       2.299  -1.518   2.679  1.00  0.00     0.015 C 
ENDROOT
BRANCH   5  30
HETATM   30  C   LIG     1      -1.939  -2.749   0.482  1.00  0.00     0.182 C 
HETATM   31  O   LIG     1      -2.466  -1.604   0.522  1.00  0.00    -0.647 OA
HETATM   32  O   LIG     1      -2.066  -3.631  -0.421  1.00  0.00    -0.647 OA
ENDBRANCH   5  30
BRANCH  15  33
HETATM   33  O   LIG     1      -7.844  -3.460   4.445  1.00  0.00    -0.395 OA
ATOM     34  HO  LIG     1      -8.747  -3.165   4.471  1.00  0.00     0.210 HD
ENDBRANCH  15  33
BRANCH  20  35
HETATM   35  O   LIG     1      -9.849   1.339   2.488  1.00  0.00    -0.395 OA
ATOM     36  HO  LIG     1     -10.358   0.845   1.856  1.00  0.00     0.210 HD
ENDBRANCH  20  35
TORSDOF 3
