REMARK  10 active torsions:
REMARK  status: ('A' for Active; 'I' for Inactive)
REMARK    1  A    between atoms: O_2  and  C_3 
REMARK    2  A    between atoms: C_4  and  O_16 
REMARK    3  A    between atoms: C_5  and  O_14 
REMARK    4  A    between atoms: C_6  and  O_12 
REMARK    5  A    between atoms: C_7  and  C_9 
REMARK    6  A    between atoms: O_16  and  C_17 
REMARK    7  A    between atoms: C_18  and  O_30 
REMARK    8  A    between atoms: C_19  and  O_28 
REMARK    9  A    between atoms: C_20  and  O_26 
REMARK   10  A    between atoms: C_21  and  C_23 
ROOT
HETATM    1  O   LIG     1       6.438  -7.829  -0.200  1.00  0.00    -0.346 OA
ENDROOT
BRANCH   1   2
HETATM    2  C   LIG     1       6.464  -6.728   0.763  1.00  0.00     0.211 C 
HETATM    3  C   LIG     1       6.905  -5.354   0.131  1.00  0.00     0.291 C 
HETATM    4  O   LIG     1       8.271  -5.010   0.446  1.00  0.00    -0.340 OA
HETATM    5  C   LIG     1       9.118  -6.176   0.373  1.00  0.00     0.256 C 
HETATM    6  C   LIG     1       8.920  -6.961   1.668  1.00  0.00     0.189 C 
HETATM    7  C   LIG     1       7.396  -7.037   1.985  1.00  0.00     0.183 C 
BRANCH   3   8
HETATM    8  O   LIG     1       6.080  -4.286   0.625  1.00  0.00    -0.363 OA
HETATM    9  C   LIG     1       4.734  -4.342   0.180  1.00  0.00     0.204 C 
ENDBRANCH   3   8
BRANCH   5  10
HETATM   10  C   LIG     1      10.601  -5.861   0.086  1.00  0.00     0.206 C 
HETATM   11  O   LIG     1      11.066  -4.760   0.548  1.00  0.00    -0.646 OA
HETATM   12  O   LIG     1      11.237  -6.787  -0.485  1.00  0.00    -0.646 OA
ENDBRANCH   5  10
BRANCH   6  13
HETATM   13  O   LIG     1       9.573  -6.359   2.818  1.00  0.00    -0.390 OA
ATOM     14  HO  LIG     1      10.502  -6.313   2.625  1.00  0.00     0.210 HD
ENDBRANCH   6  13
BRANCH   7  15
HETATM   15  O   LIG     1       7.079  -6.141   3.085  1.00  0.00    -0.390 OA
ATOM     16  HO  LIG     1       7.644  -6.328   3.826  1.00  0.00     0.210 HD
ENDBRANCH   7  15
ENDBRANCH   1   2
BRANCH   1  17
HETATM   17  C   LIG     1       5.331  -7.818  -1.154  1.00  0.00     0.293 C 
HETATM   18  O   LIG     1       5.409  -6.735  -2.085  1.00  0.00    -0.340 OA
HETATM   19  C   LIG     1       4.294  -6.696  -3.023  1.00  0.00     0.256 C 
HETATM   20  C   LIG     1       4.294  -7.929  -3.932  1.00  0.00     0.189 C 
HETATM   21  C   LIG     1       4.164  -9.166  -3.029  1.00  0.00     0.183 C 
HETATM   22  C   LIG     1       5.275  -9.172  -1.950  1.00  0.00     0.204 C 
BRANCH  19  23
HETATM   23  C   LIG     1       4.240  -5.364  -3.786  1.00  0.00     0.206 C 
HETATM   24  O   LIG     1       4.081  -4.315  -3.118  1.00  0.00    -0.646 OA
HETATM   25  O   LIG     1       4.270  -5.477  -5.073  1.00  0.00    -0.646 OA
ENDBRANCH  19  23
BRANCH  20  26
HETATM   26  O   LIG     1       5.521  -8.063  -4.685  1.00  0.00    -0.390 OA
ATOM     27  HO  LIG     1       5.601  -7.298  -5.243  1.00  0.00     0.210 HD
ENDBRANCH  20  26
BRANCH  21  28
HETATM   28  O   LIG     1       4.283 -10.353  -3.839  1.00  0.00    -0.390 OA
ATOM     29  HO  LIG     1       3.602 -10.349  -4.501  1.00  0.00     0.210 HD
ENDBRANCH  21  28
BRANCH  22  30
HETATM   30  O   LIG     1       6.515  -9.451  -2.641  1.00  0.00    -0.388 OA
ATOM     31  HO  LIG     1       6.481 -10.269  -3.122  1.00  0.00     0.210 HD
ENDBRANCH  22  30
ENDBRANCH   1  17
TORSDOF 10
