REMARK  10 active torsions:
REMARK  status: ('A' for Active; 'I' for Inactive)
REMARK    1  A    between atoms: O_2  and  C_3 
REMARK    2  A    between atoms: C_4  and  O_16 
REMARK    3  A    between atoms: C_5  and  O_14 
REMARK    4  A    between atoms: C_6  and  O_12 
REMARK    5  A    between atoms: C_7  and  C_9 
REMARK    6  A    between atoms: O_16  and  C_17 
REMARK    7  A    between atoms: C_18  and  O_30 
REMARK    8  A    between atoms: C_19  and  O_28 
REMARK    9  A    between atoms: C_20  and  O_26 
REMARK   10  A    between atoms: C_21  and  C_23 
ROOT
HETATM    1  O   LIG     1       1.937   7.279  -1.081  1.00  0.00    -0.346 OA
ENDROOT
BRANCH   1   2
HETATM    2  C   LIG     1       0.520   7.460  -0.840  1.00  0.00     0.211 C 
HETATM    3  C   LIG     1      -0.234   6.201  -0.334  1.00  0.00     0.291 C 
HETATM    4  O   LIG     1       0.419   5.707   0.837  1.00  0.00    -0.340 OA
HETATM    5  C   LIG     1       0.239   6.601   1.961  1.00  0.00     0.256 C 
HETATM    6  C   LIG     1       0.780   8.012   1.666  1.00  0.00     0.189 C 
HETATM    7  C   LIG     1       0.278   8.500   0.293  1.00  0.00     0.183 C 
BRANCH   3   8
HETATM    8  O   LIG     1      -0.349   5.173  -1.316  1.00  0.00    -0.363 OA
HETATM    9  C   LIG     1      -1.191   4.123  -0.858  1.00  0.00     0.204 C 
ENDBRANCH   3   8
BRANCH   5  10
HETATM   10  C   LIG     1       0.841   5.975   3.248  1.00  0.00     0.206 C 
HETATM   11  O   LIG     1       1.681   6.711   3.869  1.00  0.00    -0.646 OA
HETATM   12  O   LIG     1       0.401   4.846   3.574  1.00  0.00    -0.646 OA
ENDBRANCH   5  10
BRANCH   6  13
HETATM   13  O   LIG     1       2.215   8.092   1.673  1.00  0.00    -0.390 OA
ATOM     14  HO  LIG     1       2.524   7.791   2.519  1.00  0.00     0.210 HD
ENDBRANCH   6  13
BRANCH   7  15
HETATM   15  O   LIG     1       0.841   9.784  -0.002  1.00  0.00    -0.390 OA
ATOM     16  HO  LIG     1       0.693  10.419   0.689  1.00  0.00     0.210 HD
ENDBRANCH   7  15
ENDBRANCH   1   2
BRANCH   1  17
HETATM   17  C   LIG     1       2.243   6.287  -2.070  1.00  0.00     0.293 C 
HETATM   18  O   LIG     1       1.686   6.649  -3.342  1.00  0.00    -0.340 OA
HETATM   19  C   LIG     1       1.843   5.580  -4.307  1.00  0.00     0.256 C 
HETATM   20  C   LIG     1       3.329   5.356  -4.614  1.00  0.00     0.189 C 
HETATM   21  C   LIG     1       4.048   5.015  -3.294  1.00  0.00     0.183 C 
HETATM   22  C   LIG     1       3.779   6.095  -2.217  1.00  0.00     0.204 C 
BRANCH  19  23
HETATM   23  C   LIG     1       1.154   5.917  -5.650  1.00  0.00     0.206 C 
HETATM   24  O   LIG     1       1.625   6.917  -6.270  1.00  0.00    -0.646 OA
HETATM   25  O   LIG     1       0.270   5.091  -6.030  1.00  0.00    -0.646 OA
ENDBRANCH  19  23
BRANCH  20  26
HETATM   26  O   LIG     1       3.960   6.540  -5.160  1.00  0.00    -0.390 OA
ATOM     27  HO  LIG     1       3.517   6.750  -5.974  1.00  0.00     0.210 HD
ENDBRANCH  20  26
BRANCH  21  28
HETATM   28  O   LIG     1       5.461   4.903  -3.537  1.00  0.00    -0.390 OA
ATOM     29  HO  LIG     1       5.626   4.241  -4.198  1.00  0.00     0.210 HD
ENDBRANCH  21  28
BRANCH  22  30
HETATM   30  O   LIG     1       4.439   7.320  -2.609  1.00  0.00    -0.388 OA
ATOM     31  HO  LIG     1       5.377   7.203  -2.699  1.00  0.00     0.210 HD
ENDBRANCH  22  30
ENDBRANCH   1  17
TORSDOF 10
