REMARK  7 active torsions:
REMARK  status: ('A' for Active; 'I' for Inactive)
REMARK    1  A    between atoms: O_2  and  C_3 
REMARK    2  A    between atoms: C_6  and  C_11 
REMARK    3  A    between atoms: C_8  and  O_9 
REMARK    4  A    between atoms: C_18  and  O_28 
REMARK    5  A    between atoms: C_19  and  O_26 
REMARK    6  A    between atoms: C_20  and  O_24 
REMARK    7  A    between atoms: C_21  and  O_22 
ROOT
HETATM    1  C   LIG     1       0.683   0.748  -6.310  1.00  0.00     0.090 C 
HETATM    2  C   LIG     1      -0.450   1.370  -6.030  1.00  0.00     0.094 C 
HETATM    3  C   LIG     1      -1.364   1.626  -7.118  1.00  0.00     0.190 C 
HETATM    4  O   LIG     1      -2.522   1.848  -6.870  1.00  0.00    -0.287 OA
HETATM    5  C   LIG     1      -0.803   1.579  -8.486  1.00  0.00     0.087 C 
HETATM    6  C   LIG     1       0.322   0.798  -8.676  1.00  0.00     0.129 C 
HETATM    7  O   LIG     1       1.036   0.290  -7.591  1.00  0.00    -0.306 OA
HETATM    8  C   LIG     1       0.775   0.511  -9.982  1.00  0.00     0.139 C 
HETATM    9  C   LIG     1       0.081   1.085 -11.078  1.00  0.00     0.141 C 
HETATM   10  C   LIG     1      -1.083   1.863 -10.856  1.00  0.00     0.139 C 
HETATM   11  C   LIG     1      -1.472   2.194  -9.544  1.00  0.00     0.121 C 
ENDROOT
BRANCH   1  12
HETATM   12  C   LIG     1       1.611   0.377  -5.215  1.00  0.00     0.001 A 
HETATM   13  C   LIG     1       1.745   1.159  -4.060  1.00  0.00     0.017 A 
HETATM   14  C   LIG     1       2.603   0.762  -3.033  1.00  0.00     0.040 A 
HETATM   15  C   LIG     1       3.338  -0.425  -3.125  1.00  0.00     0.101 A 
HETATM   16  C   LIG     1       3.203  -1.228  -4.272  1.00  0.00     0.102 A 
HETATM   17  C   LIG     1       2.355  -0.801  -5.307  1.00  0.00     0.054 A 
BRANCH  15  18
HETATM   18  O   LIG     1       4.122  -0.631  -2.020  1.00  0.00    -0.353 OA
HETATM   19  C   LIG     1       4.954  -1.780  -1.989  1.00  0.00     0.210 C 
ENDBRANCH  15  18
BRANCH  16  20
HETATM   20  O   LIG     1       3.890  -2.412  -4.333  1.00  0.00    -0.353 OA
HETATM   21  C   LIG     1       3.719  -3.226  -5.486  1.00  0.00     0.210 C 
ENDBRANCH  16  20
ENDBRANCH   1  12
BRANCH   8  22
HETATM   22  O   LIG     1       1.895  -0.290 -10.089  1.00  0.00    -0.351 OA
HETATM   23  C   LIG     1       1.983  -1.175 -11.213  1.00  0.00     0.210 C 
ENDBRANCH   8  22
BRANCH  11  24
HETATM   24  O   LIG     1      -2.532   3.040  -9.361  1.00  0.00    -0.352 OA
HETATM   25  C   LIG     1      -2.260   4.186  -8.544  1.00  0.00     0.210 C 
ENDBRANCH  11  24
BRANCH   9  26
HETATM   26  O   LIG     1       0.663   0.900 -12.308  1.00  0.00    -0.350 OA
HETATM   27  C   LIG     1       0.081   1.425 -13.489  1.00  0.00     0.210 C 
ENDBRANCH   9  26
BRANCH  10  28
HETATM   28  O   LIG     1      -1.867   2.115 -11.951  1.00  0.00    -0.351 OA
HETATM   29  C   LIG     1      -2.601   3.326 -12.015  1.00  0.00     0.210 C 
ENDBRANCH  10  28
TORSDOF 7
