REMARK  9 active torsions:
REMARK  status: ('A' for Active; 'I' for Inactive)
REMARK    1  A    between atoms: C_4  and  C_7 
REMARK    2  A    between atoms: C_15  and  O_22 
REMARK    3  A    between atoms: C_16  and  O_20 
REMARK    4  A    between atoms: C_17  and  O_18 
REMARK    5  A    between atoms: O_22  and  C_23 
REMARK    6  A    between atoms: C_24  and  O_36 
REMARK    7  A    between atoms: C_25  and  O_34 
REMARK    8  A    between atoms: C_26  and  O_32 
REMARK    9  A    between atoms: C_27  and  C_29 
ROOT
HETATM    1  C   LIG     1       2.517  -0.382  -0.590  1.00  0.00     0.090 A 
HETATM    2  C   LIG     1       2.855  -1.621  -0.224  1.00  0.00     0.094 A 
HETATM    3  C   LIG     1       4.235  -1.897   0.201  1.00  0.00     0.190 A 
HETATM    4  O   LIG     1       4.593  -3.026   0.541  1.00  0.00    -0.287 OA
HETATM    5  C   LIG     1       5.154  -0.769   0.256  1.00  0.00     0.084 A 
HETATM    6  C   LIG     1       4.718   0.458  -0.224  1.00  0.00     0.096 A 
HETATM    7  O   LIG     1       3.438   0.666  -0.682  1.00  0.00    -0.309 OA
HETATM    8  C   LIG     1       5.570   1.564  -0.226  1.00  0.00     0.078 A 
HETATM    9  C   LIG     1       6.846   1.479   0.346  1.00  0.00     0.110 A 
HETATM   10  C   LIG     1       7.267   0.244   0.859  1.00  0.00     0.134 A 
HETATM   11  C   LIG     1       6.434  -0.883   0.802  1.00  0.00     0.118 A 
ENDROOT
BRANCH   9  12
HETATM   12  O   LIG     1       7.707   2.548   0.425  1.00  0.00    -0.315 OA
BRANCH  12  13
HETATM   13  C   LIG     1       7.090   3.851   0.457  1.00  0.00     0.299 C 
HETATM   14  O   LIG     1       6.849   4.395  -0.840  1.00  0.00    -0.340 OA
HETATM   15  C   LIG     1       8.061   4.696  -1.579  1.00  0.00     0.256 C 
HETATM   16  C   LIG     1       8.983   5.649  -0.802  1.00  0.00     0.189 C 
HETATM   17  C   LIG     1       9.245   5.136   0.620  1.00  0.00     0.183 C 
HETATM   18  C   LIG     1       7.912   4.835   1.311  1.00  0.00     0.205 C 
BRANCH  15  19
HETATM   19  C   LIG     1       7.690   5.306  -2.966  1.00  0.00     0.206 C 
HETATM   20  O   LIG     1       8.116   6.484  -3.177  1.00  0.00    -0.646 OA
HETATM   21  O   LIG     1       7.007   4.566  -3.730  1.00  0.00    -0.646 OA
ENDBRANCH  15  19
BRANCH  16  22
HETATM   22  O   LIG     1       8.392   6.966  -0.646  1.00  0.00    -0.390 OA
ATOM     23  HO  LIG     1       8.230   7.284  -1.527  1.00  0.00     0.210 HD
ENDBRANCH  16  22
BRANCH  17  24
HETATM   24  O   LIG     1       9.947   6.169   1.346  1.00  0.00    -0.390 OA
ATOM     25  HO  LIG     1      10.774   6.356   0.917  1.00  0.00     0.210 HD
ENDBRANCH  17  24
BRANCH  18  26
HETATM   26  O   LIG     1       8.112   4.348   2.649  1.00  0.00    -0.388 OA
ATOM     27  HO  LIG     1       8.619   4.955   3.176  1.00  0.00     0.210 HD
ENDBRANCH  18  26
ENDBRANCH  12  13
ENDBRANCH   9  12
BRANCH  10  28
HETATM   28  O   LIG     1       8.490   0.106   1.464  1.00  0.00    -0.356 OA
ATOM     29  HO  LIG     1       8.775  -0.731   1.812  1.00  0.00     0.218 HD
ENDBRANCH  10  28
BRANCH  11  30
HETATM   30  O   LIG     1       6.923  -2.055   1.328  1.00  0.00    -0.357 OA
ATOM     31  HO  LIG     1       7.794  -2.133   1.699  1.00  0.00     0.217 HD
ENDBRANCH  11  30
BRANCH   1  32
HETATM   32  C   LIG     1       1.131  -0.001  -0.911  1.00  0.00    -0.002 A 
HETATM   33  C   LIG     1       0.856   1.023  -1.828  1.00  0.00     0.014 A 
HETATM   34  C   LIG     1      -0.463   1.385  -2.125  1.00  0.00     0.001 A 
HETATM   35  C   LIG     1      -1.526   0.733  -1.503  1.00  0.00     0.000 A 
HETATM   36  C   LIG     1      -1.273  -0.270  -0.574  1.00  0.00     0.001 A 
HETATM   37  C   LIG     1       0.044  -0.627  -0.274  1.00  0.00     0.014 A 
ENDBRANCH   1  32
TORSDOF 9
