REMARK  10 active torsions:
REMARK  status: ('A' for Active; 'I' for Inactive)
REMARK    1  A    between atoms: C_3  and  O_28 
REMARK    2  A    between atoms: C_4  and  O_26 
REMARK    3  A    between atoms: C_5  and  O_24 
REMARK    4  A    between atoms: C_6  and  O_8 
REMARK    5  A    between atoms: O_8  and  C_9 
REMARK    6  A    between atoms: C_10  and  O_22 
REMARK    7  A    between atoms: C_11  and  O_20 
REMARK    8  A    between atoms: C_12  and  C_17 
REMARK    9  A    between atoms: C_14  and  O_15 
REMARK   10  A    between atoms: C_17  and  O_18 
ROOT
HETATM    1  C   LIG     1      -3.027  -1.298   0.956  1.00  0.00     0.211 C 
HETATM    2  C   LIG     1      -1.932  -2.236   1.475  1.00  0.00     0.183 C 
HETATM    3  C   LIG     1      -1.449  -1.849   2.875  1.00  0.00     0.180 C 
HETATM    4  C   LIG     1      -2.578  -1.546   3.866  1.00  0.00     0.179 C 
HETATM    5  O   LIG     1      -3.554  -0.654   3.299  1.00  0.00    -0.349 OA
HETATM    6  C   LIG     1      -4.117  -1.027   2.038  1.00  0.00     0.291 C 
ENDROOT
BRANCH   1   7
HETATM    7  O   LIG     1      -3.608  -1.779  -0.280  1.00  0.00    -0.346 OA
BRANCH   7   8
HETATM    8  C   LIG     1      -2.671  -1.837  -1.375  1.00  0.00     0.292 C 
HETATM    9  C   LIG     1      -3.373  -2.398  -2.633  1.00  0.00     0.204 C 
HETATM   10  C   LIG     1      -2.422  -2.353  -3.834  1.00  0.00     0.183 C 
HETATM   11  C   LIG     1      -1.863  -0.937  -4.024  1.00  0.00     0.178 C 
HETATM   12  C   LIG     1      -1.201  -0.487  -2.712  1.00  0.00     0.152 C 
HETATM   13  C   LIG     1      -0.677   0.941  -2.806  1.00  0.00     0.042 C 
HETATM   14  O   LIG     1      -2.138  -0.533  -1.622  1.00  0.00    -0.351 OA
BRANCH   9  15
HETATM   15  O   LIG     1      -4.546  -1.624  -2.977  1.00  0.00    -0.388 OA
ATOM     16  HO  LIG     1      -5.135  -1.652  -2.233  1.00  0.00     0.210 HD
ENDBRANCH   9  15
BRANCH  10  17
HETATM   17  O   LIG     1      -3.108  -2.772  -5.017  1.00  0.00    -0.390 OA
ATOM     18  HO  LIG     1      -3.454  -3.649  -4.899  1.00  0.00     0.210 HD
ENDBRANCH  10  17
BRANCH  11  19
HETATM   19  O   LIG     1      -2.919  -0.037  -4.400  1.00  0.00    -0.390 OA
ATOM     20  HO  LIG     1      -3.328  -0.315  -5.211  1.00  0.00     0.210 HD
ENDBRANCH  11  19
ENDBRANCH   7   8
ENDBRANCH   1   7
BRANCH   6  21
HETATM   21  O   LIG     1      -5.035  -2.115   2.209  1.00  0.00    -0.363 OA
HETATM   22  C   LIG     1      -6.219  -1.679   2.894  1.00  0.00     0.204 C 
ENDBRANCH   6  21
BRANCH   2  23
HETATM   23  O   LIG     1      -2.310  -3.616   1.410  1.00  0.00    -0.390 OA
ATOM     24  HO  LIG     1      -1.631  -4.198   1.732  1.00  0.00     0.210 HD
ENDBRANCH   2  23
BRANCH   3  25
HETATM   25  O   LIG     1      -0.540  -2.835   3.364  1.00  0.00    -0.390 OA
ATOM     26  HO  LIG     1      -0.240  -2.595   4.233  1.00  0.00     0.210 HD
ENDBRANCH   3  25
BRANCH   4  27
HETATM   27  C   LIG     1      -3.177  -2.764   4.599  1.00  0.00     0.198 C 
BRANCH  27  28
HETATM   28  O   LIG     1      -3.743  -3.742   3.735  1.00  0.00    -0.398 OA
ATOM     29  HO  LIG     1      -4.112  -4.492   4.186  1.00  0.00     0.209 HD
ENDBRANCH  27  28
ENDBRANCH   4  27
TORSDOF 10
