REMARK  18 active torsions:
REMARK  status: ('A' for Active; 'I' for Inactive)
REMARK    1  A    between atoms: C_3  and  O_49 
REMARK    2  A    between atoms: C_4  and  O_47 
REMARK    3  A    between atoms: C_5  and  O_45 
REMARK    4  A    between atoms: C_6  and  O_8 
REMARK    5  A    between atoms: O_8  and  C_9 
REMARK    6  A    between atoms: C_10  and  O_43 
REMARK    7  A    between atoms: C_11  and  O_41 
REMARK    8  A    between atoms: C_12  and  C_38 
REMARK    9  A    between atoms: C_14  and  O_15 
REMARK   10  A    between atoms: O_15  and  C_16 
REMARK   11  A    between atoms: C_18  and  O_36 
REMARK   12  A    between atoms: C_19  and  C_24 
REMARK   13  A    between atoms: C_20  and  O_22 
REMARK   14  A    between atoms: C_24  and  C_26 
REMARK   15  A    between atoms: C_26  and  C_27 
REMARK   16  A    between atoms: C_27  and  C_28 
REMARK   17  A    between atoms: C_31  and  O_34 
REMARK   18  A    between atoms: C_38  and  O_39 
ROOT
HETATM    1  C   LIG     1       3.481  -0.560  -2.275  1.00  0.00     0.211 C 
HETATM    2  C   LIG     1       3.100  -0.348  -0.804  1.00  0.00     0.183 C 
HETATM    3  C   LIG     1       3.536  -1.481   0.130  1.00  0.00     0.180 C 
HETATM    4  C   LIG     1       4.476  -2.476  -0.566  1.00  0.00     0.179 C 
HETATM    5  O   LIG     1       5.474  -1.769  -1.312  1.00  0.00    -0.348 OA
HETATM    6  C   LIG     1       4.986  -0.969  -2.407  1.00  0.00     0.298 C 
ENDROOT
BRANCH   6   7
HETATM    7  O   LIG     1       5.838   0.198  -2.522  1.00  0.00    -0.318 OA
BRANCH   7   8
HETATM    8  C   LIG     1       6.108   0.654  -3.790  1.00  0.00     0.077 C 
HETATM    9  C   LIG     1       6.355   2.027  -3.922  1.00  0.00     0.074 C 
HETATM   10  C   LIG     1       6.461   2.603  -5.196  1.00  0.00     0.085 C 
HETATM   11  C   LIG     1       6.371   1.814  -6.349  1.00  0.00     0.076 C 
HETATM   12  C   LIG     1       6.304   0.427  -6.192  1.00  0.00     0.085 C 
HETATM   13  C   LIG     1       6.166  -0.147  -4.928  1.00  0.00     0.074 C 
BRANCH  10  14
HETATM   14  O   LIG     1       6.667   3.951  -5.310  1.00  0.00    -0.360 OA
ATOM     15  HO  LIG     1       6.728   4.486  -4.528  1.00  0.00     0.217 HD
ENDBRANCH  10  14
BRANCH  11  16
HETATM   16  C   LIG     1       6.292   2.388  -7.727  1.00  0.00     0.165 C 
HETATM   17  O   LIG     1       6.697   1.716  -8.664  1.00  0.00    -0.292 OA
BRANCH  16  18
HETATM   18  C   LIG     1       5.644   3.755  -7.893  1.00  0.00     0.088 C 
BRANCH  18  19
HETATM   19  C   LIG     1       4.980   3.945  -9.255  1.00  0.00     0.046 C 
BRANCH  19  20
HETATM   20  C   LIG     1       4.332   5.309  -9.385  1.00  0.00    -0.058 A 
HETATM   21  C   LIG     1       4.755   6.193 -10.389  1.00  0.00     0.010 A 
HETATM   22  C   LIG     1       4.160   7.450 -10.532  1.00  0.00     0.037 A 
HETATM   23  C   LIG     1       3.137   7.827  -9.669  1.00  0.00     0.065 A 
HETATM   24  C   LIG     1       2.706   6.971  -8.665  1.00  0.00     0.037 A 
HETATM   25  C   LIG     1       3.298   5.713  -8.525  1.00  0.00     0.010 A 
BRANCH  23  26
HETATM   26  O   LIG     1       2.524   9.040  -9.778  1.00  0.00    -0.361 OA
ATOM     27  HO  LIG     1       2.819   9.626 -10.465  1.00  0.00     0.217 HD
ENDBRANCH  23  26
ENDBRANCH  19  20
ENDBRANCH  18  19
ENDBRANCH  16  18
ENDBRANCH  11  16
BRANCH  12  28
HETATM   28  O   LIG     1       6.355  -0.451  -7.243  1.00  0.00    -0.360 OA
ATOM     29  HO  LIG     1       6.449  -0.060  -8.104  1.00  0.00     0.217 HD
ENDBRANCH  12  28
ENDBRANCH   7   8
ENDBRANCH   6   7
BRANCH   1  30
HETATM   30  O   LIG     1       3.149   0.588  -3.095  1.00  0.00    -0.346 OA
BRANCH  30  31
HETATM   31  C   LIG     1       1.770   0.982  -2.996  1.00  0.00     0.292 C 
HETATM   32  C   LIG     1       1.533   2.228  -3.867  1.00  0.00     0.204 C 
HETATM   33  C   LIG     1       0.062   2.630  -3.702  1.00  0.00     0.183 C 
HETATM   34  C   LIG     1      -0.857   1.471  -4.123  1.00  0.00     0.178 C 
HETATM   35  C   LIG     1      -0.473   0.156  -3.413  1.00  0.00     0.152 C 
HETATM   36  C   LIG     1      -1.010   0.049  -1.989  1.00  0.00     0.042 C 
HETATM   37  O   LIG     1       0.943  -0.099  -3.423  1.00  0.00    -0.351 OA
BRANCH  32  38
HETATM   38  O   LIG     1       1.807   1.932  -5.255  1.00  0.00    -0.388 OA
ATOM     39  HO  LIG     1       2.718   1.683  -5.357  1.00  0.00     0.210 HD
ENDBRANCH  32  38
BRANCH  33  40
HETATM   40  O   LIG     1      -0.212   3.793  -4.487  1.00  0.00    -0.390 OA
ATOM     41  HO  LIG     1       0.356   4.509  -4.227  1.00  0.00     0.210 HD
ENDBRANCH  33  40
BRANCH  34  42
HETATM   42  O   LIG     1      -0.749   1.281  -5.546  1.00  0.00    -0.390 OA
ATOM     43  HO  LIG     1      -0.985   2.091  -5.983  1.00  0.00     0.210 HD
ENDBRANCH  34  42
ENDBRANCH  30  31
ENDBRANCH   1  30
BRANCH   2  44
HETATM   44  O   LIG     1       3.564   0.925  -0.315  1.00  0.00    -0.390 OA
ATOM     45  HO  LIG     1       3.328   1.056   0.596  1.00  0.00     0.210 HD
ENDBRANCH   2  44
BRANCH   4  46
HETATM   46  C   LIG     1       5.137  -3.399   0.478  1.00  0.00     0.198 C 
BRANCH  46  47
HETATM   47  O   LIG     1       5.988  -4.381  -0.113  1.00  0.00    -0.398 OA
ATOM     48  HO  LIG     1       6.395  -4.950   0.530  1.00  0.00     0.209 HD
ENDBRANCH  46  47
ENDBRANCH   4  46
BRANCH   3  49
HETATM   49  O   LIG     1       4.108  -0.928   1.320  1.00  0.00    -0.390 OA
ATOM     50  HO  LIG     1       4.378  -1.631   1.899  1.00  0.00     0.210 HD
ENDBRANCH   3  49
TORSDOF 18
