REMARK  1 active torsions:
REMARK  status: ('A' for Active; 'I' for Inactive)
REMARK    1  A    between atoms: C_15  and  O_17 
ROOT
HETATM    1  C   LIG     1       1.870   2.131  -0.035  1.00  0.00     0.065 C 
HETATM    2  C   LIG     1       1.254   1.706   1.277  1.00  0.00     0.002 C 
HETATM    3  N   LIG     1       0.269   0.872   1.233  1.00  0.00    -0.395 N 
ATOM      4  HN  LIG     1      -0.104   0.546   0.342  1.00  0.00     0.159 HD
HETATM    5  C   LIG     1      -0.294   0.410   2.499  1.00  0.00     0.120 C 
HETATM    6  C   LIG     1      -0.377   1.538   3.512  1.00  0.00     0.031 C 
HETATM    7  C   LIG     1       1.006   2.094   3.817  1.00  0.00     0.051 C 
HETATM    8  C   LIG     1       1.864   2.308   2.549  1.00  0.00     0.135 C 
HETATM    9  N   LIG     1       3.212   1.714   2.756  1.00  0.00    -0.379 N 
ATOM     10  HN  LIG     1       4.023   1.776   2.141  1.00  0.00     0.160 HD
HETATM   11  C   LIG     1       3.116   1.044   3.997  1.00  0.00     0.038 A 
HETATM   12  C   LIG     1       1.886   1.194   4.627  1.00  0.00    -0.025 A 
HETATM   13  C   LIG     1       1.638   0.604   5.856  1.00  0.00     0.012 A 
HETATM   14  C   LIG     1       2.654  -0.156   6.439  1.00  0.00     0.037 A 
HETATM   15  C   LIG     1       3.900  -0.313   5.807  1.00  0.00     0.070 A 
HETATM   16  C   LIG     1       4.134   0.300   4.574  1.00  0.00     0.066 A 
ENDROOT
BRANCH  15  17
HETATM   17  O   LIG     1       4.795  -1.083   6.502  1.00  0.00    -0.356 OA
HETATM   18  C   LIG     1       6.053  -1.317   5.882  1.00  0.00     0.210 C 
ENDBRANCH  15  17
TORSDOF 1
