REMARK  17 active torsions:
REMARK  status: ('A' for Active; 'I' for Inactive)
REMARK    1  A    between atoms: C_3  and  O_55 
REMARK    2  A    between atoms: C_4  and  O_53 
REMARK    3  A    between atoms: C_5  and  O_51 
REMARK    4  A    between atoms: C_6  and  O_8 
REMARK    5  A    between atoms: O_8  and  C_9 
REMARK    6  A    between atoms: C_13  and  O_49 
REMARK    7  A    between atoms: C_15  and  O_33 
REMARK    8  A    between atoms: C_16  and  C_28 
REMARK    9  A    between atoms: C_19  and  C_20 
REMARK   10  A    between atoms: C_23  and  O_26 
REMARK   11  A    between atoms: C_28  and  C_29 
REMARK   12  A    between atoms: O_33  and  C_34 
REMARK   13  A    between atoms: C_35  and  O_47 
REMARK   14  A    between atoms: C_36  and  O_45 
REMARK   15  A    between atoms: C_37  and  O_43 
REMARK   16  A    between atoms: C_38  and  C_40 
REMARK   17  A    between atoms: C_40  and  O_41 
ROOT
HETATM    1  C   LIG     1      12.262   8.315  -9.963  1.00  0.00     0.157 C 
HETATM    2  C   LIG     1      12.150   8.291  -8.461  1.00  0.00     0.223 C 
HETATM    3  O   LIG     1      12.544   9.198  -7.757  1.00  0.00    -0.284 OA
HETATM    4  C   LIG     1      11.505   7.129  -7.859  1.00  0.00     0.085 A 
HETATM    5  C   LIG     1      11.649   6.790  -6.526  1.00  0.00     0.085 A 
HETATM    6  C   LIG     1      10.943   5.698  -6.000  1.00  0.00     0.075 A 
HETATM    7  C   LIG     1      10.093   4.925  -6.807  1.00  0.00     0.084 A 
HETATM    8  C   LIG     1       9.903   5.293  -8.155  1.00  0.00     0.014 A 
HETATM    9  C   LIG     1      10.675   6.365  -8.670  1.00  0.00     0.102 A 
HETATM   10  O   LIG     1      10.562   6.615 -10.018  1.00  0.00    -0.305 OA
HETATM   11  C   LIG     1      11.464   7.488 -10.625  1.00  0.00     0.123 C 
ENDROOT
BRANCH   7  12
HETATM   12  O   LIG     1       9.433   3.813  -6.318  1.00  0.00    -0.317 OA
BRANCH  12  13
HETATM   13  C   LIG     1      10.108   3.152  -5.226  1.00  0.00     0.298 C 
HETATM   14  O   LIG     1       9.769   3.737  -3.949  1.00  0.00    -0.348 OA
HETATM   15  C   LIG     1      10.637   3.264  -2.896  1.00  0.00     0.179 C 
HETATM   16  C   LIG     1      10.498   1.735  -2.727  1.00  0.00     0.180 C 
HETATM   17  C   LIG     1      10.736   1.044  -4.085  1.00  0.00     0.183 C 
HETATM   18  C   LIG     1       9.819   1.635  -5.182  1.00  0.00     0.205 C 
BRANCH  15  19
HETATM   19  C   LIG     1      10.291   4.043  -1.619  1.00  0.00     0.198 C 
BRANCH  19  20
HETATM   20  O   LIG     1       8.950   3.780  -1.207  1.00  0.00    -0.398 OA
ATOM     21  HO  LIG     1       8.736   4.262  -0.417  1.00  0.00     0.209 HD
ENDBRANCH  19  20
ENDBRANCH  15  19
BRANCH  16  22
HETATM   22  O   LIG     1       9.178   1.373  -2.281  1.00  0.00    -0.390 OA
ATOM     23  HO  LIG     1       9.031   1.799  -1.444  1.00  0.00     0.210 HD
ENDBRANCH  16  22
BRANCH  17  24
HETATM   24  O   LIG     1      10.536  -0.364  -3.959  1.00  0.00    -0.390 OA
ATOM     25  HO  LIG     1      11.099  -0.727  -3.285  1.00  0.00     0.210 HD
ENDBRANCH  17  24
BRANCH  18  26
HETATM   26  O   LIG     1       8.439   1.348  -4.893  1.00  0.00    -0.388 OA
ATOM     27  HO  LIG     1       8.261   0.415  -4.866  1.00  0.00     0.210 HD
ENDBRANCH  18  26
ENDBRANCH  12  13
ENDBRANCH   7  12
BRANCH   8  28
HETATM   28  C   LIG     1       8.905   4.608  -9.074  1.00  0.00     0.072 C 
BRANCH  28  29
HETATM   29  C   LIG     1       9.491   3.470  -9.867  1.00  0.00    -0.020 C 
HETATM   30  C   LIG     1       8.831   2.410 -10.375  1.00  0.00    -0.091 C 
HETATM   31  C   LIG     1       9.551   1.377 -11.203  1.00  0.00     0.042 C 
HETATM   32  C   LIG     1       7.358   2.152 -10.217  1.00  0.00     0.042 C 
ENDBRANCH  28  29
ENDBRANCH   8  28
BRANCH   5  33
HETATM   33  O   LIG     1      12.510   7.455  -5.708  1.00  0.00    -0.360 OA
ATOM     34  HO  LIG     1      12.609   7.222  -4.792  1.00  0.00     0.217 HD
ENDBRANCH   5  33
BRANCH  11  35
HETATM   35  C   LIG     1      11.418   7.360 -12.113  1.00  0.00     0.001 A 
HETATM   36  C   LIG     1      11.663   8.432 -12.983  1.00  0.00     0.017 A 
HETATM   37  C   LIG     1      11.535   8.279 -14.370  1.00  0.00     0.037 A 
HETATM   38  C   LIG     1      11.150   7.057 -14.910  1.00  0.00     0.068 A 
HETATM   39  C   LIG     1      10.889   5.987 -14.059  1.00  0.00     0.037 A 
HETATM   40  C   LIG     1      11.040   6.136 -12.679  1.00  0.00     0.017 A 
BRANCH  38  41
HETATM   41  O   LIG     1      10.999   7.028 -16.268  1.00  0.00    -0.356 OA
HETATM   42  C   LIG     1      11.184   5.751 -16.868  1.00  0.00     0.210 C 
ENDBRANCH  38  41
ENDBRANCH  11  35
BRANCH   1  43
HETATM   43  O   LIG     1      13.130   9.185 -10.608  1.00  0.00    -0.311 OA
BRANCH  43  44
HETATM   44  C   LIG     1      14.308   9.552  -9.954  1.00  0.00     0.298 C 
HETATM   45  C   LIG     1      15.382   9.888 -11.005  1.00  0.00     0.205 C 
HETATM   46  C   LIG     1      16.677  10.260 -10.270  1.00  0.00     0.183 C 
HETATM   47  C   LIG     1      16.436  11.335  -9.187  1.00  0.00     0.178 C 
HETATM   48  C   LIG     1      15.205  10.990  -8.338  1.00  0.00     0.152 C 
HETATM   49  C   LIG     1      14.813  12.125  -7.405  1.00  0.00     0.042 C 
HETATM   50  O   LIG     1      14.096  10.742  -9.201  1.00  0.00    -0.351 OA
BRANCH  45  51
HETATM   51  O   LIG     1      15.002  11.020 -11.825  1.00  0.00    -0.388 OA
ATOM     52  HO  LIG     1      14.200  10.790 -12.280  1.00  0.00     0.210 HD
ENDBRANCH  45  51
BRANCH  46  53
HETATM   53  O   LIG     1      17.645  10.753 -11.212  1.00  0.00    -0.390 OA
ATOM     54  HO  LIG     1      17.793  10.092 -11.878  1.00  0.00     0.210 HD
ENDBRANCH  46  53
BRANCH  47  55
HETATM   55  O   LIG     1      17.589  11.453  -8.351  1.00  0.00    -0.390 OA
ATOM     56  HO  LIG     1      18.351  11.667  -8.877  1.00  0.00     0.210 HD
ENDBRANCH  47  55
ENDBRANCH  43  44
ENDBRANCH   1  43
TORSDOF 17
