REMARK  1 active torsions:
REMARK  status: ('A' for Active; 'I' for Inactive)
REMARK    1  A    between atoms: C_2  and  C_3 
ROOT
HETATM    1  C   LIG     1       1.032  -1.942  -1.433  1.00  0.00    -0.031 A 
HETATM    2  C   LIG     1       2.292  -2.339  -1.837  1.00  0.00     0.096 A 
HETATM    3  N   LIG     1       2.327  -3.707  -1.859  1.00  0.00    -0.365 N 
ATOM      4  HN  LIG     1       3.139  -4.265  -2.121  1.00  0.00     0.165 HD
HETATM    5  C   LIG     1       1.110  -4.221  -1.477  1.00  0.00     0.042 A 
HETATM    6  C   LIG     1       0.275  -3.137  -1.203  1.00  0.00    -0.002 A 
HETATM    7  C   LIG     1      -1.046  -3.398  -0.784  1.00  0.00     0.014 A 
HETATM    8  C   LIG     1      -1.482  -4.722  -0.657  1.00  0.00     0.001 A 
HETATM    9  C   LIG     1      -0.623  -5.781  -0.939  1.00  0.00     0.002 A 
HETATM   10  C   LIG     1       0.691  -5.551  -1.355  1.00  0.00     0.030 A 
ENDROOT
BRANCH   1  11
HETATM   11  C   LIG     1       0.557  -0.535  -1.270  1.00  0.00     0.036 C 
HETATM   12  C   LIG     1       0.710  -0.034   0.158  1.00  0.00     0.010 C 
ENDBRANCH   1  11
TORSDOF 1
