REMARK  4 active torsions:
REMARK  status: ('A' for Active; 'I' for Inactive)
REMARK    1  A    between atoms: C_7  and  O_45 
REMARK    2  A    between atoms: C_25  and  O_26 
REMARK    3  A    between atoms: C_33  and  O_39 
REMARK    4  A    between atoms: C_34  and  O_37 
ROOT
HETATM    1  C   LIG     1      -4.147  -0.155   1.078  1.00  0.00     0.310 C 
HETATM    2  N   LIG     1      -4.052   1.103   1.817  1.00  0.00     0.093 N 
HETATM    3  C   LIG     1      -2.647   1.490   2.013  1.00  0.00     0.277 C 
HETATM    4  C   LIG     1      -2.462   2.976   2.351  1.00  0.00     0.069 C 
HETATM    5  C   LIG     1      -3.000   3.777   1.197  1.00  0.00    -0.045 A 
HETATM    6  C   LIG     1      -2.373   4.923   0.727  1.00  0.00     0.047 A 
HETATM    7  C   LIG     1      -2.805   5.569  -0.442  1.00  0.00     0.102 A 
HETATM    8  C   LIG     1      -3.882   5.003  -1.166  1.00  0.00     0.110 A 
HETATM    9  C   LIG     1      -4.558   3.893  -0.638  1.00  0.00     0.050 A 
HETATM   10  C   LIG     1      -4.150   3.294   0.557  1.00  0.00    -0.016 A 
HETATM   11  C   LIG     1      -4.913   2.152   1.208  1.00  0.00     0.260 C 
HETATM   12  C   LIG     1      -5.865   2.715   2.321  1.00  0.00     0.079 C 
HETATM   13  C   LIG     1      -7.282   2.761   1.797  1.00  0.00    -0.056 C 
HETATM   14  C   LIG     1      -7.798   3.931   1.235  1.00  0.00     0.010 C 
HETATM   15  C   LIG     1      -8.912   3.858   0.406  1.00  0.00     0.038 C 
HETATM   16  C   LIG     1      -9.454   2.600   0.107  1.00  0.00     0.076 C 
HETATM   17  C   LIG     1      -9.083   1.472   0.829  1.00  0.00     0.038 C 
HETATM   18  C   LIG     1      -7.989   1.552   1.679  1.00  0.00     0.010 C 
HETATM   19  O   LIG     1     -10.157   2.411  -1.079  1.00  0.00    -0.308 OA
HETATM   20  C   LIG     1      -9.267   2.347  -2.153  1.00  0.00     0.109 C 
HETATM   21  C   LIG     1      -8.817   3.561  -2.679  1.00  0.00     0.047 C 
HETATM   22  C   LIG     1      -7.655   3.617  -3.449  1.00  0.00    -0.053 C 
HETATM   23  C   LIG     1      -7.087   2.407  -3.871  1.00  0.00     0.010 C 
HETATM   24  C   LIG     1      -7.612   1.179  -3.448  1.00  0.00     0.040 C 
HETATM   25  C   LIG     1      -8.679   1.138  -2.546  1.00  0.00     0.102 C 
HETATM   26  C   LIG     1      -6.980   4.935  -3.785  1.00  0.00     0.079 C 
HETATM   27  C   LIG     1      -7.027   6.049  -2.658  1.00  0.00     0.263 C 
HETATM   28  C   LIG     1      -5.839   7.026  -2.773  1.00  0.00     0.018 C 
HETATM   29  C   LIG     1      -6.059   8.410  -2.838  1.00  0.00    -0.042 C 
HETATM   30  C   LIG     1      -5.042   9.246  -3.305  1.00  0.00     0.047 C 
HETATM   31  C   LIG     1      -3.791   8.732  -3.668  1.00  0.00     0.104 C 
HETATM   32  C   LIG     1      -3.514   7.370  -3.458  1.00  0.00     0.136 C 
HETATM   33  C   LIG     1      -4.506   6.570  -2.859  1.00  0.00     0.121 C 
HETATM   34  O   LIG     1      -4.224   5.277  -2.484  1.00  0.00    -0.304 OA
HETATM   35  C   LIG     1      -7.373   9.004  -2.397  1.00  0.00     0.069 C 
HETATM   36  C   LIG     1      -8.270   7.943  -1.752  1.00  0.00     0.277 C 
HETATM   37  N   LIG     1      -8.365   6.730  -2.573  1.00  0.00     0.093 N 
HETATM   38  C   LIG     1      -9.003   7.016  -3.862  1.00  0.00     0.310 C 
ENDROOT
BRANCH   7  39
HETATM   39  O   LIG     1      -2.195   6.696  -0.920  1.00  0.00    -0.353 OA
HETATM   40  C   LIG     1      -1.105   7.220  -0.164  1.00  0.00     0.210 C 
ENDBRANCH   7  39
BRANCH  32  41
HETATM   41  O   LIG     1      -2.284   6.900  -3.846  1.00  0.00    -0.351 OA
HETATM   42  C   LIG     1      -2.212   5.557  -4.312  1.00  0.00     0.210 C 
ENDBRANCH  32  41
BRANCH  31  43
HETATM   43  O   LIG     1      -2.982   9.677  -4.246  1.00  0.00    -0.353 OA
HETATM   44  C   LIG     1      -1.579   9.468  -4.177  1.00  0.00     0.210 C 
ENDBRANCH  31  43
BRANCH  25  45
HETATM   45  O   LIG     1      -9.186  -0.018  -2.015  1.00  0.00    -0.353 OA
HETATM   46  C   LIG     1      -8.251  -1.081  -1.864  1.00  0.00     0.210 C 
ENDBRANCH  25  45
TORSDOF 4
