REMARK  6 active torsions:
REMARK  status: ('A' for Active; 'I' for Inactive)
REMARK    1  A    between atoms: C_14  and  C_17 
REMARK    2  A    between atoms: C_18  and  O_30 
REMARK    3  A    between atoms: C_19  and  O_28 
REMARK    4  A    between atoms: C_20  and  O_26 
REMARK    5  A    between atoms: C_21  and  C_23 
REMARK    6  A    between atoms: C_23  and  O_24 
ROOT
HETATM    1  C   LIG     1      -3.630   0.845   0.397  1.00  0.00     0.001 A 
HETATM    2  C   LIG     1      -3.774  -0.537   0.531  1.00  0.00     0.003 A 
HETATM    3  C   LIG     1      -2.680  -1.382   0.326  1.00  0.00     0.038 A 
HETATM    4  C   LIG     1      -1.438  -0.846  -0.009  1.00  0.00     0.083 A 
HETATM    5  C   LIG     1      -1.307   0.534  -0.165  1.00  0.00     0.044 A 
HETATM    6  C   LIG     1      -2.394   1.386   0.047  1.00  0.00     0.018 A 
HETATM    7  C   LIG     1       0.005   1.075  -0.554  1.00  0.00     0.176 C 
HETATM    8  O   LIG     1       0.253   2.271  -0.465  1.00  0.00    -0.291 OA
HETATM    9  C   LIG     1       1.001   0.065  -1.043  1.00  0.00     0.161 C 
HETATM   10  C   LIG     1       0.910  -1.182  -0.173  1.00  0.00     0.154 C 
HETATM   11  O   LIG     1      -0.413  -1.740  -0.160  1.00  0.00    -0.343 OA
HETATM   12  C   LIG     1       1.413  -0.966   1.260  1.00  0.00     0.113 C 
HETATM   13  C   LIG     1       2.790  -0.325   1.274  1.00  0.00     0.143 C 
HETATM   14  C   LIG     1       2.965   0.912   0.388  1.00  0.00     0.157 C 
HETATM   15  C   LIG     1       2.432   0.537  -0.990  1.00  0.00     0.154 C 
HETATM   16  O   LIG     1       3.139   0.497  -1.994  1.00  0.00    -0.296 OA
HETATM   17  O   LIG     1       3.643  -0.737   2.054  1.00  0.00    -0.297 OA
ENDROOT
BRANCH  14  18
HETATM   18  C   LIG     1       4.413   1.446   0.346  1.00  0.00     0.172 C 
HETATM   19  O   LIG     1       4.929   1.692   1.678  1.00  0.00    -0.372 OA
HETATM   20  C   LIG     1       4.370   2.818   2.379  1.00  0.00     0.176 C 
HETATM   21  C   LIG     1       4.662   4.111   1.601  1.00  0.00     0.180 C 
HETATM   22  C   LIG     1       4.053   3.974   0.197  1.00  0.00     0.180 C 
HETATM   23  C   LIG     1       4.603   2.724  -0.517  1.00  0.00     0.179 C 
BRANCH  20  24
HETATM   24  C   LIG     1       4.990   2.825   3.782  1.00  0.00     0.198 C 
BRANCH  24  25
HETATM   25  O   LIG     1       6.412   2.932   3.695  1.00  0.00    -0.398 OA
ATOM     26  HO  LIG     1       6.796   2.936   4.564  1.00  0.00     0.209 HD
ENDBRANCH  24  25
ENDBRANCH  20  24
BRANCH  21  27
HETATM   27  O   LIG     1       6.080   4.331   1.458  1.00  0.00    -0.390 OA
ATOM     28  HO  LIG     1       6.457   4.416   2.326  1.00  0.00     0.210 HD
ENDBRANCH  21  27
BRANCH  22  29
HETATM   29  O   LIG     1       4.348   5.144  -0.570  1.00  0.00    -0.390 OA
ATOM     30  HO  LIG     1       4.009   5.915  -0.130  1.00  0.00     0.210 HD
ENDBRANCH  22  29
BRANCH  23  31
HETATM   31  O   LIG     1       6.010   2.907  -0.779  1.00  0.00    -0.390 OA
ATOM     32  HO  LIG     1       6.126   3.688  -1.307  1.00  0.00     0.210 HD
ENDBRANCH  23  31
ENDBRANCH  14  18
TORSDOF 6
