REMARK  15 active torsions:
REMARK  status: ('A' for Active; 'I' for Inactive)
REMARK    1  A    between atoms: C_3  and  O_50 
REMARK    2  A    between atoms: C_4  and  O_48 
REMARK    3  A    between atoms: C_5  and  O_46 
REMARK    4  A    between atoms: C_6  and  O_8 
REMARK    5  A    between atoms: O_8  and  C_9 
REMARK    6  A    between atoms: C_9  and  C_10 
REMARK    7  A    between atoms: C_11  and  O_44 
REMARK    8  A    between atoms: C_12  and  O_42 
REMARK    9  A    between atoms: C_13  and  O_40 
REMARK   10  A    between atoms: C_14  and  O_16 
REMARK   11  A    between atoms: O_16  and  C_17 
REMARK   12  A    between atoms: C_19  and  O_38 
REMARK   13  A    between atoms: C_24  and  C_28 
REMARK   14  A    between atoms: C_31  and  O_36 
REMARK   15  A    between atoms: C_32  and  O_34 
ROOT
HETATM    1  C   LIG     1      -2.828  -3.305  -2.403  1.00  0.00     0.180 C 
HETATM    2  C   LIG     1      -4.036  -3.031  -1.474  1.00  0.00     0.180 C 
HETATM    3  C   LIG     1      -4.488  -4.327  -0.784  1.00  0.00     0.183 C 
HETATM    4  C   LIG     1      -3.303  -5.005  -0.102  1.00  0.00     0.205 C 
HETATM    5  C   LIG     1      -2.279  -5.345  -1.204  1.00  0.00     0.298 C 
HETATM    6  O   LIG     1      -1.792  -4.091  -1.748  1.00  0.00    -0.348 OA
ENDROOT
BRANCH   5   7
HETATM    7  O   LIG     1      -1.197  -6.112  -0.632  1.00  0.00    -0.318 OA
BRANCH   7   8
HETATM    8  C   LIG     1      -1.515  -7.352  -0.123  1.00  0.00     0.077 A 
HETATM    9  C   LIG     1      -2.611  -8.133  -0.509  1.00  0.00     0.074 A 
HETATM   10  C   LIG     1      -2.886  -9.351   0.127  1.00  0.00     0.089 A 
HETATM   11  C   LIG     1      -2.053  -9.816   1.165  1.00  0.00     0.076 A 
HETATM   12  O   LIG     1      -4.007 -10.010  -0.273  1.00  0.00    -0.340 OA
HETATM   13  C   LIG     1      -0.942  -9.036   1.524  1.00  0.00     0.085 A 
HETATM   14  C   LIG     1      -2.386 -11.064   1.850  1.00  0.00     0.167 C 
HETATM   15  C   LIG     1      -0.673  -7.833   0.889  1.00  0.00     0.074 A 
HETATM   16  C   LIG     1      -3.659 -11.755   1.391  1.00  0.00     0.121 C 
HETATM   17  O   LIG     1      -1.700 -11.479   2.762  1.00  0.00    -0.292 OA
HETATM   18  C   LIG     1      -3.943 -11.433  -0.076  1.00  0.00     0.169 C 
BRANCH  13  19
HETATM   19  O   LIG     1      -0.107  -9.409   2.547  1.00  0.00    -0.360 OA
ATOM     20  HO  LIG     1      -0.291 -10.233   2.982  1.00  0.00     0.217 HD
ENDBRANCH  13  19
BRANCH  18  21
HETATM   21  C   LIG     1      -5.233 -12.085  -0.571  1.00  0.00    -0.026 A 
HETATM   22  C   LIG     1      -6.276 -11.331  -1.134  1.00  0.00     0.049 A 
HETATM   23  C   LIG     1      -7.422 -11.959  -1.629  1.00  0.00     0.099 A 
HETATM   24  C   LIG     1      -7.556 -13.350  -1.588  1.00  0.00     0.101 A 
HETATM   25  C   LIG     1      -6.535 -14.105  -1.009  1.00  0.00     0.040 A 
HETATM   26  C   LIG     1      -5.382 -13.481  -0.518  1.00  0.00     0.012 A 
BRANCH  23  27
HETATM   27  O   LIG     1      -8.421 -11.207  -2.189  1.00  0.00    -0.358 OA
ATOM     28  HO  LIG     1      -8.330 -10.262  -2.217  1.00  0.00     0.217 HD
ENDBRANCH  23  27
BRANCH  24  29
HETATM   29  O   LIG     1      -8.714 -13.883  -2.088  1.00  0.00    -0.353 OA
HETATM   30  C   LIG     1      -8.605 -15.197  -2.623  1.00  0.00     0.210 C 
ENDBRANCH  24  29
ENDBRANCH  18  21
ENDBRANCH   7   8
ENDBRANCH   5   7
BRANCH   4  31
HETATM   31  O   LIG     1      -2.706  -4.116   0.875  1.00  0.00    -0.388 OA
ATOM     32  HO  LIG     1      -1.968  -4.538   1.300  1.00  0.00     0.210 HD
ENDBRANCH   4  31
BRANCH   3  33
HETATM   33  O   LIG     1      -5.502  -4.057   0.186  1.00  0.00    -0.390 OA
ATOM     34  HO  LIG     1      -5.782  -4.858   0.613  1.00  0.00     0.210 HD
ENDBRANCH   3  33
BRANCH   1  35
HETATM   35  C   LIG     1      -2.203  -1.985  -2.921  1.00  0.00     0.205 C 
BRANCH  35  36
HETATM   36  O   LIG     1      -3.159  -1.189  -3.632  1.00  0.00    -0.356 OA
BRANCH  36  37
HETATM   37  C   LIG     1      -2.665   0.097  -4.063  1.00  0.00     0.291 C 
HETATM   38  C   LIG     1      -1.544  -0.051  -5.128  1.00  0.00     0.204 C 
HETATM   39  C   LIG     1      -1.215   1.299  -5.782  1.00  0.00     0.183 C 
HETATM   40  C   LIG     1      -2.488   1.977  -6.300  1.00  0.00     0.178 C 
HETATM   41  C   LIG     1      -3.503   2.121  -5.158  1.00  0.00     0.152 C 
HETATM   42  C   LIG     1      -3.106   3.164  -4.116  1.00  0.00     0.042 C 
HETATM   43  O   LIG     1      -3.789   0.838  -4.578  1.00  0.00    -0.351 OA
BRANCH  38  44
HETATM   44  O   LIG     1      -1.929  -0.991  -6.155  1.00  0.00    -0.388 OA
ATOM     45  HO  LIG     1      -2.133  -1.826  -5.750  1.00  0.00     0.210 HD
ENDBRANCH  38  44
BRANCH  39  46
HETATM   46  O   LIG     1      -0.305   1.099  -6.871  1.00  0.00    -0.390 OA
ATOM     47  HO  LIG     1       0.484   0.679  -6.550  1.00  0.00     0.210 HD
ENDBRANCH  39  46
BRANCH  40  48
HETATM   48  O   LIG     1      -3.054   1.145  -7.337  1.00  0.00    -0.390 OA
ATOM     49  HO  LIG     1      -2.426   1.056  -8.044  1.00  0.00     0.210 HD
ENDBRANCH  40  48
ENDBRANCH  36  37
ENDBRANCH  35  36
ENDBRANCH   1  35
BRANCH   2  50
HETATM   50  O   LIG     1      -3.700  -2.068  -0.457  1.00  0.00    -0.390 OA
ATOM     51  HO  LIG     1      -4.441  -1.900   0.113  1.00  0.00     0.210 HD
ENDBRANCH   2  50
TORSDOF 15
