REMARK  4 active torsions:
REMARK  status: ('A' for Active; 'I' for Inactive)
REMARK    1  A    between atoms: O_2  and  C_3 
REMARK    2  A    between atoms: C_8  and  O_9 
REMARK    3  A    between atoms: C_17  and  O_25 
REMARK    4  A    between atoms: C_18  and  O_23 
ROOT
HETATM    1  C   LIG     1      -1.031   0.295  -1.076  1.00  0.00     0.102 A 
HETATM    2  C   LIG     1      -1.769   1.274  -0.395  1.00  0.00     0.040 A 
HETATM    3  C   LIG     1      -3.151   1.336  -0.522  1.00  0.00     0.011 A 
HETATM    4  C   LIG     1      -3.807   0.430  -1.350  1.00  0.00    -0.045 A 
HETATM    5  C   LIG     1      -3.096  -0.545  -2.067  1.00  0.00     0.013 A 
HETATM    6  C   LIG     1      -1.696  -0.611  -1.937  1.00  0.00     0.110 A 
HETATM    7  C   LIG     1      -3.922  -1.519  -2.893  1.00  0.00     0.315 C 
HETATM    8  N   LIG     1      -4.984  -0.855  -3.667  1.00  0.00     0.102 N 
HETATM    9  C   LIG     1      -5.800  -1.780  -4.457  1.00  0.00     0.278 C 
HETATM   10  C   LIG     1      -6.995  -2.374  -3.693  1.00  0.00     0.069 C 
HETATM   11  C   LIG     1      -7.865  -1.262  -3.172  1.00  0.00    -0.045 A 
HETATM   12  C   LIG     1      -9.243  -1.427  -2.952  1.00  0.00     0.047 A 
HETATM   13  C   LIG     1     -10.036  -0.353  -2.497  1.00  0.00     0.102 A 
HETATM   14  C   LIG     1      -9.441   0.884  -2.238  1.00  0.00     0.102 A 
HETATM   15  C   LIG     1      -8.067   1.032  -2.445  1.00  0.00     0.049 A 
HETATM   16  C   LIG     1      -7.270  -0.037  -2.884  1.00  0.00    -0.016 A 
HETATM   17  C   LIG     1      -5.759   0.165  -2.929  1.00  0.00     0.261 C 
HETATM   18  C   LIG     1      -5.299   0.419  -1.469  1.00  0.00     0.080 C 
ENDROOT
BRANCH   1  19
HETATM   19  O   LIG     1       0.333   0.211  -0.957  1.00  0.00    -0.353 OA
HETATM   20  C   LIG     1       0.904   0.632   0.276  1.00  0.00     0.210 C 
ENDBRANCH   1  19
BRANCH   6  21
HETATM   21  O   LIG     1      -1.102  -1.633  -2.637  1.00  0.00    -0.352 OA
HETATM   22  C   LIG     1       0.247  -1.442  -3.045  1.00  0.00     0.210 C 
ENDBRANCH   6  21
BRANCH  14  23
HETATM   23  O   LIG     1     -10.179   1.908  -1.698  1.00  0.00    -0.353 OA
HETATM   24  C   LIG     1      -9.771   3.220  -2.078  1.00  0.00     0.210 C 
ENDBRANCH  14  23
BRANCH  13  25
HETATM   25  O   LIG     1     -11.366  -0.670  -2.357  1.00  0.00    -0.353 OA
HETATM   26  C   LIG     1     -12.289   0.413  -2.415  1.00  0.00     0.210 C 
ENDBRANCH  13  25
TORSDOF 4
