REMARK  4 active torsions:
REMARK  status: ('A' for Active; 'I' for Inactive)
REMARK    1  A    between atoms: C_3  and  O_22 
REMARK    2  A    between atoms: C_6  and  C_7 
REMARK    3  A    between atoms: C_12  and  O_20 
REMARK    4  A    between atoms: C_14  and  O_18 
ROOT
HETATM    1  C   LIG     1      -3.121   0.018  -0.287  1.00  0.00     0.169 C 
HETATM    2  C   LIG     1      -3.698   1.115   0.601  1.00  0.00     0.121 C 
HETATM    3  C   LIG     1      -5.194   0.998   0.646  1.00  0.00     0.167 C 
HETATM    4  O   LIG     1      -5.933   1.962   0.835  1.00  0.00    -0.292 OA
HETATM    5  C   LIG     1      -5.760  -0.357   0.539  1.00  0.00     0.076 A 
HETATM    6  C   LIG     1      -7.133  -0.590   0.678  1.00  0.00     0.085 A 
HETATM    7  C   LIG     1      -7.634  -1.889   0.624  1.00  0.00     0.074 A 
HETATM    8  C   LIG     1      -6.751  -2.948   0.439  1.00  0.00     0.071 A 
HETATM    9  C   LIG     1      -5.383  -2.728   0.300  1.00  0.00     0.074 A 
HETATM   10  C   LIG     1      -4.887  -1.425   0.334  1.00  0.00     0.089 A 
HETATM   11  O   LIG     1      -3.533  -1.282   0.184  1.00  0.00    -0.340 OA
ENDROOT
BRANCH   1  12
HETATM   12  C   LIG     1      -3.312   0.124  -1.798  1.00  0.00    -0.028 A 
HETATM   13  C   LIG     1      -3.954   1.204  -2.424  1.00  0.00     0.012 A 
HETATM   14  C   LIG     1      -4.084   1.248  -3.815  1.00  0.00     0.037 A 
HETATM   15  C   LIG     1      -3.569   0.220  -4.593  1.00  0.00     0.065 A 
HETATM   16  C   LIG     1      -2.921  -0.857  -4.004  1.00  0.00     0.037 A 
HETATM   17  C   LIG     1      -2.793  -0.901  -2.613  1.00  0.00     0.012 A 
BRANCH  15  18
HETATM   18  O   LIG     1      -3.718   0.309  -5.945  1.00  0.00    -0.361 OA
ATOM     19  HO  LIG     1      -3.366  -0.394  -6.477  1.00  0.00     0.217 HD
ENDBRANCH  15  18
ENDBRANCH   1  12
BRANCH   6  20
HETATM   20  O   LIG     1      -8.043   0.412   0.885  1.00  0.00    -0.360 OA
ATOM     21  HO  LIG     1      -8.975   0.254   0.979  1.00  0.00     0.217 HD
ENDBRANCH   6  20
BRANCH   8  22
HETATM   22  O   LIG     1      -7.193  -4.238   0.389  1.00  0.00    -0.361 OA
ATOM     23  HO  LIG     1      -6.590  -4.961   0.263  1.00  0.00     0.217 HD
ENDBRANCH   8  22
TORSDOF 4
