REMARK  8 active torsions:
REMARK  status: ('A' for Active; 'I' for Inactive)
REMARK    1  A    between atoms: C_13  and  O_33 
REMARK    2  A    between atoms: C_14  and  C_18 
REMARK    3  A    between atoms: C_15  and  O_16 
REMARK    4  A    between atoms: C_19  and  O_31 
REMARK    5  A    between atoms: C_20  and  O_29 
REMARK    6  A    between atoms: C_21  and  O_27 
REMARK    7  A    between atoms: C_22  and  C_24 
REMARK    8  A    between atoms: C_24  and  O_25 
ROOT
HETATM    1  C   LIG     1      -3.905   0.324   0.267  1.00  0.00     0.001 A 
HETATM    2  C   LIG     1      -3.608  -0.997  -0.071  1.00  0.00     0.003 A 
HETATM    3  C   LIG     1      -2.297  -1.468   0.029  1.00  0.00     0.038 A 
HETATM    4  C   LIG     1      -1.283  -0.622   0.475  1.00  0.00     0.083 A 
HETATM    5  C   LIG     1      -1.575   0.703   0.781  1.00  0.00     0.044 A 
HETATM    6  C   LIG     1      -2.886   1.180   0.688  1.00  0.00     0.018 A 
HETATM    7  C   LIG     1      -0.475   1.619   1.128  1.00  0.00     0.175 C 
HETATM    8  O   LIG     1      -0.669   2.831   1.200  1.00  0.00    -0.291 OA
HETATM    9  C   LIG     1       0.914   1.042   1.290  1.00  0.00     0.151 C 
HETATM   10  C   LIG     1       0.829  -0.482   1.468  1.00  0.00     0.172 C 
HETATM   11  O   LIG     1      -0.027  -1.151   0.538  1.00  0.00    -0.340 OA
HETATM   12  C   LIG     1       2.185  -1.101   1.299  1.00  0.00     0.044 C 
HETATM   13  C   LIG     1       3.115  -0.529   0.521  1.00  0.00     0.079 C 
HETATM   14  C   LIG     1       2.844   0.669  -0.270  1.00  0.00     0.059 C 
HETATM   15  C   LIG     1       1.830   1.467   0.152  1.00  0.00     0.073 C 
ENDROOT
BRANCH  14  16
HETATM   16  C   LIG     1       3.656   1.017  -1.529  1.00  0.00     0.093 C 
HETATM   17  O   LIG     1       3.486   0.032  -2.555  1.00  0.00    -0.342 OA
HETATM   18  C   LIG     1       4.539  -0.880  -2.864  1.00  0.00     0.183 C 
HETATM   19  C   LIG     1       5.984  -0.419  -2.588  1.00  0.00     0.181 C 
HETATM   20  C   LIG     1       6.155   0.501  -1.377  1.00  0.00     0.184 C 
HETATM   21  C   LIG     1       5.082   1.588  -1.376  1.00  0.00     0.207 C 
BRANCH  18  22
HETATM   22  C   LIG     1       4.212  -2.286  -2.346  1.00  0.00     0.199 C 
BRANCH  22  23
HETATM   23  O   LIG     1       5.055  -3.259  -2.961  1.00  0.00    -0.398 OA
ATOM     24  HO  LIG     1       4.852  -4.130  -2.640  1.00  0.00     0.209 HD
ENDBRANCH  22  23
ENDBRANCH  18  22
BRANCH  19  25
HETATM   25  O   LIG     1       6.458   0.339  -3.736  1.00  0.00    -0.390 OA
ATOM     26  HO  LIG     1       6.352  -0.232  -4.488  1.00  0.00     0.210 HD
ENDBRANCH  19  25
BRANCH  20  27
HETATM   27  O   LIG     1       7.471   1.097  -1.457  1.00  0.00    -0.390 OA
ATOM     28  HO  LIG     1       8.138   0.421  -1.458  1.00  0.00     0.210 HD
ENDBRANCH  20  27
BRANCH  21  29
HETATM   29  O   LIG     1       5.196   2.446  -0.230  1.00  0.00    -0.386 OA
ATOM     30  HO  LIG     1       6.074   2.797  -0.136  1.00  0.00     0.210 HD
ENDBRANCH  21  29
ENDBRANCH  14  16
BRANCH  13  31
HETATM   31  O   LIG     1       4.394  -1.006   0.487  1.00  0.00    -0.360 OA
ATOM     32  HO  LIG     1       5.053  -0.601  -0.064  1.00  0.00     0.217 HD
ENDBRANCH  13  31
BRANCH  15  33
HETATM   33  O   LIG     1       1.608   2.709  -0.426  1.00  0.00    -0.363 OA
ATOM     34  HO  LIG     1       2.180   2.974  -1.137  1.00  0.00     0.217 HD
ENDBRANCH  15  33
TORSDOF 8
