REMARK  6 active torsions:
REMARK  status: ('A' for Active; 'I' for Inactive)
REMARK    1  A    between atoms: C_14  and  C_17 
REMARK    2  A    between atoms: C_18  and  O_30 
REMARK    3  A    between atoms: C_19  and  O_28 
REMARK    4  A    between atoms: C_20  and  O_26 
REMARK    5  A    between atoms: C_21  and  C_23 
REMARK    6  A    between atoms: C_23  and  O_24 
ROOT
HETATM    1  C   LIG     1       3.840  -0.213   0.070  1.00  0.00     0.001 A 
HETATM    2  C   LIG     1       3.760   1.083   0.581  1.00  0.00     0.003 A 
HETATM    3  C   LIG     1       2.521   1.631   0.920  1.00  0.00     0.038 A 
HETATM    4  C   LIG     1       1.356   0.885   0.747  1.00  0.00     0.083 A 
HETATM    5  C   LIG     1       1.444  -0.417   0.255  1.00  0.00     0.044 A 
HETATM    6  C   LIG     1       2.679  -0.969  -0.095  1.00  0.00     0.018 A 
HETATM    7  C   LIG     1       0.208  -1.202   0.115  1.00  0.00     0.176 C 
HETATM    8  O   LIG     1       0.187  -2.247  -0.527  1.00  0.00    -0.291 OA
HETATM    9  C   LIG     1      -0.998  -0.635   0.803  1.00  0.00     0.161 C 
HETATM   10  C   LIG     1      -1.020   0.879   0.620  1.00  0.00     0.154 C 
HETATM   11  O   LIG     1       0.185   1.505   1.085  1.00  0.00    -0.343 OA
HETATM   12  C   LIG     1      -1.330   1.325  -0.816  1.00  0.00     0.113 C 
HETATM   13  C   LIG     1      -2.580   0.637  -1.333  1.00  0.00     0.143 C 
HETATM   14  C   LIG     1      -2.605  -0.879  -1.192  1.00  0.00     0.157 C 
HETATM   15  C   LIG     1      -2.309  -1.172   0.279  1.00  0.00     0.154 C 
HETATM   16  O   LIG     1      -3.108  -1.702   1.048  1.00  0.00    -0.296 OA
HETATM   17  O   LIG     1      -3.456   1.280  -1.902  1.00  0.00    -0.297 OA
ENDROOT
BRANCH  14  18
HETATM   18  C   LIG     1      -3.902  -1.553  -1.681  1.00  0.00     0.172 C 
HETATM   19  O   LIG     1      -3.895  -2.972  -1.388  1.00  0.00    -0.372 OA
HETATM   20  C   LIG     1      -2.961  -3.771  -2.131  1.00  0.00     0.176 C 
HETATM   21  C   LIG     1      -3.200  -3.663  -3.649  1.00  0.00     0.180 C 
HETATM   22  C   LIG     1      -3.269  -2.190  -4.071  1.00  0.00     0.180 C 
HETATM   23  C   LIG     1      -4.213  -1.359  -3.183  1.00  0.00     0.179 C 
BRANCH  20  24
HETATM   24  C   LIG     1      -3.115  -5.206  -1.617  1.00  0.00     0.198 C 
BRANCH  24  25
HETATM   25  O   LIG     1      -4.472  -5.629  -1.777  1.00  0.00    -0.398 OA
ATOM     26  HO  LIG     1      -4.567  -6.519  -1.458  1.00  0.00     0.209 HD
ENDBRANCH  24  25
ENDBRANCH  20  24
BRANCH  21  27
HETATM   27  O   LIG     1      -4.399  -4.299  -4.124  1.00  0.00    -0.390 OA
ATOM     28  HO  LIG     1      -4.356  -5.211  -3.863  1.00  0.00     0.210 HD
ENDBRANCH  21  27
BRANCH  22  29
HETATM   29  O   LIG     1      -3.712  -2.112  -5.436  1.00  0.00    -0.390 OA
ATOM     30  HO  LIG     1      -3.129  -2.625  -5.984  1.00  0.00     0.210 HD
ENDBRANCH  22  29
BRANCH  23  31
HETATM   31  O   LIG     1      -5.578  -1.746  -3.417  1.00  0.00    -0.390 OA
ATOM     32  HO  LIG     1      -5.769  -1.627  -4.340  1.00  0.00     0.210 HD
ENDBRANCH  23  31
ENDBRANCH  14  18
TORSDOF 6
