REMARK  2 active torsions:
REMARK  status: ('A' for Active; 'I' for Inactive)
REMARK    1  A    between atoms: C_5  and  C_32 
REMARK    2  A    between atoms: C_20  and  O_24 
ROOT
HETATM    1  C   LIG     1       3.044   1.229  -3.470  1.00  0.00     0.010 C 
HETATM    2  C   LIG     1       2.029   0.273  -4.114  1.00  0.00    -0.014 C 
HETATM    3  C   LIG     1       0.743   1.055  -4.389  1.00  0.00     0.006 C 
HETATM    4  C   LIG     1      -0.347   0.163  -4.958  1.00  0.00     0.022 C 
HETATM    5  C   LIG     1      -0.699  -1.009  -4.020  1.00  0.00     0.056 C 
HETATM    6  C   LIG     1      -1.723  -1.904  -4.752  1.00  0.00     0.022 C 
HETATM    7  C   LIG     1      -2.120  -3.132  -3.930  1.00  0.00     0.016 C 
HETATM    8  C   LIG     1      -0.935  -4.021  -3.439  1.00  0.00    -0.013 C 
HETATM    9  C   LIG     1       0.144  -3.070  -2.840  1.00  0.00    -0.069 C 
HETATM   10  C   LIG     1       0.558  -3.180  -1.562  1.00  0.00    -0.022 C 
HETATM   11  C   LIG     1      -0.042  -4.075  -0.529  1.00  0.00     0.033 C 
HETATM   12  C   LIG     1      -1.482  -4.450  -0.921  1.00  0.00     0.007 C 
HETATM   13  C   LIG     1      -1.457  -5.148  -2.349  1.00  0.00    -0.028 C 
HETATM   14  C   LIG     1      -2.865  -5.723  -2.724  1.00  0.00     0.011 C 
HETATM   15  C   LIG     1      -3.664  -6.367  -1.579  1.00  0.00     0.007 C 
HETATM   16  C   LIG     1      -3.751  -5.371  -0.412  1.00  0.00     0.004 C 
HETATM   17  C   LIG     1      -2.329  -5.147   0.224  1.00  0.00    -0.035 C 
HETATM   18  C   LIG     1      -2.475  -4.219   1.481  1.00  0.00     0.012 C 
HETATM   19  C   LIG     1      -3.724  -3.351   1.458  1.00  0.00     0.033 C 
HETATM   20  C   LIG     1      -5.009  -4.194   1.451  1.00  0.00     0.126 C 
HETATM   21  C   LIG     1      -4.923  -5.523   0.612  1.00  0.00    -0.017 C 
HETATM   22  C   LIG     1      -6.277  -5.662  -0.130  1.00  0.00     0.018 C 
HETATM   23  C   LIG     1      -4.791  -6.775   1.498  1.00  0.00     0.018 C 
HETATM   24  C   LIG     1      -1.639  -6.435   0.742  1.00  0.00     0.016 C 
HETATM   25  C   LIG     1      -0.479  -6.364  -2.368  1.00  0.00     0.016 C 
HETATM   26  C   LIG     1       0.567  -1.858  -3.717  1.00  0.00     0.038 C 
HETATM   27  C   LIG     1       1.797  -0.998  -3.244  1.00  0.00    -0.005 C 
HETATM   28  C   LIG     1       3.084  -1.850  -3.247  1.00  0.00     0.011 C 
HETATM   29  C   LIG     1      -0.338  -4.728  -4.689  1.00  0.00     0.021 C 
ENDROOT
BRANCH   5  30
HETATM   30  C   LIG     1      -1.430  -0.325  -2.810  1.00  0.00     0.182 C 
HETATM   31  O   LIG     1      -0.763  -0.187  -1.749  1.00  0.00    -0.647 OA
HETATM   32  O   LIG     1      -2.616   0.067  -3.035  1.00  0.00    -0.647 OA
ENDBRANCH   5  30
BRANCH  20  33
HETATM   33  O   LIG     1      -5.409  -4.474   2.796  1.00  0.00    -0.395 OA
ATOM     34  HO  LIG     1      -6.203  -4.995   2.792  1.00  0.00     0.210 HD
ENDBRANCH  20  33
TORSDOF 2
