REMARK  4 active torsions:
REMARK  status: ('A' for Active; 'I' for Inactive)
REMARK    1  A    between atoms: O_2  and  C_3 
REMARK    2  A    between atoms: C_8  and  O_9 
REMARK    3  A    between atoms: C_17  and  O_25 
REMARK    4  A    between atoms: C_18  and  O_23 
ROOT
HETATM    1  C   LIG     1       0.716  -1.673   1.501  1.00  0.00     0.102 A 
HETATM    2  C   LIG     1       0.552  -2.685   0.541  1.00  0.00     0.040 A 
HETATM    3  C   LIG     1       0.854  -4.015   0.838  1.00  0.00     0.011 A 
HETATM    4  C   LIG     1       1.302  -4.366   2.111  1.00  0.00    -0.045 A 
HETATM    5  C   LIG     1       1.493  -3.361   3.078  1.00  0.00     0.013 A 
HETATM    6  C   LIG     1       1.181  -2.010   2.784  1.00  0.00     0.110 A 
HETATM    7  C   LIG     1       1.971  -3.731   4.469  1.00  0.00     0.315 C 
HETATM    8  N   LIG     1       2.531  -5.088   4.565  1.00  0.00     0.102 N 
HETATM    9  C   LIG     1       2.851  -5.404   5.956  1.00  0.00     0.278 C 
HETATM   10  C   LIG     1       3.624  -6.716   6.008  1.00  0.00     0.069 C 
HETATM   11  C   LIG     1       2.882  -7.819   5.298  1.00  0.00    -0.045 A 
HETATM   12  C   LIG     1       3.180  -9.149   5.628  1.00  0.00     0.047 A 
HETATM   13  C   LIG     1       2.513 -10.220   5.028  1.00  0.00     0.102 A 
HETATM   14  C   LIG     1       1.530  -9.943   4.066  1.00  0.00     0.102 A 
HETATM   15  C   LIG     1       1.239  -8.604   3.731  1.00  0.00     0.049 A 
HETATM   16  C   LIG     1       1.934  -7.525   4.313  1.00  0.00    -0.016 A 
HETATM   17  C   LIG     1       1.595  -6.073   3.969  1.00  0.00     0.261 C 
HETATM   18  C   LIG     1       1.610  -5.810   2.442  1.00  0.00     0.080 C 
ENDROOT
BRANCH   1  19
HETATM   19  O   LIG     1       0.377  -0.372   1.229  1.00  0.00    -0.353 OA
HETATM   20  C   LIG     1       0.570   0.063  -0.112  1.00  0.00     0.210 C 
ENDBRANCH   1  19
BRANCH   6  21
HETATM   21  O   LIG     1       1.393  -1.168   3.848  1.00  0.00    -0.352 OA
HETATM   22  C   LIG     1       1.137   0.220   3.725  1.00  0.00     0.210 C 
ENDBRANCH   6  21
BRANCH  14  23
HETATM   23  O   LIG     1       0.708 -10.849   3.440  1.00  0.00    -0.353 OA
HETATM   24  C   LIG     1       1.267 -12.113   3.104  1.00  0.00     0.210 C 
ENDBRANCH  14  23
BRANCH  13  25
HETATM   25  O   LIG     1       2.767 -11.526   5.360  1.00  0.00    -0.353 OA
HETATM   26  C   LIG     1       3.658 -11.772   6.441  1.00  0.00     0.210 C 
ENDBRANCH  13  25
TORSDOF 4
