REMARK  18 active torsions:
REMARK  status: ('A' for Active; 'I' for Inactive)
REMARK    1  A    between atoms: C_3  and  O_49 
REMARK    2  A    between atoms: C_4  and  O_47 
REMARK    3  A    between atoms: C_5  and  O_45 
REMARK    4  A    between atoms: C_6  and  O_8 
REMARK    5  A    between atoms: O_8  and  C_9 
REMARK    6  A    between atoms: C_10  and  O_43 
REMARK    7  A    between atoms: C_11  and  O_41 
REMARK    8  A    between atoms: C_12  and  C_38 
REMARK    9  A    between atoms: C_14  and  O_15 
REMARK   10  A    between atoms: O_15  and  C_16 
REMARK   11  A    between atoms: C_18  and  O_36 
REMARK   12  A    between atoms: C_19  and  C_24 
REMARK   13  A    between atoms: C_20  and  O_22 
REMARK   14  A    between atoms: C_24  and  C_26 
REMARK   15  A    between atoms: C_26  and  C_27 
REMARK   16  A    between atoms: C_27  and  C_28 
REMARK   17  A    between atoms: C_31  and  O_34 
REMARK   18  A    between atoms: C_38  and  O_39 
ROOT
HETATM    1  C   LIG     1      -0.272  -4.628   0.142  1.00  0.00     0.211 C 
HETATM    2  C   LIG     1      -0.722  -5.527   1.287  1.00  0.00     0.183 C 
HETATM    3  C   LIG     1      -1.243  -6.864   0.750  1.00  0.00     0.180 C 
HETATM    4  C   LIG     1      -0.794  -7.148  -0.697  1.00  0.00     0.179 C 
HETATM    5  O   LIG     1       0.565  -6.748  -0.945  1.00  0.00    -0.348 OA
HETATM    6  C   LIG     1       0.873  -5.374  -0.621  1.00  0.00     0.298 C 
ENDROOT
BRANCH   6   7
HETATM    7  O   LIG     1       2.099  -5.368   0.153  1.00  0.00    -0.318 OA
BRANCH   7   8
HETATM    8  C   LIG     1       3.279  -5.467  -0.544  1.00  0.00     0.077 A 
HETATM    9  C   LIG     1       4.463  -5.551   0.199  1.00  0.00     0.074 A 
HETATM   10  C   LIG     1       5.707  -5.525  -0.439  1.00  0.00     0.085 A 
HETATM   11  C   LIG     1       5.833  -5.419  -1.840  1.00  0.00     0.076 A 
HETATM   12  C   LIG     1       4.623  -5.421  -2.567  1.00  0.00     0.085 A 
HETATM   13  C   LIG     1       3.385  -5.453  -1.928  1.00  0.00     0.074 A 
BRANCH  10  14
HETATM   14  O   LIG     1       6.783  -5.586   0.425  1.00  0.00    -0.360 OA
ATOM     15  HO  LIG     1       6.698  -5.657   1.369  1.00  0.00     0.217 HD
ENDBRANCH  10  14
BRANCH  11  16
HETATM   16  C   LIG     1       7.148  -5.322  -2.517  1.00  0.00     0.165 C 
HETATM   17  O   LIG     1       8.148  -5.688  -1.851  1.00  0.00    -0.292 OA
BRANCH  16  18
HETATM   18  C   LIG     1       7.287  -4.651  -3.883  1.00  0.00     0.088 C 
BRANCH  18  19
HETATM   19  C   LIG     1       8.624  -4.670  -4.583  1.00  0.00     0.046 C 
BRANCH  19  20
HETATM   20  C   LIG     1       9.075  -6.055  -4.988  1.00  0.00    -0.058 A 
HETATM   21  C   LIG     1       9.840  -6.831  -4.106  1.00  0.00     0.010 A 
HETATM   22  C   LIG     1      10.263  -8.112  -4.456  1.00  0.00     0.037 A 
HETATM   23  C   LIG     1       9.947  -8.612  -5.712  1.00  0.00     0.065 A 
HETATM   24  C   LIG     1       9.198  -7.859  -6.608  1.00  0.00     0.037 A 
HETATM   25  C   LIG     1       8.747  -6.587  -6.243  1.00  0.00     0.010 A 
BRANCH  23  26
HETATM   26  O   LIG     1      10.362  -9.850  -6.104  1.00  0.00    -0.361 OA
ATOM     27  HO  LIG     1      10.874 -10.365  -5.491  1.00  0.00     0.217 HD
ENDBRANCH  23  26
ENDBRANCH  19  20
ENDBRANCH  18  19
ENDBRANCH  16  18
ENDBRANCH  11  16
BRANCH  12  28
HETATM   28  O   LIG     1       4.594  -5.389  -3.926  1.00  0.00    -0.360 OA
ATOM     29  HO  LIG     1       5.438  -5.367  -4.362  1.00  0.00     0.217 HD
ENDBRANCH  12  28
ENDBRANCH   7   8
ENDBRANCH   6   7
BRANCH   1  30
HETATM   30  O   LIG     1       0.100  -3.307   0.589  1.00  0.00    -0.346 OA
BRANCH  30  31
HETATM   31  C   LIG     1      -0.997  -2.565   1.179  1.00  0.00     0.292 C 
HETATM   32  C   LIG     1      -0.475  -1.178   1.642  1.00  0.00     0.204 C 
HETATM   33  C   LIG     1      -1.615  -0.239   2.036  1.00  0.00     0.183 C 
HETATM   34  C   LIG     1      -2.721  -0.236   0.978  1.00  0.00     0.178 C 
HETATM   35  C   LIG     1      -3.192  -1.683   0.799  1.00  0.00     0.152 C 
HETATM   36  C   LIG     1      -4.394  -1.781  -0.134  1.00  0.00     0.042 C 
HETATM   37  O   LIG     1      -2.109  -2.476   0.275  1.00  0.00    -0.351 OA
BRANCH  32  38
HETATM   38  O   LIG     1       0.284  -0.498   0.621  1.00  0.00    -0.388 OA
ATOM     39  HO  LIG     1       0.993  -1.082   0.376  1.00  0.00     0.210 HD
ENDBRANCH  32  38
BRANCH  33  40
HETATM   40  O   LIG     1      -1.116   1.101   2.184  1.00  0.00    -0.390 OA
ATOM     41  HO  LIG     1      -0.430   1.099   2.841  1.00  0.00     0.210 HD
ENDBRANCH  33  40
BRANCH  34  42
HETATM   42  O   LIG     1      -3.773   0.626   1.412  1.00  0.00    -0.390 OA
ATOM     43  HO  LIG     1      -3.481   1.523   1.523  1.00  0.00     0.210 HD
ENDBRANCH  34  42
ENDBRANCH  30  31
ENDBRANCH   1  30
BRANCH   2  44
HETATM   44  O   LIG     1       0.323  -5.743   2.257  1.00  0.00    -0.390 OA
ATOM     45  HO  LIG     1       0.042  -6.304   2.971  1.00  0.00     0.210 HD
ENDBRANCH   2  44
BRANCH   4  46
HETATM   46  C   LIG     1      -0.977  -8.635  -1.032  1.00  0.00     0.198 C 
BRANCH  46  47
HETATM   47  O   LIG     1      -0.619  -8.875  -2.392  1.00  0.00    -0.398 OA
ATOM     48  HO  LIG     1      -0.732  -9.795  -2.599  1.00  0.00     0.209 HD
ENDBRANCH  46  47
ENDBRANCH   4  46
BRANCH   3  49
HETATM   49  O   LIG     1      -0.889  -7.909   1.658  1.00  0.00    -0.390 OA
ATOM     50  HO  LIG     1      -1.212  -8.738   1.325  1.00  0.00     0.210 HD
ENDBRANCH   3  49
TORSDOF 18
