REMARK  1 active torsions:
REMARK  status: ('A' for Active; 'I' for Inactive)
REMARK    1  A    between atoms: C_18  and  N_20 
ROOT
HETATM    1  C   LIG     1       8.107   4.326  -2.380  1.00  0.00     0.043 C 
HETATM    2  C   LIG     1       7.897   2.888  -2.824  1.00  0.00     0.223 C 
HETATM    3  C   LIG     1       6.433   2.477  -3.021  1.00  0.00     0.029 C 
HETATM    4  C   LIG     1       5.393   3.075  -2.072  1.00  0.00     0.008 C 
HETATM    5  C   LIG     1       4.244   2.077  -2.147  1.00  0.00     0.010 C 
HETATM    6  C   LIG     1       4.923   0.704  -2.237  1.00  0.00     0.026 C 
HETATM    7  C   LIG     1       6.374   0.969  -2.721  1.00  0.00    -0.001 C 
HETATM    8  C   LIG     1       6.787   0.080  -3.907  1.00  0.00     0.017 C 
HETATM    9  C   LIG     1       5.756   0.079  -5.036  1.00  0.00     0.036 C 
HETATM   10  C   LIG     1       4.331  -0.325  -4.585  1.00  0.00    -0.064 C 
HETATM   11  C   LIG     1       4.178  -0.378  -3.045  1.00  0.00    -0.068 C 
HETATM   12  C   LIG     1       2.745  -0.643  -2.563  1.00  0.00     0.062 C 
HETATM   13  C   LIG     1       1.652  -0.177  -3.463  1.00  0.00    -0.018 C 
HETATM   14  C   LIG     1       1.804   0.248  -4.728  1.00  0.00    -0.069 C 
HETATM   15  C   LIG     1       3.159   0.345  -5.422  1.00  0.00     0.003 C 
HETATM   16  C   LIG     1       3.395   1.850  -5.771  1.00  0.00     0.020 C 
HETATM   17  C   LIG     1       2.136   2.746  -5.784  1.00  0.00     0.037 C 
HETATM   18  C   LIG     1       0.900   2.013  -6.317  1.00  0.00     0.226 C 
HETATM   19  C   LIG     1       0.597   0.731  -5.513  1.00  0.00     0.071 C 
HETATM   20  C   LIG     1       3.100  -0.452  -6.761  1.00  0.00     0.025 C 
HETATM   21  C   LIG     1       7.384   0.842  -1.564  1.00  0.00     0.283 C 
HETATM   22  N   LIG     1       8.479   1.838  -1.886  1.00  0.00     0.089 N 
HETATM   23  C   LIG     1       9.219   2.297  -0.664  1.00  0.00     0.310 C 
ENDROOT
BRANCH  18  24
HETATM   24  N   LIG     1      -0.296   2.961  -6.413  1.00  0.00     0.084 N 
HETATM   25  C   LIG     1      -1.432   2.373  -7.218  1.00  0.00     0.309 C 
HETATM   26  C   LIG     1      -0.801   3.550  -5.121  1.00  0.00     0.309 C 
ENDBRANCH  18  24
TORSDOF 1
