REMARK  4 active torsions:
REMARK  status: ('A' for Active; 'I' for Inactive)
REMARK    1  A    between atoms: N_2  and  CA_5 
REMARK    2  A    between atoms: CA_5  and  CB_6 
REMARK    3  A    between atoms: CA_5  and  C_17 
REMARK    4  A    between atoms: CB_6  and  CG_7 
ROOT
ATOM      1  CG  TRP A   1       2.091   4.851   2.441  1.00  0.00    -0.028 A 
ATOM      2  CD1 TRP A   1       1.708   4.904   3.768  1.00  0.00     0.096 A 
ATOM      3  NE1 TRP A   1       2.514   5.791   4.422  1.00  0.00    -0.365 N 
ATOM      4  HE1 TRP A   1       2.429   6.040   5.407  1.00  0.00     0.165 HD
ATOM      5  CE2 TRP A   1       3.456   6.299   3.561  1.00  0.00     0.042 A 
ATOM      6  CD2 TRP A   1       3.218   5.737   2.304  1.00  0.00    -0.002 A 
ATOM      7  CE3 TRP A   1       4.059   6.131   1.238  1.00  0.00     0.014 A 
ATOM      8  CZ3 TRP A   1       5.106   7.035   1.476  1.00  0.00     0.001 A 
ATOM      9  CH2 TRP A   1       5.309   7.576   2.742  1.00  0.00     0.002 A 
ATOM     10  CZ2 TRP A   1       4.478   7.226   3.807  1.00  0.00     0.030 A 
ENDROOT
BRANCH   1  11
ATOM     11  CB  TRP A   1       1.393   4.029   1.386  1.00  0.00     0.085 C 
BRANCH  11  12
ATOM     12  CA  TRP A   1       1.974   2.616   1.213  1.00  0.00     0.289 C 
BRANCH  12  13
ATOM     13  N   TRP A   1       3.439   2.726   0.755  1.00  0.00    -0.065 N 
HETATM   14  C   ACE A   0       4.090   1.422   0.506  1.00  0.00     0.268 C 
ATOM     15  HN2 TRP A   1       3.982   3.276   1.420  1.00  0.00     0.277 HD
ATOM     16  HN1 TRP A   1       3.514   3.326  -0.066  1.00  0.00     0.277 HD
ENDBRANCH  12  13
BRANCH  12  17
ATOM     17  C   TRP A   1       1.028   1.935   0.198  1.00  0.00     0.205 C 
ATOM     18  O   TRP A   1       1.483   1.985  -0.990  1.00  0.00    -0.646 OA
ATOM     19  OXT TRP A   1       0.013   1.354   0.671  1.00  0.00    -0.646 OA
ENDBRANCH  12  17
ENDBRANCH  11  12
ENDBRANCH   1  11
TORSDOF 4
