REMARK  5 active torsions:
REMARK  status: ('A' for Active; 'I' for Inactive)
REMARK    1  A    between atoms: N_3  and  C_10 
REMARK    2  A    between atoms: C_5  and  O_8 
REMARK    3  A    between atoms: C_10  and  CA_11 
REMARK    4  A    between atoms: CA_11  and  C_12 
REMARK    5  A    between atoms: CA_11  and  N_15 
ROOT
HETATM    1  C   LIG     1       2.903   4.237   1.962  1.00  0.00     0.075 A 
HETATM    2  C   LIG     1       2.789   3.312   1.001  1.00  0.00     0.094 A 
HETATM    3  N   LIG     1       2.548   3.588  -0.343  1.00  0.00    -0.361 N 
HETATM    4  C   LIG     1       2.468   4.927  -0.722  1.00  0.00     0.131 A 
HETATM    5  C   LIG     1       2.569   5.960   0.122  1.00  0.00     0.131 A 
HETATM    6  C   LIG     1       2.802   5.663   1.568  1.00  0.00     0.207 A 
HETATM    7  O   LIG     1       2.895   6.572   2.379  1.00  0.00    -0.285 OA
ENDROOT
BRANCH   3   8
HETATM    8  C   LIG     1       2.534   2.500  -1.361  1.00  0.00     0.171 C 
BRANCH   8   9
HETATM    9  CA  LIG     1       1.372   1.542  -1.089  1.00  0.00     0.301 C 
BRANCH   9  10
HETATM   10  C   LIG     1       1.427   0.523  -2.236  1.00  0.00     0.206 C 
HETATM   11  O   LIG     1       0.574   0.835  -3.128  1.00  0.00    -0.646 OA
HETATM   12  OXT LIG     1       2.188  -0.454  -2.088  1.00  0.00    -0.646 OA
ENDBRANCH   9  10
BRANCH   9  13
HETATM   13  N   LIG     1       0.052   2.301  -1.133  1.00  0.00    -0.064 N 
ATOM     14  HN3 LIG     1       0.048   3.098  -0.497  1.00  0.00     0.275 HD
ATOM     15  HN2 LIG     1      -0.068   2.809  -2.009  1.00  0.00     0.275 HD
ATOM     16  HN1 LIG     1      -0.722   1.662  -0.952  1.00  0.00     0.275 HD
ENDBRANCH   9  13
ENDBRANCH   8   9
ENDBRANCH   3   8
BRANCH   5  17
HETATM   17  O   LIG     1       2.464   7.273  -0.284  1.00  0.00    -0.356 OA
ATOM     18  HO  LIG     1       2.536   8.007   0.315  1.00  0.00     0.218 HD
ENDBRANCH   5  17
TORSDOF 5
