REMARK  12 active torsions:
REMARK  status: ('A' for Active; 'I' for Inactive)
REMARK    1  A    between atoms: C_2  and  C_3 
REMARK    2  A    between atoms: C_3  and  C_4 
REMARK    3  A    between atoms: C_4  and  C_5 
REMARK    4  A    between atoms: C_5  and  C_6 
REMARK    5  A    between atoms: C_6  and  C_7 
REMARK    6  A    between atoms: C_6  and  O_22 
REMARK    7  A    between atoms: C_7  and  C_8 
REMARK    8  A    between atoms: C_8  and  C_10 
REMARK    9  A    between atoms: C_10  and  C_11 
REMARK   10  A    between atoms: C_11  and  C_12 
REMARK   11  A    between atoms: C_15  and  O_20 
REMARK   12  A    between atoms: C_16  and  O_18 
ROOT
HETATM    1  C   LIG     1      -5.704  -1.160   1.446  1.00  0.00     0.083 C 
ENDROOT
BRANCH   1   2
HETATM    2  C   LIG     1      -4.495  -2.070   1.490  1.00  0.00     0.129 C 
HETATM    3  O   LIG     1      -4.615  -3.277   1.278  1.00  0.00    -0.298 OA
BRANCH   2   4
HETATM    4  C   LIG     1      -3.149  -1.449   1.842  1.00  0.00     0.110 C 
BRANCH   4   5
HETATM    5  C   LIG     1      -2.136  -1.525   0.696  1.00  0.00     0.125 C 
BRANCH   5   6
HETATM    6  C   LIG     1      -0.799  -0.872   1.105  1.00  0.00     0.032 C 
BRANCH   6   7
HETATM    7  C   LIG     1       0.288  -0.833   0.015  1.00  0.00     0.002 C 
BRANCH   7   8
HETATM    8  C   LIG     1       0.781  -2.214  -0.436  1.00  0.00    -0.000 C 
BRANCH   8   9
HETATM    9  C   LIG     1       1.923  -2.192  -1.456  1.00  0.00    -0.005 C 
HETATM   10  C   LIG     1       1.549  -1.484  -2.748  1.00  0.00     0.005 C 
ENDBRANCH   8   9
ENDBRANCH   7   8
ENDBRANCH   6   7
ENDBRANCH   5   6
BRANCH   5  11
HETATM   11  O   LIG     1      -1.912  -2.885   0.353  1.00  0.00    -0.395 OA
ATOM     12  HO  LIG     1      -2.735  -3.287   0.101  1.00  0.00     0.210 HD
ENDBRANCH   5  11
ENDBRANCH   4   5
ENDBRANCH   2   4
ENDBRANCH   1   2
BRANCH   1  13
HETATM   13  C   LIG     1      -6.812  -1.700   2.357  1.00  0.00     0.046 C 
BRANCH  13  14
HETATM   14  C   LIG     1      -8.014  -0.773   2.488  1.00  0.00    -0.055 A 
HETATM   15  C   LIG     1      -8.771  -0.773   3.670  1.00  0.00     0.046 A 
HETATM   16  C   LIG     1      -9.885   0.069   3.831  1.00  0.00     0.101 A 
HETATM   17  C   LIG     1     -10.219   0.940   2.794  1.00  0.00     0.099 A 
HETATM   18  C   LIG     1      -9.503   0.918   1.594  1.00  0.00     0.040 A 
HETATM   19  C   LIG     1      -8.412   0.058   1.444  1.00  0.00     0.010 A 
BRANCH  16  20
HETATM   20  O   LIG     1     -10.489  -0.031   5.056  1.00  0.00    -0.353 OA
HETATM   21  C   LIG     1     -11.870   0.305   5.114  1.00  0.00     0.210 C 
ENDBRANCH  16  20
BRANCH  17  22
HETATM   22  O   LIG     1     -11.243   1.837   2.913  1.00  0.00    -0.358 OA
ATOM     23  HO  LIG     1     -11.730   1.852   3.729  1.00  0.00     0.217 HD
ENDBRANCH  17  22
ENDBRANCH  13  14
ENDBRANCH   1  13
TORSDOF 12
