REMARK  8 active torsions:
REMARK  status: ('A' for Active; 'I' for Inactive)
REMARK    1  A    between atoms: C_9  and  O_14 
REMARK    2  A    between atoms: C_10  and  O_12 
REMARK    3  A    between atoms: O_14  and  C_15 
REMARK    4  A    between atoms: C_16  and  O_28 
REMARK    5  A    between atoms: C_17  and  O_26 
REMARK    6  A    between atoms: C_18  and  O_24 
REMARK    7  A    between atoms: C_19  and  C_21 
REMARK    8  A    between atoms: C_21  and  O_22 
ROOT
HETATM    1  C   LIG     1       4.737   0.488  -0.207  1.00  0.00     0.298 C 
HETATM    2  C   LIG     1       5.032   0.636   1.303  1.00  0.00     0.205 C 
HETATM    3  C   LIG     1       4.365  -0.484   2.113  1.00  0.00     0.183 C 
HETATM    4  C   LIG     1       4.667  -1.853   1.497  1.00  0.00     0.180 C 
HETATM    5  C   LIG     1       4.229  -1.830   0.023  1.00  0.00     0.179 C 
HETATM    6  O   LIG     1       4.992  -0.840  -0.689  1.00  0.00    -0.348 OA
ENDROOT
BRANCH   1   7
HETATM    7  O   LIG     1       5.617   1.418  -0.876  1.00  0.00    -0.315 OA
BRANCH   7   8
HETATM    8  C   LIG     1       5.035   2.040  -1.944  1.00  0.00     0.106 A 
HETATM    9  C   LIG     1       5.603   1.816  -3.201  1.00  0.00     0.054 A 
HETATM   10  C   LIG     1       5.069   2.449  -4.327  1.00  0.00     0.001 A 
HETATM   11  C   LIG     1       5.662   2.311  -5.647  1.00  0.00     0.020 A 
HETATM   12  C   LIG     1       3.955   3.274  -4.172  1.00  0.00     0.092 A 
HETATM   13  C   LIG     1       5.108   2.942  -6.688  1.00  0.00     0.083 A 
HETATM   14  C   LIG     1       3.888   3.755  -6.558  1.00  0.00     0.288 A 
HETATM   15  O   LIG     1       3.377   4.280  -7.550  1.00  0.00    -0.260 OA
HETATM   16  O   LIG     1       3.358   3.901  -5.286  1.00  0.00    -0.275 OA
HETATM   17  C   LIG     1       3.405   3.537  -2.919  1.00  0.00     0.077 A 
HETATM   18  C   LIG     1       3.982   2.948  -1.800  1.00  0.00     0.101 A 
BRANCH  18  19
HETATM   19  O   LIG     1       3.505   3.318  -0.574  1.00  0.00    -0.358 OA
ATOM     20  HO  LIG     1       2.789   3.935  -0.476  1.00  0.00     0.217 HD
ENDBRANCH  18  19
ENDBRANCH   7   8
ENDBRANCH   1   7
BRANCH   2  21
HETATM   21  O   LIG     1       4.561   1.924   1.759  1.00  0.00    -0.388 OA
ATOM     22  HO  LIG     1       4.742   2.015   2.687  1.00  0.00     0.210 HD
ENDBRANCH   2  21
BRANCH   5  23
HETATM   23  C   LIG     1       4.446  -3.180  -0.667  1.00  0.00     0.198 C 
BRANCH  23  24
HETATM   24  O   LIG     1       5.830  -3.531  -0.647  1.00  0.00    -0.398 OA
ATOM     25  HO  LIG     1       5.965  -4.368  -1.075  1.00  0.00     0.209 HD
ENDBRANCH  23  24
ENDBRANCH   5  23
BRANCH   3  26
HETATM   26  O   LIG     1       4.832  -0.440   3.471  1.00  0.00    -0.390 OA
ATOM     27  HO  LIG     1       4.419  -1.133   3.972  1.00  0.00     0.210 HD
ENDBRANCH   3  26
BRANCH   4  28
HETATM   28  O   LIG     1       6.077  -2.090   1.653  1.00  0.00    -0.390 OA
ATOM     29  HO  LIG     1       6.264  -2.939   1.271  1.00  0.00     0.210 HD
ENDBRANCH   4  28
TORSDOF 8
