REMARK  1 active torsions:
REMARK  status: ('A' for Active; 'I' for Inactive)
REMARK    1  A    between atoms: C_18  and  N_25 
ROOT
HETATM    1  C   LIG     1      -2.366   2.362   2.460  1.00  0.00     0.043 C 
HETATM    2  C   LIG     1      -1.384   1.721   3.425  1.00  0.00     0.223 C 
HETATM    3  C   LIG     1       0.075   2.126   3.250  1.00  0.00     0.029 C 
HETATM    4  C   LIG     1       0.369   3.639   3.101  1.00  0.00     0.008 C 
HETATM    5  C   LIG     1       1.502   3.973   4.086  1.00  0.00     0.006 C 
HETATM    6  C   LIG     1       2.001   2.611   4.556  1.00  0.00     0.001 C 
HETATM    7  C   LIG     1       0.726   1.752   4.586  1.00  0.00    -0.004 C 
HETATM    8  C   LIG     1       1.118   0.278   4.763  1.00  0.00     0.012 C 
HETATM    9  C   LIG     1       2.027   0.063   5.992  1.00  0.00     0.007 C 
HETATM   10  C   LIG     1       3.222   1.046   6.135  1.00  0.00     0.003 C 
HETATM   11  C   LIG     1       2.766   2.513   5.877  1.00  0.00    -0.001 C 
HETATM   12  C   LIG     1       3.928   3.499   6.021  1.00  0.00     0.033 C 
HETATM   13  C   LIG     1       5.221   3.031   5.443  1.00  0.00    -0.023 C 
HETATM   14  C   LIG     1       5.523   1.755   5.154  1.00  0.00    -0.073 C 
HETATM   15  C   LIG     1       4.559   0.588   5.392  1.00  0.00    -0.017 C 
HETATM   16  C   LIG     1       5.270  -0.493   6.291  1.00  0.00     0.016 C 
HETATM   17  C   LIG     1       6.779  -0.283   6.506  1.00  0.00     0.037 C 
HETATM   18  C   LIG     1       7.478   0.113   5.205  1.00  0.00     0.226 C 
HETATM   19  C   LIG     1       6.906   1.419   4.616  1.00  0.00     0.070 C 
HETATM   20  C   LIG     1       4.288  -0.073   4.016  1.00  0.00     0.020 C 
HETATM   21  C   LIG     1      -0.360   2.155   5.618  1.00  0.00     0.282 C 
HETATM   22  C   LIG     1      -2.742   1.292   5.519  1.00  0.00     0.310 C 
HETATM   23  N   LIG     1      -1.684   2.123   4.857  1.00  0.00     0.089 N 
ENDROOT
BRANCH  18  24
HETATM   24  N   LIG     1       8.994   0.149   5.390  1.00  0.00     0.084 N 
HETATM   25  C   LIG     1       9.736   0.255   4.079  1.00  0.00     0.309 C 
HETATM   26  C   LIG     1       9.528   1.137   6.397  1.00  0.00     0.309 C 
ENDBRANCH  18  24
TORSDOF 1
