REMARK  8 active torsions:
REMARK  status: ('A' for Active; 'I' for Inactive)
REMARK    1  A    between atoms: C_9  and  O_14 
REMARK    2  A    between atoms: C_10  and  O_12 
REMARK    3  A    between atoms: O_14  and  C_15 
REMARK    4  A    between atoms: C_16  and  O_28 
REMARK    5  A    between atoms: C_17  and  O_26 
REMARK    6  A    between atoms: C_18  and  O_24 
REMARK    7  A    between atoms: C_19  and  C_21 
REMARK    8  A    between atoms: C_21  and  O_22 
ROOT
HETATM    1  C   LIG     1       4.675   0.556   0.228  1.00  0.00     0.298 C 
HETATM    2  C   LIG     1       4.870   0.435   1.759  1.00  0.00     0.205 C 
HETATM    3  C   LIG     1       3.985  -0.726   2.252  1.00  0.00     0.183 C 
HETATM    4  C   LIG     1       4.329  -2.021   1.495  1.00  0.00     0.180 C 
HETATM    5  C   LIG     1       4.143  -1.769  -0.016  1.00  0.00     0.179 C 
HETATM    6  O   LIG     1       4.985  -0.680  -0.444  1.00  0.00    -0.348 OA
ENDROOT
BRANCH   1   7
HETATM    7  O   LIG     1       5.464   1.641  -0.296  1.00  0.00    -0.315 OA
BRANCH   7   8
HETATM    8  C   LIG     1       4.867   2.339  -1.321  1.00  0.00     0.106 A 
HETATM    9  C   LIG     1       3.941   1.780  -2.206  1.00  0.00     0.054 A 
HETATM   10  C   LIG     1       3.263   2.590  -3.118  1.00  0.00     0.001 A 
HETATM   11  C   LIG     1       2.185   2.060  -3.931  1.00  0.00     0.020 A 
HETATM   12  C   LIG     1       3.587   3.942  -3.204  1.00  0.00     0.092 A 
HETATM   13  C   LIG     1       1.495   2.887  -4.721  1.00  0.00     0.083 A 
HETATM   14  C   LIG     1       1.813   4.320  -4.830  1.00  0.00     0.288 A 
HETATM   15  O   LIG     1       1.144   5.051  -5.559  1.00  0.00    -0.260 OA
HETATM   16  O   LIG     1       2.889   4.790  -4.088  1.00  0.00    -0.275 OA
HETATM   17  C   LIG     1       4.576   4.503  -2.401  1.00  0.00     0.077 A 
HETATM   18  C   LIG     1       5.198   3.694  -1.452  1.00  0.00     0.101 A 
BRANCH  18  19
HETATM   19  O   LIG     1       6.106   4.278  -0.612  1.00  0.00    -0.358 OA
ATOM     20  HO  LIG     1       6.330   5.197  -0.701  1.00  0.00     0.217 HD
ENDBRANCH  18  19
ENDBRANCH   7   8
ENDBRANCH   1   7
BRANCH   2  21
HETATM   21  O   LIG     1       6.242   0.208   2.130  1.00  0.00    -0.388 OA
ATOM     22  HO  LIG     1       6.362   0.134   3.070  1.00  0.00     0.210 HD
ENDBRANCH   2  21
BRANCH   5  23
HETATM   23  C   LIG     1       4.496  -3.002  -0.859  1.00  0.00     0.198 C 
BRANCH  23  24
HETATM   24  O   LIG     1       5.863  -3.365  -0.670  1.00  0.00    -0.398 OA
ATOM     25  HO  LIG     1       6.082  -4.128  -1.192  1.00  0.00     0.209 HD
ENDBRANCH  23  24
ENDBRANCH   5  23
BRANCH   3  26
HETATM   26  O   LIG     1       4.146  -0.917   3.657  1.00  0.00    -0.390 OA
ATOM     27  HO  LIG     1       3.600  -1.633   3.961  1.00  0.00     0.210 HD
ENDBRANCH   3  26
BRANCH   4  28
HETATM   28  O   LIG     1       5.693  -2.368   1.804  1.00  0.00    -0.390 OA
ATOM     29  HO  LIG     1       5.905  -3.167   1.337  1.00  0.00     0.210 HD
ENDBRANCH   4  28
TORSDOF 8
