REMARK  5 active torsions:
REMARK  status: ('A' for Active; 'I' for Inactive)
REMARK    1  A    between atoms: C_3  and  C_4 
REMARK    2  A    between atoms: C_5  and  C_20 
REMARK    3  A    between atoms: C_6  and  C_7 
REMARK    4  A    between atoms: C_7  and  O_15 
REMARK    5  A    between atoms: C_20  and  O_23 
ROOT
HETATM    1  C   LIG     1      -3.691   1.128   1.249  1.00  0.00     0.170 C 
HETATM    2  C   LIG     1      -4.390  -0.213   1.438  1.00  0.00     0.068 C 
HETATM    3  C   LIG     1      -3.167  -1.111   1.202  1.00  0.00     0.130 C 
HETATM    4  C   LIG     1      -2.194  -0.376   2.086  1.00  0.00     0.267 C 
HETATM    5  O   LIG     1      -1.234  -0.859   2.658  1.00  0.00    -0.265 OA
HETATM    6  O   LIG     1      -2.508   0.953   2.063  1.00  0.00    -0.312 OA
ENDROOT
BRANCH   2   7
HETATM    7  C   LIG     1      -5.701  -0.477   0.674  1.00  0.00     0.058 C 
HETATM    8  C   LIG     1      -6.251  -1.874   0.989  1.00  0.00     0.046 C 
HETATM    9  C   LIG     1      -6.759   0.569   1.050  1.00  0.00     0.046 C 
BRANCH   7  10
HETATM   10  O   LIG     1      -5.520  -0.370  -0.727  1.00  0.00    -0.390 OA
ATOM     11  HO  LIG     1      -6.329  -0.533  -1.198  1.00  0.00     0.210 HD
ENDBRANCH   7  10
ENDBRANCH   2   7
BRANCH   1  12
HETATM   12  C   LIG     1      -3.279   1.430  -0.208  1.00  0.00     0.176 C 
HETATM   13  C   LIG     1      -2.562   0.268  -0.945  1.00  0.00     0.060 C 
HETATM   14  C   LIG     1      -2.903   0.267  -2.447  1.00  0.00     0.025 C 
HETATM   15  C   LIG     1      -2.632  -1.141  -0.249  1.00  0.00     0.087 C 
HETATM   16  C   LIG     1      -1.144   0.701  -0.760  1.00  0.00     0.187 A 
HETATM   17  C   LIG     1      -1.162  -1.675  -0.344  1.00  0.00     0.075 C 
HETATM   18  C   LIG     1      -0.300  -0.446  -0.367  1.00  0.00     0.172 A 
HETATM   19  O   LIG     1      -0.156   0.172  -1.651  1.00  0.00    -0.357 OA
HETATM   20  C   LIG     1      -1.060   2.093  -0.348  1.00  0.00     0.298 C 
HETATM   21  O   LIG     1      -2.343   2.552  -0.195  1.00  0.00    -0.310 OA
HETATM   22  O   LIG     1      -0.040   2.740  -0.192  1.00  0.00    -0.262 OA
BRANCH  15  23
HETATM   23  O   LIG     1      -3.496  -2.022  -0.987  1.00  0.00    -0.388 OA
ATOM     24  HO  LIG     1      -3.538  -2.873  -0.567  1.00  0.00     0.210 HD
ENDBRANCH  15  23
ENDBRANCH   1  12
TORSDOF 5
