REMARK  8 active torsions:
REMARK  status: ('A' for Active; 'I' for Inactive)
REMARK    1  A    between atoms: C_13  and  O_33 
REMARK    2  A    between atoms: C_14  and  C_18 
REMARK    3  A    between atoms: C_15  and  O_16 
REMARK    4  A    between atoms: C_19  and  O_31 
REMARK    5  A    between atoms: C_20  and  O_29 
REMARK    6  A    between atoms: C_21  and  O_27 
REMARK    7  A    between atoms: C_22  and  C_24 
REMARK    8  A    between atoms: C_24  and  O_25 
ROOT
HETATM    1  C   LIG     1      -3.727   0.256   0.099  1.00  0.00     0.001 A 
HETATM    2  C   LIG     1      -3.431  -1.084  -0.149  1.00  0.00     0.003 A 
HETATM    3  C   LIG     1      -2.119  -1.541  -0.020  1.00  0.00     0.038 A 
HETATM    4  C   LIG     1      -1.103  -0.666   0.365  1.00  0.00     0.083 A 
HETATM    5  C   LIG     1      -1.398   0.670   0.604  1.00  0.00     0.044 A 
HETATM    6  C   LIG     1      -2.711   1.136   0.471  1.00  0.00     0.018 A 
HETATM    7  C   LIG     1      -0.304   1.609   0.916  1.00  0.00     0.175 C 
HETATM    8  O   LIG     1      -0.528   2.809   1.031  1.00  0.00    -0.291 OA
HETATM    9  C   LIG     1       1.112   1.073   0.947  1.00  0.00     0.151 C 
HETATM   10  C   LIG     1       1.110  -0.448   1.173  1.00  0.00     0.172 C 
HETATM   11  O   LIG     1       0.147  -1.194   0.423  1.00  0.00    -0.340 OA
HETATM   12  C   LIG     1       2.424  -1.045   0.760  1.00  0.00     0.043 C 
HETATM   13  C   LIG     1       3.128  -0.516  -0.251  1.00  0.00     0.075 C 
HETATM   14  C   LIG     1       2.675   0.676  -0.981  1.00  0.00     0.036 C 
HETATM   15  C   LIG     1       1.840   1.510  -0.318  1.00  0.00     0.069 C 
ENDROOT
BRANCH  14  16
HETATM   16  C   LIG     1       3.273   0.898  -2.386  1.00  0.00     0.191 C 
HETATM   17  O   LIG     1       2.767   2.078  -3.051  1.00  0.00    -0.368 OA
HETATM   18  C   LIG     1       1.411   2.001  -3.539  1.00  0.00     0.177 C 
HETATM   19  C   LIG     1       1.213   0.851  -4.520  1.00  0.00     0.180 C 
HETATM   20  C   LIG     1       1.714  -0.456  -3.892  1.00  0.00     0.181 C 
HETATM   21  C   LIG     1       3.148  -0.306  -3.364  1.00  0.00     0.183 C 
BRANCH  18  22
HETATM   22  C   LIG     1       1.109   3.371  -4.153  1.00  0.00     0.198 C 
BRANCH  22  23
HETATM   23  O   LIG     1       1.120   4.366  -3.123  1.00  0.00    -0.398 OA
ATOM     24  HO  LIG     1       0.933   5.216  -3.504  1.00  0.00     0.209 HD
ENDBRANCH  22  23
ENDBRANCH  18  22
BRANCH  19  25
HETATM   25  O   LIG     1       1.907   1.072  -5.757  1.00  0.00    -0.390 OA
ATOM     26  HO  LIG     1       1.597   1.881  -6.146  1.00  0.00     0.210 HD
ENDBRANCH  19  25
BRANCH  20  27
HETATM   27  O   LIG     1       1.690  -1.496  -4.888  1.00  0.00    -0.390 OA
ATOM     28  HO  LIG     1       0.803  -1.589  -5.215  1.00  0.00     0.210 HD
ENDBRANCH  20  27
BRANCH  21  29
HETATM   29  O   LIG     1       4.022  -0.104  -4.503  1.00  0.00    -0.390 OA
ATOM     30  HO  LIG     1       3.946  -0.839  -5.100  1.00  0.00     0.210 HD
ENDBRANCH  21  29
ENDBRANCH  14  16
BRANCH  13  31
HETATM   31  O   LIG     1       4.346  -1.019  -0.633  1.00  0.00    -0.360 OA
ATOM     32  HO  LIG     1       4.845  -0.644  -1.349  1.00  0.00     0.217 HD
ENDBRANCH  13  31
BRANCH  15  33
HETATM   33  O   LIG     1       1.619   2.813  -0.738  1.00  0.00    -0.363 OA
ATOM     34  HO  LIG     1       2.073   3.085  -1.527  1.00  0.00     0.217 HD
ENDBRANCH  15  33
TORSDOF 8
