REMARK  6 active torsions:
REMARK  status: ('A' for Active; 'I' for Inactive)
REMARK    1  A    between atoms: C_5  and  O_27 
REMARK    2  A    between atoms: C_6  and  C_24 
REMARK    3  A    between atoms: C_12  and  C_13 
REMARK    4  A    between atoms: C_13  and  C_14 
REMARK    5  A    between atoms: C_16  and  O_21 
REMARK    6  A    between atoms: C_24  and  O_25 
ROOT
HETATM    1  C   LIG     1       0.979  -0.107  -1.890  1.00  0.00     0.016 C 
HETATM    2  C   LIG     1       1.666   0.067  -0.513  1.00  0.00    -0.032 C 
HETATM    3  C   LIG     1       2.516  -1.206  -0.250  1.00  0.00     0.012 C 
HETATM    4  C   LIG     1       1.685  -2.438   0.112  1.00  0.00     0.033 C 
HETATM    5  C   LIG     1       0.812  -2.190   1.345  1.00  0.00     0.128 C 
HETATM    6  C   LIG     1      -0.179  -1.006   1.152  1.00  0.00     0.008 C 
HETATM    7  C   LIG     1       0.624   0.263   0.657  1.00  0.00     0.007 C 
HETATM    8  C   LIG     1      -0.262   1.511   0.407  1.00  0.00     0.010 C 
HETATM    9  C   LIG     1       0.503   2.707  -0.176  1.00  0.00     0.034 C 
HETATM   10  C   LIG     1       1.980   2.584   0.060  1.00  0.00    -0.084 C 
HETATM   11  C   LIG     1       2.638   3.463   0.835  1.00  0.00     0.015 C 
HETATM   12  C   LIG     1       2.654   1.335  -0.512  1.00  0.00     0.025 C 
HETATM   13  C   LIG     1      -0.816  -0.672   2.534  1.00  0.00     0.020 C 
ENDROOT
BRANCH  12  14
HETATM   14  C   LIG     1       3.363   1.600  -1.873  1.00  0.00     0.037 C 
BRANCH  14  15
HETATM   15  C   LIG     1       4.297   2.786  -1.905  1.00  0.00    -0.010 C 
HETATM   16  C   LIG     1       5.622   2.802  -1.683  1.00  0.00     0.044 C 
HETATM   17  C   LIG     1       6.390   4.075  -1.765  1.00  0.00     0.291 C 
HETATM   18  C   LIG     1       6.595   1.754  -1.292  1.00  0.00     0.181 C 
HETATM   19  O   LIG     1       7.613   3.872  -1.193  1.00  0.00    -0.315 OA
HETATM   20  O   LIG     1       6.012   5.117  -2.258  1.00  0.00    -0.260 OA
HETATM   21  C   LIG     1       7.628   2.592  -0.565  1.00  0.00     0.215 C 
BRANCH  18  22
HETATM   22  O   LIG     1       6.061   0.734  -0.470  1.00  0.00    -0.389 OA
ATOM     23  HO  LIG     1       6.684   0.062  -0.219  1.00  0.00     0.210 HD
ENDBRANCH  18  22
ENDBRANCH  14  15
ENDBRANCH  12  14
BRANCH   6  24
HETATM   24  C   LIG     1      -1.340  -1.439   0.219  1.00  0.00     0.176 C 
BRANCH  24  25
HETATM   25  O   LIG     1      -2.061  -2.540   0.773  1.00  0.00    -0.400 OA
ATOM     26  HO  LIG     1      -2.772  -2.805   0.202  1.00  0.00     0.209 HD
ENDBRANCH  24  25
ENDBRANCH   6  24
BRANCH   5  27
HETATM   27  O   LIG     1       1.687  -1.918   2.448  1.00  0.00    -0.395 OA
ATOM     28  HO  LIG     1       1.145  -1.764   3.213  1.00  0.00     0.210 HD
ENDBRANCH   5  27
TORSDOF 6
