REMARK  3 active torsions:
REMARK  status: ('A' for Active; 'I' for Inactive)
REMARK    1  A    between atoms: C_6  and  C_7 
REMARK    2  A    between atoms: C_8  and  C_9 
REMARK    3  A    between atoms: C_10  and  C_11 
REMARK       I    between atoms: C_11  and  N_13 
ROOT
HETATM    1  C   LIG     1       3.057  -1.613  -0.823  1.00  0.00     0.011 C 
HETATM    2  C   LIG     1       3.699  -2.536  -0.088  1.00  0.00     0.001 C 
ENDROOT
BRANCH   2   3
HETATM    3  C   LIG     1       4.973  -3.108  -0.474  1.00  0.00     0.005 C 
HETATM    4  C   LIG     1       5.609  -4.017   0.278  1.00  0.00     0.074 C 
BRANCH   4   5
HETATM    5  C   LIG     1       6.953  -4.515  -0.113  1.00  0.00     0.243 C 
HETATM    6  O   LIG     1       7.151  -4.930  -1.248  1.00  0.00    -0.268 OA
HETATM    7  N   LIG     1       7.913  -4.480   0.891  1.00  0.00    -0.349 N 
HETATM    8  C   LIG     1       7.776  -3.790   2.176  1.00  0.00     0.126 C 
HETATM    9  C   LIG     1       9.246  -5.016   0.623  1.00  0.00     0.126 C 
HETATM   10  C   LIG     1       8.787  -2.650   2.280  1.00  0.00     0.020 C 
HETATM   11  C   LIG     1      10.208  -3.159   2.042  1.00  0.00     0.003 C 
HETATM   12  C   LIG     1      10.305  -3.917   0.717  1.00  0.00     0.020 C 
ENDBRANCH   4   5
ENDBRANCH   2   3
BRANCH   1  13
HETATM   13  C   LIG     1       1.757  -1.012  -0.475  1.00  0.00    -0.033 A 
HETATM   14  C   LIG     1       0.910  -0.591  -1.529  1.00  0.00     0.014 A 
HETATM   15  C   LIG     1      -0.328   0.010  -1.275  1.00  0.00     0.040 A 
HETATM   16  C   LIG     1      -0.693   0.186   0.040  1.00  0.00     0.105 A 
HETATM   17  O   LIG     1      -1.852   0.746   0.477  1.00  0.00    -0.323 OA
HETATM   18  C   LIG     1       0.125  -0.203   1.073  1.00  0.00     0.105 A 
HETATM   19  C   LIG     1      -1.677   0.653   1.905  1.00  0.00     0.352 A 
HETATM   20  O   LIG     1      -0.415   0.069   2.292  1.00  0.00    -0.323 OA
HETATM   21  C   LIG     1       1.354  -0.795   0.851  1.00  0.00     0.051 A 
ENDBRANCH   1  13
TORSDOF 3
