REMARK  0 active torsions:
REMARK  status: ('A' for Active; 'I' for Inactive)
ROOT
HETATM    1  C   LIG     1       0.943  -0.150   0.108  1.00  0.00     0.070 C 
HETATM    2  C   LIG     1       0.611   1.162   0.750  1.00  0.00     0.033 A 
HETATM    3  C   LIG     1       1.080   2.330   0.266  1.00  0.00     0.066 A 
HETATM    4  C   LIG     1       0.727   3.579   0.981  1.00  0.00     0.006 A 
HETATM    5  C   LIG     1      -0.111   3.550   2.164  1.00  0.00     0.031 A 
HETATM    6  C   LIG     1      -0.533   2.334   2.559  1.00  0.00     0.089 A 
HETATM    7  N   LIG     1      -0.195   1.171   1.889  1.00  0.00    -0.368 N 
ATOM      8  HN  LIG     1      -0.550   0.283   2.243  1.00  0.00     0.165 HD
HETATM    9  C   LIG     1       1.320   4.601   0.326  1.00  0.00     0.003 A 
HETATM   10  C   LIG     1       1.316   6.011   0.600  1.00  0.00     0.018 A 
HETATM   11  C   LIG     1       1.998   6.831  -0.216  1.00  0.00     0.056 A 
HETATM   12  C   LIG     1       2.751   6.295  -1.400  1.00  0.00     0.174 A 
HETATM   13  O   LIG     1       3.413   7.066  -2.201  1.00  0.00    -0.288 OA
HETATM   14  C   LIG     1       2.732   4.828  -1.650  1.00  0.00     0.085 A 
HETATM   15  C   LIG     1       2.052   4.037  -0.820  1.00  0.00     0.047 A 
HETATM   16  N   LIG     1       1.866   2.688  -0.793  1.00  0.00    -0.353 N 
ATOM     17  HN  LIG     1       2.259   2.035  -1.470  1.00  0.00     0.166 HD
ENDROOT
TORSDOF 0
