REMARK  0 active torsions:
REMARK  status: ('A' for Active; 'I' for Inactive)
ROOT
HETATM    1  C   LIG     1       0.406   1.611  -0.428  1.00  0.00     0.010 C 
HETATM    2  C   LIG     1       0.113   1.448   1.079  1.00  0.00     0.021 C 
HETATM    3  C   LIG     1      -1.292   1.955   1.526  1.00  0.00     0.072 C 
HETATM    4  C   LIG     1      -2.299   1.027   2.240  1.00  0.00     0.037 C 
HETATM    5  C   LIG     1      -1.797   0.357   3.527  1.00  0.00     0.010 C 
HETATM    6  C   LIG     1      -1.077  -0.973   3.333  1.00  0.00     0.031 C 
HETATM    7  C   LIG     1      -1.742  -1.881   2.309  1.00  0.00     0.273 C 
HETATM    8  N   LIG     1      -1.993  -1.108   1.021  1.00  0.00     0.093 N 
HETATM    9  C   LIG     1      -2.968   0.024   1.296  1.00  0.00     0.233 C 
HETATM   10  C   LIG     1      -3.550   0.698   0.046  1.00  0.00     0.033 C 
HETATM   11  C   LIG     1      -3.893  -0.323  -1.048  1.00  0.00     0.010 C 
HETATM   12  C   LIG     1      -2.726  -1.260  -1.337  1.00  0.00     0.031 C 
HETATM   13  C   LIG     1      -2.361  -2.049  -0.095  1.00  0.00     0.273 C 
HETATM   14  C   LIG     1      -2.728   1.857  -0.530  1.00  0.00     0.105 C 
HETATM   15  N   LIG     1      -1.958   2.641   0.429  1.00  0.00    -0.248 NA
HETATM   16  C   LIG     1      -1.084   3.598  -0.110  1.00  0.00     0.200 C 
HETATM   17  O   LIG     1      -1.054   4.770   0.269  1.00  0.00    -0.280 OA
HETATM   18  C   LIG     1      -0.019   2.979  -0.988  1.00  0.00     0.097 C 
ENDROOT
TORSDOF 0
