REMARK  10 active torsions:
REMARK  status: ('A' for Active; 'I' for Inactive)
REMARK    1  A    between atoms: O_2  and  C_3 
REMARK    2  A    between atoms: C_4  and  O_16 
REMARK    3  A    between atoms: C_5  and  O_14 
REMARK    4  A    between atoms: C_6  and  O_12 
REMARK    5  A    between atoms: C_7  and  C_9 
REMARK    6  A    between atoms: O_16  and  C_17 
REMARK    7  A    between atoms: C_18  and  O_30 
REMARK    8  A    between atoms: C_19  and  O_28 
REMARK    9  A    between atoms: C_20  and  O_26 
REMARK   10  A    between atoms: C_21  and  C_23 
ROOT
HETATM    1  O   LIG     1       1.924  -4.205  -0.576  1.00  0.00    -0.346 OA
ENDROOT
BRANCH   1   2
HETATM    2  C   LIG     1       2.665  -5.451  -0.520  1.00  0.00     0.211 C 
HETATM    3  C   LIG     1       1.683  -6.617  -0.832  1.00  0.00     0.291 C 
HETATM    4  O   LIG     1       2.340  -7.884  -0.795  1.00  0.00    -0.340 OA
HETATM    5  C   LIG     1       2.868  -8.189   0.519  1.00  0.00     0.256 C 
HETATM    6  C   LIG     1       3.910  -7.150   0.924  1.00  0.00     0.189 C 
HETATM    7  C   LIG     1       3.337  -5.728   0.845  1.00  0.00     0.183 C 
BRANCH   3   8
HETATM    8  O   LIG     1       0.556  -6.587   0.067  1.00  0.00    -0.363 OA
HETATM    9  C   LIG     1      -0.405  -7.583  -0.260  1.00  0.00     0.204 C 
ENDBRANCH   3   8
BRANCH   5  10
HETATM   10  C   LIG     1       3.433  -9.634   0.552  1.00  0.00     0.206 C 
HETATM   11  O   LIG     1       4.671  -9.737   0.827  1.00  0.00    -0.646 OA
HETATM   12  O   LIG     1       2.595 -10.558   0.346  1.00  0.00    -0.646 OA
ENDBRANCH   5  10
BRANCH   6  13
HETATM   13  O   LIG     1       5.063  -7.193   0.055  1.00  0.00    -0.390 OA
ATOM     14  HO  LIG     1       5.418  -8.073   0.104  1.00  0.00     0.210 HD
ENDBRANCH   6  13
BRANCH   7  15
HETATM   15  O   LIG     1       4.437  -4.827   1.087  1.00  0.00    -0.390 OA
ATOM     16  HO  LIG     1       4.850  -4.997   1.926  1.00  0.00     0.210 HD
ENDBRANCH   7  15
ENDBRANCH   1   2
BRANCH   1  17
HETATM   17  C   LIG     1       2.700  -3.028  -0.343  1.00  0.00     0.293 C 
HETATM   18  O   LIG     1       3.756  -2.884  -1.299  1.00  0.00    -0.340 OA
HETATM   19  C   LIG     1       4.611  -1.763  -0.951  1.00  0.00     0.256 C 
HETATM   20  C   LIG     1       3.823  -0.452  -1.071  1.00  0.00     0.189 C 
HETATM   21  C   LIG     1       2.633  -0.522  -0.097  1.00  0.00     0.183 C 
HETATM   22  C   LIG     1       1.779  -1.777  -0.373  1.00  0.00     0.204 C 
BRANCH  19  23
HETATM   23  C   LIG     1       5.827  -1.636  -1.896  1.00  0.00     0.206 C 
HETATM   24  O   LIG     1       5.554  -1.326  -3.090  1.00  0.00    -0.646 OA
HETATM   25  O   LIG     1       6.964  -1.738  -1.337  1.00  0.00    -0.646 OA
ENDBRANCH  19  23
BRANCH  20  26
HETATM   26  O   LIG     1       3.284  -0.273  -2.404  1.00  0.00    -0.390 OA
ATOM     27  HO  LIG     1       4.018  -0.230  -3.005  1.00  0.00     0.210 HD
ENDBRANCH  20  26
BRANCH  21  28
HETATM   28  O   LIG     1       1.814   0.652  -0.234  1.00  0.00    -0.390 OA
ATOM     29  HO  LIG     1       2.340   1.425  -0.064  1.00  0.00     0.210 HD
ENDBRANCH  21  28
BRANCH  22  30
HETATM   30  O   LIG     1       1.109  -1.614  -1.645  1.00  0.00    -0.388 OA
ATOM     31  HO  LIG     1       0.546  -0.849  -1.663  1.00  0.00     0.210 HD
ENDBRANCH  22  30
ENDBRANCH   1  17
TORSDOF 10
