REMARK  4 active torsions:
REMARK  status: ('A' for Active; 'I' for Inactive)
REMARK    1  A    between atoms: C_2  and  C_4 
REMARK    2  A    between atoms: C_5  and  C_6 
REMARK    3  A    between atoms: C_8  and  C_9 
REMARK    4  A    between atoms: C_8  and  O_20 
ROOT
HETATM    1  C   LIG     1       0.753  -2.547  -1.321  1.00  0.00     0.062 C 
HETATM    2  C   LIG     1       2.034  -3.381  -1.367  1.00  0.00     0.171 C 
HETATM    3  C   LIG     1       0.983  -1.730  -2.590  1.00  0.00     0.131 C 
HETATM    4  C   LIG     1       2.469  -1.490  -2.514  1.00  0.00     0.267 C 
HETATM    5  O   LIG     1       3.089  -0.691  -3.196  1.00  0.00    -0.265 OA
HETATM    6  O   LIG     1       3.049  -2.428  -1.713  1.00  0.00    -0.312 OA
ENDROOT
BRANCH   1   7
HETATM    7  C   LIG     1       0.526  -1.658  -0.100  1.00  0.00    -0.085 C 
HETATM    8  C   LIG     1      -0.860  -1.070   0.014  1.00  0.00     0.043 C 
HETATM    9  C   LIG     1       1.437  -1.410   0.857  1.00  0.00     0.014 C 
ENDBRANCH   1   7
BRANCH   3  10
HETATM   10  C   LIG     1       0.705  -2.547  -3.866  1.00  0.00     0.087 C 
HETATM   11  C   LIG     1       1.257  -4.024  -3.798  1.00  0.00     0.060 C 
HETATM   12  C   LIG     1       2.010  -4.441  -2.489  1.00  0.00     0.177 C 
HETATM   13  C   LIG     1       0.044  -4.882  -3.639  1.00  0.00     0.187 A 
HETATM   14  C   LIG     1       2.067  -4.441  -5.032  1.00  0.00     0.025 C 
HETATM   15  O   LIG     1       1.385  -5.652  -1.979  1.00  0.00    -0.310 OA
HETATM   16  C   LIG     1       0.206  -5.899  -2.616  1.00  0.00     0.298 C 
HETATM   17  O   LIG     1      -0.602  -6.759  -2.318  1.00  0.00    -0.262 OA
HETATM   18  C   LIG     1      -1.197  -4.098  -3.802  1.00  0.00     0.172 A 
HETATM   19  O   LIG     1      -0.799  -5.080  -4.770  1.00  0.00    -0.357 OA
HETATM   20  C   LIG     1      -0.839  -2.684  -4.100  1.00  0.00     0.075 C 
BRANCH  10  21
HETATM   21  O   LIG     1       1.175  -1.846  -5.024  1.00  0.00    -0.388 OA
ATOM     22  HO  LIG     1       0.843  -0.957  -5.065  1.00  0.00     0.210 HD
ENDBRANCH  10  21
ENDBRANCH   3  10
TORSDOF 4
