REMARK  15 active torsions:
REMARK  status: ('A' for Active; 'I' for Inactive)
REMARK    1  A    between atoms: C_3  and  O_50 
REMARK    2  A    between atoms: C_4  and  O_48 
REMARK    3  A    between atoms: C_5  and  O_46 
REMARK    4  A    between atoms: C_6  and  O_8 
REMARK    5  A    between atoms: O_8  and  C_9 
REMARK    6  A    between atoms: C_9  and  C_10 
REMARK    7  A    between atoms: C_11  and  O_44 
REMARK    8  A    between atoms: C_12  and  O_42 
REMARK    9  A    between atoms: C_13  and  O_40 
REMARK   10  A    between atoms: C_14  and  O_16 
REMARK   11  A    between atoms: O_16  and  C_17 
REMARK   12  A    between atoms: C_19  and  O_38 
REMARK   13  A    between atoms: C_24  and  C_28 
REMARK   14  A    between atoms: C_31  and  O_36 
REMARK   15  A    between atoms: C_32  and  O_34 
ROOT
HETATM    1  C   LIG     1      -0.397  -2.452  -2.109  1.00  0.00     0.180 C 
HETATM    2  C   LIG     1      -0.462  -1.921  -0.676  1.00  0.00     0.180 C 
HETATM    3  C   LIG     1      -1.352  -2.827   0.181  1.00  0.00     0.183 C 
HETATM    4  C   LIG     1      -1.003  -4.315   0.032  1.00  0.00     0.205 C 
HETATM    5  C   LIG     1      -0.975  -4.664  -1.469  1.00  0.00     0.298 C 
HETATM    6  O   LIG     1      -0.016  -3.838  -2.140  1.00  0.00    -0.348 OA
ENDROOT
BRANCH   5   7
HETATM    7  O   LIG     1      -0.658  -6.054  -1.635  1.00  0.00    -0.318 OA
BRANCH   7   8
HETATM    8  C   LIG     1      -1.418  -6.742  -2.546  1.00  0.00     0.077 A 
HETATM    9  C   LIG     1      -1.572  -8.115  -2.305  1.00  0.00     0.074 A 
HETATM   10  C   LIG     1      -2.374  -8.893  -3.146  1.00  0.00     0.089 A 
HETATM   11  C   LIG     1      -2.994  -8.296  -4.244  1.00  0.00     0.076 A 
HETATM   12  O   LIG     1      -2.484 -10.231  -2.855  1.00  0.00    -0.340 OA
HETATM   13  C   LIG     1      -2.818  -6.939  -4.504  1.00  0.00     0.085 A 
HETATM   14  C   LIG     1      -3.785  -9.130  -5.154  1.00  0.00     0.167 C 
HETATM   15  C   LIG     1      -2.016  -6.170  -3.673  1.00  0.00     0.074 A 
HETATM   16  C   LIG     1      -3.733 -10.599  -4.919  1.00  0.00     0.121 C 
HETATM   17  O   LIG     1      -4.382  -8.628  -6.102  1.00  0.00    -0.292 OA
HETATM   18  C   LIG     1      -3.655 -10.856  -3.420  1.00  0.00     0.169 C 
BRANCH  13  19
HETATM   19  O   LIG     1      -3.398  -6.296  -5.563  1.00  0.00    -0.360 OA
ATOM     20  HO  LIG     1      -3.947  -6.823  -6.132  1.00  0.00     0.217 HD
ENDBRANCH  13  19
BRANCH  18  21
HETATM   21  C   LIG     1      -3.620 -12.339  -3.077  1.00  0.00    -0.026 A 
HETATM   22  C   LIG     1      -3.602 -13.349  -4.054  1.00  0.00     0.049 A 
HETATM   23  C   LIG     1      -3.571 -14.696  -3.692  1.00  0.00     0.099 A 
HETATM   24  C   LIG     1      -3.547 -15.075  -2.350  1.00  0.00     0.101 A 
HETATM   25  C   LIG     1      -3.599 -14.080  -1.371  1.00  0.00     0.040 A 
HETATM   26  C   LIG     1      -3.631 -12.728  -1.730  1.00  0.00     0.012 A 
BRANCH  23  27
HETATM   27  O   LIG     1      -3.545 -15.657  -4.667  1.00  0.00    -0.358 OA
ATOM     28  HO  LIG     1      -3.561 -15.399  -5.581  1.00  0.00     0.217 HD
ENDBRANCH  23  27
BRANCH  24  29
HETATM   29  O   LIG     1      -3.516 -16.417  -2.079  1.00  0.00    -0.353 OA
HETATM   30  C   LIG     1      -2.888 -16.773  -0.854  1.00  0.00     0.210 C 
ENDBRANCH  24  29
ENDBRANCH  18  21
ENDBRANCH   7   8
ENDBRANCH   5   7
BRANCH   4  31
HETATM   31  O   LIG     1       0.250  -4.557   0.694  1.00  0.00    -0.388 OA
ATOM     32  HO  LIG     1       0.466  -5.478   0.602  1.00  0.00     0.210 HD
ENDBRANCH   4  31
BRANCH   3  33
HETATM   33  O   LIG     1      -1.224  -2.412   1.542  1.00  0.00    -0.390 OA
ATOM     34  HO  LIG     1      -1.776  -2.974   2.073  1.00  0.00     0.210 HD
ENDBRANCH   3  33
BRANCH   1  35
HETATM   35  C   LIG     1       0.619  -1.646  -2.913  1.00  0.00     0.205 C 
BRANCH  35  36
HETATM   36  O   LIG     1       0.319  -0.250  -2.798  1.00  0.00    -0.356 OA
BRANCH  36  37
HETATM   37  C   LIG     1       1.197   0.507  -3.635  1.00  0.00     0.291 C 
HETATM   38  C   LIG     1       0.747   1.979  -3.619  1.00  0.00     0.204 C 
HETATM   39  C   LIG     1       1.764   2.876  -4.345  1.00  0.00     0.183 C 
HETATM   40  C   LIG     1       3.204   2.604  -3.887  1.00  0.00     0.178 C 
HETATM   41  C   LIG     1       3.481   1.091  -3.924  1.00  0.00     0.152 C 
HETATM   42  C   LIG     1       4.862   0.741  -3.389  1.00  0.00     0.042 C 
HETATM   43  O   LIG     1       2.520   0.380  -3.124  1.00  0.00    -0.351 OA
BRANCH  38  44
HETATM   44  O   LIG     1       0.608   2.436  -2.264  1.00  0.00    -0.388 OA
ATOM     45  HO  LIG     1      -0.020   1.882  -1.816  1.00  0.00     0.210 HD
ENDBRANCH  38  44
BRANCH  39  46
HETATM   46  O   LIG     1       1.456   4.263  -4.119  1.00  0.00    -0.390 OA
ATOM     47  HO  LIG     1       0.565   4.431  -4.402  1.00  0.00     0.210 HD
ENDBRANCH  39  46
BRANCH  40  48
HETATM   48  O   LIG     1       3.384   3.114  -2.561  1.00  0.00    -0.390 OA
ATOM     49  HO  LIG     1       3.213   4.048  -2.538  1.00  0.00     0.210 HD
ENDBRANCH  40  48
ENDBRANCH  36  37
ENDBRANCH  35  36
ENDBRANCH   1  35
BRANCH   2  50
HETATM   50  O   LIG     1       0.870  -1.857  -0.154  1.00  0.00    -0.390 OA
ATOM     51  HO  LIG     1       0.830  -1.527   0.736  1.00  0.00     0.210 HD
ENDBRANCH   2  50
TORSDOF 15
