REMARK  5 active torsions:
REMARK  status: ('A' for Active; 'I' for Inactive)
REMARK       I    between atoms: C_2  and  N_4 
REMARK    1  A    between atoms: N_4  and  C_6 
REMARK    2  A    between atoms: C_11  and  O_29 
REMARK    3  A    between atoms: C_12  and  O_27 
REMARK    4  A    between atoms: C_13  and  O_25 
REMARK    5  A    between atoms: C_20  and  O_23 
ROOT
HETATM    1  C   LIG     1       1.769  -3.380  -0.351  1.00  0.00     0.119 C 
HETATM    2  C   LIG     1       0.658  -3.262   0.715  1.00  0.00     0.034 C 
HETATM    3  C   LIG     1      -0.695  -2.808   0.141  1.00  0.00     0.042 C 
HETATM    4  C   LIG     1      -0.765  -1.294   0.112  1.00  0.00    -0.041 C 
HETATM    5  C   LIG     1      -1.900  -0.734   0.707  1.00  0.00     0.047 C 
HETATM    6  C   LIG     1      -1.900   0.573   1.180  1.00  0.00     0.104 C 
HETATM    7  C   LIG     1      -0.750   1.367   1.020  1.00  0.00     0.136 C 
HETATM    8  C   LIG     1       0.338   0.869   0.241  1.00  0.00     0.116 C 
HETATM    9  C   LIG     1       0.303  -0.466  -0.297  1.00  0.00     0.017 C 
HETATM   10  C   LIG     1       1.362  -1.019  -1.257  1.00  0.00    -0.014 C 
HETATM   11  C   LIG     1       1.491  -2.491  -1.575  1.00  0.00    -0.020 C 
HETATM   12  C   LIG     1       1.275  -3.032  -2.803  1.00  0.00     0.068 C 
HETATM   13  C   LIG     1       0.981  -2.390  -4.124  1.00  0.00     0.205 C 
HETATM   14  O   LIG     1       0.385  -2.996  -5.002  1.00  0.00    -0.285 OA
HETATM   15  C   LIG     1       1.713  -1.111  -4.367  1.00  0.00     0.118 C 
HETATM   16  C   LIG     1       1.201  -0.199  -3.511  1.00  0.00     0.042 C 
HETATM   17  C   LIG     1       1.842  -0.121  -2.164  1.00  0.00     0.016 C 
ENDROOT
BRANCH   1  18
HETATM   18  N   LIG     1       1.914  -4.793  -0.744  1.00  0.00    -0.353 N 
HETATM   19  C   LIG     1       2.982  -5.594  -0.383  1.00  0.00     0.214 C 
HETATM   20  C   LIG     1       2.751  -7.054  -0.735  1.00  0.00     0.117 C 
HETATM   21  O   LIG     1       3.991  -5.200   0.151  1.00  0.00    -0.274 OA
ATOM     22  HN  LIG     1       1.180  -5.206  -1.319  1.00  0.00     0.163 HD
ENDBRANCH   1  18
BRANCH   8  23
HETATM   23  O   LIG     1       1.522   1.538   0.004  1.00  0.00    -0.352 OA
HETATM   24  C   LIG     1       1.745   2.841   0.520  1.00  0.00     0.210 C 
ENDBRANCH   8  23
BRANCH  15  25
HETATM   25  O   LIG     1       3.082  -1.186  -4.618  1.00  0.00    -0.352 OA
HETATM   26  C   LIG     1       3.489  -2.395  -5.269  1.00  0.00     0.210 C 
ENDBRANCH  15  25
BRANCH   7  27
HETATM   27  O   LIG     1      -0.674   2.643   1.530  1.00  0.00    -0.351 OA
HETATM   28  C   LIG     1      -1.109   2.850   2.874  1.00  0.00     0.210 C 
ENDBRANCH   7  27
BRANCH   6  29
HETATM   29  O   LIG     1      -3.021   1.085   1.783  1.00  0.00    -0.353 OA
HETATM   30  C   LIG     1      -3.742   0.164   2.605  1.00  0.00     0.210 C 
ENDBRANCH   6  29
TORSDOF 5
