REMARK  3 active torsions:
REMARK  status: ('A' for Active; 'I' for Inactive)
REMARK    1  A    between atoms: C_6  and  C_12 
REMARK    2  A    between atoms: C_6  and  O_14 
REMARK    3  A    between atoms: C_7  and  C_10 
ROOT
HETATM    1  C   LIG     1      -1.707  -0.364   1.024  1.00  0.00     0.033 C 
HETATM    2  C   LIG     1      -1.490  -1.088  -0.293  1.00  0.00     0.080 C 
HETATM    3  C   LIG     1      -0.185  -1.855  -0.324  1.00  0.00     0.130 C 
HETATM    4  O   LIG     1      -0.219  -3.079  -0.537  1.00  0.00    -0.298 OA
HETATM    5  C   LIG     1       1.128  -1.197   0.064  1.00  0.00     0.130 C 
HETATM    6  C   LIG     1       1.474   0.217  -0.384  1.00  0.00     0.188 C 
HETATM    7  C   LIG     1       0.822   1.407   0.363  1.00  0.00     0.267 C 
HETATM    8  O   LIG     1      -0.576   1.594  -0.003  1.00  0.00    -0.371 OA
HETATM    9  C   LIG     1      -1.579   1.149   0.892  1.00  0.00     0.169 C 
ENDROOT
BRANCH   6  10
HETATM   10  C   LIG     1       1.280   0.428  -1.939  1.00  0.00     0.212 C 
HETATM   11  O   LIG     1       0.433  -0.294  -2.544  1.00  0.00    -0.646 OA
HETATM   12  O   LIG     1       2.143   1.214  -2.448  1.00  0.00    -0.646 OA
ENDBRANCH   6  10
BRANCH   6  13
HETATM   13  O   LIG     1       2.937   0.336  -0.179  1.00  0.00    -0.376 OA
ATOM     14  HO  LIG     1       3.153   1.218  -0.458  1.00  0.00     0.211 HD
ENDBRANCH   6  13
BRANCH   7  15
HETATM   15  C   LIG     1       1.070   1.560   1.908  1.00  0.00     0.206 C 
HETATM   16  O   LIG     1       0.805   0.559   2.640  1.00  0.00    -0.646 OA
HETATM   17  O   LIG     1       1.420   2.718   2.302  1.00  0.00    -0.646 OA
ENDBRANCH   7  15
TORSDOF 3
