REMARK  5 active torsions:
REMARK  status: ('A' for Active; 'I' for Inactive)
REMARK    1  A    between atoms: O_2  and  C_3 
REMARK    2  A    between atoms: C_11  and  C_12 
REMARK    3  A    between atoms: C_12  and  C_14 
REMARK    4  A    between atoms: C_14  and  C_15 
REMARK    5  A    between atoms: C_15  and  C_16 
ROOT
HETATM    1  C   LIG     1       0.885  -0.318   2.870  1.00  0.00     0.085 A 
HETATM    2  C   LIG     1       1.382  -0.154   4.179  1.00  0.00     0.075 A 
HETATM    3  C   LIG     1       1.447  -1.295   4.977  1.00  0.00     0.087 A 
HETATM    4  C   LIG     1       0.974  -2.542   4.596  1.00  0.00     0.001 A 
HETATM    5  C   LIG     1       1.287  -3.421   5.666  1.00  0.00     0.039 A 
HETATM    6  C   LIG     1       1.954  -2.668   6.605  1.00  0.00     0.143 A 
HETATM    7  O   LIG     1       2.026  -1.368   6.212  1.00  0.00    -0.322 OA
HETATM    8  C   LIG     1       0.397  -2.676   3.323  1.00  0.00     0.032 A 
HETATM    9  C   LIG     1       0.421  -1.583   2.421  1.00  0.00     0.048 A 
ENDROOT
BRANCH   9  10
HETATM   10  C   LIG     1       0.008  -1.886   0.994  1.00  0.00     0.188 C 
HETATM   11  O   LIG     1      -1.205  -1.712   0.655  1.00  0.00    -0.287 OA
BRANCH  10  12
HETATM   12  C   LIG     1       1.036  -2.409   0.284  1.00  0.00     0.111 C 
BRANCH  12  13
HETATM   13  C   LIG     1       1.057  -2.938  -1.125  1.00  0.00     0.185 C 
HETATM   14  O   LIG     1       1.834  -3.852  -1.411  1.00  0.00    -0.287 OA
BRANCH  13  15
HETATM   15  C   LIG     1       0.232  -2.341  -2.211  1.00  0.00     0.014 A 
HETATM   16  C   LIG     1      -0.205  -3.162  -3.264  1.00  0.00     0.015 A 
HETATM   17  C   LIG     1      -1.007  -2.638  -4.285  1.00  0.00     0.001 A 
HETATM   18  C   LIG     1      -1.334  -1.282  -4.284  1.00  0.00     0.000 A 
HETATM   19  C   LIG     1      -0.839  -0.448  -3.282  1.00  0.00     0.001 A 
HETATM   20  C   LIG     1      -0.052  -0.975  -2.254  1.00  0.00     0.015 A 
ENDBRANCH  13  15
ENDBRANCH  12  13
ENDBRANCH  10  12
ENDBRANCH   9  10
BRANCH   1  21
HETATM   21  O   LIG     1       0.942   0.712   1.956  1.00  0.00    -0.355 OA
HETATM   22  C   LIG     1       0.732   2.021   2.471  1.00  0.00     0.210 C 
ENDBRANCH   1  21
TORSDOF 5
