REMARK  7 active torsions:
REMARK  status: ('A' for Active; 'I' for Inactive)
REMARK    1  A    between atoms: O_2  and  C_3 
REMARK    2  A    between atoms: C_3  and  C_5 
REMARK    3  A    between atoms: C_5  and  O_6 
REMARK    4  A    between atoms: O_6  and  C_7 
REMARK    5  A    between atoms: C_10  and  O_13 
REMARK    6  A    between atoms: O_13  and  C_14 
REMARK    7  A    between atoms: C_14  and  C_15 
ROOT
HETATM    1  C   LIG     1       2.482   1.511   4.879  1.00  0.00     0.069 A 
HETATM    2  C   LIG     1       2.867   2.505   5.784  1.00  0.00     0.039 A 
HETATM    3  C   LIG     1       4.208   2.880   5.918  1.00  0.00     0.039 A 
HETATM    4  C   LIG     1       5.176   2.292   5.109  1.00  0.00     0.069 A 
HETATM    5  C   LIG     1       4.800   1.274   4.227  1.00  0.00     0.039 A 
HETATM    6  C   LIG     1       3.458   0.877   4.113  1.00  0.00     0.039 A 
ENDROOT
BRANCH   4   7
HETATM    7  O   LIG     1       6.506   2.615   5.113  1.00  0.00    -0.347 OA
BRANCH   7   8
HETATM    8  C   LIG     1       6.819   3.972   5.453  1.00  0.00     0.214 C 
BRANCH   8   9
HETATM    9  C   LIG     1       8.123   4.354   4.786  1.00  0.00    -0.034 A 
HETATM   10  C   LIG     1       8.210   4.378   3.385  1.00  0.00     0.009 A 
HETATM   11  C   LIG     1       9.400   4.736   2.750  1.00  0.00     0.001 A 
HETATM   12  C   LIG     1      10.518   5.078   3.507  1.00  0.00     0.000 A 
HETATM   13  C   LIG     1      10.445   5.066   4.899  1.00  0.00     0.001 A 
HETATM   14  C   LIG     1       9.253   4.708   5.537  1.00  0.00     0.009 A 
ENDBRANCH   8   9
ENDBRANCH   7   8
ENDBRANCH   4   7
BRANCH   1  15
HETATM   15  O   LIG     1       1.134   1.301   4.794  1.00  0.00    -0.342 OA
BRANCH  15  16
HETATM   16  C   LIG     1       0.700  -0.009   4.464  1.00  0.00     0.286 C 
BRANCH  16  17
HETATM   17  C   LIG     1       0.471  -0.302   2.971  1.00  0.00     0.282 C 
HETATM   18  O   LIG     1       0.127   0.505   2.118  1.00  0.00    -0.263 OA
BRANCH  17  19
HETATM   19  O   LIG     1       0.653  -1.644   2.776  1.00  0.00    -0.325 OA
HETATM   20  C   LIG     1       0.431  -2.092   1.438  1.00  0.00     0.213 C 
ENDBRANCH  17  19
ENDBRANCH  16  17
ENDBRANCH  15  16
ENDBRANCH   1  15
TORSDOF 7
