REMARK  5 active torsions:
REMARK  status: ('A' for Active; 'I' for Inactive)
REMARK    1  A    between atoms: C_3  and  O_25 
REMARK    2  A    between atoms: C_4  and  O_23 
REMARK    3  A    between atoms: C_6  and  C_7 
REMARK    4  A    between atoms: C_8  and  O_21 
REMARK    5  A    between atoms: C_11  and  O_18 
ROOT
HETATM    1  C   LIG     1      -1.401  -2.406  -0.220  1.00  0.00     0.123 A 
HETATM    2  C   LIG     1      -2.651  -2.530  -0.703  1.00  0.00     0.152 A 
HETATM    3  C   LIG     1      -3.275  -3.850  -0.897  1.00  0.00     0.223 A 
HETATM    4  C   LIG     1      -2.536  -4.946  -0.574  1.00  0.00     0.084 A 
HETATM    5  C   LIG     1      -3.070  -6.311  -0.731  1.00  0.00     0.086 A 
HETATM    6  C   LIG     1      -2.344  -7.388  -0.414  1.00  0.00     0.092 A 
HETATM    7  C   LIG     1      -0.971  -7.231   0.107  1.00  0.00     0.177 A 
HETATM    8  O   LIG     1      -0.289  -8.209   0.400  1.00  0.00    -0.288 OA
HETATM    9  C   LIG     1      -0.432  -5.863   0.267  1.00  0.00     0.093 A 
HETATM   10  C   LIG     1      -1.171  -4.794  -0.055  1.00  0.00     0.097 A 
HETATM   11  O   LIG     1      -0.636  -3.520   0.105  1.00  0.00    -0.306 OA
HETATM   12  O   LIG     1      -4.456  -3.734  -1.355  1.00  0.00    -0.284 OA
ENDROOT
BRANCH   1  13
HETATM   13  C   LIG     1      -0.705  -1.121   0.004  1.00  0.00     0.004 A 
HETATM   14  C   LIG     1       0.660  -0.998  -0.309  1.00  0.00     0.017 A 
HETATM   15  C   LIG     1       1.348   0.197  -0.077  1.00  0.00     0.040 A 
HETATM   16  C   LIG     1       0.675   1.283   0.476  1.00  0.00     0.098 A 
HETATM   17  C   LIG     1      -0.677   1.177   0.797  1.00  0.00     0.099 A 
HETATM   18  C   LIG     1      -1.362  -0.018   0.570  1.00  0.00     0.053 A 
BRANCH  16  19
HETATM   19  O   LIG     1       1.334   2.459   0.706  1.00  0.00    -0.358 OA
ATOM     20  HO  LIG     1       0.875   3.200   1.083  1.00  0.00     0.217 HD
ENDBRANCH  16  19
BRANCH  17  21
HETATM   21  O   LIG     1      -1.333   2.250   1.335  1.00  0.00    -0.358 OA
ATOM     22  HO  LIG     1      -2.255   2.178   1.554  1.00  0.00     0.217 HD
ENDBRANCH  17  21
ENDBRANCH   1  13
BRANCH   2  23
HETATM   23  O   LIG     1      -3.447  -1.457  -1.071  1.00  0.00    -0.355 OA
ATOM     24  HO  LIG     1      -4.329  -1.545  -1.412  1.00  0.00     0.218 HD
ENDBRANCH   2  23
BRANCH   5  25
HETATM   25  O   LIG     1      -4.356  -6.456  -1.220  1.00  0.00    -0.359 OA
ATOM     26  HO  LIG     1      -4.700  -7.336  -1.321  1.00  0.00     0.217 HD
ENDBRANCH   5  25
TORSDOF 5
