REMARK  10 active torsions:
REMARK  status: ('A' for Active; 'I' for Inactive)
REMARK    1  A    between atoms: O_2  and  C_3 
REMARK    2  A    between atoms: C_5  and  C_11 
REMARK    3  A    between atoms: C_8  and  O_9 
REMARK    4  A    between atoms: C_12  and  C_13 
REMARK    5  A    between atoms: C_13  and  C_14 
REMARK    6  A    between atoms: C_14  and  C_15 
REMARK    7  A    between atoms: C_15  and  C_17 
REMARK    8  A    between atoms: C_18  and  C_19 
REMARK    9  A    between atoms: C_22  and  O_27 
REMARK   10  A    between atoms: C_23  and  O_25 
ROOT
HETATM    1  C   LIG     1       0.882   1.383  -8.498  1.00  0.00     0.165 C 
ENDROOT
BRANCH   1   2
HETATM    2  C   LIG     1       0.074   1.732  -7.283  1.00  0.00     0.156 C 
HETATM    3  O   LIG     1      -0.649   0.903  -6.732  1.00  0.00    -0.293 OA
BRANCH   2   4
HETATM    4  C   LIG     1       0.251   3.099  -6.725  1.00  0.00     0.051 C 
HETATM    5  C   LIG     1      -0.085   3.376  -5.456  1.00  0.00     0.015 C 
BRANCH   5   6
HETATM    6  C   LIG     1       0.117   4.693  -4.833  1.00  0.00    -0.033 A 
HETATM    7  C   LIG     1       0.330   4.751  -3.446  1.00  0.00     0.051 A 
HETATM    8  C   LIG     1       0.510   5.977  -2.799  1.00  0.00     0.102 A 
HETATM    9  C   LIG     1       0.438   7.152  -3.554  1.00  0.00     0.099 A 
HETATM   10  C   LIG     1       0.231   7.118  -4.926  1.00  0.00     0.040 A 
HETATM   11  C   LIG     1       0.063   5.889  -5.563  1.00  0.00     0.014 A 
BRANCH   8  12
HETATM   12  O   LIG     1       0.760   6.143  -1.460  1.00  0.00    -0.353 OA
HETATM   13  C   LIG     1       0.841   4.948  -0.687  1.00  0.00     0.210 C 
ENDBRANCH   8  12
BRANCH   9  14
HETATM   14  O   LIG     1       0.540   8.378  -2.955  1.00  0.00    -0.358 OA
ATOM     15  HO  LIG     1       0.491   9.176  -3.468  1.00  0.00     0.217 HD
ENDBRANCH   9  14
ENDBRANCH   5   6
ENDBRANCH   2   4
ENDBRANCH   1   2
BRANCH   1  16
HETATM   16  C   LIG     1       0.228   1.737  -9.811  1.00  0.00     0.156 C 
HETATM   17  O   LIG     1      -0.864   2.276  -9.892  1.00  0.00    -0.293 OA
BRANCH  16  18
HETATM   18  C   LIG     1       0.997   1.489 -11.069  1.00  0.00     0.051 C 
HETATM   19  C   LIG     1       2.015   0.625 -11.141  1.00  0.00     0.015 C 
BRANCH  19  20
HETATM   20  C   LIG     1       2.797   0.339 -12.354  1.00  0.00    -0.033 A 
HETATM   21  C   LIG     1       3.370  -0.934 -12.522  1.00  0.00     0.051 A 
HETATM   22  C   LIG     1       4.124  -1.249 -13.663  1.00  0.00     0.102 A 
HETATM   23  C   LIG     1       4.359  -0.247 -14.609  1.00  0.00     0.099 A 
HETATM   24  C   LIG     1       3.809   1.024 -14.446  1.00  0.00     0.040 A 
HETATM   25  C   LIG     1       3.032   1.316 -13.326  1.00  0.00     0.014 A 
BRANCH  22  26
HETATM   26  O   LIG     1       4.600  -2.535 -13.701  1.00  0.00    -0.353 OA
HETATM   27  C   LIG     1       4.774  -3.094 -15.001  1.00  0.00     0.210 C 
ENDBRANCH  22  26
BRANCH  23  28
HETATM   28  O   LIG     1       5.149  -0.463 -15.701  1.00  0.00    -0.358 OA
ATOM     29  HO  LIG     1       5.524  -1.329 -15.812  1.00  0.00     0.217 HD
ENDBRANCH  23  28
ENDBRANCH  19  20
ENDBRANCH  16  18
ENDBRANCH   1  16
TORSDOF 10
