REMARK  1 active torsions:
REMARK  status: ('A' for Active; 'I' for Inactive)
REMARK    1  A    between atoms: C_18  and  N_20 
ROOT
HETATM    1  C   LIG     1      -6.101   8.189  -4.164  1.00  0.00     0.043 C 
HETATM    2  C   LIG     1      -5.018   7.720  -3.210  1.00  0.00     0.223 C 
HETATM    3  C   LIG     1      -3.606   8.175  -3.574  1.00  0.00     0.029 C 
HETATM    4  C   LIG     1      -2.908   7.265  -4.593  1.00  0.00     0.008 C 
HETATM    5  C   LIG     1      -1.625   6.787  -3.915  1.00  0.00     0.006 C 
HETATM    6  C   LIG     1      -1.986   6.765  -2.430  1.00  0.00     0.001 C 
HETATM    7  C   LIG     1      -2.802   8.067  -2.255  1.00  0.00    -0.004 C 
HETATM    8  C   LIG     1      -1.880   9.290  -2.081  1.00  0.00     0.012 C 
HETATM    9  C   LIG     1      -0.843   9.100  -0.980  1.00  0.00     0.007 C 
HETATM   10  C   LIG     1       0.028   7.840  -1.140  1.00  0.00     0.003 C 
HETATM   11  C   LIG     1      -0.849   6.591  -1.399  1.00  0.00    -0.001 C 
HETATM   12  C   LIG     1       0.009   5.339  -1.620  1.00  0.00     0.033 C 
HETATM   13  C   LIG     1       1.075   5.551  -2.641  1.00  0.00    -0.023 C 
HETATM   14  C   LIG     1       1.671   6.736  -2.856  1.00  0.00    -0.073 C 
HETATM   15  C   LIG     1       1.379   7.972  -1.992  1.00  0.00    -0.017 C 
HETATM   16  C   LIG     1       1.433   9.204  -2.935  1.00  0.00     0.016 C 
HETATM   17  C   LIG     1       2.759   9.395  -3.702  1.00  0.00     0.037 C 
HETATM   18  C   LIG     1       3.509   8.090  -4.014  1.00  0.00     0.226 C 
HETATM   19  C   LIG     1       2.578   6.875  -4.068  1.00  0.00     0.070 C 
HETATM   20  C   LIG     1       2.506   8.122  -0.926  1.00  0.00     0.020 C 
HETATM   21  C   LIG     1      -3.853   7.976  -1.129  1.00  0.00     0.282 C 
HETATM   22  N   LIG     1      -5.191   8.244  -1.800  1.00  0.00     0.089 N 
HETATM   23  C   LIG     1      -5.640   9.673  -1.654  1.00  0.00     0.310 C 
ENDROOT
BRANCH  18  24
HETATM   24  N   LIG     1       4.354   8.263  -5.280  1.00  0.00     0.084 N 
HETATM   25  C   LIG     1       5.544   7.332  -5.317  1.00  0.00     0.309 C 
HETATM   26  C   LIG     1       3.607   8.226  -6.588  1.00  0.00     0.309 C 
ENDBRANCH  18  24
TORSDOF 1
