REMARK  6 active torsions:
REMARK  status: ('A' for Active; 'I' for Inactive)
REMARK    1  A    between atoms: C_5  and  O_27 
REMARK    2  A    between atoms: C_6  and  C_24 
REMARK    3  A    between atoms: C_12  and  C_13 
REMARK    4  A    between atoms: C_13  and  C_14 
REMARK    5  A    between atoms: C_16  and  O_21 
REMARK    6  A    between atoms: C_24  and  O_25 
ROOT
HETATM    1  C   LIG     1       0.561  -0.429  -1.846  1.00  0.00     0.016 C 
HETATM    2  C   LIG     1       1.496  -0.174  -0.635  1.00  0.00    -0.032 C 
HETATM    3  C   LIG     1       2.403  -1.417  -0.437  1.00  0.00     0.012 C 
HETATM    4  C   LIG     1       1.645  -2.662   0.047  1.00  0.00     0.033 C 
HETATM    5  C   LIG     1       0.849  -2.427   1.334  1.00  0.00     0.128 C 
HETATM    6  C   LIG     1      -0.093  -1.182   1.285  1.00  0.00     0.008 C 
HETATM    7  C   LIG     1       0.718   0.061   0.735  1.00  0.00     0.007 C 
HETATM    8  C   LIG     1      -0.095   1.385   0.744  1.00  0.00     0.010 C 
HETATM    9  C   LIG     1       0.724   2.598   0.304  1.00  0.00     0.034 C 
HETATM   10  C   LIG     1       1.382   2.306  -1.016  1.00  0.00    -0.084 C 
HETATM   11  C   LIG     1       1.027   2.975  -2.127  1.00  0.00     0.015 C 
HETATM   12  C   LIG     1       2.359   1.133  -0.931  1.00  0.00     0.025 C 
HETATM   13  C   LIG     1      -1.346  -1.527   0.444  1.00  0.00     0.020 C 
ENDROOT
BRANCH  12  14
HETATM   14  C   LIG     1       3.389   1.036  -2.096  1.00  0.00     0.037 C 
BRANCH  14  15
HETATM   15  C   LIG     1       4.222   2.288  -2.273  1.00  0.00    -0.010 C 
HETATM   16  C   LIG     1       5.403   2.562  -1.695  1.00  0.00     0.044 C 
HETATM   17  C   LIG     1       6.078   3.870  -1.895  1.00  0.00     0.291 C 
HETATM   18  C   LIG     1       6.202   1.798  -0.715  1.00  0.00     0.181 C 
HETATM   19  O   LIG     1       7.027   4.003  -0.924  1.00  0.00    -0.315 OA
HETATM   20  O   LIG     1       5.829   4.683  -2.759  1.00  0.00    -0.260 OA
HETATM   21  C   LIG     1       6.909   2.926   0.014  1.00  0.00     0.215 C 
BRANCH  18  22
HETATM   22  O   LIG     1       7.151   0.982  -1.396  1.00  0.00    -0.389 OA
ATOM     23  HO  LIG     1       7.665   0.491  -0.766  1.00  0.00     0.210 HD
ENDBRANCH  18  22
ENDBRANCH  14  15
ENDBRANCH  12  14
BRANCH   6  24
HETATM   24  C   LIG     1      -0.637  -0.898   2.724  1.00  0.00     0.176 C 
BRANCH  24  25
HETATM   25  O   LIG     1       0.377  -0.503   3.638  1.00  0.00    -0.400 OA
ATOM     26  HO  LIG     1       0.047  -0.331   4.512  1.00  0.00     0.209 HD
ENDBRANCH  24  25
ENDBRANCH   6  24
BRANCH   5  27
HETATM   27  O   LIG     1       1.792  -2.298   2.409  1.00  0.00    -0.395 OA
ATOM     28  HO  LIG     1       1.298  -2.152   3.207  1.00  0.00     0.210 HD
ENDBRANCH   5  27
TORSDOF 6
