REMARK  6 active torsions:
REMARK  status: ('A' for Active; 'I' for Inactive)
REMARK    1  A    between atoms: C_5  and  O_27 
REMARK    2  A    between atoms: C_6  and  C_24 
REMARK    3  A    between atoms: C_12  and  C_13 
REMARK    4  A    between atoms: C_13  and  C_14 
REMARK    5  A    between atoms: C_16  and  O_21 
REMARK    6  A    between atoms: C_24  and  O_25 
ROOT
HETATM    1  C   LIG     1       0.377  -0.255  -1.673  1.00  0.00     0.016 C 
HETATM    2  C   LIG     1       1.259  -0.082  -0.410  1.00  0.00    -0.032 C 
HETATM    3  C   LIG     1       2.252  -1.271  -0.338  1.00  0.00     0.012 C 
HETATM    4  C   LIG     1       1.567  -2.614  -0.042  1.00  0.00     0.033 C 
HETATM    5  C   LIG     1       0.740  -2.602   1.248  1.00  0.00     0.128 C 
HETATM    6  C   LIG     1      -0.288  -1.429   1.340  1.00  0.00     0.008 C 
HETATM    7  C   LIG     1       0.440  -0.078   0.963  1.00  0.00     0.007 C 
HETATM    8  C   LIG     1      -0.463   1.174   1.119  1.00  0.00     0.010 C 
HETATM    9  C   LIG     1       0.312   2.474   0.910  1.00  0.00     0.034 C 
HETATM   10  C   LIG     1       0.958   2.405  -0.445  1.00  0.00    -0.084 C 
HETATM   11  C   LIG     1       0.482   3.135  -1.467  1.00  0.00     0.015 C 
HETATM   12  C   LIG     1       2.024   1.313  -0.528  1.00  0.00     0.025 C 
HETATM   13  C   LIG     1      -1.514  -1.744   0.452  1.00  0.00     0.020 C 
ENDROOT
BRANCH  12  14
HETATM   14  C   LIG     1       3.048   1.450  -1.697  1.00  0.00     0.037 C 
BRANCH  14  15
HETATM   15  C   LIG     1       3.774   2.779  -1.744  1.00  0.00    -0.010 C 
HETATM   16  C   LIG     1       4.961   3.090  -1.192  1.00  0.00     0.044 C 
HETATM   17  C   LIG     1       5.548   4.445  -1.347  1.00  0.00     0.291 C 
HETATM   18  C   LIG     1       5.902   2.320  -0.342  1.00  0.00     0.181 C 
HETATM   19  O   LIG     1       6.589   4.570  -0.481  1.00  0.00    -0.315 OA
HETATM   20  O   LIG     1       5.176   5.309  -2.129  1.00  0.00    -0.260 OA
HETATM   21  C   LIG     1       6.624   3.436   0.384  1.00  0.00     0.215 C 
BRANCH  18  22
HETATM   22  O   LIG     1       5.270   1.429   0.558  1.00  0.00    -0.389 OA
ATOM     23  HO  LIG     1       5.873   0.936   1.102  1.00  0.00     0.210 HD
ENDBRANCH  18  22
ENDBRANCH  14  15
ENDBRANCH  12  14
BRANCH   6  24
HETATM   24  C   LIG     1      -0.860  -1.366   2.796  1.00  0.00     0.176 C 
BRANCH  24  25
HETATM   25  O   LIG     1       0.114  -1.011   3.767  1.00  0.00    -0.400 OA
ATOM     26  HO  LIG     1      -0.233  -0.973   4.650  1.00  0.00     0.209 HD
ENDBRANCH  24  25
ENDBRANCH   6  24
BRANCH   5  27
HETATM   27  O   LIG     1       1.655  -2.543   2.352  1.00  0.00    -0.395 OA
ATOM     28  HO  LIG     1       1.142  -2.536   3.152  1.00  0.00     0.210 HD
ENDBRANCH   5  27
TORSDOF 6
