REMARK  6 active torsions:
REMARK  status: ('A' for Active; 'I' for Inactive)
REMARK    1  A    between atoms: C_2  and  O_4 
REMARK    2  A    between atoms: O_4  and  C_5 
REMARK    3  A    between atoms: C_8  and  C_30 
REMARK    4  A    between atoms: C_12  and  O_27 
REMARK    5  A    between atoms: C_14  and  O_24 
REMARK    6  A    between atoms: C_19  and  O_20 
ROOT
HETATM    1  C   LIG     1       1.327   0.735  -2.575  1.00  0.00     0.168 C 
HETATM    2  C   LIG     1       2.231   1.389  -1.505  1.00  0.00     0.062 C 
HETATM    3  C   LIG     1       1.505   2.002  -0.297  1.00  0.00     0.024 C 
HETATM    4  C   LIG     1       2.473   2.552   0.797  1.00  0.00    -0.020 C 
HETATM    5  C   LIG     1       3.944   2.555   0.330  1.00  0.00     0.094 C 
HETATM    6  C   LIG     1       4.130   3.017  -1.091  1.00  0.00     0.163 C 
HETATM    7  O   LIG     1       5.014   3.834  -1.358  1.00  0.00    -0.295 OA
HETATM    8  C   LIG     1       3.287   2.315  -2.175  1.00  0.00     0.134 C 
HETATM    9  C   LIG     1       2.741   3.350  -3.271  1.00  0.00     0.027 C 
HETATM   10  C   LIG     1       3.911   3.999  -4.104  1.00  0.00     0.130 C 
HETATM   11  C   LIG     1       3.433   4.800  -5.319  1.00  0.00     0.033 C 
HETATM   12  C   LIG     1       2.569   3.966  -6.256  1.00  0.00     0.012 C 
HETATM   13  C   LIG     1       1.338   3.321  -5.572  1.00  0.00    -0.041 C 
HETATM   14  C   LIG     1       1.815   2.549  -4.278  1.00  0.00     0.039 C 
HETATM   15  C   LIG     1       0.707   1.742  -3.560  1.00  0.00     0.154 C 
HETATM   16  C   LIG     1       0.243   4.384  -5.361  1.00  0.00     0.015 C 
HETATM   17  C   LIG     1       0.747   2.313  -6.596  1.00  0.00     0.015 C 
HETATM   18  C   LIG     1       2.034   4.530  -2.557  1.00  0.00     0.022 C 
HETATM   19  C   LIG     1       2.042   3.993   1.154  1.00  0.00     0.020 C 
ENDROOT
BRANCH   1  20
HETATM   20  O   LIG     1       0.276  -0.034  -1.941  1.00  0.00    -0.313 OA
BRANCH  20  21
HETATM   21  C   LIG     1      -0.220  -1.069  -2.681  1.00  0.00     0.255 C 
HETATM   22  C   LIG     1      -1.258  -1.821  -1.887  1.00  0.00     0.126 C 
HETATM   23  O   LIG     1       0.123  -1.365  -3.808  1.00  0.00    -0.266 OA
ENDBRANCH  20  21
ENDBRANCH   1  20
BRANCH  15  24
HETATM   24  O   LIG     1      -0.216   2.591  -2.886  1.00  0.00    -0.393 OA
ATOM     25  HO  LIG     1      -0.599   3.213  -3.494  1.00  0.00     0.210 HD
ENDBRANCH  15  24
BRANCH   8  26
HETATM   26  O   LIG     1       4.179   1.358  -2.786  1.00  0.00    -0.381 OA
ATOM     27  HO  LIG     1       4.824   1.923  -3.195  1.00  0.00     0.211 HD
ENDBRANCH   8  26
BRANCH   4  28
HETATM   28  C   LIG     1       2.293   1.723   2.074  1.00  0.00    -0.027 C 
HETATM   29  C   LIG     1       3.217   1.007   2.734  1.00  0.00     0.007 C 
ENDBRANCH   4  28
BRANCH  10  30
HETATM   30  O   LIG     1       4.819   2.994  -4.571  1.00  0.00    -0.395 OA
ATOM     31  HO  LIG     1       5.524   3.385  -5.073  1.00  0.00     0.210 HD
ENDBRANCH  10  30
TORSDOF 6
