REMARK  2 active torsions:
REMARK  status: ('A' for Active; 'I' for Inactive)
REMARK    1  A    between atoms: C_5  and  C_33 
REMARK    2  A    between atoms: C_16  and  O_29 
ROOT
HETATM    1  C   LIG     1      -1.913   0.114   1.838  1.00  0.00     0.016 C 
HETATM    2  C   LIG     1      -2.427   0.209   0.380  1.00  0.00    -0.036 C 
HETATM    3  C   LIG     1      -3.028   1.619   0.151  1.00  0.00     0.011 C 
HETATM    4  C   LIG     1      -1.982   2.736   0.135  1.00  0.00     0.021 C 
HETATM    5  C   LIG     1      -0.863   2.468  -0.883  1.00  0.00     0.045 C 
HETATM    6  C   LIG     1      -0.242   1.075  -0.642  1.00  0.00     0.030 C 
HETATM    7  C   LIG     1      -1.299  -0.059  -0.657  1.00  0.00     0.025 C 
HETATM    8  C   LIG     1      -0.762  -1.506  -0.554  1.00  0.00    -0.062 C 
HETATM    9  C   LIG     1       0.558  -1.763  -0.492  1.00  0.00     0.054 C 
HETATM   10  C   LIG     1       1.127  -3.131  -0.549  1.00  0.00     0.155 C 
HETATM   11  O   LIG     1       2.336  -3.261  -0.368  1.00  0.00    -0.293 OA
HETATM   12  C   LIG     1       0.181  -4.282  -0.904  1.00  0.00     0.077 C 
HETATM   13  C   LIG     1       0.824  -5.737  -0.850  1.00  0.00    -0.028 C 
HETATM   14  C   LIG     1       1.948  -5.835  -1.932  1.00  0.00     0.013 C 
HETATM   15  C   LIG     1       2.453  -7.258  -2.193  1.00  0.00     0.033 C 
HETATM   16  C   LIG     1       1.326  -8.218  -2.569  1.00  0.00     0.126 C 
HETATM   17  C   LIG     1       0.165  -8.240  -1.531  1.00  0.00    -0.017 C 
HETATM   18  C   LIG     1      -0.304  -6.762  -1.255  1.00  0.00     0.005 C 
HETATM   19  C   LIG     1      -1.526  -6.632  -0.326  1.00  0.00     0.007 C 
HETATM   20  C   LIG     1      -2.149  -5.240  -0.460  1.00  0.00     0.011 C 
HETATM   21  C   LIG     1      -1.182  -4.064  -0.146  1.00  0.00    -0.021 C 
HETATM   22  C   LIG     1      -1.821  -2.635  -0.616  1.00  0.00    -0.012 C 
HETATM   23  C   LIG     1      -3.054  -2.274   0.277  1.00  0.00     0.015 C 
HETATM   24  C   LIG     1      -3.550  -0.832   0.151  1.00  0.00     0.011 C 
HETATM   25  C   LIG     1      -2.329  -2.690  -2.090  1.00  0.00     0.021 C 
HETATM   26  C   LIG     1      -0.958  -4.067   1.398  1.00  0.00     0.017 C 
HETATM   27  C   LIG     1      -1.008  -9.058  -2.140  1.00  0.00     0.018 C 
HETATM   28  C   LIG     1       0.605  -9.003  -0.267  1.00  0.00     0.018 C 
HETATM   29  C   LIG     1       1.458  -6.040   0.532  1.00  0.00     0.016 C 
HETATM   30  C   LIG     1       0.225   3.545  -0.749  1.00  0.00     0.027 C 
ENDROOT
BRANCH   5  31
HETATM   31  C   LIG     1      -1.345   2.663  -2.355  1.00  0.00     0.181 C 
HETATM   32  O   LIG     1      -0.759   1.955  -3.223  1.00  0.00    -0.647 OA
HETATM   33  O   LIG     1      -2.262   3.516  -2.525  1.00  0.00    -0.647 OA
ENDBRANCH   5  31
BRANCH  16  34
HETATM   34  O   LIG     1       0.816  -7.836  -3.851  1.00  0.00    -0.395 OA
ATOM     35  HO  LIG     1       0.115  -8.433  -4.085  1.00  0.00     0.210 HD
ENDBRANCH  16  34
TORSDOF 2
