REMARK  4 active torsions:
REMARK  status: ('A' for Active; 'I' for Inactive)
REMARK    1  A    between atoms: C_3  and  O_22 
REMARK    2  A    between atoms: C_6  and  C_7 
REMARK    3  A    between atoms: C_12  and  O_20 
REMARK    4  A    between atoms: C_14  and  O_18 
ROOT
HETATM    1  C   LIG     1      -2.765  -0.233  -0.206  1.00  0.00     0.048 A 
HETATM    2  C   LIG     1      -3.541   0.830  -0.460  1.00  0.00     0.159 A 
HETATM    3  O   LIG     1      -4.898   0.830  -0.641  1.00  0.00    -0.321 OA
HETATM    4  C   LIG     1      -5.550  -0.377  -0.591  1.00  0.00     0.094 A 
HETATM    5  C   LIG     1      -6.931  -0.327  -0.804  1.00  0.00     0.074 A 
HETATM    6  C   LIG     1      -7.665  -1.506  -0.774  1.00  0.00     0.071 A 
HETATM    7  C   LIG     1      -7.043  -2.726  -0.537  1.00  0.00     0.074 A 
HETATM    8  C   LIG     1      -5.662  -2.770  -0.325  1.00  0.00     0.085 A 
HETATM    9  C   LIG     1      -4.900  -1.592  -0.348  1.00  0.00     0.082 A 
HETATM   10  C   LIG     1      -3.431  -1.568  -0.125  1.00  0.00     0.200 A 
HETATM   11  O   LIG     1      -2.780  -2.576   0.120  1.00  0.00    -0.286 OA
ENDROOT
BRANCH   1  12
HETATM   12  C   LIG     1      -1.307  -0.065  -0.053  1.00  0.00    -0.020 A 
HETATM   13  C   LIG     1      -0.419  -0.844  -0.810  1.00  0.00     0.015 A 
HETATM   14  C   LIG     1       0.962  -0.678  -0.682  1.00  0.00     0.037 A 
HETATM   15  C   LIG     1       1.463   0.263   0.208  1.00  0.00     0.065 A 
HETATM   16  C   LIG     1       0.606   1.042   0.976  1.00  0.00     0.037 A 
HETATM   17  C   LIG     1      -0.777   0.876   0.846  1.00  0.00     0.015 A 
BRANCH  15  18
HETATM   18  O   LIG     1       2.817   0.392   0.302  1.00  0.00    -0.361 OA
ATOM     19  HO  LIG     1       3.160   1.036   0.911  1.00  0.00     0.217 HD
ENDBRANCH  15  18
ENDBRANCH   1  12
BRANCH   8  20
HETATM   20  O   LIG     1      -5.078  -3.983  -0.099  1.00  0.00    -0.360 OA
ATOM     21  HO  LIG     1      -4.139  -4.013   0.045  1.00  0.00     0.217 HD
ENDBRANCH   8  20
BRANCH   6  22
HETATM   22  O   LIG     1      -9.013  -1.511  -0.976  1.00  0.00    -0.361 OA
ATOM     23  HO  LIG     1      -9.515  -2.317  -0.955  1.00  0.00     0.217 HD
ENDBRANCH   6  22
TORSDOF 4
