REMARK  17 active torsions:
REMARK  status: ('A' for Active; 'I' for Inactive)
REMARK    1  A    between atoms: C_3  and  O_55 
REMARK    2  A    between atoms: C_4  and  O_53 
REMARK    3  A    between atoms: C_5  and  O_51 
REMARK    4  A    between atoms: C_6  and  O_8 
REMARK    5  A    between atoms: O_8  and  C_9 
REMARK    6  A    between atoms: C_13  and  O_49 
REMARK    7  A    between atoms: C_15  and  O_33 
REMARK    8  A    between atoms: C_16  and  C_28 
REMARK    9  A    between atoms: C_19  and  C_20 
REMARK   10  A    between atoms: C_23  and  O_26 
REMARK   11  A    between atoms: C_28  and  C_29 
REMARK   12  A    between atoms: O_33  and  C_34 
REMARK   13  A    between atoms: C_35  and  O_47 
REMARK   14  A    between atoms: C_36  and  O_45 
REMARK   15  A    between atoms: C_37  and  O_43 
REMARK   16  A    between atoms: C_38  and  C_40 
REMARK   17  A    between atoms: C_40  and  O_41 
ROOT
HETATM    1  C   LIG     1       4.269  -7.126  -9.474  1.00  0.00     0.157 A 
HETATM    2  C   LIG     1       4.849  -6.320  -8.366  1.00  0.00     0.223 A 
HETATM    3  O   LIG     1       5.064  -5.116  -8.502  1.00  0.00    -0.284 OA
HETATM    4  C   LIG     1       5.269  -7.012  -7.147  1.00  0.00     0.085 A 
HETATM    5  C   LIG     1       5.800  -6.321  -6.061  1.00  0.00     0.085 C 
HETATM    6  C   LIG     1       6.324  -7.017  -4.990  1.00  0.00     0.075 C 
HETATM    7  C   LIG     1       6.382  -8.417  -5.002  1.00  0.00     0.084 C 
HETATM    8  C   LIG     1       5.711  -9.136  -6.007  1.00  0.00     0.014 C 
HETATM    9  C   LIG     1       5.185  -8.409  -7.102  1.00  0.00     0.102 A 
HETATM   10  O   LIG     1       4.620  -9.116  -8.131  1.00  0.00    -0.305 OA
HETATM   11  C   LIG     1       4.228  -8.468  -9.293  1.00  0.00     0.123 A 
ENDROOT
BRANCH   7  12
HETATM   12  O   LIG     1       7.137  -9.106  -4.075  1.00  0.00    -0.317 OA
BRANCH  12  13
HETATM   13  C   LIG     1       8.298  -8.366  -3.647  1.00  0.00     0.298 C 
HETATM   14  O   LIG     1       7.976  -7.569  -2.491  1.00  0.00    -0.348 OA
HETATM   15  C   LIG     1       9.025  -6.639  -2.165  1.00  0.00     0.179 C 
HETATM   16  C   LIG     1      10.301  -7.421  -1.799  1.00  0.00     0.180 C 
HETATM   17  C   LIG     1      10.685  -8.329  -2.986  1.00  0.00     0.183 C 
HETATM   18  C   LIG     1       9.518  -9.266  -3.369  1.00  0.00     0.205 C 
BRANCH  15  19
HETATM   19  C   LIG     1       8.508  -5.754  -1.025  1.00  0.00     0.198 C 
BRANCH  19  20
HETATM   20  O   LIG     1       8.200  -6.540   0.125  1.00  0.00    -0.398 OA
ATOM     21  HO  LIG     1       7.880  -5.992   0.831  1.00  0.00     0.209 HD
ENDBRANCH  19  20
ENDBRANCH  15  19
BRANCH  16  22
HETATM   22  O   LIG     1      10.080  -8.263  -0.653  1.00  0.00    -0.390 OA
ATOM     23  HO  LIG     1       9.844  -7.704   0.078  1.00  0.00     0.210 HD
ENDBRANCH  16  22
BRANCH  17  24
HETATM   24  O   LIG     1      11.849  -9.088  -2.662  1.00  0.00    -0.390 OA
ATOM     25  HO  LIG     1      12.567  -8.512  -2.426  1.00  0.00     0.210 HD
ENDBRANCH  17  24
BRANCH  18  26
HETATM   26  O   LIG     1       9.271 -10.212  -2.318  1.00  0.00    -0.388 OA
ATOM     27  HO  LIG     1      10.023 -10.767  -2.147  1.00  0.00     0.210 HD
ENDBRANCH  18  26
ENDBRANCH  12  13
ENDBRANCH   7  12
BRANCH   8  28
HETATM   28  C   LIG     1       5.505 -10.640  -5.896  1.00  0.00     0.072 C 
BRANCH  28  29
HETATM   29  C   LIG     1       4.218 -10.993  -5.180  1.00  0.00    -0.020 C 
HETATM   30  C   LIG     1       3.730 -12.235  -4.975  1.00  0.00    -0.091 C 
HETATM   31  C   LIG     1       2.470 -12.460  -4.179  1.00  0.00     0.042 C 
HETATM   32  C   LIG     1       4.380 -13.494  -5.477  1.00  0.00     0.042 C 
ENDBRANCH  28  29
ENDBRANCH   8  28
BRANCH   5  33
HETATM   33  O   LIG     1       5.849  -4.957  -6.033  1.00  0.00    -0.360 OA
ATOM     34  HO  LIG     1       6.211  -4.486  -5.292  1.00  0.00     0.217 HD
ENDBRANCH   5  33
BRANCH  11  35
HETATM   35  C   LIG     1       3.773  -9.418 -10.339  1.00  0.00     0.001 A 
HETATM   36  C   LIG     1       3.133 -10.613  -9.969  1.00  0.00     0.017 A 
HETATM   37  C   LIG     1       2.780 -11.573 -10.926  1.00  0.00     0.037 A 
HETATM   38  C   LIG     1       3.057 -11.351 -12.273  1.00  0.00     0.068 A 
HETATM   39  C   LIG     1       3.684 -10.170 -12.656  1.00  0.00     0.037 A 
HETATM   40  C   LIG     1       4.041  -9.217 -11.701  1.00  0.00     0.017 A 
BRANCH  38  41
HETATM   41  O   LIG     1       2.825 -12.236 -13.288  1.00  0.00    -0.356 OA
HETATM   42  C   LIG     1       1.727 -13.116 -13.097  1.00  0.00     0.210 C 
ENDBRANCH  38  41
ENDBRANCH  11  35
BRANCH   1  43
HETATM   43  O   LIG     1       3.890  -6.538 -10.673  1.00  0.00    -0.311 OA
BRANCH  43  44
HETATM   44  C   LIG     1       3.321  -5.227 -10.605  1.00  0.00     0.298 C 
HETATM   45  C   LIG     1       2.986  -4.745 -12.028  1.00  0.00     0.205 C 
HETATM   46  C   LIG     1       2.454  -3.308 -11.929  1.00  0.00     0.183 C 
HETATM   47  C   LIG     1       1.258  -3.224 -10.968  1.00  0.00     0.178 C 
HETATM   48  C   LIG     1       1.545  -3.923  -9.625  1.00  0.00     0.152 C 
HETATM   49  C   LIG     1       2.379  -3.065  -8.677  1.00  0.00     0.042 C 
HETATM   50  O   LIG     1       2.137  -5.219  -9.804  1.00  0.00    -0.351 OA
BRANCH  45  51
HETATM   51  O   LIG     1       1.993  -5.565 -12.673  1.00  0.00    -0.388 OA
ATOM     52  HO  LIG     1       2.322  -6.454 -12.734  1.00  0.00     0.210 HD
ENDBRANCH  45  51
BRANCH  46  53
HETATM   53  O   LIG     1       2.040  -2.846 -13.226  1.00  0.00    -0.390 OA
ATOM     54  HO  LIG     1       2.779  -2.898 -13.820  1.00  0.00     0.210 HD
ENDBRANCH  46  53
BRANCH  47  55
HETATM   55  O   LIG     1       0.131  -3.868 -11.591  1.00  0.00    -0.390 OA
ATOM     56  HO  LIG     1      -0.046  -3.437 -12.419  1.00  0.00     0.210 HD
ENDBRANCH  47  55
ENDBRANCH  43  44
ENDBRANCH   1  43
TORSDOF 17
