REMARK  1 active torsions:
REMARK  status: ('A' for Active; 'I' for Inactive)
REMARK    1  A    between atoms: C_15  and  O_17 
ROOT
HETATM    1  C   LIG     1       0.897   0.147   0.038  1.00  0.00     0.070 C 
HETATM    2  C   LIG     1       0.516  -1.271  -0.294  1.00  0.00     0.028 A 
HETATM    3  N   LIG     1       1.242  -2.226   0.172  1.00  0.00    -0.391 N 
ATOM      4  HN  LIG     1       2.044  -1.996   0.759  1.00  0.00     0.159 HD
HETATM    5  C   LIG     1       0.950  -3.646  -0.116  1.00  0.00     0.124 A 
HETATM    6  C   LIG     1      -0.329  -4.000  -0.898  1.00  0.00     0.061 A 
HETATM    7  C   LIG     1      -1.066  -2.816  -1.390  1.00  0.00    -0.015 A 
HETATM    8  C   LIG     1      -0.654  -1.541  -1.083  1.00  0.00     0.062 A 
HETATM    9  N   LIG     1      -1.550  -0.672  -1.648  1.00  0.00    -0.353 N 
ATOM     10  HN  LIG     1      -1.504   0.344  -1.573  1.00  0.00     0.166 HD
HETATM   11  C   LIG     1      -2.524  -1.369  -2.333  1.00  0.00     0.046 A 
HETATM   12  C   LIG     1      -2.237  -2.728  -2.187  1.00  0.00    -0.001 A 
HETATM   13  C   LIG     1      -3.084  -3.674  -2.795  1.00  0.00     0.017 A 
HETATM   14  C   LIG     1      -4.189  -3.231  -3.530  1.00  0.00     0.037 A 
HETATM   15  C   LIG     1      -4.447  -1.872  -3.653  1.00  0.00     0.067 A 
HETATM   16  C   LIG     1      -3.629  -0.906  -3.062  1.00  0.00     0.066 A 
ENDROOT
BRANCH  15  17
HETATM   17  O   LIG     1      -5.545  -1.510  -4.382  1.00  0.00    -0.361 OA
ATOM     18  HO  LIG     1      -5.721  -0.580  -4.466  1.00  0.00     0.217 HD
ENDBRANCH  15  17
TORSDOF 1
