REMARK  3 active torsions:
REMARK  status: ('A' for Active; 'I' for Inactive)
REMARK    1  A    between atoms: C_6  and  C_12 
REMARK    2  A    between atoms: C_6  and  O_14 
REMARK    3  A    between atoms: C_7  and  C_10 
ROOT
HETATM    1  C   LIG     1      -1.507   0.137   0.628  1.00  0.00     0.034 C 
HETATM    2  C   LIG     1      -1.254  -0.969  -0.394  1.00  0.00     0.085 C 
HETATM    3  C   LIG     1      -0.051  -1.810  -0.027  1.00  0.00     0.149 C 
HETATM    4  O   LIG     1      -0.244  -2.994   0.309  1.00  0.00    -0.293 OA
HETATM    5  C   LIG     1       1.335  -1.205   0.157  1.00  0.00     0.075 C 
HETATM    6  C   LIG     1       1.865   0.014  -0.624  1.00  0.00     0.203 C 
HETATM    7  C   LIG     1       1.182   1.336  -0.200  1.00  0.00     0.271 C 
HETATM    8  O   LIG     1      -0.111   1.456  -0.838  1.00  0.00    -0.371 OA
HETATM    9  C   LIG     1      -1.201   1.517   0.061  1.00  0.00     0.169 C 
ENDROOT
BRANCH   6  10
HETATM   10  C   LIG     1       1.822  -0.244  -2.172  1.00  0.00     0.216 C 
HETATM   11  O   LIG     1       2.597   0.455  -2.888  1.00  0.00    -0.645 OA
HETATM   12  O   LIG     1       1.070  -1.196  -2.556  1.00  0.00    -0.645 OA
ENDBRANCH   6  10
BRANCH   6  13
HETATM   13  O   LIG     1       3.271   0.071  -0.193  1.00  0.00    -0.372 OA
ATOM     14  HO  LIG     1       3.598   0.822  -0.674  1.00  0.00     0.211 HD
ENDBRANCH   6  13
BRANCH   7  15
HETATM   15  C   LIG     1       1.936   2.710  -0.311  1.00  0.00     0.207 C 
HETATM   16  O   LIG     1       1.228   3.740  -0.055  1.00  0.00    -0.646 OA
HETATM   17  O   LIG     1       3.194   2.662  -0.467  1.00  0.00    -0.646 OA
ENDBRANCH   7  15
TORSDOF 3
