REMARK  4 active torsions:
REMARK  status: ('A' for Active; 'I' for Inactive)
REMARK    1  A    between atoms: C_3  and  O_14 
REMARK    2  A    between atoms: C_4  and  O_12 
REMARK    3  A    between atoms: C_6  and  C_7 
REMARK    4  A    between atoms: C_8  and  C_9 
ROOT
HETATM    1  C   LIG     1      -1.277  -0.025  -0.041  1.00  0.00     0.014 A 
HETATM    2  C   LIG     1      -0.709   1.253  -0.032  1.00  0.00     0.040 A 
HETATM    3  C   LIG     1       0.676   1.391  -0.050  1.00  0.00     0.098 A 
HETATM    4  C   LIG     1       1.490   0.260  -0.074  1.00  0.00     0.099 A 
HETATM    5  C   LIG     1       0.923  -1.017  -0.085  1.00  0.00     0.050 A 
HETATM    6  C   LIG     1      -0.470  -1.172  -0.081  1.00  0.00    -0.033 A 
ENDROOT
BRANCH   6   7
HETATM    7  C   LIG     1      -1.114  -2.492  -0.059  1.00  0.00     0.018 C 
HETATM    8  C   LIG     1      -0.618  -3.601  -0.630  1.00  0.00     0.085 C 
BRANCH   8   9
HETATM    9  C   LIG     1      -1.348  -4.946  -0.583  1.00  0.00     0.198 C 
HETATM   10  O   LIG     1      -2.460  -4.963   0.012  1.00  0.00    -0.645 OA
HETATM   11  O   LIG     1      -0.722  -5.881  -1.160  1.00  0.00    -0.645 OA
ENDBRANCH   8   9
ENDBRANCH   6   7
BRANCH   4  12
HETATM   12  O   LIG     1       2.851   0.407  -0.080  1.00  0.00    -0.358 OA
ATOM     13  HO  LIG     1       3.406  -0.364  -0.096  1.00  0.00     0.217 HD
ENDBRANCH   4  12
BRANCH   3  14
HETATM   14  O   LIG     1       1.247   2.634  -0.040  1.00  0.00    -0.358 OA
ATOM     15  HO  LIG     1       2.192   2.728  -0.052  1.00  0.00     0.217 HD
ENDBRANCH   3  14
TORSDOF 4
