REMARK  1 active torsions:
REMARK  status: ('A' for Active; 'I' for Inactive)
REMARK    1  A    between atoms: C_11  and  O_15 
ROOT
HETATM    1  C   LIG     1      -3.345   0.617   0.194  1.00  0.00     0.001 A 
HETATM    2  C   LIG     1      -3.281  -0.774   0.180  1.00  0.00     0.002 A 
HETATM    3  C   LIG     1      -2.054  -1.418   0.006  1.00  0.00     0.030 A 
HETATM    4  C   LIG     1      -0.878  -0.673  -0.128  1.00  0.00     0.041 A 
HETATM    5  C   LIG     1      -0.943   0.730  -0.098  1.00  0.00    -0.014 A 
HETATM    6  C   LIG     1      -2.182   1.371   0.044  1.00  0.00     0.011 A 
HETATM    7  C   LIG     1       0.310   1.543  -0.260  1.00  0.00     0.165 C 
HETATM    8  N   LIG     1       1.478   0.694  -0.076  1.00  0.00    -0.364 N 
HETATM    9  C   LIG     1       2.833   1.190   0.155  1.00  0.00     0.127 C 
HETATM   10  C   LIG     1       3.649  -0.083   0.408  1.00  0.00     0.059 C 
HETATM   11  C   LIG     1       2.771  -1.224  -0.110  1.00  0.00     0.187 C 
HETATM   12  C   LIG     1       1.418  -0.615  -0.137  1.00  0.00     0.109 C 
HETATM   13  N   LIG     1       0.312  -1.322  -0.234  1.00  0.00    -0.343 N 
ATOM     14  HN  LIG     1       0.347  -2.330  -0.385  1.00  0.00     0.167 HD
ENDROOT
BRANCH  11  15
HETATM   15  O   LIG     1       3.154  -1.635  -1.419  1.00  0.00    -0.388 OA
ATOM     16  HO  LIG     1       2.609  -2.343  -1.741  1.00  0.00     0.210 HD
ENDBRANCH  11  15
TORSDOF 1
