REMARK  18 active torsions:
REMARK  status: ('A' for Active; 'I' for Inactive)
REMARK    1  A    between atoms: C_3  and  O_49 
REMARK    2  A    between atoms: C_4  and  O_47 
REMARK    3  A    between atoms: C_5  and  O_45 
REMARK    4  A    between atoms: C_6  and  O_8 
REMARK    5  A    between atoms: O_8  and  C_9 
REMARK    6  A    between atoms: C_10  and  O_43 
REMARK    7  A    between atoms: C_11  and  O_41 
REMARK    8  A    between atoms: C_12  and  C_38 
REMARK    9  A    between atoms: C_14  and  O_15 
REMARK   10  A    between atoms: O_15  and  C_16 
REMARK   11  A    between atoms: C_18  and  O_36 
REMARK   12  A    between atoms: C_19  and  C_24 
REMARK   13  A    between atoms: C_20  and  O_22 
REMARK   14  A    between atoms: C_24  and  C_26 
REMARK   15  A    between atoms: C_26  and  C_27 
REMARK   16  A    between atoms: C_27  and  C_28 
REMARK   17  A    between atoms: C_31  and  O_34 
REMARK   18  A    between atoms: C_38  and  O_39 
ROOT
HETATM    1  C   LIG     1       3.485   3.169  -1.037  1.00  0.00     0.211 C 
HETATM    2  C   LIG     1       4.950   2.774  -1.212  1.00  0.00     0.183 C 
HETATM    3  C   LIG     1       5.339   2.785  -2.700  1.00  0.00     0.180 C 
HETATM    4  C   LIG     1       4.313   2.055  -3.616  1.00  0.00     0.179 C 
HETATM    5  O   LIG     1       2.942   2.313  -3.253  1.00  0.00    -0.348 OA
HETATM    6  C   LIG     1       2.678   2.058  -1.873  1.00  0.00     0.298 C 
ENDROOT
BRANCH   6   7
HETATM    7  O   LIG     1       1.251   1.742  -1.672  1.00  0.00    -0.318 OA
BRANCH   7   8
HETATM    8  C   LIG     1       0.294   2.671  -1.458  1.00  0.00     0.077 C 
HETATM    9  C   LIG     1       0.544   3.784  -0.730  1.00  0.00     0.074 C 
HETATM   10  C   LIG     1      -0.520   4.694  -0.311  1.00  0.00     0.085 C 
HETATM   11  C   LIG     1      -1.639   4.872  -0.814  1.00  0.00     0.076 C 
HETATM   12  C   LIG     1      -1.968   3.594  -1.170  1.00  0.00     0.085 C 
HETATM   13  C   LIG     1      -1.035   2.519  -1.478  1.00  0.00     0.074 C 
BRANCH  10  14
HETATM   14  O   LIG     1      -0.481   5.204   0.981  1.00  0.00    -0.360 OA
ATOM     15  HO  LIG     1       0.377   5.068   1.366  1.00  0.00     0.217 HD
ENDBRANCH  10  14
BRANCH  11  16
HETATM   16  C   LIG     1      -2.334   6.214  -0.615  1.00  0.00     0.165 C 
HETATM   17  O   LIG     1      -1.939   7.107   0.172  1.00  0.00    -0.292 OA
BRANCH  16  18
HETATM   18  C   LIG     1      -3.450   6.652  -1.518  1.00  0.00     0.088 C 
BRANCH  18  19
HETATM   19  C   LIG     1      -3.724   5.720  -2.682  1.00  0.00     0.046 C 
BRANCH  19  20
HETATM   20  C   LIG     1      -2.637   5.456  -3.709  1.00  0.00    -0.058 C 
HETATM   21  C   LIG     1      -2.017   6.497  -4.404  1.00  0.00     0.010 C 
HETATM   22  C   LIG     1      -1.304   6.227  -5.581  1.00  0.00     0.037 C 
HETATM   23  C   LIG     1      -1.203   4.923  -6.055  1.00  0.00     0.065 C 
HETATM   24  C   LIG     1      -1.687   3.867  -5.308  1.00  0.00     0.037 C 
HETATM   25  C   LIG     1      -2.387   4.140  -4.139  1.00  0.00     0.010 C 
BRANCH  23  26
HETATM   26  O   LIG     1      -0.682   4.707  -7.296  1.00  0.00    -0.361 OA
ATOM     27  HO  LIG     1      -0.349   5.433  -7.810  1.00  0.00     0.217 HD
ENDBRANCH  23  26
ENDBRANCH  19  20
ENDBRANCH  18  19
ENDBRANCH  16  18
ENDBRANCH  11  16
BRANCH  12  28
HETATM   28  O   LIG     1      -3.295   3.220  -0.958  1.00  0.00    -0.360 OA
ATOM     29  HO  LIG     1      -3.904   3.921  -0.757  1.00  0.00     0.217 HD
ENDBRANCH  12  28
ENDBRANCH   7   8
ENDBRANCH   6   7
BRANCH   1  30
HETATM   30  O   LIG     1       3.224   4.544  -1.533  1.00  0.00    -0.346 OA
BRANCH  30  31
HETATM   31  C   LIG     1       3.691   5.726  -0.767  1.00  0.00     0.292 C 
HETATM   32  C   LIG     1       3.199   7.142  -1.396  1.00  0.00     0.204 C 
HETATM   33  C   LIG     1       1.793   7.678  -1.050  1.00  0.00     0.183 C 
HETATM   34  C   LIG     1       1.487   7.098   0.294  1.00  0.00     0.178 C 
HETATM   35  C   LIG     1       2.511   6.604   1.342  1.00  0.00     0.152 C 
HETATM   36  C   LIG     1       1.843   5.731   2.517  1.00  0.00     0.042 C 
HETATM   37  O   LIG     1       3.440   5.636   0.688  1.00  0.00    -0.351 OA
BRANCH  32  38
HETATM   38  O   LIG     1       3.398   7.240  -2.802  1.00  0.00    -0.388 OA
ATOM     39  HO  LIG     1       4.263   6.910  -3.015  1.00  0.00     0.210 HD
ENDBRANCH  32  38
BRANCH  33  40
HETATM   40  O   LIG     1       0.841   7.328  -2.126  1.00  0.00    -0.390 OA
ATOM     41  HO  LIG     1       1.035   7.696  -2.980  1.00  0.00     0.210 HD
ENDBRANCH  33  40
BRANCH  34  42
HETATM   42  O   LIG     1       1.336   5.860  -0.295  1.00  0.00    -0.390 OA
ATOM     43  HO  LIG     1       0.707   6.164  -0.939  1.00  0.00     0.210 HD
ENDBRANCH  34  42
ENDBRANCH  30  31
ENDBRANCH   1  30
BRANCH   2  44
HETATM   44  O   LIG     1       5.797   3.627  -0.439  1.00  0.00    -0.390 OA
ATOM     45  HO  LIG     1       6.708   3.381  -0.548  1.00  0.00     0.210 HD
ENDBRANCH   2  44
BRANCH   4  46
HETATM   46  C   LIG     1       4.455   2.474  -5.088  1.00  0.00     0.198 C 
BRANCH  46  47
HETATM   47  O   LIG     1       3.562   1.712  -5.903  1.00  0.00    -0.398 OA
ATOM     48  HO  LIG     1       3.650   1.971  -6.813  1.00  0.00     0.209 HD
ENDBRANCH  46  47
ENDBRANCH   4  46
BRANCH   3  49
HETATM   49  O   LIG     1       5.523   4.154  -3.094  1.00  0.00    -0.390 OA
ATOM     50  HO  LIG     1       5.763   4.161  -4.013  1.00  0.00     0.210 HD
ENDBRANCH   3  49
TORSDOF 18
