REMARK  5 active torsions:
REMARK  status: ('A' for Active; 'I' for Inactive)
REMARK    1  A    between atoms: N_2  and  C_4 
REMARK    2  A    between atoms: C_4  and  C_5 
REMARK    3  A    between atoms: C_5  and  C_6 
REMARK    4  A    between atoms: C_5  and  O_14 
REMARK    5  A    between atoms: C_9  and  O_12 
ROOT
HETATM    1  C   LIG     1       0.832   3.739  -3.195  1.00  0.00    -0.028 A 
HETATM    2  C   LIG     1       0.727   3.087  -4.440  1.00  0.00     0.012 A 
HETATM    3  C   LIG     1       1.179   3.707  -5.605  1.00  0.00     0.037 A 
HETATM    4  C   LIG     1       1.746   4.968  -5.540  1.00  0.00     0.065 A 
HETATM    5  C   LIG     1       1.877   5.630  -4.322  1.00  0.00     0.037 A 
HETATM    6  C   LIG     1       1.416   5.013  -3.153  1.00  0.00     0.012 A 
ENDROOT
BRANCH   1   7
HETATM    7  C   LIG     1       0.314   3.099  -1.921  1.00  0.00     0.168 C 
BRANCH   7   8
HETATM    8  C   LIG     1      -1.126   3.541  -1.568  1.00  0.00     0.149 C 
BRANCH   8   9
HETATM    9  N   LIG     1      -2.091   3.133  -2.653  1.00  0.00    -0.423 N 
HETATM   10  C   LIG     1      -3.511   3.451  -2.374  1.00  0.00     0.139 C 
ATOM     11  HN  LIG     1      -1.789   2.674  -3.512  1.00  0.00     0.152 HD
ENDBRANCH   8   9
ENDBRANCH   7   8
BRANCH   7  12
HETATM   12  O   LIG     1       0.314   1.675  -2.055  1.00  0.00    -0.389 OA
ATOM     13  HO  LIG     1       1.198   1.404  -2.272  1.00  0.00     0.210 HD
ENDBRANCH   7  12
ENDBRANCH   1   7
BRANCH   4  14
HETATM   14  O   LIG     1       2.169   5.530  -6.706  1.00  0.00    -0.361 OA
ATOM     15  HO  LIG     1       2.558   6.395  -6.661  1.00  0.00     0.217 HD
ENDBRANCH   4  14
TORSDOF 5
