REMARK  8 active torsions:
REMARK  status: ('A' for Active; 'I' for Inactive)
REMARK    1  A    between atoms: C_13  and  O_33 
REMARK    2  A    between atoms: C_14  and  C_18 
REMARK    3  A    between atoms: C_15  and  O_16 
REMARK    4  A    between atoms: C_19  and  O_31 
REMARK    5  A    between atoms: C_20  and  O_29 
REMARK    6  A    between atoms: C_21  and  O_27 
REMARK    7  A    between atoms: C_22  and  C_24 
REMARK    8  A    between atoms: C_24  and  O_25 
ROOT
HETATM    1  C   LIG     1      -3.782   0.150   0.474  1.00  0.00     0.001 A 
HETATM    2  C   LIG     1      -3.471  -1.178   0.181  1.00  0.00     0.003 A 
HETATM    3  C   LIG     1      -2.141  -1.603   0.185  1.00  0.00     0.038 A 
HETATM    4  C   LIG     1      -1.119  -0.704   0.490  1.00  0.00     0.083 A 
HETATM    5  C   LIG     1      -1.429   0.622   0.766  1.00  0.00     0.044 A 
HETATM    6  C   LIG     1      -2.760   1.054   0.765  1.00  0.00     0.018 A 
HETATM    7  C   LIG     1      -0.339   1.587   0.976  1.00  0.00     0.175 C 
HETATM    8  O   LIG     1      -0.580   2.788   1.099  1.00  0.00    -0.291 OA
HETATM    9  C   LIG     1       1.085   1.085   0.892  1.00  0.00     0.151 C 
HETATM   10  C   LIG     1       1.125  -0.428   1.152  1.00  0.00     0.172 C 
HETATM   11  O   LIG     1       0.151  -1.196   0.440  1.00  0.00    -0.340 OA
HETATM   12  C   LIG     1       2.458  -0.978   0.732  1.00  0.00     0.043 C 
HETATM   13  C   LIG     1       3.138  -0.423  -0.283  1.00  0.00     0.075 C 
HETATM   14  C   LIG     1       2.594   0.688  -1.079  1.00  0.00     0.036 C 
HETATM   15  C   LIG     1       1.702   1.490  -0.441  1.00  0.00     0.069 C 
ENDROOT
BRANCH  14  16
HETATM   16  C   LIG     1       3.178   0.898  -2.500  1.00  0.00     0.191 C 
HETATM   17  O   LIG     1       2.599   2.029  -3.193  1.00  0.00    -0.368 OA
HETATM   18  C   LIG     1       1.267   1.801  -3.704  1.00  0.00     0.177 C 
HETATM   19  C   LIG     1       1.256   0.668  -4.736  1.00  0.00     0.180 C 
HETATM   20  C   LIG     1       1.816  -0.601  -4.088  1.00  0.00     0.181 C 
HETATM   21  C   LIG     1       3.207  -0.317  -3.498  1.00  0.00     0.183 C 
BRANCH  18  22
HETATM   22  C   LIG     1       0.780   3.130  -4.289  1.00  0.00     0.198 C 
BRANCH  22  23
HETATM   23  O   LIG     1       1.650   3.554  -5.341  1.00  0.00    -0.398 OA
ATOM     24  HO  LIG     1       1.348   4.378  -5.704  1.00  0.00     0.209 HD
ENDBRANCH  22  23
ENDBRANCH  18  22
BRANCH  19  25
HETATM   25  O   LIG     1       2.063   0.963  -5.893  1.00  0.00    -0.390 OA
ATOM     26  HO  LIG     1       1.716   1.750  -6.295  1.00  0.00     0.210 HD
ENDBRANCH  19  25
BRANCH  20  27
HETATM   27  O   LIG     1       1.880  -1.622  -5.099  1.00  0.00    -0.390 OA
ATOM     28  HO  LIG     1       1.020  -1.797  -5.464  1.00  0.00     0.210 HD
ENDBRANCH  20  27
BRANCH  21  29
HETATM   29  O   LIG     1       3.767  -1.525  -2.977  1.00  0.00    -0.390 OA
ATOM     30  HO  LIG     1       3.785  -2.259  -3.580  1.00  0.00     0.210 HD
ENDBRANCH  21  29
ENDBRANCH  14  16
BRANCH  13  31
HETATM   31  O   LIG     1       4.419  -0.818  -0.596  1.00  0.00    -0.360 OA
ATOM     32  HO  LIG     1       4.900  -0.425  -1.315  1.00  0.00     0.217 HD
ENDBRANCH  13  31
BRANCH  15  33
HETATM   33  O   LIG     1       1.326   2.725  -0.942  1.00  0.00    -0.363 OA
ATOM     34  HO  LIG     1       1.711   2.978  -1.773  1.00  0.00     0.217 HD
ENDBRANCH  15  33
TORSDOF 8
