REMARK  1 active torsions:
REMARK  status: ('A' for Active; 'I' for Inactive)
REMARK    1  A    between atoms: C_18  and  N_25 
ROOT
HETATM    1  C   LIG     1      -1.139   0.671   3.870  1.00  0.00     0.043 C 
HETATM    2  C   LIG     1       0.313   0.215   3.808  1.00  0.00     0.223 C 
HETATM    3  C   LIG     1       0.479  -1.310   3.887  1.00  0.00     0.029 C 
HETATM    4  C   LIG     1       1.735  -1.747   4.683  1.00  0.00     0.008 C 
HETATM    5  C   LIG     1       2.505  -2.747   3.808  1.00  0.00     0.006 C 
HETATM    6  C   LIG     1       1.529  -3.110   2.693  1.00  0.00     0.001 C 
HETATM    7  C   LIG     1       0.752  -1.801   2.460  1.00  0.00    -0.004 C 
HETATM    8  C   LIG     1      -0.480  -2.111   1.604  1.00  0.00     0.012 C 
HETATM    9  C   LIG     1      -0.112  -2.829   0.292  1.00  0.00     0.007 C 
HETATM   10  C   LIG     1       0.937  -3.977   0.380  1.00  0.00     0.003 C 
HETATM   11  C   LIG     1       2.090  -3.642   1.370  1.00  0.00    -0.001 C 
HETATM   12  C   LIG     1       3.111  -4.779   1.501  1.00  0.00     0.033 C 
HETATM   13  C   LIG     1       2.565  -6.162   1.390  1.00  0.00    -0.023 C 
HETATM   14  C   LIG     1       1.345  -6.480   0.930  1.00  0.00    -0.073 C 
HETATM   15  C   LIG     1       0.319  -5.439   0.490  1.00  0.00    -0.017 C 
HETATM   16  C   LIG     1      -0.892  -5.560   1.464  1.00  0.00     0.016 C 
HETATM   17  C   LIG     1      -1.032  -6.910   2.209  1.00  0.00     0.037 C 
HETATM   18  C   LIG     1      -0.553  -8.107   1.380  1.00  0.00     0.226 C 
HETATM   19  C   LIG     1       0.901  -7.933   0.895  1.00  0.00     0.070 C 
HETATM   20  C   LIG     1      -0.166  -5.794  -0.950  1.00  0.00     0.020 C 
HETATM   21  C   LIG     1       1.561  -0.626   1.873  1.00  0.00     0.282 C 
HETATM   22  C   LIG     1       1.772   1.809   2.479  1.00  0.00     0.310 C 
HETATM   23  N   LIG     1       0.888   0.598   2.449  1.00  0.00     0.089 N 
ENDROOT
BRANCH  18  24
HETATM   24  N   LIG     1      -0.781  -9.419   2.134  1.00  0.00     0.084 N 
HETATM   25  C   LIG     1      -0.682 -10.625   1.227  1.00  0.00     0.309 C 
HETATM   26  C   LIG     1       0.019  -9.630   3.393  1.00  0.00     0.309 C 
ENDBRANCH  18  24
TORSDOF 1
