REMARK  0 active torsions:
REMARK  status: ('A' for Active; 'I' for Inactive)
ROOT
HETATM    1  C   LIG     1      -1.303   1.013  -1.297  1.00  0.00     0.010 C 
HETATM    2  C   LIG     1      -0.066   1.906  -0.942  1.00  0.00     0.021 C 
HETATM    3  C   LIG     1       1.112   1.836  -1.975  1.00  0.00     0.072 C 
HETATM    4  C   LIG     1       2.514   1.248  -1.646  1.00  0.00     0.044 C 
HETATM    5  C   LIG     1       3.335   1.864  -0.518  1.00  0.00     0.011 C 
HETATM    6  C   LIG     1       2.978   1.359   0.872  1.00  0.00     0.037 C 
HETATM    7  C   LIG     1       2.735  -0.152   0.973  1.00  0.00     0.312 C 
HETATM    8  N   LIG     1       1.948  -0.752  -0.183  1.00  0.00     0.019 N 
HETATM    9  O   LIG     1       0.797  -0.394  -0.061  1.00  0.00    -0.064 OA
HETATM   10  C   LIG     1       2.531  -0.272  -1.515  1.00  0.00     0.265 C 
HETATM   11  C   LIG     1       1.976  -0.904  -2.794  1.00  0.00     0.039 C 
HETATM   12  C   LIG     1       1.786  -2.422  -2.638  1.00  0.00     0.010 C 
HETATM   13  C   LIG     1       1.155  -2.834  -1.308  1.00  0.00     0.037 C 
HETATM   14  C   LIG     1       1.927  -2.258  -0.121  1.00  0.00     0.312 C 
HETATM   15  C   LIG     1       0.717  -0.226  -3.341  1.00  0.00     0.106 C 
HETATM   16  N   LIG     1       0.621   1.245  -3.229  1.00  0.00    -0.248 NA
HETATM   17  C   LIG     1      -0.641   1.850  -3.535  1.00  0.00     0.200 C 
HETATM   18  O   LIG     1      -0.776   2.954  -4.031  1.00  0.00    -0.280 OA
HETATM   19  C   LIG     1      -1.742   1.118  -2.775  1.00  0.00     0.097 C 
ENDROOT
TORSDOF 0
