REMARK  6 active torsions:
REMARK  status: ('A' for Active; 'I' for Inactive)
REMARK    1  A    between atoms: C_14  and  C_17 
REMARK    2  A    between atoms: C_18  and  O_30 
REMARK    3  A    between atoms: C_19  and  O_28 
REMARK    4  A    between atoms: C_20  and  O_26 
REMARK    5  A    between atoms: C_21  and  C_23 
REMARK    6  A    between atoms: C_23  and  O_24 
ROOT
HETATM    1  C   LIG     1      -3.916  -0.921   0.471  1.00  0.00     0.001 A 
HETATM    2  C   LIG     1      -3.662  -2.243   0.839  1.00  0.00     0.003 A 
HETATM    3  C   LIG     1      -2.358  -2.741   0.806  1.00  0.00     0.038 A 
HETATM    4  C   LIG     1      -1.305  -1.917   0.410  1.00  0.00     0.083 A 
HETATM    5  C   LIG     1      -1.566  -0.603   0.020  1.00  0.00     0.044 A 
HETATM    6  C   LIG     1      -2.869  -0.097   0.059  1.00  0.00     0.018 A 
HETATM    7  C   LIG     1      -0.445   0.236  -0.442  1.00  0.00     0.176 C 
HETATM    8  O   LIG     1      -0.597   1.436  -0.631  1.00  0.00    -0.291 OA
HETATM    9  C   LIG     1       0.849  -0.484  -0.687  1.00  0.00     0.161 C 
HETATM   10  C   LIG     1       1.036  -1.558   0.374  1.00  0.00     0.154 C 
HETATM   11  O   LIG     1      -0.059  -2.478   0.433  1.00  0.00    -0.343 OA
HETATM   12  C   LIG     1       1.326  -0.973   1.755  1.00  0.00     0.113 C 
HETATM   13  C   LIG     1       2.586  -0.156   1.675  1.00  0.00     0.143 C 
HETATM   14  C   LIG     1       2.706   0.873   0.574  1.00  0.00     0.157 C 
HETATM   15  C   LIG     1       2.081   0.392  -0.729  1.00  0.00     0.154 C 
HETATM   16  O   LIG     1       2.590   0.702  -1.810  1.00  0.00    -0.296 OA
HETATM   17  O   LIG     1       3.465  -0.266   2.529  1.00  0.00    -0.297 OA
ENDROOT
BRANCH  14  18
HETATM   18  C   LIG     1       2.157   2.243   1.005  1.00  0.00     0.172 C 
HETATM   19  O   LIG     1       2.274   3.209  -0.064  1.00  0.00    -0.372 OA
HETATM   20  C   LIG     1       3.614   3.664  -0.347  1.00  0.00     0.176 C 
HETATM   21  C   LIG     1       4.205   4.355   0.895  1.00  0.00     0.180 C 
HETATM   22  C   LIG     1       4.197   3.354   2.060  1.00  0.00     0.180 C 
HETATM   23  C   LIG     1       2.775   2.818   2.304  1.00  0.00     0.179 C 
BRANCH  20  24
HETATM   24  C   LIG     1       3.531   4.605  -1.555  1.00  0.00     0.198 C 
BRANCH  24  25
HETATM   25  O   LIG     1       2.691   5.723  -1.256  1.00  0.00    -0.398 OA
ATOM     26  HO  LIG     1       2.640   6.306  -2.004  1.00  0.00     0.209 HD
ENDBRANCH  24  25
ENDBRANCH  20  24
BRANCH  21  27
HETATM   27  O   LIG     1       3.416   5.499   1.287  1.00  0.00    -0.390 OA
ATOM     28  HO  LIG     1       3.421   6.118   0.566  1.00  0.00     0.210 HD
ENDBRANCH  21  27
BRANCH  22  29
HETATM   29  O   LIG     1       4.689   3.989   3.243  1.00  0.00    -0.390 OA
ATOM     30  HO  LIG     1       5.567   4.320   3.092  1.00  0.00     0.210 HD
ENDBRANCH  22  29
BRANCH  23  31
HETATM   31  O   LIG     1       1.926   3.881   2.781  1.00  0.00    -0.390 OA
ATOM     32  HO  LIG     1       2.305   4.234   3.578  1.00  0.00     0.210 HD
ENDBRANCH  23  31
ENDBRANCH  14  18
TORSDOF 6
