REMARK  17 active torsions:
REMARK  status: ('A' for Active; 'I' for Inactive)
REMARK    1  A    between atoms: C_3  and  O_55 
REMARK    2  A    between atoms: C_4  and  O_53 
REMARK    3  A    between atoms: C_5  and  O_51 
REMARK    4  A    between atoms: C_6  and  O_8 
REMARK    5  A    between atoms: O_8  and  C_9 
REMARK    6  A    between atoms: C_13  and  O_49 
REMARK    7  A    between atoms: C_15  and  O_33 
REMARK    8  A    between atoms: C_16  and  C_28 
REMARK    9  A    between atoms: C_19  and  C_20 
REMARK   10  A    between atoms: C_23  and  O_26 
REMARK   11  A    between atoms: C_28  and  C_29 
REMARK   12  A    between atoms: O_33  and  C_34 
REMARK   13  A    between atoms: C_35  and  O_47 
REMARK   14  A    between atoms: C_36  and  O_45 
REMARK   15  A    between atoms: C_37  and  O_43 
REMARK   16  A    between atoms: C_38  and  C_40 
REMARK   17  A    between atoms: C_40  and  O_41 
ROOT
HETATM    1  C   LIG     1       4.596  -6.826  -9.472  1.00  0.00     0.157 C 
HETATM    2  C   LIG     1       5.241  -6.028  -8.373  1.00  0.00     0.223 C 
HETATM    3  O   LIG     1       5.561  -4.866  -8.547  1.00  0.00    -0.284 OA
HETATM    4  C   LIG     1       5.591  -6.758  -7.121  1.00  0.00     0.085 C 
HETATM    5  C   LIG     1       6.113  -6.121  -5.989  1.00  0.00     0.085 C 
HETATM    6  C   LIG     1       6.629  -6.874  -4.932  1.00  0.00     0.075 C 
HETATM    7  C   LIG     1       6.574  -8.265  -4.991  1.00  0.00     0.084 C 
HETATM    8  C   LIG     1       5.883  -8.925  -6.017  1.00  0.00     0.014 C 
HETATM    9  C   LIG     1       5.460  -8.148  -7.112  1.00  0.00     0.102 C 
HETATM   10  O   LIG     1       4.988  -8.839  -8.192  1.00  0.00    -0.305 OA
HETATM   11  C   LIG     1       4.580  -8.160  -9.317  1.00  0.00     0.123 C 
ENDROOT
BRANCH   7  12
HETATM   12  O   LIG     1       7.271  -8.977  -4.044  1.00  0.00    -0.317 OA
BRANCH  12  13
HETATM   13  C   LIG     1       8.580  -9.297  -4.566  1.00  0.00     0.298 C 
HETATM   14  O   LIG     1       9.533  -8.262  -4.243  1.00  0.00    -0.348 OA
HETATM   15  C   LIG     1      10.812  -8.504  -4.867  1.00  0.00     0.179 C 
HETATM   16  C   LIG     1      11.413  -9.824  -4.339  1.00  0.00     0.180 C 
HETATM   17  C   LIG     1      10.429 -10.969  -4.632  1.00  0.00     0.183 C 
HETATM   18  C   LIG     1       9.049 -10.666  -4.021  1.00  0.00     0.205 C 
BRANCH  15  19
HETATM   19  C   LIG     1      11.717  -7.297  -4.588  1.00  0.00     0.198 C 
BRANCH  19  20
HETATM   20  O   LIG     1      11.942  -7.140  -3.188  1.00  0.00    -0.398 OA
ATOM     21  HO  LIG     1      12.502  -6.393  -3.015  1.00  0.00     0.209 HD
ENDBRANCH  19  20
ENDBRANCH  15  19
BRANCH  16  22
HETATM   22  O   LIG     1      11.615  -9.768  -2.913  1.00  0.00    -0.390 OA
ATOM     23  HO  LIG     1      12.223  -9.061  -2.732  1.00  0.00     0.210 HD
ENDBRANCH  16  22
BRANCH  17  24
HETATM   24  O   LIG     1      10.941 -12.198  -4.114  1.00  0.00    -0.390 OA
ATOM     25  HO  LIG     1      11.793 -12.385  -4.491  1.00  0.00     0.210 HD
ENDBRANCH  17  24
BRANCH  18  26
HETATM   26  O   LIG     1       9.133 -10.677  -2.584  1.00  0.00    -0.388 OA
ATOM     27  HO  LIG     1       9.421 -11.518  -2.249  1.00  0.00     0.210 HD
ENDBRANCH  18  26
ENDBRANCH  12  13
ENDBRANCH   7  12
BRANCH   8  28
HETATM   28  C   LIG     1       5.638 -10.423  -5.969  1.00  0.00     0.072 C 
BRANCH  28  29
HETATM   29  C   LIG     1       4.703 -10.851  -4.862  1.00  0.00    -0.020 C 
HETATM   30  C   LIG     1       3.841 -11.889  -4.895  1.00  0.00    -0.091 C 
HETATM   31  C   LIG     1       3.050 -12.286  -3.676  1.00  0.00     0.042 C 
HETATM   32  C   LIG     1       3.623 -12.761  -6.100  1.00  0.00     0.042 C 
ENDBRANCH  28  29
ENDBRANCH   8  28
BRANCH   5  33
HETATM   33  O   LIG     1       6.152  -4.759  -5.897  1.00  0.00    -0.360 OA
ATOM     34  HO  LIG     1       6.506  -4.327  -5.129  1.00  0.00     0.217 HD
ENDBRANCH   5  33
BRANCH  11  35
HETATM   35  C   LIG     1       4.103  -9.110 -10.333  1.00  0.00     0.001 A 
HETATM   36  C   LIG     1       2.750  -9.452 -10.366  1.00  0.00     0.017 A 
HETATM   37  C   LIG     1       2.306 -10.504 -11.172  1.00  0.00     0.037 A 
HETATM   38  C   LIG     1       3.208 -11.215 -11.965  1.00  0.00     0.068 A 
HETATM   39  C   LIG     1       4.559 -10.863 -11.949  1.00  0.00     0.037 A 
HETATM   40  C   LIG     1       5.008  -9.813 -11.140  1.00  0.00     0.017 A 
BRANCH  38  41
HETATM   41  O   LIG     1       2.889 -12.297 -12.740  1.00  0.00    -0.356 OA
HETATM   42  C   LIG     1       1.532 -12.374 -13.166  1.00  0.00     0.210 C 
ENDBRANCH  38  41
ENDBRANCH  11  35
BRANCH   1  43
HETATM   43  O   LIG     1       4.151  -6.242 -10.651  1.00  0.00    -0.311 OA
BRANCH  43  44
HETATM   44  C   LIG     1       3.536  -4.946 -10.555  1.00  0.00     0.298 C 
HETATM   45  C   LIG     1       3.075  -4.565 -11.979  1.00  0.00     0.205 C 
HETATM   46  C   LIG     1       2.398  -3.191 -11.973  1.00  0.00     0.183 C 
HETATM   47  C   LIG     1       1.260  -3.160 -10.937  1.00  0.00     0.178 C 
HETATM   48  C   LIG     1       1.727  -3.709  -9.573  1.00  0.00     0.152 C 
HETATM   49  C   LIG     1       2.574  -2.723  -8.765  1.00  0.00     0.042 C 
HETATM   50  O   LIG     1       2.385  -4.981  -9.698  1.00  0.00    -0.351 OA
BRANCH  45  51
HETATM   51  O   LIG     1       2.100  -5.513 -12.485  1.00  0.00    -0.388 OA
ATOM     52  HO  LIG     1       2.520  -6.365 -12.489  1.00  0.00     0.210 HD
ENDBRANCH  45  51
BRANCH  46  53
HETATM   53  O   LIG     1       1.868  -2.935 -13.288  1.00  0.00    -0.390 OA
ATOM     54  HO  LIG     1       2.570  -2.954 -13.927  1.00  0.00     0.210 HD
ENDBRANCH  46  53
BRANCH  47  55
HETATM   55  O   LIG     1       0.756  -1.828 -10.797  1.00  0.00    -0.390 OA
ATOM     56  HO  LIG     1       0.468  -1.490 -11.637  1.00  0.00     0.210 HD
ENDBRANCH  47  55
ENDBRANCH  43  44
ENDBRANCH   1  43
TORSDOF 17
