REMARK  8 active torsions:
REMARK  status: ('A' for Active; 'I' for Inactive)
REMARK    1  A    between atoms: C_13  and  O_33 
REMARK    2  A    between atoms: C_14  and  C_18 
REMARK    3  A    between atoms: C_15  and  O_16 
REMARK    4  A    between atoms: C_19  and  O_31 
REMARK    5  A    between atoms: C_20  and  O_29 
REMARK    6  A    between atoms: C_21  and  O_27 
REMARK    7  A    between atoms: C_22  and  C_24 
REMARK    8  A    between atoms: C_24  and  O_25 
ROOT
HETATM    1  C   LIG     1       3.815  -0.166   0.151  1.00  0.00     0.001 A 
HETATM    2  C   LIG     1       3.490   1.190   0.186  1.00  0.00     0.003 A 
HETATM    3  C   LIG     1       2.172   1.600  -0.029  1.00  0.00     0.038 A 
HETATM    4  C   LIG     1       1.178   0.656  -0.290  1.00  0.00     0.083 A 
HETATM    5  C   LIG     1       1.501  -0.696  -0.309  1.00  0.00     0.044 A 
HETATM    6  C   LIG     1       2.820  -1.113  -0.093  1.00  0.00     0.018 A 
HETATM    7  C   LIG     1       0.429  -1.686  -0.475  1.00  0.00     0.175 C 
HETATM    8  O   LIG     1       0.666  -2.891  -0.349  1.00  0.00    -0.291 OA
HETATM    9  C   LIG     1      -0.984  -1.191  -0.673  1.00  0.00     0.151 C 
HETATM   10  C   LIG     1      -0.974   0.265  -1.161  1.00  0.00     0.172 C 
HETATM   11  O   LIG     1      -0.086   1.138  -0.453  1.00  0.00    -0.340 OA
HETATM   12  C   LIG     1      -2.337   0.878  -1.004  1.00  0.00     0.043 C 
HETATM   13  C   LIG     1      -3.168   0.477  -0.030  1.00  0.00     0.075 C 
HETATM   14  C   LIG     1      -2.788  -0.552   0.951  1.00  0.00     0.036 C 
HETATM   15  C   LIG     1      -1.800  -1.405   0.595  1.00  0.00     0.069 C 
ENDROOT
BRANCH  14  16
HETATM   16  C   LIG     1      -3.597  -0.586   2.262  1.00  0.00     0.191 C 
HETATM   17  O   LIG     1      -3.517   0.707   2.924  1.00  0.00    -0.368 OA
HETATM   18  C   LIG     1      -2.253   0.982   3.544  1.00  0.00     0.177 C 
HETATM   19  C   LIG     1      -1.915  -0.044   4.643  1.00  0.00     0.180 C 
HETATM   20  C   LIG     1      -2.047  -1.473   4.109  1.00  0.00     0.181 C 
HETATM   21  C   LIG     1      -3.345  -1.699   3.310  1.00  0.00     0.183 C 
BRANCH  18  22
HETATM   22  C   LIG     1      -2.349   2.409   4.095  1.00  0.00     0.198 C 
BRANCH  22  23
HETATM   23  O   LIG     1      -3.402   2.491   5.062  1.00  0.00    -0.398 OA
ATOM     24  HO  LIG     1      -3.462   3.375   5.404  1.00  0.00     0.209 HD
ENDBRANCH  22  23
ENDBRANCH  18  22
BRANCH  19  25
HETATM   25  O   LIG     1      -2.724   0.041   5.832  1.00  0.00    -0.390 OA
ATOM     26  HO  LIG     1      -2.642   0.928   6.163  1.00  0.00     0.210 HD
ENDBRANCH  19  25
BRANCH  20  27
HETATM   27  O   LIG     1      -2.009  -2.394   5.221  1.00  0.00    -0.390 OA
ATOM     28  HO  LIG     1      -1.209  -2.255   5.714  1.00  0.00     0.210 HD
ENDBRANCH  20  27
BRANCH  21  29
HETATM   29  O   LIG     1      -4.466  -1.738   4.226  1.00  0.00    -0.390 OA
ATOM     30  HO  LIG     1      -4.311  -2.420   4.869  1.00  0.00     0.210 HD
ENDBRANCH  21  29
ENDBRANCH  14  16
BRANCH  13  31
HETATM   31  O   LIG     1      -4.441   0.978   0.088  1.00  0.00    -0.360 OA
ATOM     32  HO  LIG     1      -5.029   0.694   0.778  1.00  0.00     0.217 HD
ENDBRANCH  13  31
BRANCH  15  33
HETATM   33  O   LIG     1      -1.500  -2.525   1.346  1.00  0.00    -0.363 OA
ATOM     34  HO  LIG     1      -2.009  -2.658   2.137  1.00  0.00     0.217 HD
ENDBRANCH  15  33
TORSDOF 8
