REMARK  3 active torsions:
REMARK  status: ('A' for Active; 'I' for Inactive)
REMARK    1  A    between atoms: C_5  and  O_35 
REMARK    2  A    between atoms: C_8  and  O_31 
REMARK    3  A    between atoms: C_18  and  C_26 
ROOT
HETATM    1  C   LIG     1      -6.892  -5.403  -0.415  1.00  0.00     0.016 C 
HETATM    2  C   LIG     1      -7.035  -3.930  -0.919  1.00  0.00    -0.033 C 
HETATM    3  C   LIG     1      -7.419  -3.999  -2.419  1.00  0.00     0.012 C 
HETATM    4  C   LIG     1      -8.810  -4.593  -2.670  1.00  0.00     0.033 C 
HETATM    5  C   LIG     1      -9.923  -3.898  -1.889  1.00  0.00     0.126 C 
HETATM    6  C   LIG     1      -9.638  -3.669  -0.363  1.00  0.00    -0.015 C 
HETATM    7  C   LIG     1      -8.164  -3.132  -0.178  1.00  0.00     0.033 C 
HETATM    8  C   LIG     1      -7.651  -2.730   1.223  1.00  0.00     0.124 C 
HETATM    9  C   LIG     1      -6.552  -1.650   1.128  1.00  0.00     0.042 C 
HETATM   10  C   LIG     1      -5.505  -1.826  -0.022  1.00  0.00    -0.026 C 
HETATM   11  C   LIG     1      -5.602  -3.282  -0.622  1.00  0.00     0.007 C 
HETATM   12  C   LIG     1      -4.567  -3.483  -1.737  1.00  0.00     0.033 C 
HETATM   13  C   LIG     1      -4.581  -2.394  -2.749  1.00  0.00    -0.022 C 
HETATM   14  C   LIG     1      -5.020  -1.133  -2.558  1.00  0.00    -0.069 C 
HETATM   15  C   LIG     1      -5.528  -0.641  -1.174  1.00  0.00    -0.013 C 
HETATM   16  C   LIG     1      -6.920   0.050  -1.361  1.00  0.00     0.016 C 
HETATM   17  C   LIG     1      -7.408   0.166  -2.804  1.00  0.00     0.022 C 
HETATM   18  C   LIG     1      -6.354   0.767  -3.749  1.00  0.00     0.056 C 
HETATM   19  C   LIG     1      -5.039  -0.079  -3.721  1.00  0.00     0.035 C 
HETATM   20  C   LIG     1      -4.760  -0.710  -5.115  1.00  0.00     0.019 C 
HETATM   21  C   LIG     1      -4.798   0.257  -6.322  1.00  0.00    -0.047 C 
HETATM   22  C   LIG     1      -5.996   1.224  -6.254  1.00  0.00     0.010 C 
HETATM   23  C   LIG     1      -6.992   0.848  -5.161  1.00  0.00     0.022 C 
HETATM   24  C   LIG     1      -4.906  -0.592  -7.608  1.00  0.00     0.015 C 
HETATM   25  C   LIG     1      -3.485   1.058  -6.403  1.00  0.00     0.015 C 
HETATM   26  C   LIG     1      -4.574   0.516  -0.726  1.00  0.00     0.021 C 
HETATM   27  C   LIG     1      -4.111  -1.796   0.725  1.00  0.00     0.016 C 
HETATM   28  C   LIG     1     -10.681  -2.624   0.131  1.00  0.00     0.018 C 
HETATM   29  C   LIG     1      -9.921  -4.966   0.420  1.00  0.00     0.018 C 
ENDROOT
BRANCH  18  30
HETATM   30  C   LIG     1      -6.137   2.284  -3.404  1.00  0.00     0.182 C 
HETATM   31  O   LIG     1      -4.981   2.745  -3.618  1.00  0.00    -0.647 OA
HETATM   32  O   LIG     1      -7.153   2.905  -2.974  1.00  0.00    -0.647 OA
ENDBRANCH  18  30
BRANCH   8  33
HETATM   33  O   LIG     1      -8.650  -2.210   2.087  1.00  0.00    -0.395 OA
ATOM     34  HO  LIG     1      -8.335  -1.963   2.948  1.00  0.00     0.210 HD
ENDBRANCH   8  33
BRANCH   5  35
HETATM   35  O   LIG     1     -10.215  -2.669  -2.561  1.00  0.00    -0.395 OA
ATOM     36  HO  LIG     1     -10.907  -2.237  -2.075  1.00  0.00     0.210 HD
ENDBRANCH   5  35
TORSDOF 3
