REMARK  1 active torsions:
REMARK  status: ('A' for Active; 'I' for Inactive)
REMARK    1  A    between atoms: C_15  and  O_17 
ROOT
HETATM    1  C   LIG     1       1.045   0.035   0.177  1.00  0.00     0.070 C 
HETATM    2  C   LIG     1       0.698  -1.392  -0.148  1.00  0.00     0.028 C 
HETATM    3  N   LIG     1       1.549  -2.332   0.109  1.00  0.00    -0.391 N 
ATOM      4  HN  LIG     1       2.423  -2.128   0.593  1.00  0.00     0.159 HD
HETATM    5  C   LIG     1       1.219  -3.717  -0.320  1.00  0.00     0.124 C 
HETATM    6  C   LIG     1      -0.275  -4.089  -0.242  1.00  0.00     0.061 C 
HETATM    7  C   LIG     1      -1.087  -2.973  -0.786  1.00  0.00    -0.015 A 
HETATM    8  C   LIG     1      -0.592  -1.690  -0.718  1.00  0.00     0.062 A 
HETATM    9  N   LIG     1      -1.537  -0.852  -1.243  1.00  0.00    -0.353 N 
ATOM     10  HN  LIG     1      -1.448   0.162  -1.312  1.00  0.00     0.166 HD
HETATM   11  C   LIG     1      -2.630  -1.582  -1.666  1.00  0.00     0.046 A 
HETATM   12  C   LIG     1      -2.370  -2.925  -1.384  1.00  0.00    -0.001 A 
HETATM   13  C   LIG     1      -3.344  -3.885  -1.712  1.00  0.00     0.017 A 
HETATM   14  C   LIG     1      -4.537  -3.467  -2.314  1.00  0.00     0.038 A 
HETATM   15  C   LIG     1      -4.779  -2.120  -2.592  1.00  0.00     0.070 A 
HETATM   16  C   LIG     1      -3.823  -1.150  -2.269  1.00  0.00     0.067 A 
ENDROOT
BRANCH  15  17
HETATM   17  O   LIG     1      -5.992  -1.877  -3.182  1.00  0.00    -0.356 OA
HETATM   18  C   LIG     1      -6.294  -0.525  -3.501  1.00  0.00     0.210 C 
ENDBRANCH  15  17
TORSDOF 1
