REMARK  3 active torsions:
REMARK  status: ('A' for Active; 'I' for Inactive)
REMARK    1  A    between atoms: C_3  and  O_20 
REMARK    2  A    between atoms: C_6  and  C_7 
REMARK    3  A    between atoms: C_12  and  O_18 
ROOT
HETATM    1  C   LIG     1      -2.716  -0.080  -0.209  1.00  0.00     0.048 A 
HETATM    2  C   LIG     1      -3.415  -1.222  -0.122  1.00  0.00     0.159 A 
HETATM    3  O   LIG     1      -4.776  -1.369  -0.245  1.00  0.00    -0.321 OA
HETATM    4  C   LIG     1      -5.520  -0.241  -0.471  1.00  0.00     0.091 A 
HETATM    5  C   LIG     1      -6.900  -0.400  -0.594  1.00  0.00     0.074 A 
HETATM    6  C   LIG     1      -7.700   0.716  -0.822  1.00  0.00     0.068 A 
HETATM    7  C   LIG     1      -7.145   1.989  -0.929  1.00  0.00     0.037 A 
HETATM    8  C   LIG     1      -5.763   2.146  -0.806  1.00  0.00     0.021 A 
HETATM    9  C   LIG     1      -4.953   1.027  -0.577  1.00  0.00     0.049 A 
HETATM   10  C   LIG     1      -3.492   1.171  -0.445  1.00  0.00     0.197 A 
HETATM   11  O   LIG     1      -2.966   2.275  -0.533  1.00  0.00    -0.286 OA
ENDROOT
BRANCH   1  12
HETATM   12  C   LIG     1      -1.250  -0.082  -0.040  1.00  0.00    -0.020 A 
HETATM   13  C   LIG     1      -0.636   0.803   0.858  1.00  0.00     0.015 A 
HETATM   14  C   LIG     1       0.750   0.797   1.029  1.00  0.00     0.037 A 
HETATM   15  C   LIG     1       1.531  -0.091   0.300  1.00  0.00     0.065 A 
HETATM   16  C   LIG     1       0.948  -0.974  -0.602  1.00  0.00     0.037 A 
HETATM   17  C   LIG     1      -0.440  -0.967  -0.772  1.00  0.00     0.015 A 
BRANCH  15  18
HETATM   18  O   LIG     1       2.879  -0.063   0.498  1.00  0.00    -0.361 OA
ATOM     19  HO  LIG     1       3.413  -0.670  -0.001  1.00  0.00     0.217 HD
ENDBRANCH  15  18
ENDBRANCH   1  12
BRANCH   6  20
HETATM   20  O   LIG     1      -9.044   0.517  -0.936  1.00  0.00    -0.361 OA
ATOM     21  HO  LIG     1      -9.590   1.279  -1.092  1.00  0.00     0.217 HD
ENDBRANCH   6  20
TORSDOF 3
