REMARK  6 active torsions:
REMARK  status: ('A' for Active; 'I' for Inactive)
REMARK    1  A    between atoms: C_5  and  O_27 
REMARK    2  A    between atoms: C_6  and  C_24 
REMARK    3  A    between atoms: C_12  and  C_13 
REMARK    4  A    between atoms: C_13  and  C_14 
REMARK    5  A    between atoms: C_16  and  O_21 
REMARK    6  A    between atoms: C_24  and  O_25 
ROOT
HETATM    1  C   LIG     1       0.601  -0.157  -1.469  1.00  0.00     0.016 C 
HETATM    2  C   LIG     1       1.592  -0.173  -0.275  1.00  0.00    -0.032 C 
HETATM    3  C   LIG     1       2.372  -1.514  -0.288  1.00  0.00     0.012 C 
HETATM    4  C   LIG     1       1.505  -2.736   0.047  1.00  0.00     0.033 C 
HETATM    5  C   LIG     1       0.742  -2.606   1.372  1.00  0.00     0.128 C 
HETATM    6  C   LIG     1      -0.067  -1.278   1.518  1.00  0.00     0.008 C 
HETATM    7  C   LIG     1       0.881  -0.069   1.148  1.00  0.00     0.007 C 
HETATM    8  C   LIG     1       0.250   1.324   1.417  1.00  0.00     0.010 C 
HETATM    9  C   LIG     1       1.219   2.473   1.145  1.00  0.00     0.034 C 
HETATM   10  C   LIG     1       1.733   2.329  -0.259  1.00  0.00    -0.084 C 
HETATM   11  C   LIG     1       1.350   3.179  -1.226  1.00  0.00     0.015 C 
HETATM   12  C   LIG     1       2.578   1.067  -0.429  1.00  0.00     0.025 C 
HETATM   13  C   LIG     1      -1.347  -1.357   0.651  1.00  0.00     0.020 C 
ENDROOT
BRANCH  12  14
HETATM   14  C   LIG     1       3.516   1.035  -1.670  1.00  0.00     0.037 C 
BRANCH  14  15
HETATM   15  C   LIG     1       4.440   2.224  -1.793  1.00  0.00    -0.010 C 
HETATM   16  C   LIG     1       5.680   2.342  -1.293  1.00  0.00     0.044 C 
HETATM   17  C   LIG     1       6.480   3.573  -1.521  1.00  0.00     0.291 C 
HETATM   18  C   LIG     1       6.505   1.444  -0.451  1.00  0.00     0.181 C 
HETATM   19  O   LIG     1       7.560   3.536  -0.689  1.00  0.00    -0.315 OA
HETATM   20  O   LIG     1       6.251   4.444  -2.335  1.00  0.00    -0.260 OA
HETATM   21  C   LIG     1       7.407   2.454   0.228  1.00  0.00     0.215 C 
BRANCH  18  22
HETATM   22  O   LIG     1       5.744   0.696   0.478  1.00  0.00    -0.389 OA
ATOM     23  HO  LIG     1       6.273   0.120   1.018  1.00  0.00     0.210 HD
ENDBRANCH  18  22
ENDBRANCH  14  15
ENDBRANCH  12  14
BRANCH   6  24
HETATM   24  C   LIG     1      -0.588  -1.152   2.986  1.00  0.00     0.176 C 
BRANCH  24  25
HETATM   25  O   LIG     1       0.451  -0.997   3.941  1.00  0.00    -0.400 OA
ATOM     26  HO  LIG     1       0.134  -0.920   4.833  1.00  0.00     0.209 HD
ENDBRANCH  24  25
ENDBRANCH   6  24
BRANCH   5  27
HETATM   27  O   LIG     1       1.696  -2.722   2.439  1.00  0.00    -0.395 OA
ATOM     28  HO  LIG     1       1.224  -2.642   3.259  1.00  0.00     0.210 HD
ENDBRANCH   5  27
TORSDOF 6
