REMARK  6 active torsions:
REMARK  status: ('A' for Active; 'I' for Inactive)
REMARK    1  A    between atoms: C_5  and  O_27 
REMARK    2  A    between atoms: C_6  and  C_24 
REMARK    3  A    between atoms: C_12  and  C_13 
REMARK    4  A    between atoms: C_13  and  C_14 
REMARK    5  A    between atoms: C_16  and  O_21 
REMARK    6  A    between atoms: C_24  and  O_25 
ROOT
HETATM    1  C   LIG     1       0.065  -0.189  -1.748  1.00  0.00     0.016 C 
HETATM    2  C   LIG     1       1.132  -0.011  -0.639  1.00  0.00    -0.032 C 
HETATM    3  C   LIG     1       1.932  -1.336  -0.515  1.00  0.00     0.012 C 
HETATM    4  C   LIG     1       1.134  -2.488   0.113  1.00  0.00     0.033 C 
HETATM    5  C   LIG     1       0.576  -2.135   1.492  1.00  0.00     0.128 C 
HETATM    6  C   LIG     1      -0.295  -0.842   1.499  1.00  0.00     0.008 C 
HETATM    7  C   LIG     1       0.513   0.322   0.791  1.00  0.00     0.007 C 
HETATM    8  C   LIG     1      -0.182   1.705   0.820  1.00  0.00     0.010 C 
HETATM    9  C   LIG     1       0.743   2.824   0.346  1.00  0.00     0.034 C 
HETATM   10  C   LIG     1       1.268   2.490  -1.024  1.00  0.00    -0.084 C 
HETATM   11  C   LIG     1       0.934   3.250  -2.081  1.00  0.00     0.015 C 
HETATM   12  C   LIG     1       2.094   1.200  -1.045  1.00  0.00     0.025 C 
HETATM   13  C   LIG     1      -0.559  -0.450   2.984  1.00  0.00     0.020 C 
ENDROOT
BRANCH  12  14
HETATM   14  C   LIG     1       2.954   0.980  -2.326  1.00  0.00     0.037 C 
BRANCH  14  15
HETATM   15  C   LIG     1       3.910   2.115  -2.629  1.00  0.00    -0.010 C 
HETATM   16  C   LIG     1       5.179   2.236  -2.213  1.00  0.00     0.044 C 
HETATM   17  C   LIG     1       5.991   3.438  -2.526  1.00  0.00     0.291 C 
HETATM   18  C   LIG     1       5.991   1.370  -1.333  1.00  0.00     0.181 C 
HETATM   19  O   LIG     1       7.072   3.441  -1.697  1.00  0.00    -0.315 OA
HETATM   20  O   LIG     1       5.740   4.277  -3.368  1.00  0.00    -0.260 OA
HETATM   21  C   LIG     1       6.934   2.391  -0.728  1.00  0.00     0.215 C 
BRANCH  18  22
HETATM   22  O   LIG     1       6.713   0.429  -2.121  1.00  0.00    -0.389 OA
ATOM     23  HO  LIG     1       7.235  -0.128  -1.555  1.00  0.00     0.210 HD
ENDBRANCH  18  22
ENDBRANCH  14  15
ENDBRANCH  12  14
BRANCH   6  24
HETATM   24  C   LIG     1      -1.683  -1.178   0.891  1.00  0.00     0.176 C 
BRANCH  24  25
HETATM   25  O   LIG     1      -2.541  -0.049   0.833  1.00  0.00    -0.400 OA
ATOM     26  HO  LIG     1      -3.391  -0.255   0.461  1.00  0.00     0.209 HD
ENDBRANCH  24  25
ENDBRANCH   6  24
BRANCH   5  27
HETATM   27  O   LIG     1       1.689  -1.984   2.381  1.00  0.00    -0.395 OA
ATOM     28  HO  LIG     1       1.342  -1.765   3.238  1.00  0.00     0.210 HD
ENDBRANCH   5  27
TORSDOF 6
