REMARK  8 active torsions:
REMARK  status: ('A' for Active; 'I' for Inactive)
REMARK    1  A    between atoms: C_13  and  O_33 
REMARK    2  A    between atoms: C_14  and  C_18 
REMARK    3  A    between atoms: C_15  and  O_16 
REMARK    4  A    between atoms: C_19  and  O_31 
REMARK    5  A    between atoms: C_20  and  O_29 
REMARK    6  A    between atoms: C_21  and  O_27 
REMARK    7  A    between atoms: C_22  and  C_24 
REMARK    8  A    between atoms: C_24  and  O_25 
ROOT
HETATM    1  C   LIG     1       7.941  -3.066   5.085  1.00  0.00     0.001 A 
HETATM    2  C   LIG     1       7.663  -1.737   5.402  1.00  0.00     0.003 A 
HETATM    3  C   LIG     1       6.700  -1.033   4.678  1.00  0.00     0.038 A 
HETATM    4  C   LIG     1       6.006  -1.658   3.642  1.00  0.00     0.083 A 
HETATM    5  C   LIG     1       6.294  -2.978   3.317  1.00  0.00     0.044 A 
HETATM    6  C   LIG     1       7.260  -3.689   4.038  1.00  0.00     0.018 A 
HETATM    7  C   LIG     1       5.632  -3.593   2.156  1.00  0.00     0.175 C 
HETATM    8  O   LIG     1       5.972  -4.710   1.763  1.00  0.00    -0.291 OA
HETATM    9  C   LIG     1       4.620  -2.772   1.387  1.00  0.00     0.151 C 
HETATM   10  C   LIG     1       4.103  -1.614   2.255  1.00  0.00     0.172 C 
HETATM   11  O   LIG     1       5.109  -0.887   2.967  1.00  0.00    -0.340 OA
HETATM   12  C   LIG     1       3.419  -0.586   1.401  1.00  0.00     0.043 C 
HETATM   13  C   LIG     1       3.799  -0.384   0.132  1.00  0.00     0.075 C 
HETATM   14  C   LIG     1       4.911  -1.122  -0.484  1.00  0.00     0.036 C 
HETATM   15  C   LIG     1       5.215  -2.328   0.057  1.00  0.00     0.069 C 
ENDROOT
BRANCH  14  16
HETATM   16  C   LIG     1       5.548  -0.474  -1.734  1.00  0.00     0.191 C 
HETATM   17  O   LIG     1       6.640  -1.238  -2.303  1.00  0.00    -0.368 OA
HETATM   18  C   LIG     1       7.882  -1.181  -1.570  1.00  0.00     0.177 C 
HETATM   19  C   LIG     1       8.402   0.260  -1.501  1.00  0.00     0.180 C 
HETATM   20  C   LIG     1       7.330   1.108  -0.807  1.00  0.00     0.181 C 
HETATM   21  C   LIG     1       5.995   1.012  -1.563  1.00  0.00     0.183 C 
BRANCH  18  22
HETATM   22  C   LIG     1       8.856  -2.129  -2.276  1.00  0.00     0.198 C 
BRANCH  22  23
HETATM   23  O   LIG     1       9.075  -1.701  -3.623  1.00  0.00    -0.398 OA
ATOM     24  HO  LIG     1       9.679  -2.289  -4.061  1.00  0.00     0.209 HD
ENDBRANCH  22  23
ENDBRANCH  18  22
BRANCH  19  25
HETATM   25  O   LIG     1       8.645   0.801  -2.815  1.00  0.00    -0.390 OA
ATOM     26  HO  LIG     1       9.309   0.275  -3.245  1.00  0.00     0.210 HD
ENDBRANCH  19  25
BRANCH  20  27
HETATM   27  O   LIG     1       7.765   2.473  -0.750  1.00  0.00    -0.390 OA
ATOM     28  HO  LIG     1       8.590   2.532  -0.283  1.00  0.00     0.210 HD
ENDBRANCH  20  27
BRANCH  21  29
HETATM   29  O   LIG     1       6.134   1.636  -2.863  1.00  0.00    -0.390 OA
ATOM     30  HO  LIG     1       6.406   2.540  -2.759  1.00  0.00     0.210 HD
ENDBRANCH  21  29
ENDBRANCH  14  16
BRANCH  13  31
HETATM   31  O   LIG     1       3.145   0.500  -0.689  1.00  0.00    -0.360 OA
ATOM     32  HO  LIG     1       3.414   0.643  -1.589  1.00  0.00     0.217 HD
ENDBRANCH  13  31
BRANCH  15  33
HETATM   33  O   LIG     1       6.054  -3.230  -0.576  1.00  0.00    -0.363 OA
ATOM     34  HO  LIG     1       6.425  -2.953  -1.406  1.00  0.00     0.217 HD
ENDBRANCH  15  33
TORSDOF 8
