REMARK  5 active torsions:
REMARK  status: ('A' for Active; 'I' for Inactive)
REMARK    1  A    between atoms: O_2  and  C_3 
REMARK    2  A    between atoms: C_5  and  C_13 
REMARK    3  A    between atoms: C_7  and  O_11 
REMARK    4  A    between atoms: C_8  and  O_9 
REMARK    5  A    between atoms: C_14  and  C_15 
REMARK       I    between atoms: C_15  and  N_17 
ROOT
HETATM    1  C   LIG     1       0.722   1.948   1.017  1.00  0.00     0.105 C 
HETATM    2  C   LIG     1       0.621   3.316   0.743  1.00  0.00     0.051 C 
HETATM    3  C   LIG     1       0.857   4.264   1.740  1.00  0.00    -0.031 C 
HETATM    4  C   LIG     1       1.206   3.829   3.020  1.00  0.00     0.051 C 
HETATM    5  C   LIG     1       1.416   2.473   3.291  1.00  0.00     0.105 C 
HETATM    6  C   LIG     1       1.118   1.516   2.304  1.00  0.00     0.135 C 
ENDROOT
BRANCH   3   7
HETATM    7  C   LIG     1       0.738   5.686   1.400  1.00  0.00     0.017 C 
HETATM    8  C   LIG     1       1.449   6.640   2.020  1.00  0.00     0.075 C 
BRANCH   8   9
HETATM    9  C   LIG     1       1.387   8.044   1.543  1.00  0.00     0.250 C 
HETATM   10  O   LIG     1       0.718   8.306   0.541  1.00  0.00    -0.268 OA
HETATM   11  N   LIG     1       2.182   9.002   2.189  1.00  0.00    -0.281 N 
HETATM   12  C   LIG     1       2.916   8.792   3.356  1.00  0.00     0.249 C 
HETATM   13  C   LIG     1       2.423  10.194   1.375  1.00  0.00     0.139 C 
HETATM   14  C   LIG     1       3.988   9.767   3.665  1.00  0.00     0.071 C 
HETATM   15  O   LIG     1       2.732   7.899   4.186  1.00  0.00    -0.268 OA
HETATM   16  C   LIG     1       4.010  10.988   3.117  1.00  0.00    -0.019 C 
HETATM   17  C   LIG     1       2.983  11.396   2.119  1.00  0.00     0.047 C 
ENDBRANCH   8   9
ENDBRANCH   3   7
BRANCH   1  18
HETATM   18  O   LIG     1       0.449   0.967   0.092  1.00  0.00    -0.353 OA
HETATM   19  C   LIG     1       0.051   1.385  -1.208  1.00  0.00     0.210 C 
ENDBRANCH   1  18
BRANCH   5  20
HETATM   20  O   LIG     1       1.919   2.065   4.501  1.00  0.00    -0.353 OA
HETATM   21  C   LIG     1       2.799   2.985   5.149  1.00  0.00     0.210 C 
ENDBRANCH   5  20
BRANCH   6  22
HETATM   22  O   LIG     1       1.251   0.155   2.455  1.00  0.00    -0.351 OA
HETATM   23  C   LIG     1       0.981  -0.375   3.746  1.00  0.00     0.210 C 
ENDBRANCH   6  22
TORSDOF 5
