REMARK  10 active torsions:
REMARK  status: ('A' for Active; 'I' for Inactive)
REMARK    1  A    between atoms: C_5  and  O_9 
REMARK    2  A    between atoms: C_6  and  O_7 
REMARK    3  A    between atoms: C_14  and  O_37 
REMARK    4  A    between atoms: C_15  and  C_22 
REMARK    5  A    between atoms: C_16  and  O_20 
REMARK    6  A    between atoms: C_23  and  O_35 
REMARK    7  A    between atoms: C_24  and  O_33 
REMARK    8  A    between atoms: C_25  and  O_31 
REMARK    9  A    between atoms: C_26  and  C_28 
REMARK   10  A    between atoms: C_28  and  O_29 
ROOT
HETATM    1  C   LIG     1       6.713  -0.598   6.994  1.00  0.00     0.057 A 
HETATM    2  C   LIG     1       6.327   0.340   6.031  1.00  0.00     0.052 A 
HETATM    3  C   LIG     1       5.991   1.645   6.397  1.00  0.00     0.093 A 
HETATM    4  C   LIG     1       6.065   2.034   7.737  1.00  0.00     0.077 A 
HETATM    5  C   LIG     1       6.460   1.105   8.690  1.00  0.00     0.101 A 
HETATM    6  C   LIG     1       6.754  -0.207   8.325  1.00  0.00     0.099 A 
HETATM    7  O   LIG     1       5.582   2.604   5.505  1.00  0.00    -0.309 OA
HETATM    8  C   LIG     1       5.416   2.242   4.191  1.00  0.00     0.095 A 
HETATM    9  C   LIG     1       4.895   3.216   3.347  1.00  0.00     0.075 A 
HETATM   10  C   LIG     1       4.673   2.925   2.001  1.00  0.00     0.080 A 
HETATM   11  C   LIG     1       4.990   1.672   1.447  1.00  0.00     0.041 A 
HETATM   12  C   LIG     1       5.537   0.709   2.313  1.00  0.00     0.094 A 
HETATM   13  C   LIG     1       5.730   0.987   3.678  1.00  0.00     0.083 A 
HETATM   14  C   LIG     1       6.241  -0.030   4.611  1.00  0.00     0.200 A 
HETATM   15  O   LIG     1       6.558  -1.140   4.204  1.00  0.00    -0.286 OA
ENDROOT
BRANCH  11  16
HETATM   16  C   LIG     1       4.792   1.340  -0.028  1.00  0.00     0.192 C 
HETATM   17  O   LIG     1       3.709   2.148  -0.541  1.00  0.00    -0.368 OA
HETATM   18  C   LIG     1       3.372   1.892  -1.921  1.00  0.00     0.177 C 
HETATM   19  C   LIG     1       4.592   2.053  -2.845  1.00  0.00     0.180 C 
HETATM   20  C   LIG     1       5.823   1.277  -2.342  1.00  0.00     0.181 C 
HETATM   21  C   LIG     1       6.082   1.565  -0.853  1.00  0.00     0.183 C 
BRANCH  18  22
HETATM   22  C   LIG     1       2.651   0.544  -2.076  1.00  0.00     0.198 C 
BRANCH  22  23
HETATM   23  O   LIG     1       1.520   0.496  -1.206  1.00  0.00    -0.398 OA
ATOM     24  HO  LIG     1       1.074  -0.337  -1.302  1.00  0.00     0.209 HD
ENDBRANCH  22  23
ENDBRANCH  18  22
BRANCH  19  25
HETATM   25  O   LIG     1       4.921   3.448  -2.939  1.00  0.00    -0.390 OA
ATOM     26  HO  LIG     1       4.161   3.927  -3.249  1.00  0.00     0.210 HD
ENDBRANCH  19  25
BRANCH  20  27
HETATM   27  O   LIG     1       5.669  -0.123  -2.560  1.00  0.00    -0.390 OA
ATOM     28  HO  LIG     1       5.509  -0.301  -3.479  1.00  0.00     0.210 HD
ENDBRANCH  20  27
BRANCH  21  29
HETATM   29  O   LIG     1       6.506   2.939  -0.751  1.00  0.00    -0.390 OA
ATOM     30  HO  LIG     1       7.298   3.077  -1.257  1.00  0.00     0.210 HD
ENDBRANCH  21  29
ENDBRANCH  11  16
BRANCH  10  31
HETATM   31  O   LIG     1       4.116   3.935   1.266  1.00  0.00    -0.360 OA
ATOM     32  HO  LIG     1       3.965   3.737   0.349  1.00  0.00     0.217 HD
ENDBRANCH  10  31
BRANCH  12  33
HETATM   33  O   LIG     1       5.871  -0.511   1.777  1.00  0.00    -0.359 OA
ATOM     34  HO  LIG     1       6.241  -1.162   2.362  1.00  0.00     0.217 HD
ENDBRANCH  12  33
BRANCH   6  35
HETATM   35  O   LIG     1       7.055  -1.137   9.276  1.00  0.00    -0.358 OA
ATOM     36  HO  LIG     1       7.083  -0.869  10.187  1.00  0.00     0.217 HD
ENDBRANCH   6  35
BRANCH   5  37
HETATM   37  O   LIG     1       6.578   1.506   9.989  1.00  0.00    -0.358 OA
ATOM     38  HO  LIG     1       6.848   0.870  10.641  1.00  0.00     0.217 HD
ENDBRANCH   5  37
TORSDOF 10
