REMARK  8 active torsions:
REMARK  status: ('A' for Active; 'I' for Inactive)
REMARK    1  A    between atoms: C_13  and  O_33 
REMARK    2  A    between atoms: C_14  and  C_18 
REMARK    3  A    between atoms: C_15  and  O_16 
REMARK    4  A    between atoms: C_19  and  O_31 
REMARK    5  A    between atoms: C_20  and  O_29 
REMARK    6  A    between atoms: C_21  and  O_27 
REMARK    7  A    between atoms: C_22  and  C_24 
REMARK    8  A    between atoms: C_24  and  O_25 
ROOT
HETATM    1  C   LIG     1      -3.902   0.272   0.270  1.00  0.00     0.001 A 
HETATM    2  C   LIG     1      -3.633  -1.066  -0.021  1.00  0.00     0.003 A 
HETATM    3  C   LIG     1      -2.332  -1.556   0.088  1.00  0.00     0.038 A 
HETATM    4  C   LIG     1      -1.302  -0.711   0.497  1.00  0.00     0.083 A 
HETATM    5  C   LIG     1      -1.564   0.628   0.766  1.00  0.00     0.044 A 
HETATM    6  C   LIG     1      -2.867   1.125   0.659  1.00  0.00     0.018 A 
HETATM    7  C   LIG     1      -0.443   1.527   1.100  1.00  0.00     0.175 C 
HETATM    8  O   LIG     1      -0.611   2.741   1.153  1.00  0.00    -0.291 OA
HETATM    9  C   LIG     1       0.929   0.914   1.306  1.00  0.00     0.151 C 
HETATM   10  C   LIG     1       0.800  -0.603   1.501  1.00  0.00     0.172 C 
HETATM   11  O   LIG     1      -0.056  -1.258   0.561  1.00  0.00    -0.340 OA
HETATM   12  C   LIG     1       2.127  -1.275   1.347  1.00  0.00     0.043 C 
HETATM   13  C   LIG     1       3.097  -0.749   0.587  1.00  0.00     0.075 C 
HETATM   14  C   LIG     1       2.906   0.478  -0.200  1.00  0.00     0.036 C 
HETATM   15  C   LIG     1       1.901   1.303   0.199  1.00  0.00     0.069 C 
ENDROOT
BRANCH  14  16
HETATM   16  C   LIG     1       3.816   0.880  -1.393  1.00  0.00     0.191 C 
HETATM   17  O   LIG     1       3.027   1.120  -2.587  1.00  0.00    -0.368 OA
HETATM   18  C   LIG     1       2.678   0.004  -3.421  1.00  0.00     0.177 C 
HETATM   19  C   LIG     1       3.809  -1.021  -3.665  1.00  0.00     0.180 C 
HETATM   20  C   LIG     1       4.616  -1.287  -2.394  1.00  0.00     0.181 C 
HETATM   21  C   LIG     1       5.065   0.063  -1.805  1.00  0.00     0.183 C 
BRANCH  18  22
HETATM   22  C   LIG     1       1.371  -0.644  -2.949  1.00  0.00     0.198 C 
BRANCH  22  23
HETATM   23  O   LIG     1       0.897  -1.563  -3.931  1.00  0.00    -0.398 OA
ATOM     24  HO  LIG     1       0.087  -1.964  -3.639  1.00  0.00     0.209 HD
ENDBRANCH  22  23
ENDBRANCH  18  22
BRANCH  19  25
HETATM   25  O   LIG     1       4.738  -0.521  -4.655  1.00  0.00    -0.390 OA
ATOM     26  HO  LIG     1       4.237  -0.356  -5.445  1.00  0.00     0.210 HD
ENDBRANCH  19  25
BRANCH  20  27
HETATM   27  O   LIG     1       5.739  -2.126  -2.696  1.00  0.00    -0.390 OA
ATOM     28  HO  LIG     1       5.462  -2.959  -3.059  1.00  0.00     0.210 HD
ENDBRANCH  20  27
BRANCH  21  29
HETATM   29  O   LIG     1       6.047  -0.039  -0.773  1.00  0.00    -0.390 OA
ATOM     30  HO  LIG     1       6.813  -0.540  -1.026  1.00  0.00     0.210 HD
ENDBRANCH  21  29
ENDBRANCH  14  16
BRANCH  13  31
HETATM   31  O   LIG     1       4.336  -1.336   0.557  1.00  0.00    -0.360 OA
ATOM     32  HO  LIG     1       5.024  -0.963   0.018  1.00  0.00     0.217 HD
ENDBRANCH  13  31
BRANCH  15  33
HETATM   33  O   LIG     1       1.746   2.561  -0.363  1.00  0.00    -0.363 OA
ATOM     34  HO  LIG     1       2.352   2.804  -1.053  1.00  0.00     0.217 HD
ENDBRANCH  15  33
TORSDOF 8
