REMARK  2 active torsions:
REMARK  status: ('A' for Active; 'I' for Inactive)
REMARK    1  A    between atoms: C_5  and  C_32 
REMARK    2  A    between atoms: C_20  and  O_24 
ROOT
HETATM    1  C   LIG     1      -1.318  -0.091  -1.056  1.00  0.00     0.010 C 
HETATM    2  C   LIG     1      -0.689  -1.112  -2.022  1.00  0.00    -0.014 C 
HETATM    3  C   LIG     1      -1.449  -2.425  -1.851  1.00  0.00     0.006 C 
HETATM    4  C   LIG     1      -0.820  -3.545  -2.652  1.00  0.00     0.022 C 
HETATM    5  C   LIG     1       0.645  -3.787  -2.236  1.00  0.00     0.056 C 
HETATM    6  C   LIG     1       1.153  -4.977  -3.070  1.00  0.00     0.022 C 
HETATM    7  C   LIG     1       2.572  -5.344  -2.674  1.00  0.00     0.016 C 
HETATM    8  C   LIG     1       3.601  -4.195  -2.835  1.00  0.00    -0.013 C 
HETATM    9  C   LIG     1       3.035  -2.785  -2.436  1.00  0.00    -0.069 C 
HETATM   10  C   LIG     1       3.942  -1.827  -2.147  1.00  0.00    -0.022 C 
HETATM   11  C   LIG     1       5.402  -2.099  -1.957  1.00  0.00     0.033 C 
HETATM   12  C   LIG     1       5.472  -3.378  -1.125  1.00  0.00     0.007 C 
HETATM   13  C   LIG     1       5.031  -4.597  -2.043  1.00  0.00    -0.028 C 
HETATM   14  C   LIG     1       4.911  -5.830  -1.085  1.00  0.00     0.011 C 
HETATM   15  C   LIG     1       6.128  -6.077  -0.164  1.00  0.00     0.007 C 
HETATM   16  C   LIG     1       6.389  -4.828   0.693  1.00  0.00     0.004 C 
HETATM   17  C   LIG     1       6.739  -3.569  -0.197  1.00  0.00    -0.035 C 
HETATM   18  C   LIG     1       6.969  -2.343   0.760  1.00  0.00     0.012 C 
HETATM   19  C   LIG     1       6.385  -2.520   2.157  1.00  0.00     0.033 C 
HETATM   20  C   LIG     1       6.988  -3.728   2.891  1.00  0.00     0.126 C 
HETATM   21  C   LIG     1       7.262  -4.981   1.980  1.00  0.00    -0.017 C 
HETATM   22  C   LIG     1       6.825  -6.226   2.793  1.00  0.00     0.018 C 
HETATM   23  C   LIG     1       8.758  -5.174   1.674  1.00  0.00     0.018 C 
HETATM   24  C   LIG     1       8.025  -3.702  -1.050  1.00  0.00     0.016 C 
HETATM   25  C   LIG     1       6.092  -5.011  -3.100  1.00  0.00     0.016 C 
HETATM   26  C   LIG     1       1.495  -2.515  -2.546  1.00  0.00     0.038 C 
HETATM   27  C   LIG     1       0.862  -1.231  -1.835  1.00  0.00    -0.005 C 
HETATM   28  C   LIG     1       1.481   0.104  -2.307  1.00  0.00     0.011 C 
HETATM   29  C   LIG     1       3.812  -4.037  -4.382  1.00  0.00     0.021 C 
ENDROOT
BRANCH   5  30
HETATM   30  C   LIG     1       0.607  -4.276  -0.744  1.00  0.00     0.182 C 
HETATM   31  O   LIG     1       1.337  -3.656   0.074  1.00  0.00    -0.647 OA
HETATM   32  O   LIG     1      -0.157  -5.264  -0.515  1.00  0.00    -0.647 OA
ENDBRANCH   5  30
BRANCH  20  33
HETATM   33  O   LIG     1       8.179  -3.326   3.573  1.00  0.00    -0.395 OA
ATOM     34  HO  LIG     1       8.552  -4.073   4.027  1.00  0.00     0.210 HD
ENDBRANCH  20  33
TORSDOF 2
