REMARK  6 active torsions:
REMARK  status: ('A' for Active; 'I' for Inactive)
REMARK    1  A    between atoms: C_5  and  O_27 
REMARK    2  A    between atoms: C_6  and  C_24 
REMARK    3  A    between atoms: C_12  and  C_13 
REMARK    4  A    between atoms: C_13  and  C_14 
REMARK    5  A    between atoms: C_16  and  O_21 
REMARK    6  A    between atoms: C_24  and  O_25 
ROOT
HETATM    1  C   LIG     1       0.725   0.038  -1.649  1.00  0.00     0.016 C 
HETATM    2  C   LIG     1       1.559   0.222  -0.359  1.00  0.00    -0.032 C 
HETATM    3  C   LIG     1       2.515  -0.992  -0.207  1.00  0.00     0.012 C 
HETATM    4  C   LIG     1       1.790  -2.300   0.117  1.00  0.00     0.033 C 
HETATM    5  C   LIG     1       0.962  -2.213   1.397  1.00  0.00     0.128 C 
HETATM    6  C   LIG     1      -0.064  -1.041   1.407  1.00  0.00     0.008 C 
HETATM    7  C   LIG     1       0.682   0.286   0.968  1.00  0.00     0.007 C 
HETATM    8  C   LIG     1      -0.211   1.544   0.990  1.00  0.00     0.010 C 
HETATM    9  C   LIG     1       0.639   2.807   0.899  1.00  0.00     0.034 C 
HETATM   10  C   LIG     1       1.424   2.783  -0.385  1.00  0.00    -0.084 C 
HETATM   11  C   LIG     1       1.202   3.738  -1.304  1.00  0.00     0.015 C 
HETATM   12  C   LIG     1       2.388   1.590  -0.501  1.00  0.00     0.025 C 
HETATM   13  C   LIG     1      -1.302  -1.389   0.544  1.00  0.00     0.020 C 
ENDROOT
BRANCH  12  14
HETATM   14  C   LIG     1       3.351   1.643  -1.740  1.00  0.00     0.037 C 
BRANCH  14  15
HETATM   15  C   LIG     1       4.232   2.873  -1.780  1.00  0.00    -0.010 C 
HETATM   16  C   LIG     1       4.703   3.531  -2.856  1.00  0.00     0.044 C 
HETATM   17  C   LIG     1       5.585   4.717  -2.677  1.00  0.00     0.291 C 
HETATM   18  C   LIG     1       4.651   3.321  -4.325  1.00  0.00     0.181 C 
HETATM   19  O   LIG     1       6.312   4.886  -3.816  1.00  0.00    -0.315 OA
HETATM   20  O   LIG     1       5.629   5.442  -1.694  1.00  0.00    -0.260 OA
HETATM   21  C   LIG     1       6.047   3.785  -4.686  1.00  0.00     0.215 C 
BRANCH  18  22
HETATM   22  O   LIG     1       4.419   1.988  -4.723  1.00  0.00    -0.389 OA
ATOM     23  HO  LIG     1       4.386   1.854  -5.663  1.00  0.00     0.210 HD
ENDBRANCH  18  22
ENDBRANCH  14  15
ENDBRANCH  12  14
BRANCH   6  24
HETATM   24  C   LIG     1      -0.569  -0.880   2.880  1.00  0.00     0.176 C 
BRANCH  24  25
HETATM   25  O   LIG     1      -1.186  -2.072   3.368  1.00  0.00    -0.400 OA
ATOM     26  HO  LIG     1      -1.492  -1.974   4.262  1.00  0.00     0.209 HD
ENDBRANCH  24  25
ENDBRANCH   6  24
BRANCH   5  27
HETATM   27  O   LIG     1       0.317  -3.472   1.592  1.00  0.00    -0.395 OA
ATOM     28  HO  LIG     1      -0.198  -3.418   2.388  1.00  0.00     0.210 HD
ENDBRANCH   5  27
TORSDOF 6
