REMARK  1 active torsions:
REMARK  status: ('A' for Active; 'I' for Inactive)
REMARK    1  A    between atoms: C_14  and  O_16 
ROOT
HETATM    1  C   LIG     1       0.814  -0.123  -0.067  1.00  0.00     0.050 C 
HETATM    2  C   LIG     1       0.374   1.301   0.113  1.00  0.00    -0.034 A 
HETATM    3  C   LIG     1      -0.938   1.567   0.548  1.00  0.00     0.009 A 
HETATM    4  C   LIG     1      -1.405   2.867   0.723  1.00  0.00     0.002 A 
HETATM    5  C   LIG     1      -0.575   3.959   0.464  1.00  0.00     0.014 A 
HETATM    6  C   LIG     1       0.743   3.737   0.018  1.00  0.00     0.004 A 
HETATM    7  C   LIG     1       1.184   2.423  -0.148  1.00  0.00     0.050 A 
HETATM    8  N   LIG     1       2.486   2.501  -0.590  1.00  0.00    -0.354 N 
ATOM      9  HN  LIG     1       3.070   1.692  -0.800  1.00  0.00     0.166 HD
HETATM   10  C   LIG     1       2.899   3.806  -0.713  1.00  0.00     0.046 A 
HETATM   11  C   LIG     1       1.825   4.607  -0.336  1.00  0.00     0.003 A 
HETATM   12  C   LIG     1       1.986   6.006  -0.370  1.00  0.00     0.017 A 
HETATM   13  C   LIG     1       3.213   6.543  -0.782  1.00  0.00     0.038 A 
HETATM   14  C   LIG     1       4.275   5.721  -1.159  1.00  0.00     0.070 A 
HETATM   15  C   LIG     1       4.135   4.329  -1.128  1.00  0.00     0.067 A 
ENDROOT
BRANCH  14  16
HETATM   16  O   LIG     1       5.405   6.399  -1.538  1.00  0.00    -0.356 OA
HETATM   17  C   LIG     1       6.511   5.616  -1.968  1.00  0.00     0.210 C 
ENDBRANCH  14  16
TORSDOF 1
