REMARK  12 active torsions:
REMARK  status: ('A' for Active; 'I' for Inactive)
REMARK    1  A    between atoms: C_2  and  C_3 
REMARK    2  A    between atoms: C_3  and  C_4 
REMARK    3  A    between atoms: C_4  and  C_5 
REMARK    4  A    between atoms: C_5  and  C_6 
REMARK    5  A    between atoms: C_6  and  C_7 
REMARK    6  A    between atoms: C_7  and  C_8 
REMARK    7  A    between atoms: C_8  and  C_9 
REMARK    8  A    between atoms: C_9  and  C_10 
REMARK    9  A    between atoms: C_10  and  C_11 
REMARK   10  A    between atoms: C_11  and  C_12 
REMARK   11  A    between atoms: C_17  and  O_21 
REMARK   12  A    between atoms: C_18  and  O_19 
ROOT
HETATM    1  C   LIG     1      -1.958  -7.292   8.561  1.00  0.00     0.032 C 
HETATM    2  C   LIG     1      -2.560  -7.010   9.891  1.00  0.00     0.230 C 
HETATM    3  C   LIG     1      -1.742  -7.304  11.129  1.00  0.00     0.225 C 
HETATM    4  O   LIG     1      -2.111  -6.938  12.267  1.00  0.00    -0.284 OA
HETATM    5  C   LIG     1      -0.483  -8.040  10.983  1.00  0.00     0.098 C 
HETATM    6  C   LIG     1      -0.073  -8.348   9.749  1.00  0.00     0.103 C 
HETATM    7  C   LIG     1      -0.798  -7.971   8.556  1.00  0.00     0.109 C 
HETATM    8  O   LIG     1      -3.721  -6.568  10.007  1.00  0.00    -0.283 OA
ENDROOT
BRANCH   1   9
HETATM    9  C   LIG     1      -2.722  -6.870   7.331  1.00  0.00     0.046 C 
BRANCH   9  10
HETATM   10  C   LIG     1      -1.989  -5.900   6.408  1.00  0.00     0.005 C 
BRANCH  10  11
HETATM   11  C   LIG     1      -2.906  -5.532   5.211  1.00  0.00     0.000 C 
BRANCH  11  12
HETATM   12  C   LIG     1      -2.139  -4.642   4.272  1.00  0.00     0.000 C 
BRANCH  12  13
HETATM   13  C   LIG     1      -2.810  -4.066   3.032  1.00  0.00     0.000 C 
BRANCH  13  14
HETATM   14  C   LIG     1      -1.991  -3.098   2.146  1.00  0.00     0.000 C 
BRANCH  14  15
HETATM   15  C   LIG     1      -1.398  -1.866   2.842  1.00  0.00     0.000 C 
BRANCH  15  16
HETATM   16  C   LIG     1      -0.426  -2.069   4.012  1.00  0.00     0.000 C 
BRANCH  16  17
HETATM   17  C   LIG     1       0.858  -2.887   3.730  1.00  0.00    -0.000 C 
BRANCH  17  18
HETATM   18  C   LIG     1       0.752  -4.273   3.095  1.00  0.00    -0.005 C 
HETATM   19  C   LIG     1       2.011  -5.025   2.772  1.00  0.00     0.005 C 
ENDBRANCH  17  18
ENDBRANCH  16  17
ENDBRANCH  15  16
ENDBRANCH  14  15
ENDBRANCH  13  14
ENDBRANCH  12  13
ENDBRANCH  11  12
ENDBRANCH  10  11
ENDBRANCH   9  10
ENDBRANCH   1   9
BRANCH   7  20
HETATM   20  O   LIG     1      -0.203  -8.368   7.376  1.00  0.00    -0.357 OA
ATOM     21  HO  LIG     1       0.617  -8.848   7.372  1.00  0.00     0.217 HD
ENDBRANCH   7  20
BRANCH   6  22
HETATM   22  O   LIG     1       1.106  -9.022   9.497  1.00  0.00    -0.358 OA
ATOM     23  HO  LIG     1       1.397  -9.241   8.620  1.00  0.00     0.217 HD
ENDBRANCH   6  22
TORSDOF 12
