REMARK  10 active torsions:
REMARK  status: ('A' for Active; 'I' for Inactive)
REMARK    1  A    between atoms: C_3  and  O_29 
REMARK    2  A    between atoms: C_4  and  O_27 
REMARK    3  A    between atoms: C_6  and  C_7 
REMARK    4  A    between atoms: C_8  and  C_9 
REMARK    5  A    between atoms: C_9  and  O_11 
REMARK    6  A    between atoms: O_11  and  C_12 
REMARK    7  A    between atoms: C_14  and  O_25 
REMARK    8  A    between atoms: C_14  and  C_22 
REMARK    9  A    between atoms: C_16  and  O_20 
REMARK   10  A    between atoms: C_17  and  O_18 
ROOT
HETATM    1  C   LIG     1      -3.157  -6.598  -0.452  1.00  0.00     0.166 C 
HETATM    2  C   LIG     1      -3.073  -7.991  -1.076  1.00  0.00     0.084 C 
HETATM    3  C   LIG     1      -2.438  -8.998  -0.122  1.00  0.00     0.150 C 
HETATM    4  C   LIG     1      -3.143  -9.042   1.235  1.00  0.00     0.083 C 
HETATM    5  C   LIG     1      -3.243  -7.649   1.855  1.00  0.00     0.152 C 
HETATM    6  C   LIG     1      -3.901  -6.649   0.892  1.00  0.00     0.176 C 
ENDROOT
BRANCH   1   7
HETATM    7  O   LIG     1      -3.909  -5.761  -1.354  1.00  0.00    -0.310 OA
BRANCH   7   8
HETATM    8  C   LIG     1      -3.280  -4.671  -1.853  1.00  0.00     0.283 C 
HETATM    9  O   LIG     1      -2.148  -4.283  -1.643  1.00  0.00    -0.260 OA
BRANCH   8  10
HETATM   10  C   LIG     1      -4.238  -4.032  -2.775  1.00  0.00     0.083 C 
HETATM   11  C   LIG     1      -3.823  -3.186  -3.731  1.00  0.00     0.017 C 
BRANCH  11  12
HETATM   12  C   LIG     1      -4.747  -2.555  -4.684  1.00  0.00    -0.033 A 
HETATM   13  C   LIG     1      -6.067  -2.239  -4.326  1.00  0.00     0.014 A 
HETATM   14  C   LIG     1      -6.938  -1.648  -5.241  1.00  0.00     0.040 A 
HETATM   15  C   LIG     1      -6.487  -1.349  -6.522  1.00  0.00     0.098 A 
HETATM   16  C   LIG     1      -5.171  -1.633  -6.886  1.00  0.00     0.099 A 
HETATM   17  C   LIG     1      -4.298  -2.230  -5.972  1.00  0.00     0.050 A 
BRANCH  15  18
HETATM   18  O   LIG     1      -7.332  -0.772  -7.428  1.00  0.00    -0.358 OA
ATOM     19  HO  LIG     1      -7.024  -0.568  -8.303  1.00  0.00     0.217 HD
ENDBRANCH  15  18
BRANCH  16  20
HETATM   20  O   LIG     1      -4.746  -1.323  -8.149  1.00  0.00    -0.358 OA
ATOM     21  HO  LIG     1      -3.850  -1.516  -8.397  1.00  0.00     0.217 HD
ENDBRANCH  16  20
ENDBRANCH  11  12
ENDBRANCH   8  10
ENDBRANCH   7   8
ENDBRANCH   1   7
BRANCH   6  22
HETATM   22  O   LIG     1      -3.898  -5.345   1.500  1.00  0.00    -0.390 OA
ATOM     23  HO  LIG     1      -4.358  -5.377   2.331  1.00  0.00     0.210 HD
ENDBRANCH   6  22
BRANCH   5  24
HETATM   24  O   LIG     1      -1.940  -7.152   2.213  1.00  0.00    -0.393 OA
ATOM     25  HO  LIG     1      -2.002  -6.286   2.598  1.00  0.00     0.210 HD
ENDBRANCH   5  24
BRANCH   3  26
HETATM   26  O   LIG     1      -1.055  -8.609   0.106  1.00  0.00    -0.379 OA
ATOM     27  HO  LIG     1      -0.660  -9.236   0.700  1.00  0.00     0.211 HD
ENDBRANCH   3  26
BRANCH   3  28
HETATM   28  C   LIG     1      -2.473 -10.418  -0.775  1.00  0.00     0.209 C 
HETATM   29  O   LIG     1      -3.609 -10.886  -1.052  1.00  0.00    -0.646 OA
HETATM   30  O   LIG     1      -1.312 -10.906  -0.937  1.00  0.00    -0.646 OA
ENDBRANCH   3  28
TORSDOF 10
