REMARK  3 active torsions:
REMARK  status: ('A' for Active; 'I' for Inactive)
REMARK    1  A    between atoms: C_5  and  O_35 
REMARK    2  A    between atoms: C_8  and  O_31 
REMARK    3  A    between atoms: C_18  and  C_26 
ROOT
HETATM    1  C   LIG     1      -6.863  -5.383  -0.404  1.00  0.00     0.016 C 
HETATM    2  C   LIG     1      -7.008  -3.917  -0.925  1.00  0.00    -0.033 C 
HETATM    3  C   LIG     1      -7.382  -4.005  -2.427  1.00  0.00     0.012 C 
HETATM    4  C   LIG     1      -8.768  -4.610  -2.680  1.00  0.00     0.033 C 
HETATM    5  C   LIG     1      -9.890  -3.910  -1.916  1.00  0.00     0.126 C 
HETATM    6  C   LIG     1      -9.616  -3.660  -0.392  1.00  0.00    -0.015 C 
HETATM    7  C   LIG     1      -8.145  -3.114  -0.203  1.00  0.00     0.033 C 
HETATM    8  C   LIG     1      -7.645  -2.697   1.199  1.00  0.00     0.124 C 
HETATM    9  C   LIG     1      -6.543  -1.620   1.106  1.00  0.00     0.042 C 
HETATM   10  C   LIG     1      -5.492  -1.798  -0.039  1.00  0.00    -0.026 C 
HETATM   11  C   LIG     1      -5.579  -3.260  -0.627  1.00  0.00     0.007 C 
HETATM   12  C   LIG     1      -4.540  -3.463  -1.736  1.00  0.00     0.033 C 
HETATM   13  C   LIG     1      -4.565  -2.386  -2.761  1.00  0.00    -0.022 C 
HETATM   14  C   LIG     1      -5.016  -1.127  -2.584  1.00  0.00    -0.069 C 
HETATM   15  C   LIG     1      -5.520  -0.623  -1.202  1.00  0.00    -0.013 C 
HETATM   16  C   LIG     1      -6.914   0.065  -1.388  1.00  0.00     0.016 C 
HETATM   17  C   LIG     1      -7.411   0.165  -2.828  1.00  0.00     0.022 C 
HETATM   18  C   LIG     1      -6.363   0.758  -3.785  1.00  0.00     0.056 C 
HETATM   19  C   LIG     1      -5.049  -0.089  -3.761  1.00  0.00     0.035 C 
HETATM   20  C   LIG     1      -4.787  -0.740  -5.150  1.00  0.00     0.019 C 
HETATM   21  C   LIG     1      -4.837   0.210  -6.370  1.00  0.00    -0.047 C 
HETATM   22  C   LIG     1      -6.026   1.187  -6.298  1.00  0.00     0.010 C 
HETATM   23  C   LIG     1      -7.014   0.827  -5.193  1.00  0.00     0.022 C 
HETATM   24  C   LIG     1      -4.972  -0.657  -7.641  1.00  0.00     0.015 C 
HETATM   25  C   LIG     1      -3.520   1.000  -6.482  1.00  0.00     0.015 C 
HETATM   26  C   LIG     1      -4.565   0.539  -0.771  1.00  0.00     0.021 C 
HETATM   27  C   LIG     1      -4.101  -1.752   0.712  1.00  0.00     0.016 C 
HETATM   28  C   LIG     1     -10.667  -2.613   0.082  1.00  0.00     0.018 C 
HETATM   29  C   LIG     1      -9.899  -4.947   0.407  1.00  0.00     0.018 C 
ENDROOT
BRANCH  18  30
HETATM   30  C   LIG     1      -6.142   2.277  -3.457  1.00  0.00     0.182 C 
HETATM   31  O   LIG     1      -4.988   2.736  -3.690  1.00  0.00    -0.647 OA
HETATM   32  O   LIG     1      -7.152   2.902  -3.019  1.00  0.00    -0.647 OA
ENDBRANCH  18  30
BRANCH   8  33
HETATM   33  O   LIG     1      -8.652  -2.167   2.047  1.00  0.00    -0.395 OA
ATOM     34  HO  LIG     1      -8.345  -1.911   2.909  1.00  0.00     0.210 HD
ENDBRANCH   8  33
BRANCH   5  35
HETATM   35  O   LIG     1     -10.184  -2.692  -2.606  1.00  0.00    -0.395 OA
ATOM     36  HO  LIG     1     -10.882  -2.257  -2.131  1.00  0.00     0.210 HD
ENDBRANCH   5  35
TORSDOF 3
