REMARK  15 active torsions:
REMARK  status: ('A' for Active; 'I' for Inactive)
REMARK    1  A    between atoms: C_3  and  O_50 
REMARK    2  A    between atoms: C_4  and  O_48 
REMARK    3  A    between atoms: C_5  and  O_46 
REMARK    4  A    between atoms: C_6  and  O_8 
REMARK    5  A    between atoms: O_8  and  C_9 
REMARK    6  A    between atoms: C_9  and  C_10 
REMARK    7  A    between atoms: C_11  and  O_44 
REMARK    8  A    between atoms: C_12  and  O_42 
REMARK    9  A    between atoms: C_13  and  O_40 
REMARK   10  A    between atoms: C_14  and  O_16 
REMARK   11  A    between atoms: O_16  and  C_17 
REMARK   12  A    between atoms: C_19  and  O_38 
REMARK   13  A    between atoms: C_24  and  C_28 
REMARK   14  A    between atoms: C_31  and  O_36 
REMARK   15  A    between atoms: C_32  and  O_34 
ROOT
HETATM    1  C   LIG     1      -2.406  -0.262  -2.181  1.00  0.00     0.180 C 
HETATM    2  C   LIG     1      -1.307  -0.676  -1.189  1.00  0.00     0.180 C 
HETATM    3  C   LIG     1      -1.974  -1.378   0.008  1.00  0.00     0.183 C 
HETATM    4  C   LIG     1      -2.846  -2.562  -0.457  1.00  0.00     0.205 C 
HETATM    5  C   LIG     1      -3.854  -2.057  -1.512  1.00  0.00     0.298 C 
HETATM    6  O   LIG     1      -3.169  -1.405  -2.585  1.00  0.00    -0.348 OA
ENDROOT
BRANCH   5   7
HETATM    7  O   LIG     1      -4.650  -3.149  -2.017  1.00  0.00    -0.318 OA
BRANCH   7   8
HETATM    8  C   LIG     1      -5.569  -2.793  -2.975  1.00  0.00     0.077 A 
HETATM    9  C   LIG     1      -5.880  -3.741  -3.958  1.00  0.00     0.074 A 
HETATM   10  C   LIG     1      -6.764  -3.421  -4.999  1.00  0.00     0.089 A 
HETATM   11  C   LIG     1      -7.330  -2.142  -5.040  1.00  0.00     0.076 A 
HETATM   12  O   LIG     1      -6.976  -4.375  -5.952  1.00  0.00    -0.340 OA
HETATM   13  C   LIG     1      -7.045  -1.215  -4.051  1.00  0.00     0.085 A 
HETATM   14  C   LIG     1      -8.152  -1.783  -6.207  1.00  0.00     0.167 C 
HETATM   15  C   LIG     1      -6.195  -1.543  -3.009  1.00  0.00     0.074 A 
HETATM   16  C   LIG     1      -8.157  -2.724  -7.356  1.00  0.00     0.121 C 
HETATM   17  O   LIG     1      -8.716  -0.679  -6.243  1.00  0.00    -0.292 OA
HETATM   18  C   LIG     1      -8.109  -4.150  -6.813  1.00  0.00     0.169 C 
BRANCH  13  19
HETATM   19  O   LIG     1      -7.537   0.064  -4.048  1.00  0.00    -0.360 OA
ATOM     20  HO  LIG     1      -8.120   0.289  -4.763  1.00  0.00     0.217 HD
ENDBRANCH  13  19
BRANCH  18  21
HETATM   21  C   LIG     1      -7.975  -5.131  -7.964  1.00  0.00    -0.026 A 
HETATM   22  C   LIG     1      -6.821  -5.105  -8.762  1.00  0.00     0.049 A 
HETATM   23  C   LIG     1      -6.659  -5.988  -9.827  1.00  0.00     0.099 A 
HETATM   24  C   LIG     1      -7.635  -6.947 -10.106  1.00  0.00     0.101 A 
HETATM   25  C   LIG     1      -8.803  -6.962  -9.329  1.00  0.00     0.040 A 
HETATM   26  C   LIG     1      -8.974  -6.065  -8.265  1.00  0.00     0.012 A 
BRANCH  23  27
HETATM   27  O   LIG     1      -5.535  -5.861 -10.592  1.00  0.00    -0.358 OA
ATOM     28  HO  LIG     1      -4.871  -5.209 -10.402  1.00  0.00     0.217 HD
ENDBRANCH  23  27
BRANCH  24  29
HETATM   29  O   LIG     1      -7.591  -7.881 -11.109  1.00  0.00    -0.353 OA
HETATM   30  C   LIG     1      -6.287  -8.331 -11.474  1.00  0.00     0.210 C 
ENDBRANCH  24  29
ENDBRANCH  18  21
ENDBRANCH   7   8
ENDBRANCH   5   7
BRANCH   4  31
HETATM   31  O   LIG     1      -1.991  -3.595  -0.981  1.00  0.00    -0.388 OA
ATOM     32  HO  LIG     1      -2.528  -4.324  -1.267  1.00  0.00     0.210 HD
ENDBRANCH   4  31
BRANCH   3  33
HETATM   33  O   LIG     1      -0.970  -1.843   0.915  1.00  0.00    -0.390 OA
ATOM     34  HO  LIG     1      -1.382  -2.276   1.654  1.00  0.00     0.210 HD
ENDBRANCH   3  33
BRANCH   1  35
HETATM   35  C   LIG     1      -1.848   0.332  -3.469  1.00  0.00     0.205 C 
BRANCH  35  36
HETATM   36  O   LIG     1      -0.983   1.435  -3.201  1.00  0.00    -0.356 OA
BRANCH  36  37
HETATM   37  C   LIG     1      -0.468   1.963  -4.428  1.00  0.00     0.291 C 
HETATM   38  C   LIG     1       0.451   3.163  -4.129  1.00  0.00     0.204 C 
HETATM   39  C   LIG     1       1.075   3.664  -5.435  1.00  0.00     0.183 C 
HETATM   40  C   LIG     1       1.759   2.514  -6.192  1.00  0.00     0.178 C 
HETATM   41  C   LIG     1       0.811   1.319  -6.357  1.00  0.00     0.152 C 
HETATM   42  C   LIG     1      -0.303   1.522  -7.387  1.00  0.00     0.042 C 
HETATM   43  O   LIG     1       0.284   0.938  -5.082  1.00  0.00    -0.351 OA
BRANCH  38  44
HETATM   44  O   LIG     1       1.541   2.799  -3.250  1.00  0.00    -0.388 OA
ATOM     45  HO  LIG     1       1.154   2.488  -2.440  1.00  0.00     0.210 HD
ENDBRANCH  38  44
BRANCH  39  46
HETATM   46  O   LIG     1       2.058   4.674  -5.159  1.00  0.00    -0.390 OA
ATOM     47  HO  LIG     1       1.635   5.385  -4.691  1.00  0.00     0.210 HD
ENDBRANCH  39  46
BRANCH  40  48
HETATM   48  O   LIG     1       2.240   2.977  -7.452  1.00  0.00    -0.390 OA
ATOM     49  HO  LIG     1       2.827   3.717  -7.350  1.00  0.00     0.210 HD
ENDBRANCH  40  48
ENDBRANCH  36  37
ENDBRANCH  35  36
ENDBRANCH   1  35
BRANCH   2  50
HETATM   50  O   LIG     1      -0.394  -1.601  -1.812  1.00  0.00    -0.390 OA
ATOM     51  HO  LIG     1       0.285  -1.857  -1.199  1.00  0.00     0.210 HD
ENDBRANCH   2  50
TORSDOF 15
