REMARK  5 active torsions:
REMARK  status: ('A' for Active; 'I' for Inactive)
REMARK    1  A    between atoms: N_3  and  C_10 
REMARK    2  A    between atoms: C_5  and  O_8 
REMARK    3  A    between atoms: C_10  and  CA_11 
REMARK    4  A    between atoms: CA_11  and  C_12 
REMARK    5  A    between atoms: CA_11  and  N_15 
ROOT
HETATM    1  C   LIG     1      -2.024   1.414   0.791  1.00  0.00     0.075 A 
HETATM    2  C   LIG     1      -0.729   1.110   0.637  1.00  0.00     0.094 A 
HETATM    3  N   LIG     1      -0.256  -0.104   0.144  1.00  0.00    -0.361 N 
HETATM    4  C   LIG     1      -1.189  -1.092  -0.160  1.00  0.00     0.131 A 
HETATM    5  C   LIG     1      -2.514  -0.932  -0.061  1.00  0.00     0.131 A 
HETATM    6  C   LIG     1      -3.026   0.379   0.444  1.00  0.00     0.207 A 
HETATM    7  O   LIG     1      -4.229   0.576   0.539  1.00  0.00    -0.285 OA
ENDROOT
BRANCH   3   8
HETATM    8  C   LIG     1       1.201  -0.304  -0.093  1.00  0.00     0.171 C 
BRANCH   8   9
HETATM    9  CA  LIG     1       1.653   0.574  -1.266  1.00  0.00     0.301 C 
BRANCH   9  10
HETATM   10  C   LIG     1       3.131   0.221  -1.471  1.00  0.00     0.206 C 
HETATM   11  O   LIG     1       3.961   0.873  -0.802  1.00  0.00    -0.646 OA
HETATM   12  OXT LIG     1       3.248  -0.646  -2.393  1.00  0.00    -0.646 OA
ENDBRANCH   9  10
BRANCH   9  13
HETATM   13  N   LIG     1       0.847   0.224  -2.509  1.00  0.00    -0.064 N 
ATOM     14  HN3 LIG     1       0.897  -0.770  -2.732  1.00  0.00     0.275 HD
ATOM     15  HN2 LIG     1      -0.158   0.288  -2.346  1.00  0.00     0.275 HD
ATOM     16  HN1 LIG     1       1.148   0.808  -3.289  1.00  0.00     0.275 HD
ENDBRANCH   9  13
ENDBRANCH   8   9
ENDBRANCH   3   8
BRANCH   5  17
HETATM   17  O   LIG     1      -3.417  -1.899  -0.442  1.00  0.00    -0.356 OA
ATOM     18  HO  LIG     1      -4.358  -1.785  -0.372  1.00  0.00     0.218 HD
ENDBRANCH   5  17
TORSDOF 5
