REMARK  6 active torsions:
REMARK  status: ('A' for Active; 'I' for Inactive)
REMARK    1  A    between atoms: C_5  and  O_27 
REMARK    2  A    between atoms: C_6  and  C_24 
REMARK    3  A    between atoms: C_12  and  C_13 
REMARK    4  A    between atoms: C_13  and  C_14 
REMARK    5  A    between atoms: C_16  and  O_21 
REMARK    6  A    between atoms: C_24  and  O_25 
ROOT
HETATM    1  C   LIG     1       0.309  -0.367  -1.838  1.00  0.00     0.016 C 
HETATM    2  C   LIG     1       1.321  -0.156  -0.683  1.00  0.00    -0.032 C 
HETATM    3  C   LIG     1       2.162  -1.450  -0.529  1.00  0.00     0.012 C 
HETATM    4  C   LIG     1       1.369  -2.638   0.031  1.00  0.00     0.033 C 
HETATM    5  C   LIG     1       0.722  -2.328   1.380  1.00  0.00     0.128 C 
HETATM    6  C   LIG     1      -0.179  -1.059   1.377  1.00  0.00     0.008 C 
HETATM    7  C   LIG     1       0.630   0.135   0.727  1.00  0.00     0.007 C 
HETATM    8  C   LIG     1      -0.138   1.483   0.731  1.00  0.00     0.010 C 
HETATM    9  C   LIG     1       0.745   2.651   0.293  1.00  0.00     0.034 C 
HETATM   10  C   LIG     1       1.333   2.341  -1.055  1.00  0.00    -0.084 C 
HETATM   11  C   LIG     1       0.971   3.055  -2.134  1.00  0.00     0.015 C 
HETATM   12  C   LIG     1       2.241   1.106  -1.040  1.00  0.00     0.025 C 
HETATM   13  C   LIG     1      -1.533  -1.340   0.683  1.00  0.00     0.020 C 
ENDROOT
BRANCH  12  14
HETATM   14  C   LIG     1       3.172   0.972  -2.286  1.00  0.00     0.037 C 
BRANCH  14  15
HETATM   15  C   LIG     1       4.031   2.195  -2.536  1.00  0.00    -0.010 C 
HETATM   16  C   LIG     1       5.275   2.443  -2.086  1.00  0.00     0.044 C 
HETATM   17  C   LIG     1       5.955   3.731  -2.340  1.00  0.00     0.291 C 
HETATM   18  C   LIG     1       6.165   1.623  -1.239  1.00  0.00     0.181 C 
HETATM   19  O   LIG     1       7.050   3.794  -1.533  1.00  0.00    -0.315 OA
HETATM   20  O   LIG     1       5.610   4.595  -3.137  1.00  0.00    -0.260 OA
HETATM   21  C   LIG     1       7.034   2.691  -0.610  1.00  0.00     0.215 C 
BRANCH  18  22
HETATM   22  O   LIG     1       6.952   0.747  -2.044  1.00  0.00    -0.389 OA
ATOM     23  HO  LIG     1       7.524   0.220  -1.499  1.00  0.00     0.210 HD
ENDBRANCH  18  22
ENDBRANCH  14  15
ENDBRANCH  12  14
BRANCH   6  24
HETATM   24  C   LIG     1      -0.543  -0.735   2.863  1.00  0.00     0.176 C 
BRANCH  24  25
HETATM   25  O   LIG     1       0.614  -0.473   3.652  1.00  0.00    -0.400 OA
ATOM     26  HO  LIG     1       0.393  -0.276   4.555  1.00  0.00     0.209 HD
ENDBRANCH  24  25
ENDBRANCH   6  24
BRANCH   5  27
HETATM   27  O   LIG     1      -0.032  -3.462   1.817  1.00  0.00    -0.395 OA
ATOM     28  HO  LIG     1      -0.434  -3.269   2.656  1.00  0.00     0.210 HD
ENDBRANCH   5  27
TORSDOF 6
