REMARK  8 active torsions:
REMARK  status: ('A' for Active; 'I' for Inactive)
REMARK    1  A    between atoms: C_2  and  C_3 
REMARK    2  A    between atoms: C_2  and  O_18 
REMARK    3  A    between atoms: C_3  and  C_4 
REMARK    4  A    between atoms: C_4  and  C_6 
REMARK    5  A    between atoms: C_6  and  C_7 
REMARK    6  A    between atoms: C_7  and  C_8 
REMARK    7  A    between atoms: C_11  and  O_16 
REMARK    8  A    between atoms: C_12  and  O_14 
ROOT
HETATM    1  C   LIG     1      -1.464  -2.296   1.013  1.00  0.00    -0.055 A 
HETATM    2  C   LIG     1      -2.105  -2.535   2.233  1.00  0.00     0.010 A 
HETATM    3  C   LIG     1      -2.111  -3.815   2.793  1.00  0.00     0.040 A 
HETATM    4  C   LIG     1      -1.487  -4.876   2.131  1.00  0.00     0.099 A 
HETATM    5  C   LIG     1      -0.845  -4.662   0.908  1.00  0.00     0.101 A 
HETATM    6  C   LIG     1      -0.830  -3.369   0.367  1.00  0.00     0.046 A 
ENDROOT
BRANCH   1   7
HETATM    7  C   LIG     1      -1.506  -0.926   0.376  1.00  0.00     0.046 C 
BRANCH   7   8
HETATM    8  C   LIG     1      -0.122  -0.312   0.143  1.00  0.00     0.083 C 
BRANCH   8   9
HETATM    9  C   LIG     1      -0.194   1.030  -0.564  1.00  0.00     0.129 C 
HETATM   10  O   LIG     1      -1.267   1.550  -0.900  1.00  0.00    -0.298 OA
BRANCH   9  11
HETATM   11  C   LIG     1       1.118   1.734  -0.817  1.00  0.00     0.109 C 
BRANCH  11  12
HETATM   12  C   LIG     1       1.363   1.934  -2.309  1.00  0.00     0.121 C 
HETATM   13  C   LIG     1       2.668   2.681  -2.564  1.00  0.00     0.040 C 
BRANCH  12  14
HETATM   14  O   LIG     1       1.470   0.652  -2.929  1.00  0.00    -0.396 OA
ATOM     15  HO  LIG     1       0.657   0.187  -2.770  1.00  0.00     0.210 HD
ENDBRANCH  12  14
ENDBRANCH  11  12
ENDBRANCH   9  11
ENDBRANCH   8   9
ENDBRANCH   7   8
ENDBRANCH   1   7
BRANCH   5  16
HETATM   16  O   LIG     1      -0.165  -5.585   0.158  1.00  0.00    -0.353 OA
HETATM   17  C   LIG     1      -0.658  -6.918   0.206  1.00  0.00     0.210 C 
ENDBRANCH   5  16
BRANCH   4  18
HETATM   18  O   LIG     1      -1.506  -6.112   2.716  1.00  0.00    -0.358 OA
ATOM     19  HO  LIG     1      -1.082  -6.833   2.266  1.00  0.00     0.217 HD
ENDBRANCH   4  18
TORSDOF 8
