REMARK  4 active torsions:
REMARK  status: ('A' for Active; 'I' for Inactive)
REMARK    1  A    between atoms: C_7  and  O_15 
REMARK    2  A    between atoms: C_8  and  O_13 
REMARK    3  A    between atoms: C_21  and  O_25 
REMARK    4  A    between atoms: C_22  and  O_23 
ROOT
HETATM    1  C   LIG     1      -2.837   1.216  -0.002  1.00  0.00     0.058 A 
HETATM    2  C   LIG     1      -1.436   1.224  -0.000  1.00  0.00     0.056 A 
HETATM    3  C   LIG     1      -0.728   0.019   0.000  1.00  0.00     0.031 A 
HETATM    4  C   LIG     1       0.707   0.005   0.001  1.00  0.00     0.031 A 
HETATM    5  C   LIG     1       1.413  -1.201   0.001  1.00  0.00     0.056 A 
HETATM    6  C   LIG     1       2.817  -1.202   0.001  1.00  0.00     0.058 A 
HETATM    7  C   LIG     1       3.494   0.015   0.001  1.00  0.00     0.102 A 
HETATM    8  C   LIG     1       2.792   1.221  -0.000  1.00  0.00     0.134 A 
HETATM    9  C   LIG     1       1.403   1.208   0.000  1.00  0.00     0.127 A 
HETATM   10  O   LIG     1       0.696   2.430  -0.000  1.00  0.00    -0.271 OA
HETATM   11  C   LIG     1      -0.697   2.513  -0.000  1.00  0.00     0.299 A 
HETATM   12  O   LIG     1      -1.286   3.586   0.000  1.00  0.00    -0.259 OA
HETATM   13  C   LIG     1       0.670  -2.487   0.001  1.00  0.00     0.299 A 
HETATM   14  O   LIG     1       1.255  -3.562   0.001  1.00  0.00    -0.259 OA
HETATM   15  O   LIG     1      -0.726  -2.411   0.001  1.00  0.00    -0.271 OA
HETATM   16  C   LIG     1      -1.424  -1.185   0.001  1.00  0.00     0.127 A 
HETATM   17  C   LIG     1      -2.812  -1.206  -0.001  1.00  0.00     0.134 A 
HETATM   18  C   LIG     1      -3.510  -0.002  -0.002  1.00  0.00     0.102 A 
ENDROOT
BRANCH   7  19
HETATM   19  O   LIG     1       4.860   0.079   0.001  1.00  0.00    -0.358 OA
ATOM     20  HO  LIG     1       5.322   0.909   0.001  1.00  0.00     0.217 HD
ENDBRANCH   7  19
BRANCH   8  21
HETATM   21  O   LIG     1       3.478   2.401  -0.001  1.00  0.00    -0.356 OA
ATOM     22  HO  LIG     1       3.000   3.222  -0.002  1.00  0.00     0.218 HD
ENDBRANCH   8  21
BRANCH  17  23
HETATM   23  O   LIG     1      -3.524  -2.372  -0.000  1.00  0.00    -0.356 OA
ATOM     24  HO  LIG     1      -4.474  -2.386  -0.001  1.00  0.00     0.218 HD
ENDBRANCH  17  23
BRANCH  18  25
HETATM   25  O   LIG     1      -4.874  -0.003  -0.005  1.00  0.00    -0.358 OA
ATOM     26  HO  LIG     1      -5.333  -0.835  -0.005  1.00  0.00     0.217 HD
ENDBRANCH  18  25
TORSDOF 4
