REMARK  1 active torsions:
REMARK  status: ('A' for Active; 'I' for Inactive)
REMARK    1  A    between atoms: C_1  and  C_3 
ROOT
HETATM    1  C   UNL     1       0.863  -0.311   0.007  1.00  0.00     0.081 A 
HETATM    2  S   UNL     1      -0.152   1.069   0.020  1.00  0.00    -0.088 SA
HETATM    3  C   UNL     1       0.118  -1.476  -0.005  1.00  0.00     0.027 A 
HETATM    4  C   UNL     1      -1.575   0.119   0.018  1.00  0.00    -0.020 A 
HETATM    5  C   UNL     1      -1.285  -1.228   0.000  1.00  0.00     0.015 A 
HETATM    6  C   UNL     1      -2.913   0.777   0.036  1.00  0.00     0.056 C 
ENDROOT
BRANCH   1   7
HETATM    7  C   UNL     1       2.297  -0.142   0.013  1.00  0.00     0.216 C 
HETATM    8  O   UNL     1       2.952   0.891   0.025  1.00  0.00    -0.643 OA
HETATM    9  O   UNL     1       2.937  -1.335   0.004  1.00  0.00    -0.643 OA
ENDBRANCH   1   7
TORSDOF 1
