REMARK  1 active torsions:
REMARK  status: ('A' for Active; 'I' for Inactive)
REMARK    1  A    between atoms: N_1  and  C_2 
ROOT
HETATM    1  N   UNL     1      -1.492   0.049   0.097  1.00  0.00    -0.378 N 
HETATM    2  N   UNL     1       1.419  -0.057  -0.178  1.00  0.00    -0.072 N 
HETATM    3  C   UNL     1      -0.820  -1.227  -0.178  1.00  0.00     0.150 C 
HETATM    4  C   UNL     1      -0.745   1.266  -0.248  1.00  0.00     0.150 C 
HETATM    5  C   UNL     1       0.646  -1.222   0.301  1.00  0.00     0.252 C 
HETATM    6  C   UNL     1       0.719   1.176   0.246  1.00  0.00     0.252 C 
HETATM    7  H   UNL     1       2.356  -0.077   0.225  1.00  0.00     0.277 HD
HETATM    8  H   UNL     1       1.497  -0.083  -1.195  1.00  0.00     0.277 HD
ENDROOT
BRANCH   1   9
HETATM    9  C   UNL     1      -2.588   0.123   0.930  1.00  0.00     0.030 A 
HETATM   10  C   UNL     1      -2.769  -0.794   1.976  1.00  0.00     0.032 A 
HETATM   11  C   UNL     1      -3.852  -0.717   2.839  1.00  0.00     0.044 A 
HETATM   12  C   UNL     1      -4.803   0.280   2.653  1.00  0.00     0.116 A 
HETATM   13  C   UNL     1      -4.674   1.193   1.616  1.00  0.00     0.044 A 
HETATM   14  F   UNL     1      -5.844   0.360   3.485  1.00  0.00    -0.206 F 
HETATM   15  C   UNL     1      -3.572   1.118   0.764  1.00  0.00     0.032 A 
ENDBRANCH   1   9
TORSDOF 1
