REMARK  0 active torsions:
REMARK  status: ('A' for Active; 'I' for Inactive)
ROOT
HETATM    1  C   UNL     1       2.348   0.064  -0.000  1.00  0.00     0.222 A 
HETATM    2  N   UNL     1       1.604  -1.098  -0.001  1.00  0.00    -0.320 N 
HETATM    3  O   UNL     1       1.548   1.206   0.000  1.00  0.00    -0.282 OA
HETATM    4  C   UNL     1       0.277  -0.719  -0.001  1.00  0.00     0.070 A 
HETATM    5  C   UNL     1       0.273   0.663  -0.000  1.00  0.00     0.105 A 
HETATM    6  S   UNL     1       3.994   0.275   0.001  1.00  0.00    -0.032 SA
HETATM    7  C   UNL     1       2.047  -2.472  -0.003  1.00  0.00     0.159 C 
HETATM    8  C   UNL     1      -0.889  -1.455  -0.001  1.00  0.00     0.033 A 
HETATM    9  C   UNL     1      -0.901   1.386  -0.000  1.00  0.00     0.040 A 
HETATM   10  C   UNL     1      -2.093  -0.742  -0.000  1.00  0.00     0.002 A 
HETATM   11  C   UNL     1      -2.099   0.667   0.000  1.00  0.00     0.003 A 
ENDROOT
TORSDOF 0
