REMARK  1 active torsions:
REMARK  status: ('A' for Active; 'I' for Inactive)
REMARK    1  A    between atoms: C_8  and  N_9 
ROOT
HETATM    1  N   UNL     1      -1.624   1.036  -0.114  1.00  0.00    -0.359 N 
HETATM    2  C   UNL     1      -0.299  -0.755  -0.085  1.00  0.00    -0.005 A 
HETATM    3  C   UNL     1      -2.452  -0.056  -0.211  1.00  0.00     0.006 A 
HETATM    4  C   UNL     1      -1.654  -1.180  -0.135  1.00  0.00     0.038 A 
HETATM    5  C   UNL     1      -0.306   0.639  -0.077  1.00  0.00     0.042 A 
HETATM    6  C   UNL     1       0.942  -1.426  -0.087  1.00  0.00     0.042 A 
HETATM    7  C   UNL     1       0.867   1.397  -0.068  1.00  0.00     0.033 A 
HETATM    8  C   UNL     1       2.137  -0.693  -0.059  1.00  0.00     0.026 A 
HETATM    9  C   UNL     1       2.084   0.702  -0.092  1.00  0.00     0.031 A 
HETATM   10  C   UNL     1      -3.917   0.074  -0.391  1.00  0.00     0.068 C 
HETATM   11  H   UNL     1      -1.930   1.971  -0.077  1.00  0.00     0.166 HD
ENDROOT
BRANCH   8  12
HETATM   12  N   UNL     1       3.361  -1.352  -0.249  1.00  0.00    -0.399 N 
HETATM   13  H   UNL     1       4.203  -0.842  -0.230  1.00  0.00     0.156 HD
HETATM   14  H   UNL     1       3.378  -2.325  -0.401  1.00  0.00     0.156 HD
ENDBRANCH   8  12
TORSDOF 1
