REMARK  2 active torsions:
REMARK  status: ('A' for Active; 'I' for Inactive)
REMARK    1  A    between atoms: C_1  and  C_2 
REMARK    2  A    between atoms: C_2  and  N_3 
ROOT
HETATM    1  N   UNL     1       0.846   2.587   1.280  1.00  0.00    -0.065 N 
HETATM    2  N   UNL     1       1.797   2.338   4.274  1.00  0.00    -0.073 N 
HETATM    3  C   UNL     1       2.209   2.057   1.370  1.00  0.00     0.237 C 
HETATM    4  C   UNL     1       3.200   2.858   2.216  1.00  0.00     0.055 C 
HETATM    5  C   UNL     1       2.905   3.082   3.696  1.00  0.00     0.234 C 
HETATM    6  C   UNL     1       0.026   2.284   2.467  1.00  0.00     0.262 C 
HETATM    7  C   UNL     1       0.513   2.865   3.807  1.00  0.00     0.260 C 
HETATM    8  H   UNL     1       0.946   3.601   1.247  1.00  0.00     0.280 HD
HETATM    9  H   UNL     1       1.875   1.358   4.002  1.00  0.00     0.277 HD
HETATM   10  H   UNL     1       1.838   2.430   5.289  1.00  0.00     0.277 HD
ENDROOT
BRANCH   1  11
HETATM   11  C   UNL     1       0.161   2.153   0.029  1.00  0.00     0.278 C 
BRANCH  11  12
HETATM   12  C   UNL     1      -0.035   0.661  -0.171  1.00  0.00     0.028 A 
HETATM   13  C   UNL     1       0.876  -0.165  -0.853  1.00  0.00     0.045 A 
HETATM   14 CL   UNL     1       2.226   0.456  -1.736  1.00  0.00    -0.084 Cl
HETATM   15  C   UNL     1       0.701  -1.555  -0.883  1.00  0.00     0.024 A 
HETATM   16  C   UNL     1      -0.408  -2.144  -0.282  1.00  0.00     0.005 A 
HETATM   17  C   UNL     1      -1.361  -1.337   0.325  1.00  0.00     0.043 A 
HETATM   18  C   UNL     1      -1.170   0.044   0.371  1.00  0.00     0.126 A 
HETATM   19  F   UNL     1      -2.113   0.786   0.972  1.00  0.00    -0.205 F 
ENDBRANCH  11  12
ENDBRANCH   1  11
TORSDOF 2
