REMARK  5 active torsions:
REMARK  status: ('A' for Active; 'I' for Inactive)
REMARK    1  A    between atoms: N_1  and  C_4 
REMARK    2  A    between atoms: C_2  and  C_4 
REMARK    3  A    between atoms: N_3  and  C_11 
REMARK    4  A    between atoms: C_11  and  C_15 
REMARK    5  A    between atoms: O_13  and  C_15 
ROOT
HETATM    1  N   UNL     1      -1.434   0.046   0.546  1.00  0.00    -0.064 N 
HETATM    2  N   UNL     1       1.406  -0.069  -0.565  1.00  0.00    -0.066 N 
HETATM    3  C   UNL     1      -0.820  -1.195   0.029  1.00  0.00     0.263 C 
HETATM    4  C   UNL     1      -0.765   1.207  -0.068  1.00  0.00     0.263 C 
HETATM    5  C   UNL     1       0.728  -1.238   0.045  1.00  0.00     0.262 C 
HETATM    6  C   UNL     1       0.781   1.168  -0.054  1.00  0.00     0.262 C 
HETATM    7  H   UNL     1      -2.419   0.050   0.281  1.00  0.00     0.280 HD
HETATM    8  H   UNL     1       2.389  -0.031  -0.294  1.00  0.00     0.280 HD
ENDROOT
BRANCH   1   9
HETATM    9  C   UNL     1      -1.436   0.116   2.018  1.00  0.00     0.276 C 
BRANCH   9  10
HETATM   10  C   UNL     1      -2.307  -0.956   2.647  1.00  0.00     0.006 A 
HETATM   11  C   UNL     1      -1.790  -1.832   3.606  1.00  0.00     0.124 A 
HETATM   12  F   UNL     1      -0.534  -1.672   4.052  1.00  0.00    -0.206 F 
HETATM   13  C   UNL     1      -2.544  -2.895   4.097  1.00  0.00     0.043 A 
HETATM   14  C   UNL     1      -3.849  -3.086   3.640  1.00  0.00     0.003 A 
HETATM   15  C   UNL     1      -4.401  -2.191   2.726  1.00  0.00     0.001 A 
HETATM   16  C   UNL     1      -3.640  -1.126   2.238  1.00  0.00     0.012 A 
ENDBRANCH   9  10
ENDBRANCH   1   9
BRANCH   2  17
HETATM   17  C   UNL     1       1.423  -0.191  -2.040  1.00  0.00     0.260 C 
BRANCH  17  18
HETATM   18  C   UNL     1       2.214   0.922  -2.749  1.00  0.00     0.192 C 
BRANCH  18  19
HETATM   19  O   UNL     1       3.498   1.085  -2.152  1.00  0.00    -0.399 OA
HETATM   20  H   UNL     1       3.981   1.790  -2.611  1.00  0.00     0.209 HD
ENDBRANCH  18  19
ENDBRANCH  17  18
ENDBRANCH   2  17
TORSDOF 5
