REMARK  0 active torsions:
REMARK  status: ('A' for Active; 'I' for Inactive)
ROOT
HETATM    1  C   UNL     1      -3.172   0.235   0.110  1.00  0.00     0.147 A 
HETATM    2  N   UNL     1      -2.452   0.887  -0.780  1.00  0.00    -0.336 N 
ATOM      3  HN  UNL     1      -2.844   1.460  -1.528  1.00  0.00     0.168 HD
HETATM    4  S   UNL     1      -2.215  -0.660   1.245  1.00  0.00    -0.052 SA
HETATM    5  C   UNL     1      -0.773  -0.143   0.488  1.00  0.00     0.036 A 
HETATM    6  N   UNL     1      -4.537   0.248   0.133  1.00  0.00    -0.360 N 
HETATM    7  C   UNL     1      -1.098   0.697  -0.573  1.00  0.00     0.051 A 
HETATM    8  C   UNL     1       0.554  -0.455   0.823  1.00  0.00     0.045 A 
HETATM    9  N   UNL     1      -7.063   1.876   0.591  1.00  0.00    -0.074 N 
HETATM   10  C   UNL     1      -0.052   1.272  -1.324  1.00  0.00     0.032 A 
HETATM   11  C   UNL     1       1.569   0.134   0.069  1.00  0.00     0.035 A 
HETATM   12  C   UNL     1       1.277   0.992  -0.988  1.00  0.00     0.026 A 
HETATM   13  C   UNL     1      -5.323  -0.420   1.157  1.00  0.00     0.126 C 
HETATM   14 CL   UNL     1       3.209  -0.207   0.466  1.00  0.00    -0.084 Cl
HETATM   15  C   UNL     1      -5.276   0.901  -0.952  1.00  0.00     0.152 C 
HETATM   16  C   UNL     1      -5.715   0.522   2.290  1.00  0.00     0.047 C 
HETATM   17  C   UNL     1      -6.431   1.821   1.905  1.00  0.00     0.234 C 
HETATM   18  C   UNL     1      -6.074   2.131  -0.472  1.00  0.00     0.252 C 
HETATM   19  H   UNL     1      -7.525   0.986   0.407  1.00  0.00     0.277 HD
HETATM   20  H   UNL     1      -7.737   2.642   0.591  1.00  0.00     0.277 HD
ENDROOT
TORSDOF 0
