REMARK  1 active torsions:
REMARK  status: ('A' for Active; 'I' for Inactive)
REMARK    1  A    between atoms: N_4  and  O_11 
ROOT
HETATM    1  C   UNL     1       0.745   1.714  -0.374  1.00  0.00     0.040 C 
HETATM    2  N   UNL     1      -1.239   0.334  -0.028  1.00  0.00    -0.066 N 
HETATM    3  C   UNL     1      -0.771   1.707  -0.360  1.00  0.00     0.289 C 
HETATM    4  N   UNL     1       1.456   2.756  -0.634  1.00  0.00    -0.275 N 
ATOM      5  HN  UNL     1       2.473   2.682  -0.620  1.00  0.00     0.193 HD
HETATM    6  C   UNL     1       1.369   0.390  -0.044  1.00  0.00     0.038 C 
HETATM    7  C   UNL     1       0.834  -0.602  -1.097  1.00  0.00     0.038 C 
HETATM    8  C   UNL     1       0.834   0.025   1.356  1.00  0.00     0.038 C 
HETATM    9  C   UNL     1      -0.717  -0.079   1.303  1.00  0.00     0.236 C 
HETATM   10  C   UNL     1      -0.722  -0.628  -1.038  1.00  0.00     0.236 C 
HETATM   11  H   UNL     1      -2.259   0.335  -0.020  1.00  0.00     0.280 HD
ENDROOT
BRANCH   4  12
HETATM   12  O   UNL     1       0.899   3.911  -0.917  1.00  0.00    -0.290 OA
HETATM   13  H   UNL     1       1.436   4.656  -1.103  1.00  0.00     0.244 HD
ENDBRANCH   4  12
TORSDOF 1
