REMARK  3 active torsions:
REMARK  status: ('A' for Active; 'I' for Inactive)
REMARK    1  A    between atoms: C_1  and  C_2 
REMARK    2  A    between atoms: C_2  and  C_3 
REMARK    3  A    between atoms: C_2  and  O_10 
ROOT
HETATM    1  C   UNL     1       0.715   1.237  -0.005  1.00  0.00    -0.013 A 
HETATM    2  C   UNL     1       1.425   0.019   0.008  1.00  0.00    -0.053 A 
HETATM    3  C   UNL     1      -0.700   1.195  -0.002  1.00  0.00     0.017 A 
HETATM    4  C   UNL     1       0.703  -1.190   0.016  1.00  0.00     0.008 A 
HETATM    5  C   UNL     1      -1.406  -0.013   0.008  1.00  0.00    -0.061 A 
HETATM    6  C   UNL     1      -0.691  -1.208   0.015  1.00  0.00     0.007 A 
HETATM    7  C   UNL     1       2.926  -0.102   0.010  1.00  0.00     0.049 C 
HETATM    8  C   UNL     1      -2.906  -0.034   0.008  1.00  0.00     0.048 C 
ENDROOT
BRANCH   1   9
HETATM    9  C   UNL     1       1.385   2.601  -0.036  1.00  0.00     0.252 C 
BRANCH   9  10
HETATM   10  C   UNL     1       0.984   3.410  -1.282  1.00  0.00     0.207 C 
HETATM   11  O   UNL     1       0.418   4.492  -1.285  1.00  0.00    -0.646 OA
HETATM   12  O   UNL     1       1.302   2.804  -2.446  1.00  0.00    -0.646 OA
ENDBRANCH   9  10
BRANCH   9  13
HETATM   13  O   UNL     1       1.088   3.278   1.187  1.00  0.00    -0.380 OA
HETATM   14  H   UNL     1       0.128   3.391   1.268  1.00  0.00     0.211 HD
ENDBRANCH   9  13
ENDBRANCH   1   9
TORSDOF 3
