REMARK  4 active torsions:
REMARK  status: ('A' for Active; 'I' for Inactive)
REMARK    1  A    between atoms: C_1  and  C_6 
REMARK    2  A    between atoms: C_2  and  C_5 
REMARK    3  A    between atoms: C_4  and  O_8 
REMARK    4  A    between atoms: C_5  and  C_6 
ROOT
HETATM    1  C   UNL     1       2.157  -0.798  -2.522  1.00  0.00    -0.025 A 
HETATM    2  C   UNL     1       3.019   0.302  -2.619  1.00  0.00     0.071 A 
HETATM    3  C   UNL     1       2.717  -2.082  -2.674  1.00  0.00     0.010 A 
HETATM    4  C   UNL     1       4.391   0.126  -2.812  1.00  0.00     0.037 A 
HETATM    5  C   UNL     1       4.089  -2.260  -2.862  1.00  0.00     0.001 A 
HETATM    6  C   UNL     1       4.929  -1.154  -2.925  1.00  0.00     0.003 A 
ENDROOT
BRANCH   1   7
HETATM    7  C   UNL     1       0.674  -0.691  -2.244  1.00  0.00     0.052 C 
BRANCH   7   8
HETATM    8  C   UNL     1       0.275  -1.414  -0.956  1.00  0.00     0.118 C 
BRANCH   8   9
HETATM    9  C   UNL     1      -1.186  -1.237  -0.664  1.00  0.00     0.172 C 
HETATM   10  O   UNL     1      -1.904  -0.321  -1.025  1.00  0.00    -0.648 OA
HETATM   11  O   UNL     1      -1.667  -2.225   0.116  1.00  0.00    -0.648 OA
ENDBRANCH   8   9
ENDBRANCH   7   8
ENDBRANCH   1   7
BRANCH   2  12
HETATM   12  O   UNL     1       2.611   1.602  -2.527  1.00  0.00    -0.360 OA
HETATM   13  H   UNL     1       1.705   1.801  -2.396  1.00  0.00     0.217 HD
ENDBRANCH   2  12
TORSDOF 4
