REMARK  3 active torsions:
REMARK  status: ('A' for Active; 'I' for Inactive)
REMARK    1  A    between atoms: C_3  and  C_5 
REMARK    2  A    between atoms: N_4  and  C_7 
REMARK    3  A    between atoms: C_5  and  C_7 
ROOT
HETATM    1  N   UNL     1       0.207   0.970  -1.030  1.00  0.00    -0.369 N 
ATOM      2  HN  UNL     1       0.276   1.668  -1.770  1.00  0.00     0.165 HD
HETATM    3  C   UNL     1      -0.675   1.112  -0.010  1.00  0.00     0.010 A 
HETATM    4  C   UNL     1       0.991  -0.131  -1.030  1.00  0.00     0.088 A 
HETATM    5  C   UNL     1      -0.780   0.177   1.016  1.00  0.00     0.025 A 
HETATM    6  C   UNL     1       0.945  -1.109  -0.052  1.00  0.00     0.017 A 
HETATM    7  C   UNL     1       0.041  -0.948   0.989  1.00  0.00     0.003 A 
ENDROOT
BRANCH   3   8
HETATM    8  C   UNL     1      -1.530   2.357  -0.010  1.00  0.00     0.084 C 
BRANCH   8   9
HETATM    9  C   UNL     1      -2.413   2.442  -1.262  1.00  0.00     0.237 C 
BRANCH   9  10
HETATM   10  N   UNL     1      -3.260   3.643  -1.219  1.00  0.00    -0.079 N 
HETATM   11  C   UNL     1      -4.088   3.742  -2.414  1.00  0.00     0.267 C 
HETATM   12  H   UNL     1      -2.665   4.469  -1.156  1.00  0.00     0.276 HD
HETATM   13  H   UNL     1      -3.872   3.580  -0.405  1.00  0.00     0.276 HD
ENDBRANCH   9  10
ENDBRANCH   8   9
ENDBRANCH   3   8
TORSDOF 3
