REMARK  1 active torsions:
REMARK  status: ('A' for Active; 'I' for Inactive)
REMARK    1  A    between atoms: C_4  and  O_10 
ROOT
HETATM    1  C   UNL     1       0.734   1.383  -0.297  1.00  0.00     0.138 C 
HETATM    2  C   UNL     1       1.318  -0.005   0.001  1.00  0.00     0.017 C 
HETATM    3  C   UNL     1      -0.781   1.438  -0.311  1.00  0.00     0.117 C 
HETATM    4  C   UNL     1      -1.297   0.026  -0.001  1.00  0.00     0.064 C 
HETATM    5  O   UNL     1       1.420   2.384  -0.498  1.00  0.00    -0.297 OA
HETATM    6  C   UNL     1       0.767  -0.424   1.380  1.00  0.00     0.020 C 
HETATM    7  C   UNL     1       0.763  -0.955  -1.080  1.00  0.00     0.020 C 
HETATM    8  C   UNL     1      -0.769  -0.425   1.372  1.00  0.00     0.039 C 
HETATM    9  C   UNL     1      -0.772  -0.950  -1.068  1.00  0.00     0.039 C 
HETATM   10  C   UNL     1       2.842   0.003  -0.002  1.00  0.00     0.023 C 
ENDROOT
BRANCH   4  11
HETATM   11  O   UNL     1      -2.716   0.004  -0.009  1.00  0.00    -0.389 OA
HETATM   12  H   UNL     1      -3.053   0.618   0.663  1.00  0.00     0.210 HD
ENDBRANCH   4  11
TORSDOF 1
