REMARK  2 active torsions:
REMARK  status: ('A' for Active; 'I' for Inactive)
REMARK    1  A    between atoms: C_1  and  C_3 
REMARK    2  A    between atoms: C_3  and  O_10 
ROOT
HETATM    1  C   UNL     1       0.957   1.454  -0.015  1.00  0.00     0.067 A 
HETATM    2  C   UNL     1      -0.221   0.685  -0.013  1.00  0.00     0.058 A 
HETATM    3  N   UNL     1      -1.545   1.077  -0.015  1.00  0.00    -0.364 N 
HETATM    4  C   UNL     1      -2.365  -0.019  -0.027  1.00  0.00     0.089 A 
HETATM    5  C   UNL     1      -0.212  -0.711  -0.010  1.00  0.00    -0.007 A 
HETATM    6  C   UNL     1      -1.568  -1.141  -0.016  1.00  0.00     0.030 A 
HETATM    7  C   UNL     1       2.178   0.756  -0.021  1.00  0.00     0.020 A 
HETATM    8  C   UNL     1       2.211  -0.638  -0.014  1.00  0.00     0.002 A 
HETATM    9  C   UNL     1       1.026  -1.381  -0.005  1.00  0.00     0.014 A 
HETATM   10  H   UNL     1      -1.855   2.011  -0.008  1.00  0.00     0.165 HD
ENDROOT
BRANCH   1  11
HETATM   11  C   UNL     1       0.867   2.938  -0.014  1.00  0.00     0.295 C 
HETATM   12  O   UNL     1      -0.193   3.546  -0.011  1.00  0.00    -0.259 OA
BRANCH  11  13
HETATM   13  O   UNL     1       2.104   3.494  -0.014  1.00  0.00    -0.322 OA
HETATM   14  C   UNL     1       2.104   4.922  -0.010  1.00  0.00     0.213 C 
ENDBRANCH  11  13
ENDBRANCH   1  11
TORSDOF 2
