REMARK  0 active torsions:
REMARK  status: ('A' for Active; 'I' for Inactive)
ROOT
HETATM    1  C   UNL     1      -0.333  -1.338   0.001  1.00  0.00     0.100 A 
HETATM    2  N   UNL     1      -0.531   0.921   0.007  1.00  0.00    -0.264 N 
ATOM      3  HN  UNL     1      -0.920   1.864   0.008  1.00  0.00     0.194 HD
HETATM    4  O   UNL     1       0.807   0.572   0.011  1.00  0.00    -0.241 OA
HETATM    5  C   UNL     1       0.924  -0.784   0.008  1.00  0.00     0.095 A 
HETATM    6  C   UNL     1      -1.213  -0.232   0.002  1.00  0.00     0.052 A 
HETATM    7  C   UNL     1      -0.636  -2.726  -0.004  1.00  0.00     0.104 C 
HETATM    8  N   UNL     1      -0.870  -3.862  -0.008  1.00  0.00    -0.191 NA
HETATM    9  C   UNL     1       2.299  -1.315   0.013  1.00  0.00     0.081 C 
HETATM   10  C   UNL     1      -2.694  -0.202  -0.000  1.00  0.00     0.072 C 
ENDROOT
TORSDOF 0
