REMARK  3 active torsions:
REMARK  status: ('A' for Active; 'I' for Inactive)
REMARK    1  A    between atoms: C_1  and  C_8 
REMARK    2  A    between atoms: C_4  and  C_7 
REMARK    3  A    between atoms: C_8  and  N_9 
ROOT
HETATM    1  C   UNL     1      -0.037  -1.294  -0.020  1.00  0.00     0.028 A 
HETATM    2  N   UNL     1      -1.344   0.578   0.045  1.00  0.00    -0.260 N 
ATOM      3  HN  UNL     1      -2.148   1.205   0.064  1.00  0.00     0.195 HD
HETATM    4  C   UNL     1      -1.373  -0.766   0.050  1.00  0.00     0.075 A 
HETATM    5  O   UNL     1      -0.020   0.943   0.009  1.00  0.00    -0.242 OA
HETATM    6  C   UNL     1       0.759  -0.165  -0.017  1.00  0.00     0.083 A 
HETATM    7  C   UNL     1       2.214   0.085  -0.031  1.00  0.00     0.079 C 
ENDROOT
BRANCH   4   8
HETATM    8  C   UNL     1      -2.662  -1.468   0.103  1.00  0.00    -0.007 A 
HETATM    9  C   UNL     1      -3.789  -0.922  -0.532  1.00  0.00     0.014 A 
HETATM   10  C   UNL     1      -5.022  -1.581  -0.491  1.00  0.00     0.001 A 
HETATM   11  C   UNL     1      -5.142  -2.798   0.179  1.00  0.00     0.000 A 
HETATM   12  C   UNL     1      -4.037  -3.347   0.818  1.00  0.00     0.001 A 
HETATM   13  C   UNL     1      -2.809  -2.679   0.792  1.00  0.00     0.014 A 
ENDBRANCH   4   8
BRANCH   1  14
HETATM   14  C   UNL     1       0.426  -2.709  -0.070  1.00  0.00     0.275 C 
BRANCH  14  15
HETATM   15  N   UNL     1      -0.039  -3.324  -1.309  1.00  0.00    -0.075 N 
HETATM   16  C   UNL     1       0.308  -4.737  -1.357  1.00  0.00     0.267 C 
HETATM   17  H   UNL     1       0.394  -2.848  -2.101  1.00  0.00     0.277 HD
HETATM   18  H   UNL     1      -1.055  -3.239  -1.351  1.00  0.00     0.277 HD
ENDBRANCH  14  15
ENDBRANCH   1  14
TORSDOF 3
