REMARK  2 active torsions:
REMARK  status: ('A' for Active; 'I' for Inactive)
REMARK    1  A    between atoms: C_3  and  C_7 
REMARK    2  A    between atoms: C_7  and  O_8 
ROOT
HETATM    1  C   UNL     1      -0.187   0.697   0.017  1.00  0.00     0.113 A 
HETATM    2  O   UNL     1      -1.451   1.205   0.028  1.00  0.00    -0.322 OA
HETATM    3  C   UNL     1       0.987   1.431   0.024  1.00  0.00     0.002 A 
HETATM    4  O   UNL     1      -1.442  -1.204   0.004  1.00  0.00    -0.323 OA
HETATM    5  C   UNL     1      -0.186  -0.681   0.002  1.00  0.00     0.105 A 
HETATM    6  C   UNL     1      -2.235  -0.004   0.081  1.00  0.00     0.352 A 
HETATM    7  C   UNL     1       2.188   0.701   0.020  1.00  0.00     0.012 A 
HETATM    8  C   UNL     1       2.185  -0.707   0.002  1.00  0.00     0.003 A 
HETATM    9  C   UNL     1       0.982  -1.412  -0.010  1.00  0.00     0.040 A 
ENDROOT
BRANCH   3  10
HETATM   10  C   UNL     1       0.993   2.929   0.021  1.00  0.00     0.205 C 
BRANCH  10  11
HETATM   11  O   UNL     1       1.655   3.420   1.182  1.00  0.00    -0.396 OA
HETATM   12  H   UNL     1       1.189   3.110   1.974  1.00  0.00     0.209 HD
ENDBRANCH  10  11
ENDBRANCH   3  10
TORSDOF 2
