REMARK  2 active torsions:
REMARK  status: ('A' for Active; 'I' for Inactive)
REMARK    1  A    between atoms: C_5  and  C_9 
REMARK    2  A    between atoms: O_7  and  C_9 
ROOT
HETATM    1  O   UNL     1       1.132   1.428   0.082  1.00  0.00    -0.339 OA
HETATM    2  O   UNL     1       1.084  -1.471  -0.059  1.00  0.00    -0.346 OA
HETATM    3  C   UNL     1      -0.027   0.695   0.042  1.00  0.00     0.102 A 
HETATM    4  C   UNL     1      -0.051  -0.701  -0.034  1.00  0.00     0.102 A 
HETATM    5  C   UNL     1       2.273   0.635  -0.302  1.00  0.00     0.176 C 
HETATM    6  C   UNL     1       2.225  -0.726   0.386  1.00  0.00     0.210 C 
HETATM    7  C   UNL     1      -1.223   1.411   0.093  1.00  0.00     0.039 A 
HETATM    8  C   UNL     1      -1.268  -1.377  -0.098  1.00  0.00     0.039 A 
HETATM    9  C   UNL     1      -2.442   0.732   0.045  1.00  0.00     0.003 A 
HETATM   10  C   UNL     1      -2.465  -0.661  -0.055  1.00  0.00     0.003 A 
ENDROOT
BRANCH   5  11
HETATM   11  C   UNL     1       3.531   1.417   0.080  1.00  0.00     0.198 C 
BRANCH  11  12
HETATM   12  O   UNL     1       3.590   1.655   1.485  1.00  0.00    -0.398 OA
HETATM   13  H   UNL     1       4.397   2.151   1.696  1.00  0.00     0.209 HD
ENDBRANCH  11  12
ENDBRANCH   5  11
TORSDOF 2
