REMARK  2 active torsions:
REMARK  status: ('A' for Active; 'I' for Inactive)
REMARK    1  A    between atoms: C_7  and  C_12 
REMARK    2  A    between atoms: O_9  and  C_12 
ROOT
HETATM    1  C   UNL     1      -0.029   0.702   0.020  1.00  0.00     0.102 A 
HETATM    2  C   UNL     1      -0.033  -0.696  -0.037  1.00  0.00     0.102 A 
HETATM    3  O   UNL     1       1.121   1.451   0.047  1.00  0.00    -0.346 OA
HETATM    4  C   UNL     1      -1.233   1.405   0.063  1.00  0.00     0.049 A 
HETATM    5  O   UNL     1       1.112  -1.450  -0.052  1.00  0.00    -0.346 OA
HETATM    6  C   UNL     1      -1.242  -1.386  -0.087  1.00  0.00     0.040 A 
HETATM    7  C   UNL     1      -2.455   0.722   0.023  1.00  0.00    -0.032 A 
HETATM    8  C   UNL     1      -2.448  -0.682  -0.059  1.00  0.00     0.012 A 
HETATM    9  C   UNL     1       2.258   0.674  -0.342  1.00  0.00     0.202 C 
HETATM   10  C   UNL     1       2.251  -0.680   0.347  1.00  0.00     0.202 C 
ENDROOT
BRANCH   7  11
HETATM   11  C   UNL     1      -3.760   1.472   0.077  1.00  0.00     0.203 C 
BRANCH  11  12
HETATM   12  O   UNL     1      -4.524   1.232  -1.097  1.00  0.00    -0.396 OA
HETATM   13  H   UNL     1      -5.359   1.722  -1.045  1.00  0.00     0.209 HD
ENDBRANCH  11  12
ENDBRANCH   7  11
TORSDOF 2
