REMARK  2 active torsions:
REMARK  status: ('A' for Active; 'I' for Inactive)
REMARK    1  A    between atoms: C_5  and  C_8 
REMARK    2  A    between atoms: N_7  and  C_8 
ROOT
HETATM    1  O   UNL     1       1.135   1.413   0.075  1.00  0.00    -0.339 OA
HETATM    2  O   UNL     1       1.068  -1.488  -0.076  1.00  0.00    -0.346 OA
HETATM    3  C   UNL     1      -0.027   0.686   0.036  1.00  0.00     0.102 A 
HETATM    4  C   UNL     1      -0.061  -0.709  -0.044  1.00  0.00     0.102 A 
HETATM    5  C   UNL     1       2.276   0.612  -0.289  1.00  0.00     0.178 C 
HETATM    6  C   UNL     1       2.212  -0.757   0.386  1.00  0.00     0.210 C 
HETATM    7  C   UNL     1      -1.219   1.409   0.090  1.00  0.00     0.039 A 
HETATM    8  C   UNL     1      -1.283  -1.377  -0.105  1.00  0.00     0.039 A 
HETATM    9  C   UNL     1      -2.442   0.739   0.043  1.00  0.00     0.003 A 
HETATM   10  C   UNL     1      -2.475  -0.653  -0.057  1.00  0.00     0.003 A 
ENDROOT
BRANCH   5  11
HETATM   11  C   UNL     1       3.553   1.386   0.087  1.00  0.00     0.264 C 
BRANCH  11  12
HETATM   12  N   UNL     1       3.682   1.636   1.526  1.00  0.00    -0.077 N 
HETATM   13  H   UNL     1       4.545   2.150   1.706  1.00  0.00     0.274 HD
HETATM   14  H   UNL     1       3.706   0.747   2.025  1.00  0.00     0.274 HD
HETATM   15  H   UNL     1       2.886   2.186   1.848  1.00  0.00     0.274 HD
ENDBRANCH  11  12
ENDBRANCH   5  11
TORSDOF 2
