REMARK  2 active torsions:
REMARK  status: ('A' for Active; 'I' for Inactive)
REMARK    1  A    between atoms: C_4  and  C_7 
REMARK    2  A    between atoms: C_7  and  N_9 
ROOT
HETATM    1  N   UNL     1      -0.839  -1.710   0.024  1.00  0.00    -0.343 N 
ATOM      2  HN  UNL     1      -0.822  -2.730   0.042  1.00  0.00     0.167 HD
HETATM    3  N   UNL     1      -1.538   0.397  -0.013  1.00  0.00    -0.338 N 
HETATM    4  C   UNL     1      -1.907  -0.933   0.006  1.00  0.00     0.110 A 
HETATM    5  C   UNL     1      -0.163   0.463  -0.000  1.00  0.00     0.062 A 
HETATM    6  C   UNL     1       0.243  -0.867   0.013  1.00  0.00     0.060 A 
HETATM    7  C   UNL     1      -2.405   1.550  -0.043  1.00  0.00     0.158 C 
HETATM    8  C   UNL     1       0.743   1.531  -0.002  1.00  0.00     0.032 A 
HETATM    9  C   UNL     1       1.612  -1.170   0.013  1.00  0.00     0.032 A 
HETATM   10  C   UNL     1       2.106   1.210   0.002  1.00  0.00     0.002 A 
HETATM   11  C   UNL     1       2.537  -0.117   0.005  1.00  0.00     0.002 A 
ENDROOT
BRANCH   4  12
HETATM   12  C   UNL     1      -3.320  -1.418  -0.010  1.00  0.00     0.305 C 
BRANCH  12  13
HETATM   13  N   UNL     1      -4.054  -0.991   1.181  1.00  0.00    -0.073 N 
HETATM   14  H   UNL     1      -3.607  -1.377   2.013  1.00  0.00     0.274 HD
HETATM   15  H   UNL     1      -5.016  -1.325   1.126  1.00  0.00     0.274 HD
HETATM   16  H   UNL     1      -4.050   0.028   1.236  1.00  0.00     0.274 HD
ENDBRANCH  12  13
ENDBRANCH   4  12
TORSDOF 2
