REMARK  2 active torsions:
REMARK  status: ('A' for Active; 'I' for Inactive)
REMARK    1  A    between atoms: CA_5  and  C_8 
REMARK    2  A    between atoms: O_7  and  C_8 
ROOT
HETATM    1  N   UNL     1      -1.424   0.050  -0.070  1.00  0.00    -0.365 N 
ATOM      2  HN  UNL     1      -2.441   0.104  -0.117  1.00  0.00     0.165 HD
HETATM    3  N   UNL     1       1.405  -0.084   0.035  1.00  0.00    -0.372 N 
ATOM      4  HN  UNL     1       2.423  -0.133   0.068  1.00  0.00     0.164 HD
HETATM    5  CA  UNL     1      -0.762  -1.139  -0.018  1.00  0.00     0.048 A 
HETATM    6  C   UNL     1       0.627  -1.192   0.027  1.00  0.00     0.114 A 
HETATM    7  C   UNL     1      -0.643   1.157  -0.055  1.00  0.00     0.105 A 
HETATM    8  C   UNL     1       0.738   1.091  -0.004  1.00  0.00     0.104 A 
ENDROOT
BRANCH   5   9
HETATM    9  C   UNL     1      -1.589  -2.395   0.001  1.00  0.00     0.222 C 
BRANCH   9  10
HETATM   10  O   UNL     1      -2.504  -2.412  -1.090  1.00  0.00    -0.395 OA
HETATM   11  H   UNL     1      -3.027  -3.229  -1.061  1.00  0.00     0.209 HD
ENDBRANCH   9  10
ENDBRANCH   5   9
TORSDOF 2
