REMARK  2 active torsions:
REMARK  status: ('A' for Active; 'I' for Inactive)
REMARK    1  A    between atoms: C_3  and  C_7 
REMARK    2  A    between atoms: C_7  and  O_10 
ROOT
HETATM    1  N   UNL     1      -0.410   1.130   0.003  1.00  0.00    -0.357 N 
ATOM      2  HN  UNL     1      -0.625   2.127  -0.017  1.00  0.00     0.166 HD
HETATM    3  C   UNL     1      -0.831  -1.167   0.044  1.00  0.00     0.030 A 
HETATM    4  S   UNL     1       0.883  -1.088   0.058  1.00  0.00    -0.078 SA
HETATM    5  C   UNL     1      -1.356   0.116   0.013  1.00  0.00     0.021 A 
HETATM    6  C   UNL     1       0.804   0.624   0.023  1.00  0.00     0.047 A 
HETATM    7  C   UNL     1      -2.790   0.506  -0.003  1.00  0.00     0.069 C 
HETATM    8  C   UNL     1       2.044   1.447   0.019  1.00  0.00     0.076 C 
ENDROOT
BRANCH   3   9
HETATM    9  C   UNL     1      -1.531  -2.480   0.051  1.00  0.00     0.212 C 
BRANCH   9  10
HETATM   10  O   UNL     1      -2.343  -2.535   1.217  1.00  0.00    -0.396 OA
HETATM   11  H   UNL     1      -1.786  -2.436   2.004  1.00  0.00     0.209 HD
ENDBRANCH   9  10
ENDBRANCH   3   9
TORSDOF 2
