REMARK  1 active torsions:
REMARK  status: ('A' for Active; 'I' for Inactive)
REMARK    1  A    between atoms: C_1  and  C_5 
ROOT
HETATM    1  C   UNK     1       1.153  -1.316  -0.014  1.00  0.00     0.117 A 
HETATM    2  N   UNK     1      -0.238  -1.438  -0.014  1.00  0.00    -0.348 N 
ATOM      3  HN  UNK     1      -0.745  -2.323  -0.020  1.00  0.00     0.166 HD
HETATM    4  C   UNK     1       1.603  -0.008  -0.003  1.00  0.00     0.088 A 
HETATM    5  C   UNK     1      -0.801  -0.250  -0.005  1.00  0.00     0.047 A 
HETATM    6  S   UNK     1       0.283   1.082   0.007  1.00  0.00    -0.086 SA
HETATM    7  C   UNK     1      -2.270  -0.013  -0.009  1.00  0.00     0.076 C 
ENDROOT
BRANCH   1   8
HETATM    8  C   UNK     1       2.050  -2.468  -0.027  1.00  0.00     0.227 C 
HETATM    9  O   UNK     1       3.273  -2.412  -0.028  1.00  0.00    -0.643 OA
HETATM   10  O   UNK     1       1.433  -3.672  -0.041  1.00  0.00    -0.643 OA
ENDBRANCH   1   8
TORSDOF 1
