REMARK  1 active torsions:
REMARK  status: ('A' for Active; 'I' for Inactive)
REMARK    1  A    between atoms: C_1  and  C_4 
ROOT
HETATM    1  C   UNL     1      -2.379  -0.177  -0.042  1.00  0.00     0.153 A 
HETATM    2  O   UNL     1      -1.607   0.957  -0.039  1.00  0.00    -0.303 OA
HETATM    3  C   UNL     1      -1.561  -1.292  -0.015  1.00  0.00     0.058 A 
HETATM    4  C   UNL     1      -0.304   0.560  -0.021  1.00  0.00     0.086 A 
HETATM    5  C   UNL     1      -0.222  -0.827  -0.007  1.00  0.00     0.001 A 
HETATM    6  C   UNL     1       0.803   1.405  -0.019  1.00  0.00     0.038 A 
HETATM    7  C   UNL     1       1.049  -1.428   0.007  1.00  0.00     0.014 A 
HETATM    8  C   UNL     1       2.182  -0.603   0.004  1.00  0.00     0.001 A 
HETATM    9  C   UNL     1       2.060   0.789  -0.009  1.00  0.00     0.003 A 
ENDROOT
BRANCH   1  10
HETATM   10  C   UNL     1      -3.814  -0.085  -0.073  1.00  0.00     0.234 C 
HETATM   11  O   UNL     1      -4.614  -1.011  -0.075  1.00  0.00    -0.642 OA
HETATM   12  O   UNL     1      -4.255   1.192  -0.111  1.00  0.00    -0.642 OA
ENDBRANCH   1  10
TORSDOF 1
