REMARK  2 active torsions:
REMARK  status: ('A' for Active; 'I' for Inactive)
REMARK    1  A    between atoms: C_4  and  C_7 
REMARK    2  A    between atoms: C_7  and  O_8 
ROOT
HETATM    1  N   UNL     1      -0.949  -1.644  -0.050  1.00  0.00    -0.351 N 
ATOM      2  HN  UNL     1      -0.956  -2.664  -0.066  1.00  0.00     0.166 HD
HETATM    3  S   UNL     1      -1.727   0.816  -0.051  1.00  0.00    -0.072 SA
HETATM    4  C   UNL     1      -2.023  -0.878  -0.045  1.00  0.00     0.075 A 
HETATM    5  C   UNL     1       0.191  -0.853  -0.030  1.00  0.00     0.050 A 
HETATM    6  C   UNL     1      -0.029   0.524  -0.032  1.00  0.00     0.033 A 
HETATM    7  C   UNL     1       1.523  -1.320  -0.011  1.00  0.00     0.031 A 
HETATM    8  C   UNL     1       1.029   1.452  -0.018  1.00  0.00     0.021 A 
HETATM    9  C   UNL     1       2.338   0.961  -0.004  1.00  0.00     0.002 A 
HETATM   10  C   UNL     1       2.585  -0.409   0.001  1.00  0.00     0.002 A 
ENDROOT
BRANCH   4  11
HETATM   11  C   UNL     1      -3.433  -1.385  -0.046  1.00  0.00     0.229 C 
BRANCH  11  12
HETATM   12  O   UNL     1      -3.481  -2.642   0.630  1.00  0.00    -0.394 OA
HETATM   13  H   UNL     1      -2.905  -3.276   0.175  1.00  0.00     0.209 HD
ENDBRANCH  11  12
ENDBRANCH   4  11
TORSDOF 2
