REMARK  2 active torsions:
REMARK  status: ('A' for Active; 'I' for Inactive)
REMARK    1  A    between atoms: C_4  and  C_7 
REMARK    2  A    between atoms: C_7  and  O_8 
ROOT
HETATM    1  N   UNL     1      -1.580   1.103   0.049  1.00  0.00    -0.342 N 
ATOM      2  HN  UNL     1      -1.914   2.067   0.071  1.00  0.00     0.167 HD
HETATM    3  N   UNL     1      -1.514  -1.115   0.027  1.00  0.00    -0.342 N 
HETATM    4  C   UNL     1      -2.311   0.006   0.027  1.00  0.00     0.106 A 
HETATM    5  C   UNL     1      -0.270   0.674   0.036  1.00  0.00     0.060 A 
HETATM    6  C   UNL     1      -0.203  -0.713   0.024  1.00  0.00     0.060 A 
HETATM    7  C   UNL     1       0.922   1.415   0.024  1.00  0.00     0.032 A 
HETATM    8  C   UNL     1       1.000  -1.424   0.007  1.00  0.00     0.032 A 
HETATM    9  C   UNL     1       2.178  -0.670  -0.005  1.00  0.00     0.002 A 
HETATM   10  C   UNL     1       2.143   0.727   0.002  1.00  0.00     0.002 A 
HETATM   11  H   UNL     1      -1.831  -2.047   0.028  1.00  0.00     0.167 HD
ENDROOT
BRANCH   4  12
HETATM   12  C   UNL     1      -3.799  -0.085  -0.004  1.00  0.00     0.240 C 
BRANCH  12  13
HETATM   13  O   UNL     1      -4.315   1.056  -0.679  1.00  0.00    -0.393 OA
HETATM   14  H   UNL     1      -4.041   1.860  -0.212  1.00  0.00     0.209 HD
ENDBRANCH  12  13
ENDBRANCH   4  12
TORSDOF 2
