REMARK  2 active torsions:
REMARK  status: ('A' for Active; 'I' for Inactive)
REMARK    1  A    between atoms: C_3  and  C_7 
REMARK    2  A    between atoms: C_7  and  O_8 
ROOT
HETATM    1  N   UNL     1       1.400  -0.636   0.065  1.00  0.00    -0.361 N 
ATOM      2  HN  UNL     1       2.279  -1.149   0.124  1.00  0.00     0.165 HD
HETATM    3  C   UNL     1       0.203  -1.184  -0.013  1.00  0.00     0.074 A 
HETATM    4  S   UNL     1      -1.114  -0.079  -0.081  1.00  0.00    -0.085 SA
HETATM    5  C   UNL     1       1.280   0.741   0.055  1.00  0.00     0.096 A 
HETATM    6  C   UNL     1      -0.008   1.226  -0.015  1.00  0.00     0.068 A 
ENDROOT
BRANCH   3   7
HETATM    7  C   UNL     1      -0.042  -2.662  -0.047  1.00  0.00     0.229 C 
BRANCH   7   8
HETATM    8  O   UNL     1       0.518  -3.235   1.130  1.00  0.00    -0.394 OA
HETATM    9  H   UNL     1       1.470  -3.049   1.159  1.00  0.00     0.209 HD
ENDBRANCH   7   8
ENDBRANCH   3   7
TORSDOF 2
