REMARK  3 active torsions:
REMARK  status: ('A' for Active; 'I' for Inactive)
REMARK    1  A    between atoms: C_1  and  C_3 
REMARK    2  A    between atoms: N_11  and  C_13 
REMARK    3  A    between atoms: C_12  and  C_13 
ROOT
HETATM    1  C   UNL     1      -0.223   2.649  -0.029  1.00  0.00    -0.019 A 
HETATM    2  C   UNL     1       0.255   3.440  -1.085  1.00  0.00     0.013 A 
HETATM    3  C   UNL     1      -1.035   3.265   0.935  1.00  0.00     0.013 A 
HETATM    4  C   UNL     1      -0.049   4.805  -1.164  1.00  0.00     0.010 A 
HETATM    5  C   UNL     1      -1.345   4.627   0.855  1.00  0.00     0.010 A 
HETATM    6  C   UNL     1      -0.846   5.416  -0.189  1.00  0.00    -0.033 A 
ENDROOT
BRANCH   1   7
HETATM    7  C   UNL     1       0.114   1.214   0.037  1.00  0.00     0.015 A 
HETATM    8  S   UNL     1       0.313   0.421   1.552  1.00  0.00    -0.101 SA
HETATM    9  C   UNL     1       0.654  -1.080   0.814  1.00  0.00     0.050 A 
HETATM   10  C   UNL     1       0.646  -0.991  -0.559  1.00  0.00     0.008 A 
HETATM   11  C   UNL     1       0.341   0.328  -1.004  1.00  0.00     0.020 A 
ENDBRANCH   1   7
BRANCH   6  12
HETATM   12  C   UNL     1      -1.163   6.892  -0.262  1.00  0.00     0.270 C 
BRANCH  12  13
HETATM   13  N   UNL     1      -0.585   7.616   0.871  1.00  0.00    -0.075 N 
HETATM   14  C   UNL     1      -0.901   9.035   0.806  1.00  0.00     0.267 C 
HETATM   15  H   UNL     1       0.429   7.500   0.858  1.00  0.00     0.277 HD
HETATM   16  H   UNL     1      -0.978   7.237   1.732  1.00  0.00     0.277 HD
ENDBRANCH  12  13
ENDBRANCH   6  12
TORSDOF 3
