REMARK  4 active torsions:
REMARK  status: ('A' for Active; 'I' for Inactive)
REMARK    1  A    between atoms: N_1  and  C_5 
REMARK    2  A    between atoms: C_4  and  C_10 
REMARK    3  A    between atoms: C_5  and  C_8 
REMARK    4  A    between atoms: N_9  and  C_10 
ROOT
HETATM    1  N   UNL     1      -1.443  -0.141  -0.331  1.00  0.00    -0.063 N 
HETATM    2  O   UNL     1       1.197   0.368   0.886  1.00  0.00    -0.381 OA
HETATM    3  C   UNL     1      -1.017   1.180   0.176  1.00  0.00     0.268 C 
HETATM    4  C   UNL     1       0.507   1.458   0.240  1.00  0.00     0.172 C 
HETATM    5  C   UNL     1       0.887  -0.906   0.314  1.00  0.00     0.196 C 
HETATM    6  C   UNL     1      -0.621  -1.188   0.293  1.00  0.00     0.261 C 
HETATM    7  H   UNL     1      -2.415  -0.266  -0.047  1.00  0.00     0.280 HD
ENDROOT
BRANCH   1   8
HETATM    8  C   UNL     1      -1.550  -0.261  -1.789  1.00  0.00     0.273 C 
BRANCH   8   9
HETATM    9  C   UNL     1      -2.621   0.648  -2.370  1.00  0.00    -0.033 A 
HETATM   10  C   UNL     1      -2.319   1.564  -3.387  1.00  0.00     0.009 A 
HETATM   11  C   UNL     1      -3.269   2.501  -3.801  1.00  0.00     0.001 A 
HETATM   12  C   UNL     1      -4.541   2.507  -3.232  1.00  0.00     0.000 A 
HETATM   13  C   UNL     1      -4.881   1.546  -2.284  1.00  0.00     0.001 A 
HETATM   14  C   UNL     1      -3.931   0.615  -1.862  1.00  0.00     0.009 A 
ENDBRANCH   8   9
ENDBRANCH   1   8
BRANCH   4  15
HETATM   15  C   UNL     1       1.192   1.825  -1.095  1.00  0.00     0.263 C 
BRANCH  15  16
HETATM   16  N   UNL     1       0.609   2.977  -1.779  1.00  0.00    -0.077 N 
HETATM   17  H   UNL     1       1.117   3.151  -2.646  1.00  0.00     0.274 HD
HETATM   18  H   UNL     1       0.673   3.799  -1.178  1.00  0.00     0.274 HD
HETATM   19  H   UNL     1      -0.370   2.787  -1.991  1.00  0.00     0.274 HD
ENDBRANCH  15  16
ENDBRANCH   4  15
TORSDOF 4
