REMARK  2 active torsions:
REMARK  status: ('A' for Active; 'I' for Inactive)
REMARK    1  A    between atoms: C_1  and  C_6 
REMARK    2  A    between atoms: C_6  and  N_9 
ROOT
HETATM    1  C   UNL     1       0.758  -1.303  -0.013  1.00  0.00     0.089 A 
HETATM    2  N   UNL     1       1.082   0.043   0.000  1.00  0.00    -0.293 N 
HETATM    3  N   UNL     1       0.003   0.857  -0.011  1.00  0.00    -0.303 N 
ATOM      4  HN  UNL     1      -0.006   1.877  -0.012  1.00  0.00     0.186 HD
HETATM    5  C   UNL     1      -0.636  -1.306  -0.021  1.00  0.00     0.060 A 
HETATM    6  C   UNL     1      -1.043   0.038  -0.020  1.00  0.00     0.024 A 
HETATM    7  C   UNL     1       2.359   0.716  -0.046  1.00  0.00     0.178 C 
HETATM    8  C   UNL     1      -2.420   0.587  -0.023  1.00  0.00     0.070 C 
ENDROOT
BRANCH   1   9
HETATM    9  C   UNL     1       1.610  -2.473  -0.018  1.00  0.00     0.122 C 
HETATM   10  S   UNL     1       3.095  -2.569   0.716  1.00  0.00    -0.059 SA
BRANCH   9  11
HETATM   11  N   UNL     1       1.106  -3.593  -0.622  1.00  0.00    -0.388 N 
HETATM   12  H   UNL     1       0.227  -3.561  -1.064  1.00  0.00     0.157 HD
HETATM   13  H   UNL     1       1.622  -4.431  -0.614  1.00  0.00     0.157 HD
ENDBRANCH   9  11
ENDBRANCH   1   9
TORSDOF 2
