REMARK  2 active torsions:
REMARK  status: ('A' for Active; 'I' for Inactive)
REMARK    1  A    between atoms: C_1  and  C_6 
REMARK    2  A    between atoms: C_6  and  O_7 
ROOT
HETATM    1  C   UNL     1       1.393   0.726   0.011  1.00  0.00    -0.028 A 
HETATM    2  S   UNL     1      -1.085  -0.004  -0.008  1.00  0.00    -0.113 SA
HETATM    3  C   UNL     1       0.103   1.225   0.002  1.00  0.00     0.058 A 
HETATM    4  C   UNL     1       1.379  -0.709   0.007  1.00  0.00     0.017 A 
HETATM    5  C   UNL     1       0.105  -1.230  -0.003  1.00  0.00     0.050 A 
ENDROOT
BRANCH   1   6
HETATM    6  C   UNL     1       2.636   1.556   0.019  1.00  0.00     0.203 C 
BRANCH   6   7
HETATM    7  O   UNL     1       3.426   1.299   1.174  1.00  0.00    -0.396 OA
HETATM    8  H   UNL     1       2.918   1.522   1.969  1.00  0.00     0.209 HD
ENDBRANCH   6   7
ENDBRANCH   1   6
TORSDOF 2
