REMARK  3 active torsions:
REMARK  status: ('A' for Active; 'I' for Inactive)
REMARK    1  A    between atoms: C_1  and  C_6 
REMARK    2  A    between atoms: C_3  and  C_7 
REMARK    3  A    between atoms: C_7  and  O_9 
ROOT
HETATM    1  C   UNL     1      -1.399   0.618   0.004  1.00  0.00     0.086 A 
HETATM    2  O   UNL     1      -0.079   0.967  -0.027  1.00  0.00    -0.314 OA
HETATM    3  C   UNL     1      -0.176  -1.284  -0.025  1.00  0.00    -0.003 A 
HETATM    4  C   UNL     1      -1.501  -0.759  -0.012  1.00  0.00     0.050 A 
HETATM    5  C   UNL     1       0.655  -0.179  -0.035  1.00  0.00     0.058 A 
HETATM    6  C   UNL     1       2.121  -0.000  -0.038  1.00  0.00     0.077 C 
ENDROOT
BRANCH   1   7
HETATM    7  C   UNL     1      -2.360   1.716   0.075  1.00  0.00    -0.002 A 
HETATM    8  C   UNL     1      -1.938   3.054   0.083  1.00  0.00     0.014 A 
HETATM    9  C   UNL     1      -2.860   4.099   0.194  1.00  0.00     0.001 A 
HETATM   10  C   UNL     1      -4.220   3.820   0.294  1.00  0.00     0.000 A 
HETATM   11  C   UNL     1      -4.660   2.499   0.276  1.00  0.00     0.001 A 
HETATM   12  C   UNL     1      -3.736   1.455   0.166  1.00  0.00     0.014 A 
ENDBRANCH   1   7
BRANCH   3  13
HETATM   13  C   UNL     1       0.216  -2.714  -0.008  1.00  0.00     0.205 C 
BRANCH  13  14
HETATM   14  O   UNL     1       0.946  -3.075  -1.175  1.00  0.00    -0.396 OA
HETATM   15  H   UNL     1       0.393  -2.935  -1.959  1.00  0.00     0.209 HD
ENDBRANCH  13  14
ENDBRANCH   3  13
TORSDOF 3
