REMARK  2 active torsions:
REMARK  status: ('A' for Active; 'I' for Inactive)
REMARK    1  A    between atoms: C_3  and  C_7 
REMARK    2  A    between atoms: C_9  and  N_10 
ROOT
HETATM    1  C   UNL     1       2.044  -2.430  -0.005  1.00  0.00    -0.007 A 
HETATM    2  C   UNL     1       2.004  -3.328  -1.083  1.00  0.00     0.042 A 
HETATM    3  C   UNL     1       2.844  -4.446  -1.127  1.00  0.00     0.026 A 
HETATM    4  C   UNL     1       2.957  -2.660   1.033  1.00  0.00     0.014 A 
HETATM    5  C   UNL     1       3.830  -3.746   0.976  1.00  0.00     0.003 A 
HETATM    6  C   UNL     1       3.788  -4.618  -0.112  1.00  0.00     0.029 A 
ENDROOT
BRANCH   1   7
HETATM    7  C   UNL     1       1.153  -1.275   0.007  1.00  0.00     0.049 A 
HETATM    8  N   UNL     1      -0.105  -1.321  -0.578  1.00  0.00    -0.353 N 
HETATM    9  C   UNL     1      -0.714  -0.163  -0.433  1.00  0.00     0.047 A 
ATOM     10  HN  UNL     1      -0.500  -2.134  -1.051  1.00  0.00     0.166 HD
HETATM   11  S   UNL     1       0.190   1.052   0.379  1.00  0.00    -0.087 SA
HETATM   12  C   UNL     1      -2.088   0.138  -0.915  1.00  0.00     0.076 C 
HETATM   13  C   UNL     1       1.486  -0.053   0.561  1.00  0.00     0.081 A 
ENDBRANCH   1   7
BRANCH   3  14
HETATM   14  N   UNL     1       2.906  -5.239  -2.281  1.00  0.00    -0.399 N 
HETATM   15  H   UNL     1       2.241  -5.118  -2.997  1.00  0.00     0.156 HD
HETATM   16  H   UNL     1       3.615  -5.916  -2.376  1.00  0.00     0.156 HD
ENDBRANCH   3  14
TORSDOF 2
