REMARK  3 active torsions:
REMARK  status: ('A' for Active; 'I' for Inactive)
REMARK    1  A    between atoms: C_1  and  C_6 
REMARK    2  A    between atoms: C_7  and  C_12 
REMARK    3  A    between atoms: C_12  and  O_13 
ROOT
HETATM    1  C   UNL     1      -0.814   0.948  -0.011  1.00  0.00     0.117 A 
HETATM    2  C   UNL     1      -1.320  -0.335   0.049  1.00  0.00     0.070 A 
HETATM    3  N   UNL     1       0.930  -0.487  -0.186  1.00  0.00    -0.263 N 
ATOM      4  HN  UNL     1       1.876  -0.855  -0.289  1.00  0.00     0.194 HD
HETATM    5  O   UNL     1       0.547   0.844  -0.157  1.00  0.00    -0.236 OA
HETATM    6  C   UNL     1      -0.201  -1.188  -0.051  1.00  0.00     0.058 A 
ENDROOT
BRANCH   1   7
HETATM    7  C   UNL     1      -1.496   2.211   0.063  1.00  0.00     0.040 A 
HETATM    8  S   UNL     1      -3.200   2.318   0.241  1.00  0.00    -0.099 SA
HETATM    9  C   UNL     1      -3.164   4.025   0.273  1.00  0.00     0.050 A 
HETATM   10  C   UNL     1      -1.885   4.516   0.140  1.00  0.00     0.008 A 
HETATM   11  C   UNL     1      -0.922   3.469   0.014  1.00  0.00     0.022 A 
ENDBRANCH   1   7
BRANCH   6  12
HETATM   12  C   UNL     1      -0.179  -2.678  -0.029  1.00  0.00     0.223 C 
BRANCH  12  13
HETATM   13  O   UNL     1       0.999  -3.206   0.578  1.00  0.00    -0.395 OA
HETATM   14  H   UNL     1       1.777  -2.927   0.070  1.00  0.00     0.209 HD
ENDBRANCH  12  13
ENDBRANCH   6  12
TORSDOF 3
