REMARK  3 active torsions:
REMARK  status: ('A' for Active; 'I' for Inactive)
REMARK    1  A    between atoms: C_3  and  C_7 
REMARK    2  A    between atoms: C_4  and  C_8 
REMARK    3  A    between atoms: C_8  and  N_9 
ROOT
HETATM    1  N   UNL     1      -1.466   0.653   0.026  1.00  0.00    -0.336 N 
ATOM      2  HN  UNL     1      -2.353   1.156   0.031  1.00  0.00     0.168 HD
HETATM    3  C   UNL     1      -1.275  -0.655   0.020  1.00  0.00     0.158 A 
HETATM    4  C   UNL     1      -0.190   1.183   0.024  1.00  0.00     0.066 A 
HETATM    5  O   UNL     1       0.045  -1.024   0.020  1.00  0.00    -0.296 OA
HETATM    6  C   UNL     1       0.731   0.156   0.023  1.00  0.00     0.075 A 
HETATM    7  C   UNL     1       2.200   0.070   0.023  1.00  0.00     0.079 C 
ENDROOT
BRANCH   3   8
HETATM    8  C   UNL     1      -2.258  -1.735  -0.020  1.00  0.00     0.015 A 
HETATM    9  C   UNL     1      -3.622  -1.432  -0.148  1.00  0.00     0.016 A 
HETATM   10  C   UNL     1      -4.579  -2.449  -0.210  1.00  0.00     0.001 A 
HETATM   11  C   UNL     1      -4.184  -3.783  -0.142  1.00  0.00     0.000 A 
HETATM   12  C   UNL     1      -2.835  -4.102  -0.008  1.00  0.00     0.001 A 
HETATM   13  C   UNL     1      -1.878  -3.085   0.052  1.00  0.00     0.016 A 
ENDBRANCH   3   8
BRANCH   4  14
HETATM   14  C   UNL     1       0.033   2.652   0.021  1.00  0.00     0.288 C 
BRANCH  14  15
HETATM   15  N   UNL     1       0.114   3.122   1.402  1.00  0.00    -0.074 N 
HETATM   16  H   UNL     1      -0.756   2.904   1.887  1.00  0.00     0.274 HD
HETATM   17  H   UNL     1       0.263   4.131   1.409  1.00  0.00     0.274 HD
HETATM   18  H   UNL     1       0.892   2.660   1.873  1.00  0.00     0.274 HD
ENDBRANCH  14  15
ENDBRANCH   4  14
TORSDOF 3
