REMARK  3 active torsions:
REMARK  status: ('A' for Active; 'I' for Inactive)
REMARK    1  A    between atoms: C_3  and  C_7 
REMARK    2  A    between atoms: C_5  and  C_8 
REMARK    3  A    between atoms: C_8  and  O_10 
ROOT
HETATM    1  N   UNL     1      -0.677   1.159  -0.010  1.00  0.00    -0.353 N 
ATOM      2  HN  UNL     1      -1.278   1.982  -0.052  1.00  0.00     0.166 HD
HETATM    3  C   UNL     1       0.640   1.196   0.029  1.00  0.00     0.085 A 
HETATM    4  S   UNL     1       1.392  -0.353   0.065  1.00  0.00    -0.072 SA
HETATM    5  C   UNL     1      -0.142  -1.113   0.042  1.00  0.00     0.030 A 
HETATM    6  C   UNL     1      -1.137  -0.151   0.013  1.00  0.00     0.021 A 
HETATM    7  C   UNL     1      -2.608  -0.367  -0.001  1.00  0.00     0.069 C 
ENDROOT
BRANCH   3   8
HETATM    8  C   UNL     1       1.444   2.429  -0.028  1.00  0.00    -0.002 A 
HETATM    9  C   UNL     1       2.721   2.530   0.547  1.00  0.00     0.014 A 
HETATM   10  C   UNL     1       3.466   3.708   0.439  1.00  0.00     0.001 A 
HETATM   11  C   UNL     1       2.942   4.806  -0.240  1.00  0.00     0.000 A 
HETATM   12  C   UNL     1       1.667   4.733  -0.796  1.00  0.00     0.001 A 
HETATM   13  C   UNL     1       0.922   3.556  -0.685  1.00  0.00     0.014 A 
ENDBRANCH   3   8
BRANCH   5  14
HETATM   14  C   UNL     1      -0.246  -2.597   0.040  1.00  0.00     0.212 C 
BRANCH  14  15
HETATM   15  O   UNL     1      -0.924  -2.986   1.227  1.00  0.00    -0.396 OA
HETATM   16  H   UNL     1      -0.428  -2.674   2.000  1.00  0.00     0.209 HD
ENDBRANCH  14  15
ENDBRANCH   5  14
TORSDOF 3
