REMARK  2 active torsions:
REMARK  status: ('A' for Active; 'I' for Inactive)
REMARK    1  A    between atoms: CA_5  and  C_11 
REMARK    2  A    between atoms: C_11  and  O_12 
ROOT
HETATM    1  N   UNL     1      -1.590  -1.075   0.019  1.00  0.00    -0.343 N 
ATOM      2  HN  UNL     1      -1.945  -2.031   0.042  1.00  0.00     0.167 HD
HETATM    3  N   UNL     1      -0.220   0.694  -0.001  1.00  0.00    -0.317 N 
HETATM    4  C   UNL     1      -0.329  -0.692   0.012  1.00  0.00     0.111 A 
HETATM    5  CA  UNL     1      -2.329   0.092  -0.011  1.00  0.00     0.050 A 
HETATM    6  C   UNL     1      -1.498   1.192  -0.012  1.00  0.00     0.125 A 
HETATM    7  C   UNL     1       0.996   1.373  -0.003  1.00  0.00     0.098 A 
HETATM    8  C   UNL     1       0.886  -1.435   0.016  1.00  0.00     0.049 A 
HETATM    9  C   UNL     1       2.140   0.667   0.002  1.00  0.00     0.018 A 
HETATM   10  C   UNL     1       2.068  -0.787   0.010  1.00  0.00     0.005 A 
ENDROOT
BRANCH   5  11
HETATM   11  C   UNL     1      -3.816   0.034  -0.009  1.00  0.00     0.222 C 
BRANCH  11  12
HETATM   12  O   UNL     1      -4.305  -0.675   1.128  1.00  0.00    -0.395 OA
HETATM   13  H   UNL     1      -3.971  -1.586   1.109  1.00  0.00     0.209 HD
ENDBRANCH  11  12
ENDBRANCH   5  11
TORSDOF 2
