REMARK  1 active torsions:
REMARK  status: ('A' for Active; 'I' for Inactive)
REMARK    1  A    between atoms: C_1  and  C_2 
REMARK       I    between atoms: C_1  and  N_10 
ROOT
HETATM    1  C   UNL     1       0.416   1.046   0.713  1.00  0.00     0.032 A 
HETATM    2  C   UNL     1      -0.673   0.776   1.551  1.00  0.00     0.027 A 
HETATM    3  C   UNL     1      -1.285   1.814   2.269  1.00  0.00    -0.024 A 
HETATM    4  C   UNL     1      -0.781   3.115   2.149  1.00  0.00     0.075 A 
HETATM    5  O   UNL     1      -1.285   4.189   2.835  1.00  0.00    -0.351 OA
HETATM    6  C   UNL     1       0.870   2.360   0.554  1.00  0.00     0.020 A 
HETATM    7  C   UNL     1       0.269   3.392   1.273  1.00  0.00     0.038 A 
HETATM    8  C   UNL     1      -2.445   1.520   3.178  1.00  0.00     0.043 C 
HETATM    9  C   UNL     1      -2.094   3.837   3.961  1.00  0.00     0.176 C 
HETATM   10  C   UNL     1      -3.146   2.807   3.588  1.00  0.00     0.031 C 
ENDROOT
BRANCH   1  11
HETATM   11  C   UNL     1       1.072  -0.079   0.005  1.00  0.00     0.249 C 
HETATM   12  O   UNL     1       0.456  -1.084  -0.327  1.00  0.00    -0.268 OA
HETATM   13  N   UNL     1       2.418   0.038  -0.207  1.00  0.00    -0.366 N 
HETATM   14  H   UNL     1       2.890   0.856   0.069  1.00  0.00     0.159 HD
HETATM   15  H   UNL     1       2.914  -0.697  -0.635  1.00  0.00     0.159 HD
ENDBRANCH   1  11
TORSDOF 1
