REMARK  1 active torsions:
REMARK  status: ('A' for Active; 'I' for Inactive)
REMARK    1  A    between atoms: N_1  and  C_3 
ROOT
HETATM    1  N   UNL     1      -4.213   2.757  -4.656  1.00  0.00    -0.191 NA
HETATM    2  C   UNL     1      -2.624   0.061  -0.942  1.00  0.00     0.031 A 
HETATM    3  C   UNL     1      -4.104   1.971  -3.807  1.00  0.00     0.099 C 
HETATM    4  C   UNL     1      -2.807   1.000  -1.967  1.00  0.00     0.052 A 
HETATM    5  C   UNL     1      -3.963   1.004  -2.761  1.00  0.00     0.046 A 
HETATM    6  C   UNL     1      -3.650  -0.876  -0.745  1.00  0.00     0.029 A 
HETATM    7  C   UNL     1      -4.812  -0.876  -1.523  1.00  0.00     0.004 A 
HETATM    8  C   UNL     1      -4.968   0.065  -2.534  1.00  0.00     0.023 A 
ENDROOT
BRANCH   2   9
HETATM    9  N   UNL     1      -1.499   0.055  -0.148  1.00  0.00    -0.377 N 
HETATM   10  C   UNL     1      -0.749   1.271   0.198  1.00  0.00     0.149 C 
HETATM   11  C   UNL     1       0.700   1.161  -0.296  1.00  0.00     0.187 C 
HETATM   12  O   UNL     1       1.332  -0.037   0.186  1.00  0.00    -0.388 OA
HETATM   13  C   UNL     1       0.614  -1.197  -0.267  1.00  0.00     0.187 C 
HETATM   14  C   UNL     1      -0.839  -1.201   0.239  1.00  0.00     0.149 C 
ENDBRANCH   2   9
TORSDOF 1
