REMARK  3 active torsions:
REMARK  status: ('A' for Active; 'I' for Inactive)
REMARK    1  A    between atoms: C_1  and  C_5 
REMARK    2  A    between atoms: C_6  and  C_12 
REMARK    3  A    between atoms: N_7  and  C_12 
ROOT
HETATM    1  C   UNL     1       1.407  -0.203   0.074  1.00  0.00    -0.025 A 
HETATM    2  C   UNL     1       0.493  -1.274   0.079  1.00  0.00     0.021 A 
HETATM    3  C   UNL     1      -0.902  -1.075   0.040  1.00  0.00    -0.032 A 
HETATM    4  C   UNL     1       0.870   1.093  -0.008  1.00  0.00     0.012 A 
HETATM    5  C   UNL     1      -0.512   1.311  -0.053  1.00  0.00     0.001 A 
HETATM    6  C   UNL     1      -1.393   0.233  -0.023  1.00  0.00     0.009 A 
ENDROOT
BRANCH   1   7
HETATM    7  C   UNL     1       2.868  -0.438   0.186  1.00  0.00    -0.023 A 
HETATM    8  C   UNL     1       3.476  -1.582  -0.351  1.00  0.00     0.029 A 
HETATM    9  C   UNL     1       4.842  -1.778  -0.182  1.00  0.00     0.088 A 
HETATM   10  N   UNL     1       5.647  -0.917   0.469  1.00  0.00    -0.375 N 
HETATM   11  C   UNL     1       5.061   0.184   0.975  1.00  0.00     0.088 A 
ATOM     12  HN  UNL     1       6.647  -1.090   0.573  1.00  0.00     0.164 HD
HETATM   13  C   UNL     1       3.704   0.459   0.866  1.00  0.00     0.029 A 
ENDBRANCH   1   7
BRANCH   3  14
HETATM   14  C   UNL     1      -1.846  -2.256   0.066  1.00  0.00     0.270 C 
BRANCH  14  15
HETATM   15  N   UNL     1      -1.712  -3.019   1.307  1.00  0.00    -0.075 N 
HETATM   16  C   UNL     1      -2.610  -4.163   1.325  1.00  0.00     0.267 C 
HETATM   17  H   UNL     1      -1.933  -2.411   2.096  1.00  0.00     0.277 HD
HETATM   18  H   UNL     1      -0.753  -3.361   1.373  1.00  0.00     0.277 HD
ENDBRANCH  14  15
ENDBRANCH   3  14
TORSDOF 3
