REMARK  3 active torsions:
REMARK  status: ('A' for Active; 'I' for Inactive)
REMARK    1  A    between atoms: C_1  and  C_4 
REMARK    2  A    between atoms: C_9  and  C_13 
REMARK    3  A    between atoms: O_10  and  C_13 
ROOT
HETATM    1  C   UNL     1       1.377  -0.241   0.106  1.00  0.00    -0.026 A 
HETATM    2  C   UNL     1       0.460  -1.308   0.069  1.00  0.00     0.013 A 
HETATM    3  C   UNL     1       0.842   1.058   0.036  1.00  0.00     0.013 A 
HETATM    4  C   UNL     1      -0.920  -1.091  -0.036  1.00  0.00     0.010 A 
HETATM    5  C   UNL     1      -0.537   1.281  -0.057  1.00  0.00     0.010 A 
HETATM    6  C   UNL     1      -1.432   0.207  -0.097  1.00  0.00    -0.035 A 
ENDROOT
BRANCH   1   7
HETATM    7  C   UNL     1       2.838  -0.476   0.220  1.00  0.00    -0.023 A 
HETATM    8  C   UNL     1       3.453  -1.596  -0.358  1.00  0.00     0.029 A 
HETATM    9  C   UNL     1       4.821  -1.779  -0.211  1.00  0.00     0.088 A 
HETATM   10  N   UNL     1       5.627  -0.931   0.456  1.00  0.00    -0.375 N 
HETATM   11  C   UNL     1       5.034   0.148   1.004  1.00  0.00     0.088 A 
ATOM     12  HN  UNL     1       6.630  -1.096   0.542  1.00  0.00     0.164 HD
HETATM   13  C   UNL     1       3.673   0.410   0.918  1.00  0.00     0.029 A 
ENDBRANCH   1   7
BRANCH   6  14
HETATM   14  C   UNL     1      -2.912   0.455  -0.207  1.00  0.00     0.202 C 
BRANCH  14  15
HETATM   15  O   UNL     1      -3.393   1.132   0.947  1.00  0.00    -0.396 OA
HETATM   16  H   UNL     1      -4.347   1.284   0.858  1.00  0.00     0.209 HD
ENDBRANCH  14  15
ENDBRANCH   6  14
TORSDOF 3
