REMARK  3 active torsions:
REMARK  status: ('A' for Active; 'I' for Inactive)
REMARK    1  A    between atoms: N_1  and  C_2 
REMARK    2  A    between atoms: C_4  and  C_10 
REMARK    3  A    between atoms: O_8  and  C_10 
ROOT
HETATM    1  C   UNL     1      -2.250   1.089   0.516  1.00  0.00     0.030 A 
HETATM    2  C   UNL     1      -2.870   0.549   1.652  1.00  0.00     0.038 A 
HETATM    3  C   UNL     1      -3.995   1.148   2.259  1.00  0.00    -0.033 A 
HETATM    4  C   UNL     1      -2.856   2.234  -0.033  1.00  0.00     0.029 A 
HETATM    5  C   UNL     1      -3.981   2.834   0.540  1.00  0.00     0.003 A 
HETATM    6  C   UNL     1      -4.545   2.298   1.690  1.00  0.00     0.009 A 
ENDROOT
BRANCH   1   7
HETATM    7  N   UNL     1      -1.115   0.547  -0.067  1.00  0.00    -0.381 N 
HETATM    8  C   UNL     1      -0.458  -0.688   0.366  1.00  0.00     0.123 C 
HETATM    9  C   UNL     1       1.022  -0.326   0.402  1.00  0.00     0.021 C 
HETATM   10  C   UNL     1       1.162   0.658  -0.743  1.00  0.00     0.021 C 
HETATM   11  C   UNL     1      -0.137   1.456  -0.684  1.00  0.00     0.123 C 
ENDBRANCH   1   7
BRANCH   3  12
HETATM   12  C   UNL     1      -4.575   0.560   3.517  1.00  0.00     0.203 C 
BRANCH  12  13
HETATM   13  O   UNL     1      -5.062  -0.755   3.286  1.00  0.00    -0.396 OA
HETATM   14  H   UNL     1      -5.430  -1.112   4.109  1.00  0.00     0.209 HD
ENDBRANCH  12  13
ENDBRANCH   3  12
TORSDOF 3
