REMARK  3 active torsions:
REMARK  status: ('A' for Active; 'I' for Inactive)
REMARK    1  A    between atoms: C_1  and  C_5 
REMARK    2  A    between atoms: N_12  and  C_14 
REMARK    3  A    between atoms: C_13  and  C_14 
ROOT
HETATM    1  C   UNL     1      -0.061  -2.596  -0.044  1.00  0.00    -0.002 A 
HETATM    2  C   UNL     1       0.470  -3.407   0.970  1.00  0.00     0.015 A 
HETATM    3  C   UNL     1      -0.806  -3.211  -1.061  1.00  0.00     0.015 A 
HETATM    4  C   UNL     1      -1.026  -4.592  -1.056  1.00  0.00     0.010 A 
HETATM    5  C   UNL     1       0.256  -4.792   0.974  1.00  0.00     0.010 A 
HETATM    6  C   UNL     1      -0.490  -5.400  -0.044  1.00  0.00    -0.033 A 
ENDROOT
BRANCH   1   7
HETATM    7  C   UNL     1       0.198  -1.147  -0.026  1.00  0.00     0.084 A 
HETATM    8  N   UNL     1       1.278  -0.586   0.484  1.00  0.00    -0.359 N 
HETATM    9  C   UNL     1       1.222   0.786   0.334  1.00  0.00     0.096 A 
ATOM     10  HN  UNL     1       2.045  -1.093   0.926  1.00  0.00     0.166 HD
HETATM   11  C   UNL     1       0.078   1.271  -0.258  1.00  0.00     0.069 A 
HETATM   12  S   UNL     1      -0.962  -0.028  -0.653  1.00  0.00    -0.082 SA
ENDBRANCH   1   7
BRANCH   6  13
HETATM   13  C   UNL     1      -0.708  -6.896  -0.057  1.00  0.00     0.270 C 
BRANCH  13  14
HETATM   14  N   UNL     1      -0.103  -7.509  -1.240  1.00  0.00    -0.075 N 
HETATM   15  C   UNL     1      -0.324  -8.946  -1.260  1.00  0.00     0.267 C 
HETATM   16  H   UNL     1       0.901  -7.328  -1.232  1.00  0.00     0.277 HD
HETATM   17  H   UNL     1      -0.535  -7.105  -2.071  1.00  0.00     0.277 HD
ENDBRANCH  13  14
ENDBRANCH   6  13
TORSDOF 3
