REMARK  2 active torsions:
REMARK  status: ('A' for Active; 'I' for Inactive)
REMARK    1  A    between atoms: C_1  and  C_2 
REMARK    2  A    between atoms: C_3  and  C_11 
ROOT
HETATM    1  C   UNL     1       0.330  -0.922  -0.710  1.00  0.00     0.040 A 
HETATM    2  C   UNL     1      -0.907  -3.080  -2.074  1.00  0.00    -0.025 A 
HETATM    3  C   UNL     1       0.815  -2.221  -0.554  1.00  0.00     0.019 A 
HETATM    4  C   UNL     1      -0.758  -0.688  -1.552  1.00  0.00     0.019 A 
HETATM    5  C   UNL     1       0.203  -3.282  -1.230  1.00  0.00     0.013 A 
HETATM    6  C   UNL     1      -1.377  -1.760  -2.208  1.00  0.00     0.013 A 
ENDROOT
BRANCH   2   7
HETATM    7  C   UNL     1      -1.521  -4.203  -2.819  1.00  0.00    -0.011 A 
HETATM    8  C   UNL     1      -2.114  -4.033  -4.075  1.00  0.00     0.099 A 
HETATM    9  N   UNL     1      -2.660  -5.021  -4.828  1.00  0.00    -0.374 N 
HETATM   10  C   UNL     1      -2.608  -6.266  -4.319  1.00  0.00     0.087 A 
ATOM     11  HN  UNL     1      -3.088  -4.830  -5.734  1.00  0.00     0.164 HD
HETATM   12  C   UNL     1      -2.056  -6.562  -3.087  1.00  0.00     0.018 A 
HETATM   13  C   UNL     1      -1.520  -5.519  -2.332  1.00  0.00     0.015 A 
ENDBRANCH   2   7
BRANCH   1  14
HETATM   14  C   UNL     1       1.031   0.181  -0.004  1.00  0.00     0.209 C 
HETATM   15  O   UNL     1       2.220   0.153   0.256  1.00  0.00    -0.644 OA
HETATM   16  O   UNL     1       0.216   1.194   0.361  1.00  0.00    -0.644 OA
ENDBRANCH   1  14
TORSDOF 2
