REMARK  2 active torsions:
REMARK  status: ('A' for Active; 'I' for Inactive)
REMARK    1  A    between atoms: C_5  and  C_10 
REMARK    2  A    between atoms: C_10  and  O_11 
ROOT
HETATM    1  N   UNL     1      -1.793  -0.217   0.028  1.00  0.00    -0.352 N 
HETATM    2  C   UNL     1      -0.438  -0.473   0.026  1.00  0.00     0.052 A 
HETATM    3  C   UNL     1       0.224   0.719   0.027  1.00  0.00     0.033 A 
HETATM    4  C   UNL     1      -0.740   1.763   0.025  1.00  0.00     0.048 A 
HETATM    5  C   UNL     1      -1.982   1.149   0.004  1.00  0.00     0.036 A 
HETATM    6  S   UNL     1       1.944   0.517   0.026  1.00  0.00    -0.100 SA
HETATM    7  C   UNL     1       0.425  -1.604   0.018  1.00  0.00     0.038 A 
HETATM    8  C   UNL     1       1.740  -1.192   0.011  1.00  0.00     0.053 A 
HETATM    9  C   UNL     1      -2.773  -1.277   0.027  1.00  0.00     0.156 C 
ENDROOT
BRANCH   5  10
HETATM   10  C   UNL     1      -3.325   1.793  -0.030  1.00  0.00     0.221 C 
BRANCH  10  11
HETATM   11  O   UNL     1      -3.968   1.360  -1.219  1.00  0.00    -0.395 OA
HETATM   12  H   UNL     1      -3.434   1.615  -1.987  1.00  0.00     0.209 HD
ENDBRANCH  10  11
ENDBRANCH   5  10
TORSDOF 2
