REMARK  4 active torsions:
REMARK  status: ('A' for Active; 'I' for Inactive)
REMARK    1  A    between atoms: C_1  and  C_7 
REMARK    2  A    between atoms: C_2  and  C_8 
REMARK    3  A    between atoms: C_7  and  O_10 
REMARK    4  A    between atoms: O_10  and  C_14 
ROOT
HETATM    1  C   UNL     1       1.644   0.038   0.079  1.00  0.00     0.109 A 
HETATM    2  C   UNL     1       1.199  -1.275   0.038  1.00  0.00     0.066 A 
HETATM    3  N   UNL     1      -0.190  -1.417   0.042  1.00  0.00    -0.352 N 
ATOM      4  HN  UNL     1      -0.682  -2.311   0.042  1.00  0.00     0.166 HD
HETATM    5  S   UNL     1       0.280   1.099   0.091  1.00  0.00    -0.069 SA
HETATM    6  C   UNL     1      -0.775  -0.243   0.046  1.00  0.00     0.048 A 
HETATM    7  C   UNL     1      -2.247  -0.033   0.005  1.00  0.00     0.076 C 
ENDROOT
BRANCH   2   8
HETATM    8  C   UNL     1       2.021  -2.486  -0.042  1.00  0.00    -0.008 A 
HETATM    9  C   UNL     1       1.543  -3.672   0.538  1.00  0.00     0.014 A 
HETATM   10  C   UNL     1       2.256  -4.870   0.425  1.00  0.00     0.001 A 
HETATM   11  C   UNL     1       3.463  -4.897  -0.268  1.00  0.00     0.000 A 
HETATM   12  C   UNL     1       3.952  -3.730  -0.850  1.00  0.00     0.001 A 
HETATM   13  C   UNL     1       3.230  -2.537  -0.749  1.00  0.00     0.014 A 
ENDBRANCH   2   8
BRANCH   1  14
HETATM   14  C   UNL     1       2.981   0.586   0.152  1.00  0.00     0.302 C 
HETATM   15  O   UNL     1       3.960   0.041   0.647  1.00  0.00    -0.259 OA
BRANCH  14  16
HETATM   16  O   UNL     1       3.024   1.809  -0.458  1.00  0.00    -0.317 OA
BRANCH  16  17
HETATM   17  C   UNL     1       4.304   2.452  -0.513  1.00  0.00     0.174 C 
HETATM   18  C   UNL     1       4.596   3.158   0.797  1.00  0.00     0.034 C 
ENDBRANCH  16  17
ENDBRANCH  14  16
ENDBRANCH   1  14
TORSDOF 4
