REMARK  4 active torsions:
REMARK  status: ('A' for Active; 'I' for Inactive)
REMARK    1  A    between atoms: N_3  and  C_7 
REMARK    2  A    between atoms: C_7  and  C_8 
REMARK    3  A    between atoms: C_9  and  C_15 
REMARK    4  A    between atoms: O_14  and  C_15 
ROOT
HETATM    1  C   UNL     1      -0.219  -3.200  -1.210  1.00  0.00    -0.040 A 
HETATM    2  C   UNL     1       0.651  -4.453  -3.587  1.00  0.00    -0.035 A 
HETATM    3  C   UNL     1       1.148  -3.383  -1.460  1.00  0.00     0.009 A 
HETATM    4  C   UNL     1      -1.146  -3.674  -2.150  1.00  0.00     0.009 A 
HETATM    5  C   UNL     1      -0.714  -4.298  -3.324  1.00  0.00     0.010 A 
HETATM    6  C   UNL     1       1.577  -4.004  -2.636  1.00  0.00     0.010 A 
ENDROOT
BRANCH   1   7
HETATM    7  C   UNL     1      -0.682  -2.473   0.029  1.00  0.00     0.167 C 
BRANCH   7   8
HETATM    8  N   UNL     1      -0.783  -1.042  -0.197  1.00  0.00    -0.347 N 
HETATM    9  C   UNL     1      -1.893  -0.381  -0.643  1.00  0.00     0.182 A 
HETATM   10  N   UNL     1      -1.684   0.916  -0.712  1.00  0.00    -0.361 N 
HETATM   11  C   UNL     1      -0.394   1.099  -0.285  1.00  0.00     0.106 A 
ATOM     12  HN  UNL     1      -2.342   1.633  -1.018  1.00  0.00     0.166 HD
HETATM   13  C   UNL     1       0.179  -0.105   0.061  1.00  0.00     0.109 A 
ENDBRANCH   7   8
ENDBRANCH   1   7
BRANCH   2  14
HETATM   14  C   UNL     1       1.126  -5.076  -4.873  1.00  0.00     0.202 C 
BRANCH  14  15
HETATM   15  O   UNL     1       1.911  -4.149  -5.612  1.00  0.00    -0.396 OA
HETATM   16  H   UNL     1       2.210  -4.563  -6.437  1.00  0.00     0.209 HD
ENDBRANCH  14  15
ENDBRANCH   2  14
TORSDOF 4
