REMARK  3 active torsions:
REMARK  status: ('A' for Active; 'I' for Inactive)
REMARK    1  A    between atoms: C_1  and  C_2 
REMARK    2  A    between atoms: C_12  and  C_16 
REMARK    3  A    between atoms: O_15  and  C_16 
ROOT
HETATM    1  C   UNL     1      -0.194  -2.883   0.018  1.00  0.00    -0.023 A 
HETATM    2  C   UNL     1       0.348  -3.640   1.072  1.00  0.00     0.013 A 
HETATM    3  C   UNL     1      -0.830  -3.592  -1.017  1.00  0.00     0.013 A 
HETATM    4  C   UNL     1      -0.923  -4.990  -1.001  1.00  0.00     0.010 A 
HETATM    5  C   UNL     1       0.267  -5.039   1.085  1.00  0.00     0.010 A 
HETATM    6  C   UNL     1      -0.370  -5.727   0.048  1.00  0.00    -0.035 A 
ENDROOT
BRANCH   1   7
HETATM    7  C   UNL     1      -0.098  -1.409   0.000  1.00  0.00     0.005 A 
HETATM    8  C   UNL     1       0.968  -0.702   0.533  1.00  0.00     0.102 A 
HETATM    9  N   UNL     1       1.084   0.646   0.539  1.00  0.00    -0.361 N 
HETATM   10  C   UNL     1       0.076   1.315  -0.035  1.00  0.00     0.180 A 
ATOM     11  HN  UNL     1       1.886   1.121   0.953  1.00  0.00     0.166 HD
HETATM   12  N   UNL     1      -1.008   0.767  -0.593  1.00  0.00    -0.361 N 
HETATM   13  C   UNL     1      -1.065  -0.585  -0.557  1.00  0.00     0.102 A 
ATOM     14  HN  UNL     1      -1.744   1.331  -1.018  1.00  0.00     0.166 HD
ENDBRANCH   1   7
BRANCH   6  15
HETATM   15  C   UNL     1      -0.454  -7.230   0.071  1.00  0.00     0.202 C 
BRANCH  15  16
HETATM   16  O   UNL     1       0.847  -7.799   0.042  1.00  0.00    -0.396 OA
HETATM   17  H   UNL     1       0.777  -8.766   0.057  1.00  0.00     0.209 HD
ENDBRANCH  15  16
ENDBRANCH   6  15
TORSDOF 3
