REMARK  1 active torsions:
REMARK  status: ('A' for Active; 'I' for Inactive)
REMARK    1  A    between atoms: C_5  and  C_6 
ROOT
HETATM    1  C   UNL     1       0.178   0.406   0.004  1.00  0.00     0.045 A 
HETATM    2  N   UNL     1       1.556   0.342  -0.005  1.00  0.00    -0.360 N 
HETATM    3  C   UNL     1      -0.692   1.510   0.012  1.00  0.00     0.049 A 
HETATM    4  C   UNL     1       1.970  -0.964   0.001  1.00  0.00     0.091 A 
HETATM    5  C   UNL     1      -2.073   1.261   0.002  1.00  0.00     0.043 A 
HETATM    6  C   UNL     1       0.848  -1.761  -0.003  1.00  0.00     0.031 A 
HETATM    7  C   UNL     1      -0.291  -0.910  -0.005  1.00  0.00    -0.008 A 
HETATM    8  C   UNL     1      -2.560  -0.049  -0.013  1.00  0.00     0.019 A 
HETATM    9  C   UNL     1      -1.681  -1.140  -0.014  1.00  0.00     0.015 A 
HETATM   10  C   UNL     1       2.436   1.488  -0.038  1.00  0.00     0.155 C 
ENDROOT
BRANCH   5  11
HETATM   11  C   UNL     1      -3.056   2.373   0.004  1.00  0.00     0.209 C 
HETATM   12  O   UNL     1      -4.268   2.257  -0.008  1.00  0.00    -0.644 OA
HETATM   13  O   UNL     1      -2.474   3.587   0.019  1.00  0.00    -0.644 OA
ENDBRANCH   5  11
TORSDOF 1
