REMARK  2 active torsions:
REMARK  status: ('A' for Active; 'I' for Inactive)
REMARK    1  A    between atoms: C_1  and  C_3 
REMARK    2  A    between atoms: C_2  and  C_4 
ROOT
HETATM    1  C   UNL     1       1.439  -0.292   0.023  1.00  0.00     0.015 A 
HETATM    2  C   UNL     1       0.522  -1.363   0.001  1.00  0.00     0.053 A 
HETATM    3  C   UNL     1      -0.865  -1.102   0.007  1.00  0.00     0.019 A 
HETATM    4  C   UNL     1       0.912   1.019   0.049  1.00  0.00     0.015 A 
HETATM    5  C   UNL     1      -0.463   1.265   0.055  1.00  0.00     0.001 A 
HETATM    6  C   UNL     1      -1.353   0.203   0.036  1.00  0.00     0.001 A 
ENDROOT
BRANCH   1   7
HETATM    7  C   UNL     1       2.896  -0.434   0.074  1.00  0.00     0.086 A 
HETATM    8  O   UNL     1       3.605   0.589  -0.501  1.00  0.00    -0.322 OA
HETATM    9  C   UNL     1       4.924   0.326  -0.330  1.00  0.00     0.142 A 
HETATM   10  C   UNL     1       5.091  -0.854   0.352  1.00  0.00     0.027 A 
HETATM   11  C   UNL     1       3.787  -1.344   0.613  1.00  0.00     0.040 A 
ENDBRANCH   1   7
BRANCH   2  12
HETATM   12  C   UNL     1       0.943  -2.784  -0.093  1.00  0.00     0.210 C 
HETATM   13  O   UNL     1       1.910  -3.243  -0.667  1.00  0.00    -0.644 OA
HETATM   14  O   UNL     1       0.091  -3.595   0.568  1.00  0.00    -0.644 OA
ENDBRANCH   2  12
TORSDOF 2
