REMARK  3 active torsions:
REMARK  status: ('A' for Active; 'I' for Inactive)
REMARK    1  A    between atoms: C_4  and  C_7 
REMARK    2  A    between atoms: C_6  and  C_9 
REMARK    3  A    between atoms: C_9  and  N_10 
ROOT
HETATM    1  N   UNL     1      -0.638  -0.065  -0.003  1.00  0.00    -0.296 N 
HETATM    2  N   UNL     1       0.058   1.094  -0.030  1.00  0.00    -0.301 N 
ATOM      3  HN  UNL     1      -0.312   2.045  -0.034  1.00  0.00     0.187 HD
HETATM    4  C   UNL     1       0.158  -1.192  -0.042  1.00  0.00     0.062 A 
HETATM    5  C   UNL     1       1.450  -0.690  -0.043  1.00  0.00     0.060 A 
HETATM    6  C   UNL     1       1.339   0.715  -0.050  1.00  0.00     0.053 A 
HETATM    7  C   UNL     1      -2.075   0.049   0.080  1.00  0.00     0.178 C 
ENDROOT
BRANCH   4   8
HETATM    8  C   UNL     1      -0.266  -2.603  -0.048  1.00  0.00    -0.008 A 
HETATM    9  C   UNL     1      -1.419  -3.044  -0.709  1.00  0.00     0.014 A 
HETATM   10  C   UNL     1      -1.784  -4.397  -0.699  1.00  0.00     0.001 A 
HETATM   11  C   UNL     1      -0.977  -5.336  -0.066  1.00  0.00     0.000 A 
HETATM   12  C   UNL     1       0.193  -4.926   0.566  1.00  0.00     0.001 A 
HETATM   13  C   UNL     1       0.538  -3.571   0.581  1.00  0.00     0.014 A 
ENDBRANCH   4   8
BRANCH   6  14
HETATM   14  C   UNL     1       2.443   1.721  -0.074  1.00  0.00     0.288 C 
BRANCH  14  15
HETATM   15  N   UNL     1       2.818   2.062   1.301  1.00  0.00    -0.074 N 
HETATM   16  H   UNL     1       2.011   2.451   1.787  1.00  0.00     0.274 HD
HETATM   17  H   UNL     1       3.571   2.750   1.287  1.00  0.00     0.274 HD
HETATM   18  H   UNL     1       3.134   1.221   1.785  1.00  0.00     0.274 HD
ENDBRANCH  14  15
ENDBRANCH   6  14
TORSDOF 3
