REMARK  2 active torsions:
REMARK  status: ('A' for Active; 'I' for Inactive)
REMARK    1  A    between atoms: C_2  and  C_4 
REMARK    2  A    between atoms: C_3  and  C_7 
ROOT
HETATM    1  S   UNL     1      -1.015  -0.041   0.033  1.00  0.00    -0.081 SA
HETATM    2  C   UNL     1       0.141   1.220  -0.033  1.00  0.00     0.039 A 
HETATM    3  C   UNL     1       0.185  -1.262   0.030  1.00  0.00     0.082 A 
HETATM    4  C   UNL     1       1.453  -0.712   0.014  1.00  0.00     0.027 A 
HETATM    5  C   UNL     1       1.426   0.714  -0.018  1.00  0.00     0.023 A 
ENDROOT
BRANCH   2   6
HETATM    6  C   UNL     1      -0.229   2.608  -0.107  1.00  0.00     0.092 A 
HETATM    7  O   UNL     1       0.710   3.611  -0.171  1.00  0.00    -0.321 OA
HETATM    8  C   UNL     1       0.055   4.795  -0.261  1.00  0.00     0.142 A 
HETATM    9  C   UNL     1      -1.302   4.594  -0.254  1.00  0.00     0.027 A 
HETATM   10  C   UNL     1      -1.487   3.194  -0.148  1.00  0.00     0.040 A 
ENDBRANCH   2   6
BRANCH   3  11
HETATM   11  C   UNL     1      -0.218  -2.647   0.040  1.00  0.00     0.216 C 
HETATM   12  O   UNL     1      -1.345  -3.120   0.073  1.00  0.00    -0.643 OA
HETATM   13  O   UNL     1       0.852  -3.475  -0.007  1.00  0.00    -0.643 OA
ENDBRANCH   3  11
TORSDOF 2
