REMARK  2 active torsions:
REMARK  status: ('A' for Active; 'I' for Inactive)
REMARK    1  A    between atoms: C_6  and  C_13 
REMARK    2  A    between atoms: C_13  and  O_14 
ROOT
HETATM    1  C   UNL     1       0.139  -1.226  -0.051  1.00  0.00     0.069 A 
HETATM    2  N   UNL     1      -0.636  -0.088  -0.061  1.00  0.00    -0.295 N 
HETATM    3  N   UNL     1       0.087   1.056  -0.093  1.00  0.00    -0.300 N 
ATOM      4  HN  UNL     1      -0.258   2.015  -0.132  1.00  0.00     0.187 HD
HETATM    5  C   UNL     1       1.444  -0.765  -0.024  1.00  0.00     0.061 A 
HETATM    6  C   UNL     1       1.360   0.640  -0.062  1.00  0.00     0.051 A 
HETATM    7  C   UNL     1      -0.324  -2.589  -0.048  1.00  0.00     0.033 A 
HETATM    8  S   UNL     1       0.535  -3.809   0.810  1.00  0.00    -0.100 SA
HETATM    9  C   UNL     1      -1.416  -3.131  -0.701  1.00  0.00     0.021 A 
HETATM   10  C   UNL     1      -0.567  -5.025   0.339  1.00  0.00     0.050 A 
HETATM   11  C   UNL     1      -1.570  -4.529  -0.460  1.00  0.00     0.008 A 
HETATM   12  C   UNL     1      -2.073   0.045  -0.004  1.00  0.00     0.178 C 
ENDROOT
BRANCH   6  13
HETATM   13  C   UNL     1       2.476   1.633  -0.069  1.00  0.00     0.222 C 
BRANCH  13  14
HETATM   14  O   UNL     1       2.093   2.868   0.541  1.00  0.00    -0.395 OA
HETATM   15  H   UNL     1       1.355   3.258   0.047  1.00  0.00     0.209 HD
ENDBRANCH  13  14
ENDBRANCH   6  13
TORSDOF 2
