REMARK  3 active torsions:
REMARK  status: ('A' for Active; 'I' for Inactive)
REMARK    1  A    between atoms: C_1  and  C_3 
REMARK    2  A    between atoms: C_11  and  C_13 
REMARK    3  A    between atoms: N_12  and  C_13 
ROOT
HETATM    1  C   UNL     1       2.627   1.475   0.019  1.00  0.00    -0.025 A 
HETATM    2  C   UNL     1       2.855   2.394   1.052  1.00  0.00     0.013 A 
HETATM    3  C   UNL     1       3.607   1.326  -0.971  1.00  0.00     0.013 A 
HETATM    4  C   UNL     1       4.789   2.075  -0.929  1.00  0.00     0.010 A 
HETATM    5  C   UNL     1       4.039   3.138   1.097  1.00  0.00     0.010 A 
HETATM    6  C   UNL     1       5.019   2.986   0.108  1.00  0.00    -0.033 A 
ENDROOT
BRANCH   1   7
HETATM    7  C   UNL     1       1.401   0.673   0.004  1.00  0.00    -0.019 A 
HETATM    8  C   UNL     1       0.796   0.262  -1.170  1.00  0.00     0.061 A 
HETATM    9  S   UNL     1      -0.613  -0.675  -0.903  1.00  0.00    -0.113 SA
HETATM   10  C   UNL     1      -0.448  -0.533   0.790  1.00  0.00     0.050 A 
HETATM   11  C   UNL     1       0.658   0.208   1.140  1.00  0.00     0.020 A 
ENDBRANCH   1   7
BRANCH   6  12
HETATM   12  C   UNL     1       6.305   3.770   0.174  1.00  0.00     0.268 C 
BRANCH  12  13
HETATM   13  N   UNL     1       6.061   5.207   0.134  1.00  0.00    -0.075 N 
HETATM   14  H   UNL     1       6.950   5.704   0.181  1.00  0.00     0.274 HD
HETATM   15  H   UNL     1       5.479   5.475   0.928  1.00  0.00     0.274 HD
HETATM   16  H   UNL     1       5.582   5.446  -0.734  1.00  0.00     0.274 HD
ENDBRANCH  12  13
ENDBRANCH   6  12
TORSDOF 3
