REMARK  2 active torsions:
REMARK  status: ('A' for Active; 'I' for Inactive)
REMARK    1  A    between atoms: C_1  and  C_5 
REMARK    2  A    between atoms: C_2  and  C_7 
ROOT
HETATM    1  C   UNL     1      -1.577  -0.789  -0.044  1.00  0.00     0.077 A 
HETATM    2  C   UNL     1      -1.472   0.593  -0.024  1.00  0.00     0.103 A 
HETATM    3  O   UNL     1      -0.150   0.955  -0.035  1.00  0.00    -0.314 OA
HETATM    4  C   UNL     1      -0.237  -1.284  -0.021  1.00  0.00     0.053 A 
HETATM    5  C   UNL     1       0.591  -0.186  -0.027  1.00  0.00     0.051 A 
HETATM    6  C   UNL     1       2.057  -0.022  -0.020  1.00  0.00     0.077 C 
ENDROOT
BRANCH   2   7
HETATM    7  C   UNL     1      -2.425   1.700   0.058  1.00  0.00    -0.001 A 
HETATM    8  C   UNL     1      -3.622   1.556   0.778  1.00  0.00     0.014 A 
HETATM    9  C   UNL     1      -4.568   2.581   0.819  1.00  0.00     0.001 A 
HETATM   10  C   UNL     1      -4.319   3.781   0.162  1.00  0.00     0.000 A 
HETATM   11  C   UNL     1      -3.120   3.958  -0.527  1.00  0.00     0.001 A 
HETATM   12  C   UNL     1      -2.180   2.925  -0.575  1.00  0.00     0.014 A 
ENDBRANCH   2   7
BRANCH   1  13
HETATM   13  C   UNL     1      -2.798  -1.558  -0.080  1.00  0.00     0.212 C 
HETATM   14  O   UNL     1      -3.883  -1.189  -0.502  1.00  0.00    -0.644 OA
HETATM   15  O   UNL     1      -2.682  -2.797   0.444  1.00  0.00    -0.644 OA
ENDBRANCH   1  13
TORSDOF 2
