REMARK  3 active torsions:
REMARK  status: ('A' for Active; 'I' for Inactive)
REMARK    1  A    between atoms: C_1  and  C_6 
REMARK    2  A    between atoms: C_2  and  C_7 
REMARK    3  A    between atoms: C_7  and  O_8 
ROOT
HETATM    1  C   UNL     1      -1.437   0.640   0.038  1.00  0.00     0.094 A 
HETATM    2  C   UNL     1      -1.539  -0.746  -0.006  1.00  0.00     0.002 A 
HETATM    3  O   UNL     1      -0.114   0.999   0.036  1.00  0.00    -0.314 OA
HETATM    4  C   UNL     1      -0.198  -1.236  -0.032  1.00  0.00     0.044 A 
HETATM    5  C   UNL     1       0.628  -0.138  -0.009  1.00  0.00     0.050 A 
HETATM    6  C   UNL     1       2.093   0.032  -0.020  1.00  0.00     0.076 C 
ENDROOT
BRANCH   1   7
HETATM    7  C   UNL     1      -2.385   1.753   0.110  1.00  0.00    -0.002 A 
HETATM    8  C   UNL     1      -2.012   2.973   0.697  1.00  0.00     0.014 A 
HETATM    9  C   UNL     1      -2.927   4.023   0.823  1.00  0.00     0.001 A 
HETATM   10  C   UNL     1      -4.231   3.872   0.358  1.00  0.00     0.000 A 
HETATM   11  C   UNL     1      -4.613   2.679  -0.247  1.00  0.00     0.001 A 
HETATM   12  C   UNL     1      -3.695   1.631  -0.373  1.00  0.00     0.014 A 
ENDBRANCH   1   7
BRANCH   2  13
HETATM   13  C   UNL     1      -2.760  -1.595  -0.000  1.00  0.00     0.205 C 
BRANCH  13  14
HETATM   14  O   UNL     1      -3.599  -1.332   1.117  1.00  0.00    -0.396 OA
HETATM   15  H   UNL     1      -3.118  -1.528   1.936  1.00  0.00     0.209 HD
ENDBRANCH  13  14
ENDBRANCH   2  13
TORSDOF 3
