REMARK  4 active torsions:
REMARK  status: ('A' for Active; 'I' for Inactive)
REMARK    1  A    between atoms: C_1  and  O_2 
REMARK    2  A    between atoms: O_2  and  C_4 
REMARK    3  A    between atoms: C_3  and  C_5 
REMARK    4  A    between atoms: C_5  and  O_6 
ROOT
HETATM    1  C   UNL     1       1.302  -0.294   0.126  1.00  0.00     0.084 C 
HETATM    2  C   UNL     1       0.381  -1.352   0.163  1.00  0.00    -0.001 C 
HETATM    3  C   UNL     1       0.834   1.032   0.202  1.00  0.00     0.038 C 
HETATM    4  C   UNL     1      -0.992  -1.051   0.119  1.00  0.00     0.012 C 
HETATM    5  C   UNL     1      -1.438   0.270   0.073  1.00  0.00     0.001 C 
HETATM    6  C   UNL     1      -0.526   1.312   0.138  1.00  0.00     0.003 C 
ENDROOT
BRANCH   1   7
HETATM    7  O   UNL     1       2.656  -0.574   0.021  1.00  0.00    -0.310 OA
BRANCH   7   8
HETATM    8  C   UNL     1       3.436   0.346  -0.658  1.00  0.00     0.076 A 
HETATM    9  C   UNL     1       4.647   0.727  -0.078  1.00  0.00     0.037 A 
HETATM   10  C   UNL     1       5.397   1.758  -0.652  1.00  0.00     0.003 A 
HETATM   11  C   UNL     1       4.940   2.403  -1.803  1.00  0.00     0.000 A 
HETATM   12  C   UNL     1       3.763   1.981  -2.418  1.00  0.00     0.003 A 
HETATM   13  C   UNL     1       3.032   0.928  -1.868  1.00  0.00     0.037 A 
ENDBRANCH   7   8
ENDBRANCH   1   7
BRANCH   2  14
HETATM   14  C   UNL     1       0.789  -2.802   0.231  1.00  0.00     0.205 C 
BRANCH  14  15
HETATM   15  O   UNL     1       0.225  -3.414   1.390  1.00  0.00    -0.396 OA
HETATM   16  H   UNL     1       0.544  -2.959   2.184  1.00  0.00     0.209 HD
ENDBRANCH  14  15
ENDBRANCH   2  14
TORSDOF 4
