REMARK  3 active torsions:
REMARK  status: ('A' for Active; 'I' for Inactive)
REMARK    1  A    between atoms: N_1  and  C_2 
REMARK    2  A    between atoms: C_2  and  C_3 
REMARK    3  A    between atoms: C_5  and  N_6 
ROOT
HETATM    1  C   UNL     1      -0.552   0.101   2.681  1.00  0.00    -0.030 A 
HETATM    2  C   UNL     1      -0.797  -1.199   3.154  1.00  0.00     0.037 A 
HETATM    3  C   UNL     1      -0.050  -1.742   4.209  1.00  0.00     0.026 A 
HETATM    4  C   UNL     1       1.188   0.339   4.355  1.00  0.00     0.003 A 
HETATM    5  C   UNL     1       0.461   0.858   3.285  1.00  0.00     0.009 A 
HETATM    6  C   UNL     1       0.910  -0.941   4.832  1.00  0.00     0.029 A 
ENDROOT
BRANCH   1   7
HETATM    7  C   UNL     1      -1.412   0.704   1.588  1.00  0.00     0.273 C 
BRANCH   7   8
HETATM    8  N   UNL     1      -1.004   0.360   0.215  1.00  0.00    -0.067 N 
HETATM    9  C   UNL     1       0.272   0.968  -0.192  1.00  0.00     0.235 C 
HETATM   10  C   UNL     1      -0.073   2.368  -0.665  1.00  0.00     0.029 C 
HETATM   11  C   UNL     1      -1.446   2.209  -1.292  1.00  0.00     0.029 C 
HETATM   12  C   UNL     1      -1.985   0.885  -0.756  1.00  0.00     0.235 C 
HETATM   13  H   UNL     1      -0.929  -0.657   0.217  1.00  0.00     0.280 HD
ENDBRANCH   7   8
ENDBRANCH   1   7
BRANCH   3  14
HETATM   14  N   UNL     1      -0.433  -2.958   4.793  1.00  0.00    -0.399 N 
HETATM   15  H   UNL     1      -1.110  -3.523   4.355  1.00  0.00     0.156 HD
HETATM   16  H   UNL     1      -0.024  -3.247   5.641  1.00  0.00     0.156 HD
ENDBRANCH   3  14
TORSDOF 3
