REMARK  0 active torsions:
REMARK  status: ('A' for Active; 'I' for Inactive)
ROOT
HETATM    1  C   UNL     1      -0.013   0.701   0.136  1.00  0.00     0.135 A 
HETATM    2  N   UNL     1      -1.198   1.432   0.262  1.00  0.00    -0.372 N 
HETATM    3  N   UNL     1       1.130   1.412   0.103  1.00  0.00    -0.350 N 
ATOM      4  HN  UNL     1       1.124   2.431   0.143  1.00  0.00     0.166 HD
HETATM    5  C   UNL     1      -0.033  -0.703   0.076  1.00  0.00     0.112 A 
HETATM    6  O   UNL     1      -1.183  -1.456   0.047  1.00  0.00    -0.346 OA
HETATM    7  C   UNL     1      -2.335   0.707  -0.270  1.00  0.00     0.148 C 
HETATM    8  C   UNL     1       2.286   0.716   0.015  1.00  0.00     0.090 A 
HETATM    9  C   UNL     1      -2.359  -0.689   0.362  1.00  0.00     0.195 C 
HETATM   10  C   UNL     1       1.171  -1.389  -0.032  1.00  0.00     0.042 A 
HETATM   11  C   UNL     1       2.359  -0.667  -0.056  1.00  0.00     0.020 A 
HETATM   12  H   UNL     1      -1.254   2.330   0.663  1.00  0.00     0.161 HD
ENDROOT
TORSDOF 0
