REMARK  4 active torsions:
REMARK  status: ('A' for Active; 'I' for Inactive)
REMARK    1  A    between atoms: C_1  and  C_4 
REMARK    2  A    between atoms: C_1  and  O_5 
REMARK    3  A    between atoms: C_4  and  C_6 
REMARK    4  A    between atoms: O_5  and  C_9 
ROOT
HETATM    1  O   UNL     1       1.931  -2.037   4.040  1.00  0.00    -0.391 OA
HETATM    2  C   UNL     1       0.605   0.008   2.500  1.00  0.00    -0.001 C 
HETATM    3  C   UNL     1       0.539  -2.174   3.762  1.00  0.00     0.168 C 
HETATM    4  C   UNL     1       2.308  -0.676   4.238  1.00  0.00     0.168 C 
HETATM    5  C   UNL     1       2.060   0.139   2.973  1.00  0.00     0.031 C 
HETATM    6  C   UNL     1       0.178  -1.467   2.460  1.00  0.00     0.031 C 
ENDROOT
BRANCH   2   7
HETATM    7  C   UNL     1       0.310   0.734   1.178  1.00  0.00     0.115 C 
BRANCH   7   8
HETATM    8  C   UNL     1       1.114   0.294  -0.027  1.00  0.00     0.259 C 
HETATM    9  O   UNL     1       0.763  -0.598  -0.793  1.00  0.00    -0.265 OA
BRANCH   8  10
HETATM   10  O   UNL     1       2.249   1.032  -0.142  1.00  0.00    -0.322 OA
BRANCH  10  11
HETATM   11  C   UNL     1       3.090   0.751  -1.274  1.00  0.00     0.174 C 
HETATM   12  C   UNL     1       3.960  -0.469  -1.024  1.00  0.00     0.034 C 
ENDBRANCH  10  11
ENDBRANCH   8  10
ENDBRANCH   7   8
ENDBRANCH   2   7
TORSDOF 4
