REMARK  1 active torsions:
REMARK  status: ('A' for Active; 'I' for Inactive)
REMARK    1  A    between atoms: C_1  and  C_5 
ROOT
HETATM    1  C   UNL     1      -2.103   0.979   0.002  1.00  0.00     0.084 A 
HETATM    2  S   UNL     1      -1.800  -0.706   0.000  1.00  0.00    -0.081 SA
HETATM    3  C   UNL     1      -0.925   1.700   0.003  1.00  0.00     0.057 A 
HETATM    4  C   UNL     1       0.232   0.872   0.003  1.00  0.00     0.050 A 
HETATM    5  C   UNL     1      -0.097  -0.483   0.001  1.00  0.00     0.032 A 
HETATM    6  N   UNL     1       1.515   1.323   0.004  1.00  0.00    -0.365 N 
ATOM      7  HN  UNL     1       1.742   2.317   0.005  1.00  0.00     0.165 HD
HETATM    8  C   UNL     1       0.918  -1.451   0.001  1.00  0.00     0.022 A 
HETATM    9  C   UNL     1       2.466   0.370   0.003  1.00  0.00     0.088 A 
HETATM   10  C   UNL     1       2.232  -0.993   0.002  1.00  0.00     0.018 A 
ENDROOT
BRANCH   1  11
HETATM   11  C   UNL     1      -3.463   1.460   0.002  1.00  0.00     0.216 C 
HETATM   12  O   UNL     1      -4.504   0.819   0.000  1.00  0.00    -0.643 OA
HETATM   13  O   UNL     1      -3.509   2.811   0.003  1.00  0.00    -0.643 OA
ENDBRANCH   1  11
TORSDOF 1
