REMARK  1 active torsions:
REMARK  status: ('A' for Active; 'I' for Inactive)
REMARK    1  A    between atoms: C_6  and  N_7 
ROOT
HETATM    1  C   UNL     1      -0.090  -0.714   0.004  1.00  0.00    -0.024 A 
HETATM    2  O   UNL     1      -2.397  -0.399   0.032  1.00  0.00    -0.382 OA
HETATM    3  C   UNL     1      -0.317   0.650   0.031  1.00  0.00    -0.026 A 
HETATM    4  C   UNL     1       1.197  -1.230  -0.037  1.00  0.00     0.038 A 
HETATM    5  C   UNL     1       0.736   1.546   0.011  1.00  0.00     0.012 A 
HETATM    6  C   UNL     1       2.282  -0.348  -0.011  1.00  0.00     0.026 A 
HETATM    7  C   UNL     1      -1.386  -1.433  -0.008  1.00  0.00     0.207 A 
HETATM    8  C   UNL     1       2.039   1.037  -0.032  1.00  0.00     0.029 A 
HETATM    9  C   UNL     1      -1.777   0.908   0.040  1.00  0.00     0.207 A 
ENDROOT
BRANCH   6  10
HETATM   10  N   UNL     1       3.583  -0.834  -0.203  1.00  0.00    -0.399 N 
HETATM   11  H   UNL     1       3.754  -1.803  -0.188  1.00  0.00     0.156 HD
HETATM   12  H   UNL     1       4.326  -0.205  -0.351  1.00  0.00     0.156 HD
ENDBRANCH   6  10
TORSDOF 1
