REMARK  2 active torsions:
REMARK  status: ('A' for Active; 'I' for Inactive)
REMARK    1  A    between atoms: C_2  and  N_7 
REMARK    2  A    between atoms: C_3  and  N_6 
ROOT
HETATM    1  C   UNL     1      -0.576   0.016   0.036  1.00  0.00     0.097 A 
HETATM    2  C   UNL     1       0.121   1.269   0.007  1.00  0.00     0.052 A 
HETATM    3  C   UNL     1       0.101  -1.246  -0.004  1.00  0.00     0.052 A 
HETATM    4  C   UNL     1      -1.996   0.027   0.277  1.00  0.00     0.104 C 
HETATM    5  N   UNL     1      -3.149   0.028   0.436  1.00  0.00    -0.191 NA
HETATM    6  C   UNL     1       1.526   1.204   0.021  1.00  0.00     0.031 A 
HETATM    7  C   UNL     1       1.507  -1.205   0.013  1.00  0.00     0.031 A 
HETATM    8  C   UNL     1       2.212  -0.008   0.038  1.00  0.00     0.005 A 
ENDROOT
BRANCH   2   9
HETATM    9  N   UNL     1      -0.494   2.523  -0.006  1.00  0.00    -0.388 N 
HETATM   10  C   UNL     1      -1.724   2.803  -0.743  1.00  0.00     0.149 C 
HETATM   11  C   UNL     1       0.152   3.681   0.606  1.00  0.00     0.149 C 
ENDBRANCH   2   9
BRANCH   3  12
HETATM   12  N   UNL     1      -0.534  -2.491  -0.033  1.00  0.00    -0.388 N 
HETATM   13  C   UNL     1      -1.764  -2.744  -0.780  1.00  0.00     0.149 C 
HETATM   14  C   UNL     1       0.076  -3.656   0.597  1.00  0.00     0.149 C 
ENDBRANCH   3  12
TORSDOF 2
