REMARK  1 active torsions:
REMARK  status: ('A' for Active; 'I' for Inactive)
REMARK    1  A    between atoms: C_3  and  C_7 
ROOT
HETATM    1  N   UNL     1       1.189  -0.289  -1.027  1.00  0.00    -0.357 N 
ATOM      2  HN  UNL     1       1.811  -0.353  -1.833  1.00  0.00     0.166 HD
HETATM    3  C   UNL     1       1.127  -1.222   0.000  1.00  0.00     0.024 A 
HETATM    4  C   UNL     1       0.335   0.689  -0.818  1.00  0.00     0.047 A 
HETATM    5  S   UNL     1      -0.599   0.556   0.615  1.00  0.00    -0.087 SA
HETATM    6  C   UNL     1       0.198  -0.914   0.981  1.00  0.00     0.077 A 
HETATM    7  C   UNL     1       0.153   1.855  -1.723  1.00  0.00     0.076 C 
ENDROOT
BRANCH   3   8
HETATM    8  C   UNL     1       2.044  -2.436  -0.034  1.00  0.00    -0.008 C 
HETATM    9  C   UNL     1       2.937  -2.433  -1.292  1.00  0.00     0.021 C 
HETATM   10  C   UNL     1       2.964  -2.437   1.204  1.00  0.00     0.021 C 
HETATM   11  C   UNL     1       1.214  -3.735  -0.043  1.00  0.00     0.021 C 
ENDBRANCH   3   8
TORSDOF 1
