REMARK  1 active torsions:
REMARK  status: ('A' for Active; 'I' for Inactive)
REMARK    1  A    between atoms: N_5  and  C_11 
ROOT
HETATM    1  C   UNL     1      -3.133   1.190   2.083  1.00  0.00    -0.090 C 
HETATM    2  C   UNL     1      -3.830   2.117   2.406  1.00  0.00     0.013 C 
HETATM    3  C   UNL     1      -2.272   0.076   1.660  1.00  0.00     0.327 C 
ENDROOT
BRANCH   3   4
HETATM    4  N   UNL     1      -2.136   0.026   0.197  1.00  0.00    -0.059 N 
HETATM    5  C   UNL     1      -1.514   1.210  -0.409  1.00  0.00     0.250 C 
HETATM    6  C   UNL     1      -0.049   1.420  -0.077  1.00  0.00     0.168 C 
HETATM    7  S   UNL     1       0.921  -0.003  -0.498  1.00  0.00     0.147 S 
HETATM    8  C   UNL     1      -0.047  -1.385   0.052  1.00  0.00     0.168 C 
HETATM    9  O   UNL     1       2.124   0.034   0.316  1.00  0.00    -0.228 OA
HETATM   10  O   UNL     1       1.018  -0.071  -1.945  1.00  0.00    -0.228 OA
HETATM   11  C   UNL     1      -1.514  -1.210  -0.291  1.00  0.00     0.250 C 
HETATM   12  H   UNL     1      -3.105   0.028  -0.123  1.00  0.00     0.281 HD
ENDBRANCH   3   4
TORSDOF 1
