REMARK  2 active torsions:
REMARK  status: ('A' for Active; 'I' for Inactive)
REMARK    1  A    between atoms: C_1  and  C_5 
REMARK    2  A    between atoms: C_8  and  N_9 
ROOT
HETATM    1  C   UNL     1      -2.275   0.013  -0.050  1.00  0.00     0.118 A 
HETATM    2  N   UNL     1      -1.534   1.106  -0.088  1.00  0.00    -0.340 N 
ATOM      3  HN  UNL     1      -1.863   2.071  -0.117  1.00  0.00     0.167 HD
HETATM    4  N   UNL     1      -1.471  -1.105  -0.115  1.00  0.00    -0.340 N 
HETATM    5  C   UNL     1      -0.229   0.677  -0.080  1.00  0.00     0.060 A 
HETATM    6  C   UNL     1      -0.162  -0.710  -0.075  1.00  0.00     0.060 A 
HETATM    7  C   UNL     1       0.960   1.420  -0.062  1.00  0.00     0.032 A 
HETATM    8  C   UNL     1       1.037  -1.423  -0.039  1.00  0.00     0.032 A 
HETATM    9  C   UNL     1       2.214  -0.665  -0.011  1.00  0.00     0.002 A 
HETATM   10  C   UNL     1       2.180   0.732  -0.026  1.00  0.00     0.002 A 
HETATM   11  H   UNL     1      -1.787  -2.035  -0.179  1.00  0.00     0.167 HD
ENDROOT
BRANCH   1  12
HETATM   12  C   UNL     1      -3.737  -0.058   0.021  1.00  0.00     0.034 A 
HETATM   13  C   UNL     1      -4.425  -1.114   0.662  1.00  0.00     0.039 A 
HETATM   14  C   UNL     1      -5.826  -1.158   0.583  1.00  0.00     0.030 A 
HETATM   15  C   UNL     1      -6.545  -0.122  -0.015  1.00  0.00     0.002 A 
HETATM   16  C   UNL     1      -5.872   0.953  -0.585  1.00  0.00     0.001 A 
HETATM   17  C   UNL     1      -4.477   0.980  -0.573  1.00  0.00     0.017 A 
BRANCH  13  18
HETATM   18  N   UNL     1      -3.749  -2.214   1.248  1.00  0.00    -0.398 N 
HETATM   19  H   UNL     1      -2.767  -2.210   1.316  1.00  0.00     0.156 HD
HETATM   20  H   UNL     1      -4.262  -2.983   1.587  1.00  0.00     0.156 HD
ENDBRANCH  13  18
ENDBRANCH   1  12
TORSDOF 2
