REMARK  3 active torsions:
REMARK  status: ('A' for Active; 'I' for Inactive)
REMARK    1  A    between atoms: C_1  and  C_3 
REMARK    2  A    between atoms: C_2  and  N_8 
REMARK    3  A    between atoms: C_3  and  O_9 
ROOT
HETATM    1  C   UNL     1      -0.664  -1.298   0.540  1.00  0.00     0.072 A 
HETATM    2  C   UNL     1      -1.200   0.014   0.445  1.00  0.00     0.049 A 
HETATM    3  S   UNL     1       1.175   0.294   1.163  1.00  0.00    -0.110 SA
HETATM    4  C   UNL     1       0.675  -1.293   0.934  1.00  0.00     0.069 A 
HETATM    5  C   UNL     1      -0.285   1.012   0.762  1.00  0.00     0.079 A 
ENDROOT
BRANCH   1   6
HETATM    6  C   UNL     1      -1.372  -2.577   0.271  1.00  0.00     0.295 C 
HETATM    7  O   UNL     1      -2.552  -2.587  -0.045  1.00  0.00    -0.259 OA
BRANCH   6   8
HETATM    8  O   UNL     1      -0.689  -3.747   0.378  1.00  0.00    -0.322 OA
HETATM    9  C   UNL     1      -1.250  -4.988   0.160  1.00  0.00     0.213 C 
ENDBRANCH   6   8
ENDBRANCH   1   6
BRANCH   2  10
HETATM   10  N   UNL     1      -2.529   0.338   0.068  1.00  0.00    -0.398 N 
HETATM   11  H   UNL     1      -3.167  -0.378  -0.154  1.00  0.00     0.156 HD
HETATM   12  H   UNL     1      -2.814   1.280   0.029  1.00  0.00     0.156 HD
ENDBRANCH   2  10
TORSDOF 3
