REMARK  0 active torsions:
REMARK  status: ('A' for Active; 'I' for Inactive)
ROOT
HETATM    1  C   UNL     1      -0.579  -0.575  -0.028  1.00  0.00     0.116 A 
HETATM    2  N   UNL     1      -0.046   0.693  -0.020  1.00  0.00    -0.282 N 
HETATM    3  N   UNL     1       1.304   0.705  -0.009  1.00  0.00    -0.308 N 
ATOM      4  HN  UNL     1       1.928   1.512   0.002  1.00  0.00     0.186 HD
HETATM    5  C   UNL     1       0.498  -1.429  -0.027  1.00  0.00     0.068 A 
HETATM    6  C   UNL     1       1.628  -0.590  -0.016  1.00  0.00     0.111 A 
HETATM    7  N   UNL     1      -1.899  -0.840  -0.041  1.00  0.00    -0.384 N 
HETATM    8  C   UNL     1      -0.765   1.943  -0.037  1.00  0.00     0.179 C 
HETATM    9  H   UNL     1      -2.549  -0.101  -0.039  1.00  0.00     0.157 HD
HETATM   10  H   UNL     1      -2.214  -1.773  -0.052  1.00  0.00     0.157 HD
ENDROOT
TORSDOF 0
