REMARK  1 active torsions:
REMARK  status: ('A' for Active; 'I' for Inactive)
REMARK    1  A    between atoms: C_1  and  C_2 
ROOT
HETATM    1  C   UNL     1      -0.350   1.088   0.003  1.00  0.00     0.133 A 
HETATM    2  N   UNL     1      -1.113  -0.025   0.006  1.00  0.00    -0.297 N 
ATOM      3  HN  UNL     1      -2.131  -0.084   0.010  1.00  0.00     0.187 HD
HETATM    4  N   UNL     1      -0.232  -1.037   0.002  1.00  0.00    -0.311 N 
HETATM    5  C   UNL     1       1.031   0.746   0.000  1.00  0.00     0.054 A 
HETATM    6  C   UNL     1       1.067  -0.627  -0.001  1.00  0.00     0.109 A 
HETATM    7  H   UNL     1      -0.499  -1.985   0.003  1.00  0.00     0.186 HD
ENDROOT
BRANCH   1   8
HETATM    8  C   UNL     1      -0.919   2.484   0.002  1.00  0.00     0.433 C 
HETATM    9  F   UNL     1      -2.277   2.525   0.019  1.00  0.00    -0.165 F 
HETATM   10  F   UNL     1      -0.494   3.198   1.082  1.00  0.00    -0.165 F 
HETATM   11  F   UNL     1      -0.521   3.184  -1.096  1.00  0.00    -0.165 F 
ENDBRANCH   1   8
TORSDOF 1
