REMARK  2 active torsions:
REMARK  status: ('A' for Active; 'I' for Inactive)
REMARK    1  A    between atoms: C_3  and  C_7 
REMARK    2  A    between atoms: C_5  and  N_11 
ROOT
HETATM    1  N   UNL     1       1.309   0.646   0.183  1.00  0.00    -0.296 N 
ATOM      2  HN  UNL     1       1.934   1.428   0.380  1.00  0.00     0.187 HD
HETATM    3  C   UNL     1       1.631  -0.641  -0.007  1.00  0.00     0.069 A 
HETATM    4  C   UNL     1       0.480  -1.440  -0.206  1.00  0.00     0.081 A 
HETATM    5  C   UNL     1      -0.585  -0.576  -0.129  1.00  0.00     0.117 A 
HETATM    6  N   UNL     1      -0.033   0.668   0.054  1.00  0.00    -0.281 N 
HETATM    7  C   UNL     1      -0.727   1.932   0.068  1.00  0.00     0.179 C 
ENDROOT
BRANCH   3   8
HETATM    8  C   UNL     1       3.055  -1.114  -0.008  1.00  0.00     0.033 A 
HETATM    9  S   UNL     1       3.542  -2.713  -0.364  1.00  0.00    -0.100 SA
HETATM   10  C   UNL     1       5.197  -2.320  -0.180  1.00  0.00     0.050 A 
HETATM   11  C   UNL     1       5.377  -1.001   0.173  1.00  0.00     0.008 A 
HETATM   12  C   UNL     1       4.137  -0.302   0.270  1.00  0.00     0.021 A 
ENDBRANCH   3   8
BRANCH   5  13
HETATM   13  N   UNL     1      -1.911  -0.813  -0.225  1.00  0.00    -0.384 N 
HETATM   14  H   UNL     1      -2.551  -0.069  -0.146  1.00  0.00     0.157 HD
HETATM   15  H   UNL     1      -2.237  -1.730  -0.374  1.00  0.00     0.157 HD
ENDBRANCH   5  13
TORSDOF 2
