REMARK  2 active torsions:
REMARK  status: ('A' for Active; 'I' for Inactive)
REMARK    1  A    between atoms: C_4  and  C_7 
REMARK    2  A    between atoms: C_5  and  N_8 
ROOT
HETATM    1  C   UNL     1      -0.079  -1.087   0.557  1.00  0.00     0.081 A 
HETATM    2  N   UNL     1      -1.350   0.439  -0.558  1.00  0.00    -0.298 N 
ATOM      3  HN  UNL     1      -2.116   0.911  -1.038  1.00  0.00     0.187 HD
HETATM    4  C   UNL     1      -1.361  -0.774   0.022  1.00  0.00     0.062 A 
HETATM    5  C   UNL     1       0.709   0.002   0.294  1.00  0.00     0.115 A 
HETATM    6  N   UNL     1      -0.098   0.888  -0.361  1.00  0.00    -0.285 N 
HETATM    7  H   UNL     1       0.209   1.774  -0.663  1.00  0.00     0.188 HD
ENDROOT
BRANCH   4   8
HETATM    8  C   UNL     1      -2.564  -1.608   0.051  1.00  0.00    -0.008 A 
HETATM    9  C   UNL     1      -3.526  -1.509  -0.966  1.00  0.00     0.015 A 
HETATM   10  C   UNL     1      -4.660  -2.327  -0.955  1.00  0.00     0.024 A 
HETATM   11  C   UNL     1      -4.843  -3.242   0.080  1.00  0.00     0.034 A 
HETATM   12  C   UNL     1      -3.906  -3.342   1.106  1.00  0.00     0.024 A 
HETATM   13 CL   UNL     1      -6.232  -4.257   0.092  1.00  0.00    -0.084 Cl
HETATM   14  C   UNL     1      -2.770  -2.527   1.091  1.00  0.00     0.015 A 
ENDBRANCH   4   8
BRANCH   5  15
HETATM   15  N   UNL     1       1.997   0.258   0.575  1.00  0.00    -0.384 N 
HETATM   16  H   UNL     1       2.539  -0.412   1.050  1.00  0.00     0.157 HD
HETATM   17  H   UNL     1       2.398   1.115   0.305  1.00  0.00     0.157 HD
ENDBRANCH   5  15
TORSDOF 2
