REMARK  3 active torsions:
REMARK  status: ('A' for Active; 'I' for Inactive)
REMARK    1  A    between atoms: S_1  and  C_2 
REMARK    2  A    between atoms: S_1  and  C_3 
REMARK    3  A    between atoms: C_2  and  C_6 
ROOT
HETATM    1  C   UNL     1       0.490  -0.985  -1.484  1.00  0.00     0.059 A 
HETATM    2  C   UNL     1       1.392  -1.097  -2.547  1.00  0.00     0.025 A 
HETATM    3  C   UNL     1      -0.745  -1.641  -1.526  1.00  0.00     0.025 A 
HETATM    4  C   UNL     1      -0.207  -2.469  -3.732  1.00  0.00     0.034 A 
HETATM    5  C   UNL     1      -1.096  -2.377  -2.660  1.00  0.00     0.025 A 
HETATM    6  C   UNL     1       1.037  -1.839  -3.676  1.00  0.00     0.025 A 
HETATM    7 CL   UNL     1      -0.642  -3.378  -5.126  1.00  0.00    -0.084 Cl
ENDROOT
BRANCH   1   8
HETATM    8  S   UNL     1       0.969  -0.097  -0.018  1.00  0.00     0.182 S 
HETATM    9  O   UNL     1       0.190  -0.619   1.087  1.00  0.00    -0.222 OA
HETATM   10  O   UNL     1       2.420  -0.137   0.042  1.00  0.00    -0.222 OA
BRANCH   8  11
HETATM   11  C   UNL     1       0.509   1.581  -0.282  1.00  0.00     0.223 C 
BRANCH  11  12
HETATM   12  C   UNL     1      -0.972   1.718  -0.436  1.00  0.00     0.137 C 
HETATM   13  O   UNL     1      -1.496   1.678  -1.550  1.00  0.00    -0.297 OA
HETATM   14  C   UNL     1      -1.800   1.921   0.806  1.00  0.00     0.091 C 
ENDBRANCH  11  12
ENDBRANCH   8  11
ENDBRANCH   1   8
TORSDOF 3
