REMARK  6 active torsions:
REMARK  status: ('A' for Active; 'I' for Inactive)
REMARK    1  A    between atoms: C_2  and  S_8 
REMARK    2  A    between atoms: C_4  and  C_6 
REMARK    3  A    between atoms: C_6  and  O_12 
REMARK    4  A    between atoms: S_8  and  C_15 
REMARK    5  A    between atoms: O_12  and  C_16 
REMARK    6  A    between atoms: C_15  and  C_17 
ROOT
HETATM    1  C   UNL     1       0.404   0.672  -0.164  1.00  0.00     0.041 C 
HETATM    2  C   UNL     1       1.773   0.847  -0.269  1.00  0.00     0.056 C 
HETATM    3  C   UNL     1       0.051  -0.737  -0.142  1.00  0.00    -0.019 C 
HETATM    4  C   UNL     1       1.168  -1.560  -0.223  1.00  0.00     0.088 C 
HETATM    5  S   UNL     1       2.569  -0.640  -0.567  1.00  0.00    -0.076 SA
HETATM    6  C   UNL     1      -0.621   1.717  -0.032  1.00  0.00     0.162 C 
HETATM    7  O   UNL     1      -0.386   2.920  -0.118  1.00  0.00    -0.292 OA
HETATM    8  C   UNL     1      -1.377  -1.176   0.040  1.00  0.00     0.042 C 
HETATM    9  C   UNL     1      -2.026   1.242   0.309  1.00  0.00     0.084 C 
HETATM   10  C   UNL     1      -2.357  -0.079  -0.375  1.00  0.00     0.012 C 
ENDROOT
BRANCH   4  11
HETATM   11  C   UNL     1       1.314  -2.997  -0.058  1.00  0.00     0.300 C 
HETATM   12  O   UNL     1       2.343  -3.653  -0.212  1.00  0.00    -0.259 OA
BRANCH  11  13
HETATM   13  O   UNL     1       0.131  -3.531   0.365  1.00  0.00    -0.317 OA
BRANCH  13  14
HETATM   14  C   UNL     1       0.122  -4.925   0.680  1.00  0.00     0.174 C 
HETATM   15  C   UNL     1       0.016  -5.759  -0.583  1.00  0.00     0.034 C 
ENDBRANCH  13  14
ENDBRANCH  11  13
ENDBRANCH   4  11
BRANCH   2  16
HETATM   16  S   UNL     1       2.745   2.309  -0.164  1.00  0.00    -0.122 SA
BRANCH  16  17
HETATM   17  C   UNL     1       2.425   2.861   1.546  1.00  0.00     0.080 C 
BRANCH  17  18
HETATM   18  C   UNL     1       2.882   1.927   2.670  1.00  0.00     0.006 C 
HETATM   19  C   UNL     1       4.364   1.585   2.676  1.00  0.00     0.006 C 
ENDBRANCH  17  18
ENDBRANCH  16  17
ENDBRANCH   2  16
TORSDOF 6
