REMARK  2 active torsions:
REMARK  status: ('A' for Active; 'I' for Inactive)
REMARK       I    between atoms: C_1  and  N_2 
REMARK    1  A    between atoms: C_1  and  C_3 
REMARK    2  A    between atoms: N_2  and  C_7 
ROOT
HETATM    1  C   UNL     1       0.845   0.037  -0.038  1.00  0.00     0.229 C 
HETATM    2  N   UNL     1       0.061   1.175  -0.149  1.00  0.00    -0.326 N 
HETATM    3  O   UNL     1       2.070   0.039  -0.140  1.00  0.00    -0.272 OA
HETATM    4  H   UNL     1      -0.902   1.086   0.035  1.00  0.00     0.169 HD
ENDROOT
BRANCH   2   5
HETATM    5  C   UNL     1       0.544   2.460  -0.508  1.00  0.00     0.037 A 
HETATM    6  C   UNL     1       1.778   2.660  -1.129  1.00  0.00     0.046 A 
HETATM    7  C   UNL     1       2.189   3.955  -1.400  1.00  0.00     0.090 A 
HETATM    8  N   UNL     1       1.460   5.048  -1.112  1.00  0.00    -0.375 N 
HETATM    9  C   UNL     1       0.256   4.836  -0.539  1.00  0.00     0.090 A 
ATOM     10  HN  UNL     1       1.799   5.988  -1.316  1.00  0.00     0.164 HD
HETATM   11  C   UNL     1      -0.247   3.574  -0.237  1.00  0.00     0.046 A 
ENDBRANCH   2   5
BRANCH   1  12
HETATM   12  C   UNL     1       0.094  -1.288   0.238  1.00  0.00     0.030 C 
HETATM   13  C   UNL     1      -0.897  -1.579  -0.898  1.00  0.00     0.025 C 
HETATM   14  C   UNL     1       1.138  -2.426   0.285  1.00  0.00     0.025 C 
HETATM   15  C   UNL     1      -0.649  -1.265   1.581  1.00  0.00     0.025 C 
ENDBRANCH   1  12
TORSDOF 2
