REMARK  2 active torsions:
REMARK  status: ('A' for Active; 'I' for Inactive)
REMARK    1  A    between atoms: N_3  and  C_7 
REMARK    2  A    between atoms: C_4  and  C_7 
ROOT
HETATM    1  N   UNL     1      -1.372  -0.046   0.009  1.00  0.00    -0.375 N 
ATOM      2  HN  UNL     1      -2.392  -0.078   0.013  1.00  0.00     0.164 HD
HETATM    3  C   UNL     1       1.442   0.042  -0.001  1.00  0.00    -0.030 A 
HETATM    4  C   UNL     1      -0.698   1.123  -0.001  1.00  0.00     0.088 A 
HETATM    5  C   UNL     1      -0.627  -1.171   0.014  1.00  0.00     0.088 A 
HETATM    6  C   UNL     1       0.686   1.219  -0.006  1.00  0.00     0.026 A 
HETATM    7  C   UNL     1       0.759  -1.179   0.017  1.00  0.00     0.026 A 
ENDROOT
BRANCH   3   8
HETATM    8  C   UNL     1       2.951   0.090  -0.003  1.00  0.00     0.270 C 
BRANCH   8   9
HETATM    9  N   UNL     1       3.502  -0.550  -1.198  1.00  0.00    -0.075 N 
HETATM   10  C   UNL     1       4.956  -0.511  -1.193  1.00  0.00     0.267 C 
HETATM   11  H   UNL     1       3.159  -0.061  -2.025  1.00  0.00     0.277 HD
HETATM   12  H   UNL     1       3.205  -1.526  -1.207  1.00  0.00     0.277 HD
ENDBRANCH   8   9
ENDBRANCH   3   8
TORSDOF 2
