REMARK  1 active torsions:
REMARK  status: ('A' for Active; 'I' for Inactive)
REMARK       I    between atoms: C_1  and  N_2 
REMARK    1  A    between atoms: C_1  and  C_5 
ROOT
HETATM    1  N   UNL     1       3.365   0.156  -2.787  1.00  0.00    -0.075 N 
HETATM    2  C   UNL     1       2.504  -0.016   0.011  1.00  0.00     0.081 C 
HETATM    3  C   UNL     1       2.680   1.293  -2.169  1.00  0.00     0.233 C 
HETATM    4  C   UNL     1       2.833  -1.106  -2.272  1.00  0.00     0.233 C 
HETATM    5  C   UNL     1       2.887   1.311  -0.655  1.00  0.00     0.041 C 
HETATM    6  C   UNL     1       3.049  -1.217  -0.767  1.00  0.00     0.041 C 
HETATM    7  H   UNL     1       3.228   0.191  -3.797  1.00  0.00     0.277 HD
HETATM    8  H   UNL     1       4.359   0.210  -2.564  1.00  0.00     0.277 HD
ENDROOT
BRANCH   2   9
HETATM    9  C   UNL     1       0.986  -0.120   0.218  1.00  0.00     0.224 C 
HETATM   10  N   UNL     1       0.476   0.442   1.371  1.00  0.00    -0.352 N 
HETATM   11  C   UNL     1      -0.936   0.363   1.682  1.00  0.00     0.126 C 
HETATM   12  C   UNL     1       1.231   0.937   2.508  1.00  0.00     0.126 C 
HETATM   13  C   UNL     1      -1.124   1.408   2.768  1.00  0.00     0.021 C 
HETATM   14  C   UNL     1       0.191   1.368   3.538  1.00  0.00     0.021 C 
HETATM   15  O   UNL     1       0.257  -0.645  -0.625  1.00  0.00    -0.273 OA
ENDBRANCH   2   9
TORSDOF 1
