REMARK  1 active torsions:
REMARK  status: ('A' for Active; 'I' for Inactive)
REMARK    1  A    between atoms: C_1  and  C_6 
ROOT
HETATM    1  C   UNL     1       1.258  -1.479   0.001  1.00  0.00     0.055 A 
HETATM    2  C   UNL     1       0.001  -0.813   0.002  1.00  0.00     0.011 A 
HETATM    3  N   UNL     1       1.187   1.301  -0.045  1.00  0.00    -0.359 N 
ATOM      4  HN  UNL     1       1.164   2.321  -0.057  1.00  0.00     0.166 HD
HETATM    5  C   UNL     1       0.045   0.600  -0.026  1.00  0.00     0.043 A 
HETATM    6  C   UNL     1       2.443  -0.731  -0.021  1.00  0.00     0.043 A 
HETATM    7  C   UNL     1       2.367   0.648  -0.048  1.00  0.00     0.006 A 
HETATM    8  C   UNL     1      -1.279  -1.431   0.020  1.00  0.00     0.057 A 
HETATM    9  C   UNL     1      -1.140   1.326  -0.044  1.00  0.00     0.033 A 
HETATM   10  C   UNL     1      -2.445  -0.674  -0.005  1.00  0.00     0.117 A 
HETATM   11  C   UNL     1      -2.387   0.705  -0.040  1.00  0.00     0.044 A 
HETATM   12  F   UNL     1      -3.634  -1.288  -0.000  1.00  0.00    -0.206 F 
HETATM   13  C   UNL     1       3.603   1.494  -0.089  1.00  0.00     0.068 C 
ENDROOT
BRANCH   1  14
HETATM   14  C   UNL     1       1.363  -2.970   0.003  1.00  0.00     0.210 C 
HETATM   15  O   UNL     1       0.461  -3.784   0.023  1.00  0.00    -0.644 OA
HETATM   16  O   UNL     1       2.641  -3.398  -0.034  1.00  0.00    -0.644 OA
ENDBRANCH   1  14
TORSDOF 1
