REMARK  1 active torsions:
REMARK  status: ('A' for Active; 'I' for Inactive)
REMARK    1  A    between atoms: N_1  and  C_4 
ROOT
HETATM    1  N   UNL     1      -6.966   0.459   4.206  1.00  0.00    -0.191 NA
HETATM    2  C   UNL     1      -6.046   0.378   3.498  1.00  0.00     0.099 C 
HETATM    3  C   UNL     1      -2.622   0.121   0.971  1.00  0.00     0.030 A 
HETATM    4  C   UNL     1      -2.877  -0.836   1.965  1.00  0.00     0.031 A 
HETATM    5  C   UNL     1      -3.563   1.150   0.825  1.00  0.00     0.031 A 
HETATM    6  C   UNL     1      -4.909   0.280   2.637  1.00  0.00     0.044 A 
HETATM    7  C   UNL     1      -4.699   1.234   1.639  1.00  0.00     0.025 A 
HETATM    8  C   UNL     1      -3.997  -0.756   2.795  1.00  0.00     0.025 A 
ENDROOT
BRANCH   3   9
HETATM    9  N   UNL     1      -1.498   0.056   0.177  1.00  0.00    -0.378 N 
HETATM   10  C   UNL     1      -0.842  -1.217  -0.151  1.00  0.00     0.150 C 
HETATM   11  C   UNL     1       0.633  -1.219   0.300  1.00  0.00     0.252 C 
HETATM   12  N   UNL     1       1.401  -0.051  -0.182  1.00  0.00    -0.072 N 
HETATM   13  C   UNL     1       0.709   1.183   0.249  1.00  0.00     0.252 C 
HETATM   14  H   UNL     1       1.459  -0.075  -1.200  1.00  0.00     0.277 HD
HETATM   15  H   UNL     1       2.345  -0.073   0.204  1.00  0.00     0.277 HD
HETATM   16  C   UNL     1      -0.766   1.270  -0.212  1.00  0.00     0.150 C 
ENDBRANCH   3   9
TORSDOF 1
