REMARK  2 active torsions:
REMARK  status: ('A' for Active; 'I' for Inactive)
REMARK       I    between atoms: C_1  and  N_2 
REMARK       I    between atoms: C_1  and  N_6 
REMARK    1  A    between atoms: C_7  and  C_10 
REMARK    2  A    between atoms: C_7  and  C_11 
ROOT
HETATM    1  C   UNL     1       1.018   0.477  -0.331  1.00  0.00     0.667 C 
HETATM    2  N   UNL     1       0.353   1.274   0.666  1.00  0.00    -0.219 N 
HETATM    3  N   UNL     1       2.239   0.705  -0.672  1.00  0.00    -0.235 N 
HETATM    4  C   UNL     1       0.675   2.678   0.881  1.00  0.00     0.141 C 
HETATM    5  C   UNL     1      -0.767   0.754   1.439  1.00  0.00     0.141 C 
HETATM    6  N   UNL     1       0.319  -0.565  -1.001  1.00  0.00    -0.235 N 
HETATM    7  C   UNL     1      -2.030   1.531   1.074  1.00  0.00     0.025 C 
HETATM    8  C   UNL     1      -0.553   3.502   0.482  1.00  0.00     0.025 C 
HETATM    9  C   UNL     1      -1.810   3.051   1.260  1.00  0.00    -0.007 C 
HETATM   10  H   UNL     1       2.750   1.419  -0.227  1.00  0.00     0.174 HD
HETATM   11  H   UNL     1       2.662   0.164  -1.377  1.00  0.00     0.174 HD
HETATM   12  H   UNL     1      -0.616  -0.764  -0.763  1.00  0.00     0.174 HD
HETATM   13  H   UNL     1       0.770  -1.088  -1.702  1.00  0.00     0.174 HD
ENDROOT
BRANCH   9  14
HETATM   14  C   UNL     1      -3.031   3.845   0.748  1.00  0.00     0.043 C 
BRANCH  14  15
HETATM   15  C   UNL     1      -4.311   3.512   1.475  1.00  0.00    -0.058 A 
HETATM   16  C   UNL     1      -4.435   3.768   2.850  1.00  0.00     0.007 A 
HETATM   17  C   UNL     1      -5.627   3.471   3.519  1.00  0.00     0.001 A 
HETATM   18  C   UNL     1      -6.703   2.918   2.819  1.00  0.00     0.000 A 
HETATM   19  C   UNL     1      -6.588   2.659   1.451  1.00  0.00     0.001 A 
HETATM   20  C   UNL     1      -5.399   2.955   0.779  1.00  0.00     0.007 A 
ENDBRANCH  14  15
ENDBRANCH   9  14
TORSDOF 2
