REMARK  2 active torsions:
REMARK  status: ('A' for Active; 'I' for Inactive)
REMARK    1  A    between atoms: C_3  and  C_10 
REMARK    2  A    between atoms: C_10  and  O_11 
ROOT
HETATM    1  S   UNL     1       2.163   0.676   0.016  1.00  0.00    -0.092 SA
HETATM    2  C   UNL     1       0.062  -0.822  -0.018  1.00  0.00    -0.018 A 
HETATM    3  C   UNL     1       2.404  -1.014   0.012  1.00  0.00     0.007 A 
HETATM    4  C   UNL     1       1.203  -1.691  -0.021  1.00  0.00     0.029 A 
HETATM    5  C   UNL     1       0.449   0.519  -0.001  1.00  0.00     0.015 A 
HETATM    6  C   UNL     1      -1.323  -1.119  -0.024  1.00  0.00     0.019 A 
HETATM    7  C   UNL     1      -0.500   1.558   0.003  1.00  0.00     0.020 A 
HETATM    8  C   UNL     1      -2.281  -0.094  -0.012  1.00  0.00    -0.061 A 
HETATM    9  C   UNL     1      -1.861   1.234  -0.002  1.00  0.00     0.008 A 
HETATM   10  C   UNL     1      -3.741  -0.444  -0.008  1.00  0.00     0.048 C 
ENDROOT
BRANCH   3  11
HETATM   11  C   UNL     1       3.784  -1.581   0.042  1.00  0.00     0.210 C 
BRANCH  11  12
HETATM   12  O   UNL     1       3.877  -2.412   1.193  1.00  0.00    -0.396 OA
HETATM   13  H   UNL     1       3.697  -1.885   1.988  1.00  0.00     0.209 HD
ENDBRANCH  11  12
ENDBRANCH   3  11
TORSDOF 2
