REMARK  2 active torsions:
REMARK  status: ('A' for Active; 'I' for Inactive)
REMARK    1  A    between atoms: C_4  and  N_15 
REMARK    2  A    between atoms: C_5  and  C_8 
ROOT
HETATM    1  C   UNL     1      -0.067   0.530  -0.009  1.00  0.00     0.046 A 
HETATM    2  N   UNL     1      -1.928  -0.785   0.000  1.00  0.00    -0.244 N 
ATOM      3  HN  UNL     1      -2.900  -1.095   0.002  1.00  0.00     0.196 HD
HETATM    4  C   UNL     1      -1.485   0.474  -0.016  1.00  0.00     0.132 A 
HETATM    5  C   UNL     1       0.932   1.521  -0.016  1.00  0.00     0.034 A 
HETATM    6  O   UNL     1      -0.795  -1.585   0.014  1.00  0.00    -0.235 OA
HETATM    7  C   UNL     1       2.287   1.129  -0.010  1.00  0.00     0.049 A 
HETATM    8  C   UNL     1       0.314  -0.799   0.006  1.00  0.00     0.113 A 
HETATM    9  C   UNL     1       2.619  -0.239   0.003  1.00  0.00     0.019 A 
HETATM   10  C   UNL     1       1.635  -1.237   0.012  1.00  0.00     0.041 A 
ENDROOT
BRANCH   7  11
HETATM   11  C   UNL     1       3.384   2.170  -0.017  1.00  0.00     0.417 C 
HETATM   12  F   UNL     1       2.916   3.449  -0.032  1.00  0.00    -0.166 F 
HETATM   13  F   UNL     1       4.192   2.080   1.075  1.00  0.00    -0.166 F 
HETATM   14  F   UNL     1       4.201   2.058  -1.100  1.00  0.00    -0.166 F 
ENDBRANCH   7  11
BRANCH   4  15
HETATM   15  N   UNL     1      -2.277   1.559  -0.041  1.00  0.00    -0.383 N 
HETATM   16  H   UNL     1      -3.256   1.454  -0.044  1.00  0.00     0.157 HD
HETATM   17  H   UNL     1      -1.878   2.459  -0.056  1.00  0.00     0.157 HD
ENDBRANCH   4  15
TORSDOF 2
