REMARK  2 active torsions:
REMARK  status: ('A' for Active; 'I' for Inactive)
REMARK    1  A    between atoms: C_1  and  S_2 
REMARK    2  A    between atoms: S_2  and  N_8 
ROOT
HETATM    1  C   UNL     1       1.766   0.095   0.001  1.00  0.00     0.161 A 
HETATM    2  N   UNL     1       1.005  -1.064   0.040  1.00  0.00    -0.335 N 
ATOM      3  HN  UNL     1       1.349  -2.023   0.081  1.00  0.00     0.168 HD
HETATM    4  C   UNL     1       0.944   1.201  -0.031  1.00  0.00     0.135 A 
HETATM    5  C   UNL     1      -0.254  -0.672   0.013  1.00  0.00     0.079 A 
HETATM    6  N   UNL     1      -0.326   0.703  -0.005  1.00  0.00    -0.348 N 
HETATM    7  C   UNL     1      -1.531   1.497   0.003  1.00  0.00     0.156 C 
HETATM    8  C   UNL     1      -1.428  -1.581  -0.000  1.00  0.00     0.089 C 
ENDROOT
BRANCH   1   9
HETATM    9  S   UNL     1       3.514   0.110  -0.019  1.00  0.00     0.260 S 
HETATM   10  O   UNL     1       3.843   0.644  -1.325  1.00  0.00    -0.204 OA
HETATM   11  O   UNL     1       3.871   0.819   1.198  1.00  0.00    -0.204 OA
BRANCH   9  12
HETATM   12  N   UNL     1       4.099  -1.493   0.085  1.00  0.00    -0.213 NA
HETATM   13  C   UNL     1       3.890  -2.131   1.398  1.00  0.00     0.129 C 
HETATM   14  C   UNL     1       3.710  -2.366  -1.041  1.00  0.00     0.129 C 
ENDBRANCH   9  12
ENDBRANCH   1   9
TORSDOF 2
