REMARK  1 active torsions:
REMARK  status: ('A' for Active; 'I' for Inactive)
REMARK    1  A    between atoms: C_7  and  N_9 
ROOT
HETATM    1  C   UNL     1       0.057   0.701   0.059  1.00  0.00     0.016 A 
HETATM    2  C   UNL     1       0.042  -0.700   0.001  1.00  0.00    -0.042 A 
HETATM    3  C   UNL     1      -1.217   1.467   0.013  1.00  0.00     0.160 C 
HETATM    4  C   UNL     1       1.270   1.395   0.097  1.00  0.00     0.018 A 
HETATM    5  C   UNL     1       1.267  -1.386  -0.062  1.00  0.00     0.037 A 
HETATM    6  O   UNL     1      -1.228   2.682   0.176  1.00  0.00    -0.292 OA
HETATM    7  C   UNL     1       2.487  -0.704  -0.005  1.00  0.00     0.026 A 
HETATM    8  C   UNL     1       2.475   0.692   0.041  1.00  0.00     0.030 A 
HETATM    9  C   UNL     1      -1.245  -1.480  -0.074  1.00  0.00     0.040 C 
HETATM   10  C   UNL     1      -2.466   0.690  -0.330  1.00  0.00     0.084 C 
HETATM   11  C   UNL     1      -2.450  -0.657   0.372  1.00  0.00     0.012 C 
ENDROOT
BRANCH   7  12
HETATM   12  N   UNL     1       3.684  -1.389  -0.240  1.00  0.00    -0.399 N 
HETATM   13  H   UNL     1       3.690  -2.373  -0.273  1.00  0.00     0.156 HD
HETATM   14  H   UNL     1       4.520  -0.887  -0.374  1.00  0.00     0.156 HD
ENDBRANCH   7  12
TORSDOF 1
