REMARK  1 active torsions:
REMARK  status: ('A' for Active; 'I' for Inactive)
REMARK    1  A    between atoms: C_8  and  O_9 
ROOT
HETATM    1  C   UNL     1      -0.712   1.250   0.000  1.00  0.00     0.056 A 
HETATM    2  C   UNL     1      -1.423   0.026  -0.002  1.00  0.00    -0.038 A 
HETATM    3  C   UNL     1       0.700   1.245   0.001  1.00  0.00    -0.038 A 
HETATM    4  N   UNL     1      -2.000   3.508   0.004  1.00  0.00    -0.191 NA
HETATM    5  C   UNL     1      -1.426   2.501   0.002  1.00  0.00     0.100 C 
HETATM    6  C   UNL     1       1.382   0.017   0.000  1.00  0.00     0.044 A 
HETATM    7  C   UNL     1      -0.709  -1.188  -0.000  1.00  0.00     0.044 A 
HETATM    8  C   UNL     1       0.680  -1.180   0.001  1.00  0.00     0.066 A 
HETATM    9  C   UNL     1       1.531   2.501   0.004  1.00  0.00     0.050 C 
HETATM   10  C   UNL     1      -2.929  -0.043  -0.007  1.00  0.00     0.050 C 
ENDROOT
BRANCH   8  11
HETATM   11  O   UNL     1       1.407  -2.333   0.002  1.00  0.00    -0.361 OA
HETATM   12  H   UNL     1       0.970  -3.162   0.002  1.00  0.00     0.217 HD
ENDBRANCH   8  11
TORSDOF 1
