REMARK  2 active torsions:
REMARK  status: ('A' for Active; 'I' for Inactive)
REMARK    1  A    between atoms: C_1  and  C_2 
REMARK    2  A    between atoms: C_4  and  N_5 
ROOT
HETATM    1  C   UNL     1      -1.132   1.191  -0.005  1.00  0.00    -0.048 A 
HETATM    2  C   UNL     1      -1.302   0.232  -1.023  1.00  0.00     0.037 A 
HETATM    3  C   UNL     1      -0.578  -0.968  -1.046  1.00  0.00     0.026 A 
HETATM    4  C   UNL     1      -0.229   0.878   1.027  1.00  0.00     0.008 A 
HETATM    5  C   UNL     1       0.452  -0.342   1.049  1.00  0.00     0.003 A 
HETATM    6  C   UNL     1       0.259  -1.268   0.026  1.00  0.00     0.029 A 
ENDROOT
BRANCH   1   7
HETATM    7  C   UNL     1      -1.907   2.519   0.018  1.00  0.00    -0.024 C 
HETATM    8  C   UNL     1      -2.845   2.712  -1.195  1.00  0.00     0.019 C 
HETATM    9  C   UNL     1      -2.782   2.588   1.288  1.00  0.00     0.019 C 
HETATM   10  C   UNL     1      -0.921   3.707   0.022  1.00  0.00     0.019 C 
ENDBRANCH   1   7
BRANCH   3  11
HETATM   11  N   UNL     1      -0.872  -1.945  -2.008  1.00  0.00    -0.399 N 
HETATM   12  H   UNL     1      -1.464  -1.729  -2.764  1.00  0.00     0.156 HD
HETATM   13  H   UNL     1      -0.485  -2.847  -1.928  1.00  0.00     0.156 HD
ENDBRANCH   3  11
TORSDOF 2
