REMARK  2 active torsions:
REMARK  status: ('A' for Active; 'I' for Inactive)
REMARK    1  A    between atoms: C_1  and  C_2 
REMARK    2  A    between atoms: C_3  and  N_9 
ROOT
HETATM    1  C   UNL     1       0.537   1.148   0.783  1.00  0.00     0.076 A 
HETATM    2  C   UNL     1      -0.248   1.127   1.943  1.00  0.00     0.056 A 
HETATM    3  N   UNL     1      -0.146   3.570   2.039  1.00  0.00    -0.373 N 
ATOM      4  HN  UNL     1      -0.399   4.442   2.503  1.00  0.00     0.164 HD
HETATM    5  C   UNL     1       0.931   2.391   0.248  1.00  0.00     0.035 A 
HETATM    6  C   UNL     1      -0.510   2.366   2.538  1.00  0.00     0.117 A 
HETATM    7  C   UNL     1       0.566   3.556   0.899  1.00  0.00     0.088 A 
ENDROOT
BRANCH   1   8
HETATM    8  C   UNL     1       0.968  -0.095   0.054  1.00  0.00     0.419 C 
HETATM    9  F   UNL     1       0.527  -1.264   0.602  1.00  0.00    -0.166 F 
HETATM   10  F   UNL     1       2.324  -0.210  -0.031  1.00  0.00    -0.166 F 
HETATM   11  F   UNL     1       0.519  -0.113  -1.235  1.00  0.00    -0.166 F 
ENDBRANCH   1   8
BRANCH   2  12
HETATM   12  N   UNL     1      -0.560  -0.053   2.628  1.00  0.00    -0.397 N 
HETATM   13  H   UNL     1      -0.377  -0.927   2.212  1.00  0.00     0.156 HD
HETATM   14  H   UNL     1      -0.963  -0.010   3.525  1.00  0.00     0.156 HD
ENDBRANCH   2  12
TORSDOF 2
