REMARK  3 active torsions:
REMARK  status: ('A' for Active; 'I' for Inactive)
REMARK    1  A    between atoms: C_1  and  O_2 
REMARK    2  A    between atoms: O_2  and  C_6 
REMARK    3  A    between atoms: C_7  and  N_8 
ROOT
HETATM    1  C   UNL     1       0.975  -1.296  -1.848  1.00  0.00     0.078 A 
HETATM    2  C   UNL     1       1.608  -1.452  -4.592  1.00  0.00     0.025 A 
HETATM    3  C   UNL     1       2.299  -1.086  -2.291  1.00  0.00     0.039 A 
HETATM    4  C   UNL     1      -0.011  -1.609  -2.794  1.00  0.00     0.039 A 
HETATM    5  C   UNL     1       2.607  -1.161  -3.654  1.00  0.00     0.031 A 
HETATM    6  C   UNL     1       0.299  -1.683  -4.154  1.00  0.00     0.031 A 
ENDROOT
BRANCH   1   7
HETATM    7  O   UNL     1       0.588  -1.222  -0.544  1.00  0.00    -0.255 OA
BRANCH   7   8
HETATM    8  C   UNL     1       1.180  -0.583   0.535  1.00  0.00     0.530 C 
HETATM    9  F   UNL     1       2.250   0.214   0.179  1.00  0.00    -0.144 F 
HETATM   10  F   UNL     1       1.599  -1.527   1.452  1.00  0.00    -0.144 F 
HETATM   11  F   UNL     1       0.234   0.227   1.133  1.00  0.00    -0.144 F 
ENDBRANCH   7   8
ENDBRANCH   1   7
BRANCH   2  12
HETATM   12  N   UNL     1       1.918  -1.513  -5.973  1.00  0.00    -0.399 N 
HETATM   13  H   UNL     1       2.840  -1.350  -6.278  1.00  0.00     0.156 HD
HETATM   14  H   UNL     1       1.212  -1.718  -6.627  1.00  0.00     0.156 HD
ENDBRANCH   2  12
TORSDOF 3
