REMARK  1 active torsions:
REMARK  status: ('A' for Active; 'I' for Inactive)
REMARK    1  A    between atoms: C_9  and  O_12 
ROOT
HETATM    1  C   UNL     1      -0.009   0.642   0.022  1.00  0.00     0.092 A 
HETATM    2  C   UNL     1       0.051  -0.756   0.010  1.00  0.00     0.044 A 
HETATM    3  C   UNL     1      -1.202  -1.529   0.068  1.00  0.00     0.165 C 
HETATM    4  C   UNL     1       1.180   1.393   0.062  1.00  0.00     0.005 A 
HETATM    5  O   UNL     1      -1.195   1.337  -0.003  1.00  0.00    -0.339 OA
HETATM    6  C   UNL     1      -2.354   0.593  -0.426  1.00  0.00     0.067 C 
HETATM    7  C   UNL     1      -2.447  -0.734   0.324  1.00  0.00     0.121 C 
HETATM    8  C   UNL     1       1.278  -1.422  -0.027  1.00  0.00     0.021 A 
HETATM    9  C   UNL     1       2.404   0.709   0.035  1.00  0.00     0.074 A 
HETATM   10  O   UNL     1      -1.204  -2.752  -0.027  1.00  0.00    -0.292 OA
HETATM   11  C   UNL     1       2.459  -0.685  -0.020  1.00  0.00     0.038 A 
HETATM   12  C   UNL     1       1.121   2.896   0.132  1.00  0.00     0.054 C 
HETATM   13  C   UNL     1      -2.343   0.414  -1.956  1.00  0.00     0.046 C 
HETATM   14  C   UNL     1      -3.576   1.448  -0.059  1.00  0.00     0.046 C 
ENDROOT
BRANCH   9  15
HETATM   15  O   UNL     1       3.567   1.426   0.061  1.00  0.00    -0.360 OA
HETATM   16  H   UNL     1       3.540   2.362   0.098  1.00  0.00     0.217 HD
ENDBRANCH   9  15
TORSDOF 1
