REMARK  2 active torsions:
REMARK  status: ('A' for Active; 'I' for Inactive)
REMARK    1  A    between atoms: C_1  and  C_3 
REMARK    2  A    between atoms: C_3  and  C_4 
ROOT
HETATM    1  C   UNL     1       0.611   2.363   0.165  1.00  0.00    -0.048 A 
HETATM    2  C   UNL     1       1.027   4.790   1.482  1.00  0.00     0.116 A 
HETATM    3  F   UNL     1       1.216   5.953   2.119  1.00  0.00    -0.206 F 
HETATM    4  C   UNL     1       1.440   3.606   2.080  1.00  0.00     0.043 A 
HETATM    5  C   UNL     1       0.420   4.784   0.232  1.00  0.00     0.043 A 
HETATM    6  C   UNL     1       0.215   3.573  -0.429  1.00  0.00     0.011 A 
HETATM    7  C   UNL     1       1.237   2.392   1.422  1.00  0.00     0.011 A 
ENDROOT
BRANCH   1   8
HETATM    8  C   UNL     1       0.367   1.051  -0.544  1.00  0.00     0.151 C 
BRANCH   8   9
HETATM    9  C   UNL     1       1.464   0.640  -1.494  1.00  0.00     0.176 C 
HETATM   10  O   UNL     1       2.522   1.203  -1.722  1.00  0.00    -0.648 OA
HETATM   11  O   UNL     1       1.160  -0.510  -2.136  1.00  0.00    -0.648 OA
ENDBRANCH   8   9
ENDBRANCH   1   8
TORSDOF 2
