REMARK  1 active torsions:
REMARK  status: ('A' for Active; 'I' for Inactive)
REMARK    1  A    between atoms: C_1  and  N_5 
ROOT
HETATM    1  C   UNL     1      -0.572   1.757   0.024  1.00  0.00     0.044 A 
HETATM    2  C   UNL     1       0.522   0.839   0.048  1.00  0.00     0.017 A 
HETATM    3  N   UNL     1      -1.030  -1.027   0.090  1.00  0.00    -0.359 N 
ATOM      4  HN  UNL     1      -1.201  -2.032   0.113  1.00  0.00     0.166 HD
HETATM    5  C   UNL     1       0.219  -0.547   0.072  1.00  0.00     0.044 A 
HETATM    6  C   UNL     1      -1.869   1.217   0.057  1.00  0.00     0.054 A 
HETATM    7  C   UNL     1      -2.055  -0.157   0.077  1.00  0.00     0.007 A 
HETATM    8  C   UNL     1       1.893   1.205  -0.004  1.00  0.00     0.016 A 
HETATM    9  C   UNL     1       1.247  -1.477   0.053  1.00  0.00     0.030 A 
HETATM   10  C   UNL     1      -3.433  -0.746   0.047  1.00  0.00     0.068 C 
HETATM   11  C   UNL     1       2.913   0.250   0.008  1.00  0.00     0.001 A 
HETATM   12  C   UNL     1       2.588  -1.097   0.030  1.00  0.00     0.002 A 
ENDROOT
BRANCH   1  13
HETATM   13  N   UNL     1      -0.379   3.150  -0.118  1.00  0.00    -0.377 N 
HETATM   14  C   UNL     1      -1.475   3.922  -0.750  1.00  0.00     0.150 C 
HETATM   15  C   UNL     1      -0.985   5.328  -1.152  1.00  0.00     0.252 C 
HETATM   16  N   UNL     1      -0.411   6.092  -0.024  1.00  0.00    -0.072 N 
HETATM   17  C   UNL     1       0.654   5.278   0.606  1.00  0.00     0.252 C 
HETATM   18  H   UNL     1      -0.017   6.967  -0.367  1.00  0.00     0.277 HD
HETATM   19  H   UNL     1      -1.139   6.302   0.660  1.00  0.00     0.277 HD
HETATM   20  C   UNL     1       0.191   3.862   1.047  1.00  0.00     0.150 C 
ENDBRANCH   1  13
TORSDOF 1
