REMARK  0 active torsions:
REMARK  status: ('A' for Active; 'I' for Inactive)
ROOT
HETATM    1  C   UNL     1      -0.170  -0.780  -0.001  1.00  0.00     0.105 A 
HETATM    2  C   UNL     1      -0.422   0.571   0.002  1.00  0.00     0.105 A 
HETATM    3  O   UNL     1      -1.310  -1.522   0.002  1.00  0.00    -0.323 OA
HETATM    4  O   UNL     1      -1.752   0.850   0.008  1.00  0.00    -0.323 OA
HETATM    5  C   UNL     1      -2.308  -0.481   0.018  1.00  0.00     0.352 A 
HETATM    6  C   UNL     1       1.114  -1.280  -0.006  1.00  0.00     0.046 A 
HETATM    7  C   UNL     1       0.598   1.497  -0.000  1.00  0.00     0.040 A 
HETATM    8  C   UNL     1       2.180  -0.368  -0.007  1.00  0.00    -0.059 A 
HETATM    9  C   UNL     1       1.913   1.019  -0.004  1.00  0.00     0.010 A 
HETATM   10  C   UNL     1       3.590  -0.882  -0.009  1.00  0.00     0.048 C 
ENDROOT
TORSDOF 0
