REMARK  1 active torsions:
REMARK  status: ('A' for Active; 'I' for Inactive)
REMARK    1  A    between atoms: C_1  and  C_4 
ROOT
HETATM    1  N   UNL     1       1.419   3.616  -1.124  1.00  0.00    -0.075 N 
HETATM    2  C   UNL     1       0.283   0.918  -1.020  1.00  0.00     0.090 C 
HETATM    3  C   UNL     1       2.099   2.524  -1.819  1.00  0.00     0.233 C 
HETATM    4  C   UNL     1       0.751   3.146   0.087  1.00  0.00     0.233 C 
HETATM    5  C   UNL     1       1.119   1.416  -2.207  1.00  0.00     0.043 C 
HETATM    6  C   UNL     1      -0.310   2.100  -0.249  1.00  0.00     0.043 C 
HETATM    7  H   UNL     1       2.106   4.326  -0.869  1.00  0.00     0.277 HD
HETATM    8  H   UNL     1       0.713   4.004  -1.750  1.00  0.00     0.277 HD
ENDROOT
BRANCH   2   9
HETATM    9  C   UNL     1       1.078   0.017  -0.099  1.00  0.00     0.177 C 
HETATM   10  O   UNL     1       2.251  -0.303  -0.210  1.00  0.00    -0.648 OA
HETATM   11  O   UNL     1       0.333  -0.481   0.909  1.00  0.00    -0.648 OA
ENDBRANCH   2   9
TORSDOF 1
