REMARK  2 active torsions:
REMARK  status: ('A' for Active; 'I' for Inactive)
REMARK       I    between atoms: C_1  and  N_4 
REMARK    1  A    between atoms: C_1  and  C_3 
REMARK    2  A    between atoms: N_4  and  C_10 
ROOT
HETATM    1  N   UNL     1       0.529  -1.464   2.176  1.00  0.00    -0.058 N 
HETATM    2  C   UNL     1       0.229  -0.168   1.495  1.00  0.00     0.281 C 
HETATM    3  C   UNL     1      -1.239   0.044   1.091  1.00  0.00     0.082 C 
HETATM    4  C   UNL     1      -1.701  -1.118   0.262  1.00  0.00    -0.048 A 
HETATM    5  C   UNL     1      -0.463  -2.527   1.915  1.00  0.00     0.272 C 
HETATM    6  C   UNL     1      -1.260  -2.393   0.640  1.00  0.00    -0.026 A 
HETATM    7  C   UNL     1      -2.553  -0.955  -0.836  1.00  0.00     0.008 A 
HETATM    8  C   UNL     1      -1.671  -3.504  -0.103  1.00  0.00     0.009 A 
HETATM    9  C   UNL     1      -2.944  -2.066  -1.575  1.00  0.00     0.001 A 
HETATM   10  C   UNL     1      -2.502  -3.339  -1.215  1.00  0.00     0.001 A 
HETATM   11  H   UNL     1       0.562  -1.297   3.182  1.00  0.00     0.278 HD
HETATM   12  H   UNL     1       1.418  -1.794   1.801  1.00  0.00     0.278 HD
ENDROOT
BRANCH   2  13
HETATM   13  C   UNL     1       0.681   1.033   2.360  1.00  0.00     0.249 C 
HETATM   14  N   UNL     1       1.781   0.786   3.156  1.00  0.00    -0.351 N 
HETATM   15  H   UNL     1       2.197  -0.104   3.093  1.00  0.00     0.163 HD
HETATM   16  O   UNL     1       0.118   2.126   2.313  1.00  0.00    -0.271 OA
BRANCH  14  17
HETATM   17  C   UNL     1       2.380   1.751   4.094  1.00  0.00     0.022 C 
HETATM   18  C   UNL     1       1.344   2.221   5.131  1.00  0.00     0.037 C 
HETATM   19  C   UNL     1       3.529   1.043   4.833  1.00  0.00     0.037 C 
HETATM   20  C   UNL     1       2.957   2.979   3.369  1.00  0.00     0.037 C 
ENDBRANCH  14  17
ENDBRANCH   2  13
TORSDOF 2
