REMARK  2 active torsions:
REMARK  status: ('A' for Active; 'I' for Inactive)
REMARK    1  A    between atoms: C_2  and  N_4 
REMARK    2  A    between atoms: C_3  and  N_5 
ROOT
HETATM    1  C   UNL     1      -0.182  -1.179   0.158  1.00  0.00     0.057 A 
HETATM    2  C   UNL     1      -1.391  -0.468   0.157  1.00  0.00     0.027 A 
HETATM    3  C   UNL     1       1.041  -0.498   0.062  1.00  0.00     0.027 A 
HETATM    4  C   UNL     1      -0.156   1.612  -0.035  1.00  0.00     0.004 A 
HETATM    5  C   UNL     1      -1.372   0.931   0.062  1.00  0.00     0.029 A 
HETATM    6  C   UNL     1       1.047   0.902  -0.037  1.00  0.00     0.029 A 
ENDROOT
BRANCH   2   7
HETATM    7  N   UNL     1      -2.625  -1.159   0.249  1.00  0.00    -0.399 N 
HETATM    8  H   UNL     1      -2.635  -2.141   0.316  1.00  0.00     0.156 HD
HETATM    9  H   UNL     1      -3.472  -0.658   0.247  1.00  0.00     0.156 HD
ENDBRANCH   2   7
BRANCH   3  10
HETATM   10  N   UNL     1       2.261  -1.218   0.059  1.00  0.00    -0.399 N 
HETATM   11  H   UNL     1       2.252  -2.200   0.129  1.00  0.00     0.156 HD
HETATM   12  H   UNL     1       3.116  -0.737  -0.012  1.00  0.00     0.156 HD
ENDBRANCH   3  10
TORSDOF 2
