REMARK  1 active torsions:
REMARK  status: ('A' for Active; 'I' for Inactive)
REMARK    1  A    between atoms: C_3  and  O_5 
ROOT
HETATM    1  N   UNL     1       1.189  -0.745  -0.075  1.00  0.00    -0.341 N 
ATOM      2  HN  UNL     1       2.061  -1.274  -0.098  1.00  0.00     0.167 HD
HETATM    3  C   UNL     1      -0.007  -1.351   0.007  1.00  0.00     0.140 A 
HETATM    4  C   UNL     1       1.170   0.609  -0.125  1.00  0.00     0.007 A 
HETATM    5  C   UNL     1      -1.228   0.671  -0.001  1.00  0.00     0.006 A 
HETATM    6  C   UNL     1      -1.230  -0.716   0.040  1.00  0.00     0.056 A 
HETATM    7  C   UNL     1      -0.012   1.348  -0.083  1.00  0.00     0.025 A 
HETATM    8  C   UNL     1       2.488   1.312  -0.258  1.00  0.00     0.068 C 
ENDROOT
BRANCH   3   9
HETATM    9  O   UNL     1       0.068  -2.703   0.065  1.00  0.00    -0.346 OA
HETATM   10  H   UNL     1       0.902  -3.128   0.043  1.00  0.00     0.219 HD
ENDBRANCH   3   9
TORSDOF 1
