REMARK  1 active torsions:
REMARK  status: ('A' for Active; 'I' for Inactive)
REMARK    1  A    between atoms: C_5  and  O_9 
ROOT
HETATM    1  C   UNL     1      -1.389  -0.044  -0.028  1.00  0.00     0.075 A 
HETATM    2  C   UNL     1      -0.759   1.201  -0.033  1.00  0.00     0.063 A 
HETATM    3  C   UNL     1      -0.628  -1.213  -0.006  1.00  0.00     0.138 A 
HETATM    4  C   UNL     1       0.764  -1.152   0.018  1.00  0.00     0.047 A 
HETATM    5  C   UNL     1       0.632   1.255  -0.017  1.00  0.00     0.067 A 
HETATM    6 CL   UNL     1      -3.110  -0.120  -0.058  1.00  0.00    -0.081 Cl
HETATM    7  F   UNL     1      -1.218  -2.417  -0.006  1.00  0.00    -0.204 F 
HETATM    8  C   UNL     1       1.397   0.091   0.011  1.00  0.00     0.039 A 
ENDROOT
BRANCH   5   9
HETATM    9  O   UNL     1       1.297   2.445  -0.036  1.00  0.00    -0.361 OA
HETATM   10  H   UNL     1       0.817   3.250  -0.055  1.00  0.00     0.217 HD
ENDBRANCH   5   9
TORSDOF 1
