REMARK  3 active torsions:
REMARK  status: ('A' for Active; 'I' for Inactive)
REMARK    1  A    between atoms: C_1  and  O_2 
REMARK    2  A    between atoms: O_2  and  C_3 
REMARK    3  A    between atoms: C_4  and  N_8 
ROOT
HETATM    1  C   UNL     1       0.785  -2.390  -0.453  1.00  0.00     0.104 A 
HETATM    2  C   UNL     1       2.106  -2.645  -0.872  1.00  0.00     0.059 A 
HETATM    3  C   UNL     1      -0.245  -3.254  -0.830  1.00  0.00     0.039 A 
HETATM    4  C   UNL     1       2.361  -3.756  -1.683  1.00  0.00     0.032 A 
HETATM    5  C   UNL     1       0.018  -4.327  -1.678  1.00  0.00     0.003 A 
HETATM    6  C   UNL     1       1.318  -4.571  -2.119  1.00  0.00     0.002 A 
ENDROOT
BRANCH   1   7
HETATM    7  O   UNL     1       0.627  -1.264   0.316  1.00  0.00    -0.253 OA
BRANCH   7   8
HETATM    8  C   UNL     1      -0.642  -0.630   0.285  1.00  0.00     0.530 C 
HETATM    9  F   UNL     1      -1.290  -0.788  -0.887  1.00  0.00    -0.144 F 
HETATM   10  F   UNL     1      -0.457   0.697   0.470  1.00  0.00    -0.144 F 
HETATM   11  F   UNL     1      -1.415  -1.092   1.289  1.00  0.00    -0.144 F 
ENDBRANCH   7   8
ENDBRANCH   1   7
BRANCH   2  12
HETATM   12  N   UNL     1       3.188  -1.934  -0.322  1.00  0.00    -0.397 N 
HETATM   13  H   UNL     1       3.022  -1.151   0.250  1.00  0.00     0.156 HD
HETATM   14  H   UNL     1       4.111  -2.221  -0.510  1.00  0.00     0.156 HD
ENDBRANCH   2  12
TORSDOF 3
