REMARK  1 active torsions:
REMARK  status: ('A' for Active; 'I' for Inactive)
REMARK    1  A    between atoms: C_3  and  N_4 
ROOT
HETATM    1  N   UNL     1      -1.806  -0.005   0.066  1.00  0.00    -0.375 N 
ATOM      2  HN  UNL     1      -2.824  -0.008   0.123  1.00  0.00     0.164 HD
HETATM    3  C   UNL     1       1.004   0.002  -0.000  1.00  0.00     0.028 A 
HETATM    4  C   UNL     1       0.287   1.195  -0.024  1.00  0.00     0.046 A 
HETATM    5  C   UNL     1       0.293  -1.195  -0.025  1.00  0.00     0.046 A 
HETATM    6  C   UNL     1      -1.092  -1.149   0.026  1.00  0.00     0.089 A 
HETATM    7  C   UNL     1      -1.098   1.142   0.027  1.00  0.00     0.089 A 
ENDROOT
BRANCH   3   8
HETATM    8  N   UNL     1       2.392   0.006  -0.187  1.00  0.00    -0.399 N 
HETATM    9  H   UNL     1       2.889   0.855  -0.169  1.00  0.00     0.156 HD
HETATM   10  H   UNL     1       2.870  -0.842  -0.337  1.00  0.00     0.156 HD
ENDBRANCH   3   8
TORSDOF 1
