REMARK  3 active torsions:
REMARK  status: ('A' for Active; 'I' for Inactive)
REMARK    1  A    between atoms: C_1  and  O_2 
REMARK    2  A    between atoms: O_2  and  C_3 
REMARK    3  A    between atoms: C_8  and  N_9 
ROOT
HETATM    1  C   UNL     1       1.021   1.399   1.949  1.00  0.00     0.080 C 
HETATM    2  C   UNL     1       2.291   1.104   2.453  1.00  0.00     0.066 C 
HETATM    3  C   UNL     1       2.625   1.419   3.776  1.00  0.00     0.028 C 
HETATM    4  C   UNL     1       0.338   2.128   4.153  1.00  0.00     0.005 C 
HETATM    5  C   UNL     1       0.040   1.891   2.815  1.00  0.00     0.037 C 
HETATM    6  C   UNL     1       1.623   1.887   4.632  1.00  0.00     0.029 C 
ENDROOT
BRANCH   1   7
HETATM    7  O   UNL     1       0.607   1.192   0.670  1.00  0.00    -0.255 OA
BRANCH   7   8
HETATM    8  C   UNL     1       1.542   1.377  -0.385  1.00  0.00     0.530 C 
HETATM    9  F   UNL     1       2.696   1.969  -0.006  1.00  0.00    -0.144 F 
HETATM   10  F   UNL     1       0.971   2.161  -1.329  1.00  0.00    -0.144 F 
HETATM   11  F   UNL     1       1.828   0.183  -0.947  1.00  0.00    -0.144 F 
ENDBRANCH   7   8
ENDBRANCH   1   7
BRANCH   3  12
HETATM   12  N   UNL     1       3.877   1.060   4.291  1.00  0.00    -0.399 N 
HETATM   13  H   UNL     1       4.582   0.731   3.688  1.00  0.00     0.156 HD
HETATM   14  H   UNL     1       4.052   1.137   5.257  1.00  0.00     0.156 HD
ENDBRANCH   3  12
TORSDOF 3
