REMARK  2 active torsions:
REMARK  status: ('A' for Active; 'I' for Inactive)
REMARK    1  A    between atoms: C_2  and  N_4 
REMARK    2  A    between atoms: C_3  and  O_5 
ROOT
HETATM    1  C   UNL     1       0.292   1.209  -0.039  1.00  0.00     0.065 A 
HETATM    2  C   UNL     1       0.977  -0.012  -0.010  1.00  0.00     0.028 A 
HETATM    3  C   UNL     1      -1.104   1.248   0.008  1.00  0.00     0.070 A 
HETATM    4  C   UNL     1      -1.152  -1.172   0.012  1.00  0.00     0.005 A 
HETATM    5  C   UNL     1       0.242  -1.200  -0.033  1.00  0.00     0.029 A 
HETATM    6  C   UNL     1      -1.820   0.050   0.039  1.00  0.00     0.037 A 
ENDROOT
BRANCH   2   7
HETATM    7  N   UNL     1       2.367  -0.042  -0.194  1.00  0.00    -0.399 N 
HETATM    8  H   UNL     1       2.884   0.795  -0.178  1.00  0.00     0.156 HD
HETATM    9  H   UNL     1       2.825  -0.901  -0.340  1.00  0.00     0.156 HD
ENDBRANCH   2   7
BRANCH   3  10
HETATM   10  O   UNL     1      -1.877   2.378   0.012  1.00  0.00    -0.356 OA
HETATM   11  C   UNL     1      -1.191   3.622  -0.032  1.00  0.00     0.210 C 
ENDBRANCH   3  10
TORSDOF 2
