REMARK  3 active torsions:
REMARK  status: ('A' for Active; 'I' for Inactive)
REMARK    1  A    between atoms: C_3  and  C_7 
REMARK    2  A    between atoms: C_4  and  C_9 
REMARK    3  A    between atoms: C_7  and  C_8 
REMARK       I    between atoms: C_8  and  N_13 
ROOT
HETATM    1  N   UNL     1       1.417  -0.603   0.077  1.00  0.00    -0.352 N 
ATOM      2  HN  UNL     1       2.302  -1.107   0.132  1.00  0.00     0.166 HD
HETATM    3  C   UNL     1       0.225  -1.169   0.045  1.00  0.00     0.060 A 
HETATM    4  C   UNL     1       1.290   0.780   0.025  1.00  0.00     0.049 A 
HETATM    5  S   UNL     1      -1.106  -0.082   0.023  1.00  0.00    -0.086 SA
HETATM    6  C   UNL     1      -0.013   1.238   0.019  1.00  0.00     0.081 A 
ENDROOT
BRANCH   4   7
HETATM    7  C   UNL     1       2.463   1.650  -0.001  1.00  0.00    -0.009 A 
HETATM    8  C   UNL     1       2.426   2.919  -0.604  1.00  0.00     0.017 A 
HETATM    9  C   UNL     1       3.563   3.733  -0.618  1.00  0.00     0.043 A 
HETATM   10  C   UNL     1       4.738   3.281  -0.033  1.00  0.00     0.116 A 
HETATM   11  C   UNL     1       4.801   2.027   0.561  1.00  0.00     0.043 A 
HETATM   12  F   UNL     1       5.825   4.063  -0.045  1.00  0.00    -0.206 F 
HETATM   13  C   UNL     1       3.666   1.211   0.573  1.00  0.00     0.017 A 
ENDBRANCH   4   7
BRANCH   3  14
HETATM   14  C   UNL     1      -0.002  -2.643   0.014  1.00  0.00     0.167 C 
BRANCH  14  15
HETATM   15  C   UNL     1      -0.083  -3.173   1.426  1.00  0.00     0.221 C 
HETATM   16  O   UNL     1      -1.098  -3.674   1.900  1.00  0.00    -0.273 OA
HETATM   17  N   UNL     1       1.074  -3.125   2.152  1.00  0.00    -0.370 N 
HETATM   18  H   UNL     1       1.883  -2.721   1.762  1.00  0.00     0.159 HD
HETATM   19  H   UNL     1       1.099  -3.493   3.064  1.00  0.00     0.159 HD
ENDBRANCH  14  15
ENDBRANCH   3  14
TORSDOF 3
