REMARK  4 active torsions:
REMARK  status: ('A' for Active; 'I' for Inactive)
REMARK    1  A    between atoms: C_1  and  C_8 
REMARK    2  A    between atoms: C_2  and  N_9 
REMARK    3  A    between atoms: C_3  and  C_6 
REMARK    4  A    between atoms: C_8  and  N_15 
ROOT
HETATM    1  C   UNL     1      -0.764   1.268   0.025  1.00  0.00     0.097 A 
HETATM    2  C   UNL     1       0.641   1.438  -0.045  1.00  0.00     0.061 A 
HETATM    3  C   UNL     1       0.765  -1.014   0.048  1.00  0.00     0.065 A 
HETATM    4  N   UNL     1      -1.384   0.053   0.108  1.00  0.00    -0.361 N 
ATOM      5  HN  UNL     1      -2.400  -0.016   0.167  1.00  0.00     0.165 HD
HETATM    6  C   UNL     1       1.383   0.245  -0.015  1.00  0.00     0.049 A 
HETATM    7  C   UNL     1      -0.613  -1.049   0.109  1.00  0.00     0.104 A 
ENDROOT
BRANCH   1   8
HETATM    8  C   UNL     1      -1.728   2.418  -0.102  1.00  0.00     0.123 C 
HETATM    9  S   UNL     1      -3.219   2.513   0.661  1.00  0.00    -0.058 SA
BRANCH   8  10
HETATM   10  N   UNL     1      -1.361   3.464  -0.917  1.00  0.00    -0.388 N 
HETATM   11  H   UNL     1      -0.493   3.444  -1.382  1.00  0.00     0.157 HD
HETATM   12  H   UNL     1      -1.965   4.232  -1.036  1.00  0.00     0.157 HD
ENDBRANCH   8  10
ENDBRANCH   1   8
BRANCH   2  13
HETATM   13  N   UNL     1       1.269   2.682  -0.133  1.00  0.00    -0.379 N 
HETATM   14  C   UNL     1       2.581   2.872  -0.776  1.00  0.00     0.123 C 
HETATM   15  C   UNL     1       3.323   3.856   0.127  1.00  0.00     0.021 C 
HETATM   16  C   UNL     1       2.200   4.644   0.774  1.00  0.00     0.021 C 
HETATM   17  C   UNL     1       1.164   3.558   1.051  1.00  0.00     0.123 C 
ENDBRANCH   2  13
BRANCH   3  18
HETATM   18  C   UNL     1       1.539  -2.296   0.039  1.00  0.00     0.418 C 
HETATM   19  F   UNL     1       2.888  -2.114  -0.010  1.00  0.00    -0.166 F 
HETATM   20  F   UNL     1       1.305  -3.056   1.142  1.00  0.00    -0.166 F 
HETATM   21  F   UNL     1       1.232  -3.080  -1.031  1.00  0.00    -0.166 F 
ENDBRANCH   3  18
TORSDOF 4
