REMARK  3 active torsions:
REMARK  status: ('A' for Active; 'I' for Inactive)
REMARK    1  A    between atoms: N_1  and  C_3 
REMARK    2  A    between atoms: C_2  and  C_4 
REMARK    3  A    between atoms: C_2  and  N_11 
ROOT
HETATM    1  C   UNL     1      -0.704  -2.471   0.019  1.00  0.00     0.039 A 
HETATM    2  C   UNL     1      -1.854  -4.322  -1.096  1.00  0.00     0.004 A 
HETATM    3  C   UNL     1      -1.536  -2.955  -1.006  1.00  0.00     0.044 A 
HETATM    4  C   UNL     1      -0.229  -3.371   0.984  1.00  0.00     0.030 A 
HETATM    5  C   UNL     1      -1.362  -5.202  -0.125  1.00  0.00     0.014 A 
HETATM    6  C   UNL     1      -0.562  -4.725   0.914  1.00  0.00     0.003 A 
ENDROOT
BRANCH   1   7
HETATM    7  N   UNL     1      -0.319  -1.093   0.053  1.00  0.00    -0.333 N 
HETATM    8  C   UNL     1      -0.725  -0.096  -0.818  1.00  0.00     0.096 A 
HETATM    9  C   UNL     1      -0.095   1.086  -0.492  1.00  0.00     0.019 A 
HETATM   10  C   UNL     1       0.721   0.827   0.624  1.00  0.00     0.019 A 
HETATM   11  C   UNL     1       0.561  -0.502   0.947  1.00  0.00     0.096 A 
ENDBRANCH   1   7
BRANCH   2  12
HETATM   12  C   UNL     1      -2.662  -4.843  -2.239  1.00  0.00     0.104 C 
HETATM   13  S   UNL     1      -2.672  -4.212  -3.789  1.00  0.00    -0.060 SA
BRANCH  12  14
HETATM   14  N   UNL     1      -3.451  -5.938  -1.999  1.00  0.00    -0.390 N 
HETATM   15  H   UNL     1      -3.474  -6.341  -1.100  1.00  0.00     0.157 HD
HETATM   16  H   UNL     1      -3.995  -6.322  -2.724  1.00  0.00     0.157 HD
ENDBRANCH  12  14
ENDBRANCH   2  12
TORSDOF 3
