REMARK  3 active torsions:
REMARK  status: ('A' for Active; 'I' for Inactive)
REMARK    1  A    between atoms: C_1  and  O_2 
REMARK    2  A    between atoms: O_2  and  C_6 
REMARK    3  A    between atoms: C_7  and  N_8 
ROOT
HETATM    1  C   UNL     1       0.945   1.871  -1.681  1.00  0.00     0.078 A 
HETATM    2  C   UNL     1       1.580   4.562  -2.217  1.00  0.00     0.025 A 
HETATM    3  C   UNL     1      -0.037   2.765  -2.108  1.00  0.00     0.039 A 
HETATM    4  C   UNL     1       2.226   2.350  -1.428  1.00  0.00     0.039 A 
HETATM    5  C   UNL     1       0.273   4.103  -2.354  1.00  0.00     0.031 A 
HETATM    6  C   UNL     1       2.539   3.690  -1.688  1.00  0.00     0.031 A 
ENDROOT
BRANCH   1   7
HETATM    7  O   UNL     1       0.508   0.593  -1.518  1.00  0.00    -0.255 OA
BRANCH   7   8
HETATM    8  C   UNL     1       1.436  -0.478  -1.604  1.00  0.00     0.530 C 
HETATM    9  F   UNL     1       2.583  -0.158  -2.242  1.00  0.00    -0.144 F 
HETATM   10  F   UNL     1       0.854  -1.488  -2.291  1.00  0.00    -0.144 F 
HETATM   11  F   UNL     1       1.728  -0.927  -0.366  1.00  0.00    -0.144 F 
ENDBRANCH   7   8
ENDBRANCH   1   7
BRANCH   2  12
HETATM   12  N   UNL     1       1.871   5.923  -2.372  1.00  0.00    -0.399 N 
HETATM   13  H   UNL     1       2.797   6.243  -2.274  1.00  0.00     0.156 HD
HETATM   14  H   UNL     1       1.149   6.560  -2.580  1.00  0.00     0.156 HD
ENDBRANCH   2  12
TORSDOF 3
