REMARK  4 active torsions:
REMARK  status: ('A' for Active; 'I' for Inactive)
REMARK    1  A    between atoms: C_1  and  O_2 
REMARK    2  A    between atoms: O_2  and  C_6 
REMARK    3  A    between atoms: C_7  and  C_13 
REMARK    4  A    between atoms: O_12  and  C_13 
ROOT
HETATM    1  C   UNL     1       1.025   1.675   1.707  1.00  0.00     0.078 A 
HETATM    2  C   UNL     1       1.788   2.873   4.143  1.00  0.00    -0.035 A 
HETATM    3  C   UNL     1       2.345   1.594   2.142  1.00  0.00     0.037 A 
HETATM    4  C   UNL     1       0.104   2.406   2.466  1.00  0.00     0.037 A 
HETATM    5  C   UNL     1       2.721   2.175   3.361  1.00  0.00     0.012 A 
HETATM    6  C   UNL     1       0.477   2.997   3.676  1.00  0.00     0.012 A 
ENDROOT
BRANCH   1   7
HETATM    7  O   UNL     1       0.501   1.129   0.577  1.00  0.00    -0.255 OA
BRANCH   7   8
HETATM    8  C   UNL     1       1.133   0.011  -0.027  1.00  0.00     0.530 C 
HETATM    9  F   UNL     1       1.944  -0.675   0.806  1.00  0.00    -0.144 F 
HETATM   10  F   UNL     1       1.840   0.414  -1.103  1.00  0.00    -0.144 F 
HETATM   11  F   UNL     1       0.170  -0.840  -0.451  1.00  0.00    -0.144 F 
ENDBRANCH   7   8
ENDBRANCH   1   7
BRANCH   2  12
HETATM   12  C   UNL     1       2.196   3.477   5.460  1.00  0.00     0.202 C 
BRANCH  12  13
HETATM   13  O   UNL     1       2.586   2.462   6.375  1.00  0.00    -0.396 OA
HETATM   14  H   UNL     1       2.846   2.868   7.217  1.00  0.00     0.209 HD
ENDBRANCH  12  13
ENDBRANCH   2  12
TORSDOF 4
