REMARK  4 active torsions:
REMARK  status: ('A' for Active; 'I' for Inactive)
REMARK    1  A    between atoms: C_1  and  C_4 
REMARK    2  A    between atoms: C_1  and  O_6 
REMARK    3  A    between atoms: S_2  and  C_4 
REMARK    4  A    between atoms: S_2  and  C_5 
ROOT
HETATM    1  C   UNL     1       0.346   1.244  -2.890  1.00  0.00     0.001 A 
HETATM    2  C   UNL     1      -0.975   1.573  -3.210  1.00  0.00     0.018 A 
HETATM    3  C   UNL     1       1.284   2.264  -2.708  1.00  0.00     0.018 A 
HETATM    4  C   UNL     1      -1.349   2.911  -3.360  1.00  0.00     0.001 A 
HETATM    5  C   UNL     1       0.909   3.601  -2.855  1.00  0.00     0.001 A 
HETATM    6  C   UNL     1      -0.407   3.924  -3.182  1.00  0.00     0.000 A 
ENDROOT
BRANCH   1   7
HETATM    7  S   UNL     1       0.830  -0.459  -2.694  1.00  0.00    -0.120 SA
BRANCH   7   8
HETATM    8  C   UNL     1       1.353  -0.803  -4.407  1.00  0.00     0.190 C 
BRANCH   8   9
HETATM    9  C   UNL     1       1.823  -2.236  -4.565  1.00  0.00     0.268 C 
HETATM   10  O   UNL     1       1.440  -3.200  -3.920  1.00  0.00    -0.264 OA
BRANCH   9  11
HETATM   11  O   UNL     1       2.706  -2.318  -5.610  1.00  0.00    -0.326 OA
HETATM   12  C   UNL     1       3.162  -3.647  -5.878  1.00  0.00     0.213 C 
ENDBRANCH   9  11
ENDBRANCH   8   9
ENDBRANCH   7   8
ENDBRANCH   1   7
TORSDOF 4
