REMARK  2 active torsions:
REMARK  status: ('A' for Active; 'I' for Inactive)
REMARK    1  A    between atoms: C_1  and  O_3 
REMARK    2  A    between atoms: O_3  and  C_6 
ROOT
HETATM    1  N   UNL     1       4.203   0.947  -1.003  1.00  0.00    -0.191 NA
HETATM    2  C   UNL     1       3.351   0.745  -1.762  1.00  0.00     0.102 C 
HETATM    3  C   UNL     1       2.301   0.490  -2.707  1.00  0.00     0.078 A 
HETATM    4  C   UNL     1       1.071  -0.075  -2.336  1.00  0.00     0.099 A 
HETATM    5  C   UNL     1       2.504   0.904  -4.033  1.00  0.00     0.025 A 
HETATM    6  C   UNL     1       0.039  -0.143  -3.283  1.00  0.00     0.039 A 
HETATM    7  C   UNL     1       1.480   0.803  -4.975  1.00  0.00     0.002 A 
HETATM    8  C   UNL     1       0.241   0.299  -4.592  1.00  0.00     0.003 A 
ENDROOT
BRANCH   4   9
HETATM    9  O   UNL     1       0.720  -0.457  -1.073  1.00  0.00    -0.254 OA
BRANCH   9  10
HETATM   10  C   UNL     1       1.523  -1.453  -0.439  1.00  0.00     0.530 C 
HETATM   11  F   UNL     1       2.617  -1.797  -1.149  1.00  0.00    -0.144 F 
HETATM   12  F   UNL     1       0.779  -2.565  -0.253  1.00  0.00    -0.144 F 
HETATM   13  F   UNL     1       1.905  -0.993   0.770  1.00  0.00    -0.144 F 
ENDBRANCH   9  10
ENDBRANCH   4   9
TORSDOF 2
