REMARK  0 active torsions:
REMARK  status: ('A' for Active; 'I' for Inactive)
ROOT
HETATM    1  N   UNL     1       1.053   0.083  -0.412  1.00  0.00    -0.191 NA
HETATM    2  C   UNL     1       3.637   0.053  -0.119  1.00  0.00     0.056 A 
HETATM    3  C   UNL     1       2.207   0.071  -0.288  1.00  0.00     0.100 C 
HETATM    4  C   UNL     1       4.342   1.263   0.078  1.00  0.00    -0.041 A 
HETATM    5  C   UNL     1       4.338  -1.174  -0.135  1.00  0.00    -0.041 A 
HETATM    6  C   UNL     1       6.417   0.013   0.289  1.00  0.00     0.001 A 
HETATM    7  C   UNL     1       5.734   1.224   0.270  1.00  0.00     0.008 A 
HETATM    8  C   UNL     1       5.725  -1.177   0.088  1.00  0.00     0.008 A 
HETATM    9  C   UNL     1       3.679  -2.504  -0.398  1.00  0.00     0.050 C 
HETATM   10  C   UNL     1       3.684   2.619   0.059  1.00  0.00     0.050 C 
ENDROOT
TORSDOF 0
