REMARK  2 active torsions:
REMARK  status: ('A' for Active; 'I' for Inactive)
REMARK    1  A    between atoms: N_1  and  C_2 
REMARK    2  A    between atoms: C_5  and  O_8 
ROOT
HETATM    1  C   UNL     1      -2.622   0.057  -0.951  1.00  0.00     0.033 A 
HETATM    2  C   UNL     1      -2.845   1.039  -1.929  1.00  0.00     0.065 A 
HETATM    3  C   UNL     1      -4.009   1.039  -2.702  1.00  0.00     0.067 A 
HETATM    4  C   UNL     1      -3.622  -0.918  -0.794  1.00  0.00     0.029 A 
HETATM    5  C   UNL     1      -4.790  -0.915  -1.566  1.00  0.00     0.005 A 
HETATM    6  C   UNL     1      -4.984   0.071  -2.526  1.00  0.00     0.036 A 
ENDROOT
BRANCH   1   7
HETATM    7  N   UNL     1      -1.484   0.044  -0.173  1.00  0.00    -0.377 N 
HETATM    8  C   UNL     1      -0.748   1.257   0.210  1.00  0.00     0.149 C 
HETATM    9  C   UNL     1       0.704   1.165  -0.282  1.00  0.00     0.187 C 
HETATM   10  O   UNL     1       1.346  -0.031   0.193  1.00  0.00    -0.388 OA
HETATM   11  C   UNL     1       0.636  -1.194  -0.266  1.00  0.00     0.187 C 
HETATM   12  C   UNL     1      -0.822  -1.208   0.227  1.00  0.00     0.149 C 
ENDBRANCH   1   7
BRANCH   3  13
HETATM   13  O   UNL     1      -4.224   1.988  -3.661  1.00  0.00    -0.361 OA
HETATM   14  H   UNL     1      -3.586   2.658  -3.808  1.00  0.00     0.217 HD
ENDBRANCH   3  13
TORSDOF 2
