REMARK  3 active torsions:
REMARK  status: ('A' for Active; 'I' for Inactive)
REMARK    1  A    between atoms: C_1  and  C_2 
REMARK    2  A    between atoms: C_8  and  C_10 
REMARK    3  A    between atoms: C_10  and  C_11 
ROOT
HETATM    1  C   UNL     1       0.232  -0.313   1.194  1.00  0.00     0.009 A 
HETATM    2  C   UNL     1       0.588   0.182   2.454  1.00  0.00     0.015 A 
HETATM    3  C   UNL     1      -0.878  -1.158   1.078  1.00  0.00     0.015 A 
HETATM    4  C   UNL     1      -1.649  -1.469   2.199  1.00  0.00     0.008 A 
HETATM    5  C   UNL     1      -0.187  -0.132   3.575  1.00  0.00     0.008 A 
HETATM    6  C   UNL     1      -1.322  -0.945   3.455  1.00  0.00    -0.058 A 
ENDROOT
BRANCH   1   7
HETATM    7  C   UNL     1       0.998   0.014  -0.040  1.00  0.00     0.155 C 
HETATM    8  O   UNL     1       0.977  -0.769  -0.989  1.00  0.00    -0.293 OA
HETATM    9  C   UNL     1       1.733   1.327  -0.143  1.00  0.00     0.096 C 
ENDBRANCH   1   7
BRANCH   6  10
HETATM   10  C   UNL     1      -2.169  -1.276   4.660  1.00  0.00     0.038 C 
BRANCH  10  11
HETATM   11  C   UNL     1      -2.795  -0.064   5.359  1.00  0.00     0.000 C 
HETATM   12  C   UNL     1      -3.717   0.749   4.460  1.00  0.00     0.005 C 
ENDBRANCH  10  11
ENDBRANCH   6  10
TORSDOF 3
