REMARK  2 active torsions:
REMARK  status: ('A' for Active; 'I' for Inactive)
REMARK    1  A    between atoms: C_1  and  C_3 
REMARK    2  A    between atoms: C_1  and  O_7 
ROOT
HETATM    1  N   UNL     1       2.246   1.932  -3.149  1.00  0.00    -0.191 NA
HETATM    2  C   UNL     1       0.368   1.226  -0.196  1.00  0.00     0.060 A 
HETATM    3  C   UNL     1       1.526   2.042  -2.241  1.00  0.00     0.100 C 
HETATM    4  C   UNL     1       0.603   2.214  -1.163  1.00  0.00     0.060 A 
HETATM    5  C   UNL     1      -0.647   1.441   0.756  1.00  0.00     0.019 A 
HETATM    6  C   UNL     1      -0.141   3.412  -1.136  1.00  0.00     0.024 A 
HETATM    7  C   UNL     1      -1.394   2.624   0.762  1.00  0.00     0.001 A 
HETATM    8  C   UNL     1      -1.133   3.615  -0.177  1.00  0.00     0.002 A 
ENDROOT
BRANCH   2   9
HETATM    9  C   UNL     1       1.077  -0.088  -0.129  1.00  0.00     0.294 C 
HETATM   10  O   UNL     1       0.569  -1.077   0.376  1.00  0.00    -0.259 OA
BRANCH   9  11
HETATM   11  O   UNL     1       2.334  -0.013  -0.622  1.00  0.00    -0.322 OA
HETATM   12  C   UNL     1       3.079  -1.241  -0.620  1.00  0.00     0.213 C 
ENDBRANCH   9  11
ENDBRANCH   2   9
TORSDOF 2
