REMARK  1 active torsions:
REMARK  status: ('A' for Active; 'I' for Inactive)
REMARK       I    between atoms: C_5  and  N_6 
REMARK    1  A    between atoms: N_6  and  C_8 
ROOT
HETATM    1  C   UNL     1      -0.156  -0.404  -0.009  1.00  0.00     0.016 A 
HETATM    2  C   UNL     1       0.277   0.914  -0.003  1.00  0.00    -0.042 A 
HETATM    3  C   UNL     1      -1.611  -0.420  -0.010  1.00  0.00     0.160 A 
HETATM    4  C   UNL     1       0.712  -1.474  -0.009  1.00  0.00     0.018 A 
HETATM    5  C   UNL     1       1.642   1.192   0.004  1.00  0.00     0.037 A 
HETATM    6  C   UNL     1       2.563   0.125   0.008  1.00  0.00     0.035 A 
HETATM    7  C   UNL     1      -0.866   1.881  -0.010  1.00  0.00     0.047 A 
HETATM    8  C   UNL     1      -2.126   0.996   0.011  1.00  0.00     0.088 A 
HETATM    9  O   UNL     1      -2.288  -1.433  -0.021  1.00  0.00    -0.292 OA
HETATM   10  C   UNL     1       2.081  -1.198  -0.000  1.00  0.00     0.030 A 
ENDROOT
BRANCH   6  11
HETATM   11  N   UNL     1       3.941   0.445   0.026  1.00  0.00    -0.328 N 
HETATM   12  C   UNL     1       5.001  -0.450   0.046  1.00  0.00     0.218 C 
HETATM   13  O   UNL     1       4.932  -1.674   0.044  1.00  0.00    -0.274 OA
HETATM   14  C   UNL     1       6.345   0.231   0.075  1.00  0.00     0.117 C 
HETATM   15  H   UNL     1       4.172   1.402   0.024  1.00  0.00     0.169 HD
ENDBRANCH   6  11
TORSDOF 1
