REMARK  2 active torsions:
REMARK  status: ('A' for Active; 'I' for Inactive)
REMARK    1  A    between atoms: C_1  and  C_7 
REMARK    2  A    between atoms: C_4  and  N_8 
ROOT
HETATM    1  C   UNL     1      -0.276  -1.205   0.017  1.00  0.00     0.093 A 
HETATM    2  N   UNL     1       0.975  -0.718   0.121  1.00  0.00    -0.258 N 
ATOM      3  HN  UNL     1       1.835  -1.260   0.201  1.00  0.00     0.195 HD
HETATM    4  C   UNL     1      -1.209  -0.123  -0.056  1.00  0.00     0.087 A 
HETATM    5  C   UNL     1      -0.440   1.012  -0.008  1.00  0.00     0.101 A 
HETATM    6  O   UNL     1       0.866   0.655   0.098  1.00  0.00    -0.240 OA
HETATM    7  C   UNL     1      -0.721   2.458  -0.019  1.00  0.00     0.081 C 
ENDROOT
BRANCH   1   8
HETATM    8  C   UNL     1      -0.515  -2.650   0.016  1.00  0.00    -0.005 A 
HETATM    9  C   UNL     1       0.333  -3.503   0.740  1.00  0.00     0.014 A 
HETATM   10  C   UNL     1       0.116  -4.883   0.756  1.00  0.00     0.001 A 
HETATM   11  C   UNL     1      -0.953  -5.427   0.046  1.00  0.00     0.000 A 
HETATM   12  C   UNL     1      -1.798  -4.595  -0.685  1.00  0.00     0.001 A 
HETATM   13  C   UNL     1      -1.576  -3.215  -0.707  1.00  0.00     0.014 A 
ENDBRANCH   1   8
BRANCH   4  14
HETATM   14  N   UNL     1      -2.559  -0.157  -0.131  1.00  0.00    -0.395 N 
HETATM   15  H   UNL     1      -3.028  -1.022  -0.161  1.00  0.00     0.156 HD
HETATM   16  H   UNL     1      -3.072   0.682  -0.155  1.00  0.00     0.156 HD
ENDBRANCH   4  14
TORSDOF 2
