REMARK  4 active torsions:
REMARK  status: ('A' for Active; 'I' for Inactive)
REMARK    1  A    between atoms: C_2  and  C_5 
REMARK    2  A    between atoms: C_2  and  O_11 
REMARK    3  A    between atoms: N_3  and  C_10 
REMARK    4  A    between atoms: O_11  and  C_14 
ROOT
HETATM    1  C   UNL     1       0.359  -0.720  -0.215  1.00  0.00     0.353 C 
HETATM    2  N   UNL     1      -0.238   0.222   0.148  1.00  0.00    -0.334 N 
ATOM      3  HN  UNL     1      -0.208   0.558   1.111  1.00  0.00     0.168 HD
HETATM    4  O   UNL     1       0.971  -1.654  -0.585  1.00  0.00    -0.283 OA
ENDROOT
BRANCH   2   5
HETATM    5  C   UNL     1      -1.000   0.851  -0.858  1.00  0.00     0.034 A 
HETATM    6  C   UNL     1      -2.215   1.435  -0.475  1.00  0.00     0.030 A 
HETATM    7  C   UNL     1      -3.012   2.123  -1.397  1.00  0.00     0.020 A 
HETATM    8  C   UNL     1      -2.600   2.247  -2.728  1.00  0.00     0.039 A 
HETATM    9  C   UNL     1      -1.385   1.677  -3.124  1.00  0.00     0.020 A 
HETATM   10  C   UNL     1      -0.591   0.993  -2.196  1.00  0.00     0.030 A 
BRANCH   8  11
HETATM   11  C   UNL     1      -3.510   2.931  -3.684  1.00  0.00     0.293 C 
HETATM   12  O   UNL     1      -4.605   3.371  -3.375  1.00  0.00    -0.259 OA
BRANCH  11  13
HETATM   13  O   UNL     1      -2.987   2.883  -4.934  1.00  0.00    -0.318 OA
BRANCH  13  14
HETATM   14  C   UNL     1      -3.923   3.091  -5.999  1.00  0.00     0.174 C 
HETATM   15  C   UNL     1      -4.525   1.744  -6.357  1.00  0.00     0.034 C 
ENDBRANCH  13  14
ENDBRANCH  11  13
ENDBRANCH   8  11
ENDBRANCH   2   5
TORSDOF 4
