
 OpenBabel02121609142D

 14 15  0  0  0  0  0  0  0  0999 V2000
   -0.8500   -0.0417    0.0000 N   0  0  0  0  0  0  0  0  0  0  0  0
   -1.8000    0.2708    0.0000 C   0  0  0  0  0  0  0  0  0  0  0  0
   -0.8500   -1.0417    0.0000 N   0  0  0  0  0  0  0  0  0  0  0  0
   -2.3875   -0.5417    0.0000 C   0  0  0  0  0  0  0  0  0  0  0  0
   -1.8000   -1.3542    0.0000 C   0  0  0  0  0  0  0  0  0  0  0  0
   -0.0458    0.5458    0.0000 C   0  0  0  0  0  0  0  0  0  0  0  0
   -2.1125    1.2208    0.0000 O   0  0  0  0  0  0  0  0  0  0  0  0
    0.8667    0.1375    0.0000 C   0  0  0  0  0  0  0  0  0  0  0  0
   -0.1458    1.5375    0.0000 C   0  0  0  0  0  0  0  0  0  0  0  0
    0.6625    2.1250    0.0000 C   0  0  0  0  0  0  0  0  0  0  0  0
    1.6792    0.7250    0.0000 C   0  0  0  0  0  0  0  0  0  0  0  0
    1.5750    1.7208    0.0000 C   0  0  0  0  0  0  0  0  0  0  0  0
   -2.1125   -2.3042    0.0000 C   0  0  0  0  0  0  0  0  0  0  0  0
    2.3792    2.3083    0.0000 C   0  0  0  0  0  0  0  0  0  0  0  0
  2  1  1  0  0  0  0
  3  1  1  0  0  0  0
  4  2  1  0  0  0  0
  4  5  1  0  0  0  0
  5  3  2  0  0  0  0
  6  1  1  0  0  0  0
  7  2  2  0  0  0  0
  8  6  1  0  0  0  0
  9  6  2  0  0  0  0
 10  9  1  0  0  0  0
 11  8  2  0  0  0  0
 12 10  2  0  0  0  0
 12 11  1  0  0  0  0
 13  5  1  0  0  0  0
 14 12  1  0  0  0  0
M  END
>  <idnumber>
T0200-3773

>  <LogP>
1.829000000000000e+000

>  <rotating_bonds>
1.000000000000000e+000

>  <hb_acceptors>
2.000000000000000e+000

>  <hb_donors>
0.000000000000000e+000

>  <PSA>
3.267000000000000e+001

>  <clusterid>
1

>  <is_centroid>
@

>  <class1>
861

>  <class2>
625

>  <population1>
529

>  <population2>
877209

>  <population>
512

>  <cansmi>
Cc1ccc(cc1)N1N=C(CC1=O)C

>  <HBA2>
3

>  <HBD>
0

>  <logP>
1.6082

>  <TPSA>
32.67

>  <MW>
188.226

$$$$

 OpenBabel02121609142D

 12 13  0  0  0  0  0  0  0  0999 V2000
   -0.8708    1.0000    0.0000 O   0  0  0  0  0  0  0  0  0  0  0  0
   -1.7333    0.5000    0.0000 C   0  0  0  0  0  0  0  0  0  0  0  0
    0.0000    0.5000    0.0000 C   0  0  0  0  0  0  0  0  0  0  0  0
    0.0000   -0.5000    0.0000 C   0  0  0  0  0  0  0  0  0  0  0  0
   -0.8708   -1.0000    0.0000 C   0  0  0  0  0  0  0  0  0  0  0  0
   -1.7333   -0.5000    0.0000 C   0  0  0  0  0  0  0  0  0  0  0  0
    0.8625   -1.0000    0.0000 C   0  0  0  0  0  0  0  0  0  0  0  0
   -2.6000    1.0000    0.0000 O   0  0  0  0  0  0  0  0  0  0  0  0
    0.8625    1.0000    0.0000 C   0  0  0  0  0  0  0  0  0  0  0  0
    1.7292   -0.5000    0.0000 C   0  0  0  0  0  0  0  0  0  0  0  0
    2.5917   -1.0000    0.0000 N   0  0  0  0  0  0  0  0  0  0  0  0
    1.7292    0.5000    0.0000 C   0  0  0  0  0  0  0  0  0  0  0  0
  2  1  1  0  0  0  0
  3  1  1  0  0  0  0
  4  3  2  0  0  0  0
  5  4  1  0  0  0  0
  5  6  2  0  0  0  0
  6  2  1  0  0  0  0
  7  4  1  0  0  0  0
  8  2  2  0  0  0  0
  9  3  1  0  0  0  0
 10 12  1  0  0  0  0
 10  7  2  0  0  0  0
 11 10  1  0  0  0  0
 12  9  2  0  0  0  0
M  END
>  <idnumber>
T0400-0056

>  <LogP>
1.014000000000000e+000

>  <rotating_bonds>
0.000000000000000e+000

>  <hb_acceptors>
2.000000000000000e+000

>  <hb_donors>
1.000000000000000e+000

>  <PSA>
5.232000000000000e+001

>  <clusterid>
-1

>  <is_centroid>
@

>  <class1>
799

>  <population1>
7929

>  <population>
7929

>  <cansmi>
Nc1ccc2c(c1)ccc(=O)o2

>  <HBA2>
3

>  <HBD>
1

>  <logP>
1.9564

>  <TPSA>
56.23

>  <MW>
161.157

$$$$

 OpenBabel02121609142D

 11 11  0  0  0  0  0  0  0  0999 V2000
   -0.8708    1.7500    0.0000 C   0  0  0  0  0  0  0  0  0  0  0  0
   -0.8708    0.7500    0.0000 N   0  0  0  0  0  0  0  0  0  0  0  0
    0.0000    2.2500    0.0000 O   0  0  0  0  0  0  0  0  0  0  0  0
    0.0000    0.2583    0.0000 C   0  0  0  0  0  0  0  0  0  0  0  0
   -1.7333    2.2500    0.0000 N   0  0  0  0  0  0  0  0  0  0  0  0
    0.0000   -0.7500    0.0000 C   0  0  0  0  0  0  0  0  0  0  0  0
    0.8625   -1.2500    0.0000 C   0  0  0  0  0  0  0  0  0  0  0  0
    1.7292    0.2583    0.0000 C   0  0  0  0  0  0  0  0  0  0  0  0
    0.8625    0.7500    0.0000 C   0  0  0  0  0  0  0  0  0  0  0  0
    1.7292   -0.7500    0.0000 C   0  0  0  0  0  0  0  0  0  0  0  0
    0.8625   -2.2500    0.0000 C   0  0  0  0  0  0  0  0  0  0  0  0
  2  1  1  0  0  0  0
  3  1  2  0  0  0  0
  4  2  1  0  0  0  0
  5  1  1  0  0  0  0
  6  4  1  0  0  0  0
  7  6  2  0  0  0  0
  7 10  1  0  0  0  0
  8  9  1  0  0  0  0
  9  4  2  0  0  0  0
 10  8  2  0  0  0  0
 11  7  1  0  0  0  0
M  END
>  <idnumber>
T0400-0275

>  <LogP>
1.344000000000000e+000

>  <rotating_bonds>
1.000000000000000e+000

>  <hb_acceptors>
1.000000000000000e+000

>  <hb_donors>
2.000000000000000e+000

>  <PSA>
5.512000000000001e+001

>  <clusterid>
13

>  <is_centroid>
@

>  <class1>
625

>  <population1>
877209

>  <population>
651286

>  <cansmi>
NC(=O)Nc1cccc(c1)C

>  <HBA2>
3

>  <HBD>
2

>  <logP>
2.2589

>  <TPSA>
55.12

>  <MW>
150.178

$$$$

 OpenBabel02121609142D

 16 17  0  0  0  0  0  0  0  0999 V2000
    0.4292    0.7500    0.0000 C   0  0  0  0  0  0  0  0  0  0  0  0
    0.4292    1.7500    0.0000 N   0  0  0  0  0  0  0  0  0  0  0  0
   -0.4333    0.2500    0.0000 N   0  0  0  0  0  0  0  0  0  0  0  0
    1.2917    0.2500    0.0000 O   0  0  0  0  0  0  0  0  0  0  0  0
    0.4292    3.7500    0.0000 O   0  0  0  0  0  0  0  0  0  0  0  0
   -0.4333   -0.7500    0.0000 C   0  0  0  0  0  0  0  0  0  0  0  0
   -0.4333   -2.7500    0.0000 C   0  0  0  0  0  0  0  0  0  0  0  0
    0.4292   -1.2417    0.0000 C   0  0  0  0  0  0  0  0  0  0  0  0
   -1.3000   -1.2417    0.0000 C   0  0  0  0  0  0  0  0  0  0  0  0
    0.4292   -2.2417    0.0000 C   0  0  0  0  0  0  0  0  0  0  0  0
   -1.3000   -2.2417    0.0000 C   0  0  0  0  0  0  0  0  0  0  0  0
    1.2917    2.2500    0.0000 C   0  0  0  0  0  0  0  0  0  0  0  0
   -0.4333    2.2500    0.0000 C   0  0  0  0  0  0  0  0  0  0  0  0
   -0.4333    3.2500    0.0000 C   0  0  0  0  0  0  0  0  0  0  0  0
    1.2917    3.2500    0.0000 C   0  0  0  0  0  0  0  0  0  0  0  0
   -0.4333   -3.7500    0.0000 C   0  0  0  0  0  0  0  0  0  0  0  0
  2  1  1  0  0  0  0
  3  1  1  0  0  0  0
  4  1  2  0  0  0  0
  5 14  1  0  0  0  0
  6  3  1  0  0  0  0
  7 11  2  0  0  0  0
  7 10  1  0  0  0  0
  8  6  1  0  0  0  0
  9  6  2  0  0  0  0
 10  8  2  0  0  0  0
 11  9  1  0  0  0  0
 12  2  1  0  0  0  0
 13  2  1  0  0  0  0
 14 13  1  0  0  0  0
 15 12  1  0  0  0  0
 15  5  1  0  0  0  0
 16  7  1  0  0  0  0
M  END
>  <idnumber>
T0400-0352

>  <LogP>
1.306000000000000e+000

>  <rotating_bonds>
1.000000000000000e+000

>  <hb_acceptors>
2.000000000000000e+000

>  <hb_donors>
1.000000000000000e+000

>  <PSA>
4.156999999999997e+001

>  <clusterid>
-5

>  <is_centroid>
@

>  <class1>
625

>  <class2>
786

>  <population1>
877209

>  <population2>
48067

>  <population>
45066

>  <cansmi>
O=C(N1CCOCC1)Nc1ccc(cc1)C

>  <HBA2>
4

>  <HBD>
1

>  <logP>
1.87

>  <TPSA>
41.57

>  <MW>
220.268

$$$$

 OpenBabel02121609142D

 19 21  0  0  0  0  0  0  0  0999 V2000
   -0.4333    0.7583    0.0000 N   0  0  0  0  0  0  0  0  0  0  0  0
   -1.3000    1.2583    0.0000 C   0  0  0  0  0  0  0  0  0  0  0  0
   -0.4333   -0.2417    0.0000 C   0  0  3  0  0  0  0  0  0  0  0  0
   -2.1708    0.7583    0.0000 C   0  0  0  0  0  0  0  0  0  0  0  0
   -1.3000   -0.7417    0.0000 O   0  0  0  0  0  0  0  0  0  0  0  0
   -2.1708   -0.2417    0.0000 C   0  0  0  0  0  0  0  0  0  0  0  0
    0.4292   -0.7417    0.0000 C   0  0  0  0  0  0  0  0  0  0  0  0
   -1.3000    2.2500    0.0000 O   0  0  0  0  0  0  0  0  0  0  0  0
    0.4292   -1.7417    0.0000 C   0  0  0  0  0  0  0  0  0  0  0  0
    1.2917   -0.2417    0.0000 C   0  0  0  0  0  0  0  0  0  0  0  0
    2.1625   -1.7417    0.0000 C   0  0  0  0  0  0  0  0  0  0  0  0
    1.2917   -2.2417    0.0000 C   0  0  0  0  0  0  0  0  0  0  0  0
    2.1625   -0.7417    0.0000 C   0  0  0  0  0  0  0  0  0  0  0  0
   -3.0333    1.2583    0.0000 C   0  0  0  0  0  0  0  0  0  0  0  0
    3.0292   -2.2417    0.0000 O   0  0  0  0  0  0  0  0  0  0  0  0
   -3.0333   -0.7417    0.0000 C   0  0  0  0  0  0  0  0  0  0  0  0
    3.8917   -1.7417    0.0000 C   0  0  0  0  0  0  0  0  0  0  0  0
   -3.9000    0.7583    0.0000 C   0  0  0  0  0  0  0  0  0  0  0  0
   -3.9000   -0.2417    0.0000 C   0  0  0  0  0  0  0  0  0  0  0  0
  2  1  1  0  0  0  0
  3  1  1  0  0  0  0
  4  2  1  0  0  0  0
  4  6  2  0  0  0  0
  5  3  1  0  0  0  0
  6  5  1  0  0  0  0
  7  3  1  0  0  0  0
  8  2  2  0  0  0  0
  9  7  2  0  0  0  0
 10  7  1  0  0  0  0
 11 13  1  0  0  0  0
 12  9  1  0  0  0  0
 12 11  2  0  0  0  0
 13 10  2  0  0  0  0
 14  4  1  0  0  0  0
 15 11  1  0  0  0  0
 16  6  1  0  0  0  0
 17 15  1  0  0  0  0
 18 14  2  0  0  0  0
 18 19  1  0  0  0  0
 19 16  2  0  0  0  0
M  END
>  <idnumber>
T0400-0568

>  <LogP>
2.696000000000000e+000

>  <rotating_bonds>
2.000000000000000e+000

>  <hb_acceptors>
3.000000000000000e+000

>  <hb_donors>
1.000000000000000e+000

>  <PSA>
4.756000000000000e+001

>  <clusterid>
17

>  <is_centroid>
@

>  <class1>
852

>  <class2>
625

>  <population1>
54

>  <population2>
877209

>  <population>
54

>  <cansmi>
COc1ccc(cc1)C1NC(=O)c2c(O1)cccc2

>  <HBA2>
4

>  <HBD>
1

>  <logP>
2.845

>  <TPSA>
47.56

>  <MW>
255.269

$$$$

 OpenBabel02121609142D

 14 15  0  0  0  0  0  0  0  0999 V2000
   -0.4333   -1.0000    0.0000 C   0  0  0  0  0  0  0  0  0  0  0  0
   -1.3000    0.5000    0.0000 C   0  0  0  0  0  0  0  0  0  0  0  0
   -1.3000   -1.5000    0.0000 O   0  0  0  0  0  0  0  0  0  0  0  0
   -2.1708   -1.0000    0.0000 C   0  0  0  0  0  0  0  0  0  0  0  0
   -0.4333    0.0000    0.0000 C   0  0  0  0  0  0  0  0  0  0  0  0
   -2.1708    0.0000    0.0000 C   0  0  0  0  0  0  0  0  0  0  0  0
    0.4292   -1.5000    0.0000 C   0  0  0  0  0  0  0  0  0  0  0  0
    0.4292    0.5000    0.0000 C   0  0  0  0  0  0  0  0  0  0  0  0
   -3.0333   -1.5000    0.0000 O   0  0  0  0  0  0  0  0  0  0  0  0
    1.2917   -1.0000    0.0000 C   0  0  0  0  0  0  0  0  0  0  0  0
    1.2917    0.0000    0.0000 C   0  0  0  0  0  0  0  0  0  0  0  0
   -1.3000    1.5000    0.0000 C   0  0  0  0  0  0  0  0  0  0  0  0
    2.1625   -1.5000    0.0000 O   0  0  0  0  0  0  0  0  0  0  0  0
    3.0292   -1.0000    0.0000 C   0  0  0  0  0  0  0  0  0  0  0  0
  2  5  1  0  0  0  0
  3  1  1  0  0  0  0
  4  3  1  0  0  0  0
  5  1  2  0  0  0  0
  6  2  2  0  0  0  0
  6  4  1  0  0  0  0
  7  1  1  0  0  0  0
  8  5  1  0  0  0  0
  9  4  2  0  0  0  0
 10  7  2  0  0  0  0
 11 10  1  0  0  0  0
 11  8  2  0  0  0  0
 12  2  1  0  0  0  0
 13 10  1  0  0  0  0
 14 13  1  0  0  0  0
M  END
>  <idnumber>
T0400-0738

>  <LogP>
2.244000000000000e+000

>  <rotating_bonds>
1.000000000000000e+000

>  <hb_acceptors>
2.000000000000000e+000

>  <hb_donors>
0.000000000000000e+000

>  <PSA>
3.553000000000000e+001

>  <clusterid>
18

>  <is_centroid>
@

>  <class1>
799

>  <population1>
7929

>  <population>
7929

>  <cansmi>
COc1ccc2c(c1)oc(=O)cc2C

>  <HBA2>
3

>  <HBD>
0

>  <logP>
2.11

>  <TPSA>
39.44

>  <MW>
190.195

$$$$

 OpenBabel02121609142D

 17 19  0  0  0  0  0  0  0  0999 V2000
   -0.1083    2.7208    0.0000 N   0  0  0  0  0  0  0  0  0  0  0  0
   -0.1083    1.1083    0.0000 N   0  0  0  0  0  0  0  0  0  0  0  0
    0.4875    1.9125    0.0000 C   0  0  0  0  0  0  0  0  0  0  0  0
   -1.0583    1.4125    0.0000 C   0  0  0  0  0  0  0  0  0  0  0  0
   -1.0583    2.4125    0.0000 C   0  0  0  0  0  0  0  0  0  0  0  0
    1.4917   -1.0042    0.0000 N   0  0  0  0  0  0  0  0  0  0  0  0
    0.2042    0.1583    0.0000 C   0  0  0  0  0  0  0  0  0  0  0  0
    1.1792   -0.0542    0.0000 C   0  0  0  0  0  0  0  0  0  0  0  0
    0.8250   -1.7500    0.0000 C   0  0  0  0  0  0  0  0  0  0  0  0
    2.4667   -1.2125    0.0000 C   0  0  0  0  0  0  0  0  0  0  0  0
   -1.9208    0.9125    0.0000 C   0  0  0  0  0  0  0  0  0  0  0  0
   -1.9208    2.9125    0.0000 C   0  0  0  0  0  0  0  0  0  0  0  0
    2.7792   -2.1667    0.0000 C   0  0  0  0  0  0  0  0  0  0  0  0
    1.1292   -2.7000    0.0000 C   0  0  0  0  0  0  0  0  0  0  0  0
   -2.7833    1.4125    0.0000 C   0  0  0  0  0  0  0  0  0  0  0  0
   -2.7833    2.4125    0.0000 C   0  0  0  0  0  0  0  0  0  0  0  0
    2.1125   -2.9042    0.0000 C   0  0  0  0  0  0  0  0  0  0  0  0
  2  3  1  0  0  0  0
  2  4  1  0  0  0  0
  3  1  2  0  0  0  0
  4  5  2  0  0  0  0
  5  1  1  0  0  0  0
  6  8  1  0  0  0  0
  7  2  1  0  0  0  0
  8  7  1  0  0  0  0
  9  6  1  0  0  0  0
 10  6  1  0  0  0  0
 11  4  1  0  0  0  0
 11 15  2  0  0  0  0
 12  5  1  0  0  0  0
 13 10  1  0  0  0  0
 14  9  1  0  0  0  0
 14 17  1  0  0  0  0
 15 16  1  0  0  0  0
 16 12  2  0  0  0  0
 17 13  1  0  0  0  0
M  END
>  <idnumber>
T0400-0976

>  <LogP>
2.617000000000000e+000

>  <rotating_bonds>
3.000000000000000e+000

>  <hb_acceptors>
2.000000000000000e+000

>  <hb_donors>
0.000000000000000e+000

>  <PSA>
2.106000000000000e+001

>  <clusterid>
-7

>  <is_centroid>
@

>  <class1>
685

>  <class2>
639

>  <population1>
28767

>  <population2>
59855

>  <population>
1323

>  <cansmi>
C1CCN(CC1)CCn1cnc2c1cccc2

>  <HBA2>
3

>  <HBD>
0

>  <logP>
2.4601

>  <TPSA>
21.06

>  <MW>
229.321

$$$$

 OpenBabel02121609142D

 12 13  0  0  0  0  0  0  0  0999 V2000
    0.2917    0.8125    0.0000 N   0  0  0  0  0  0  0  0  0  0  0  0
    0.8792    0.0000    0.0000 C   0  0  0  0  0  0  0  0  0  0  0  0
    0.2917   -0.8042    0.0000 N   0  0  0  0  0  0  0  0  0  0  0  0
   -0.6583    0.5000    0.0000 C   0  0  0  0  0  0  0  0  0  0  0  0
   -0.6583   -0.5000    0.0000 C   0  0  0  0  0  0  0  0  0  0  0  0
    1.8792    0.0000    0.0000 C   0  0  3  0  0  0  0  0  0  0  0  0
    2.3792    0.8708    0.0000 O   0  0  0  0  0  0  0  0  0  0  0  0
   -1.5208    1.0000    0.0000 C   0  0  0  0  0  0  0  0  0  0  0  0
   -1.5208   -1.0000    0.0000 C   0  0  0  0  0  0  0  0  0  0  0  0
    2.3792   -0.8625    0.0000 C   0  0  0  0  0  0  0  0  0  0  0  0
   -2.3875   -0.5000    0.0000 C   0  0  0  0  0  0  0  0  0  0  0  0
   -2.3875    0.5000    0.0000 C   0  0  0  0  0  0  0  0  0  0  0  0
  2  1  2  0  0  0  0
  3  2  1  0  0  0  0
  4  1  1  0  0  0  0
  5  4  2  0  0  0  0
  5  3  1  0  0  0  0
  6  2  1  0  0  0  0
  7  6  1  0  0  0  0
  8  4  1  0  0  0  0
  9  5  1  0  0  0  0
  9 11  2  0  0  0  0
 10  6  1  0  0  0  0
 11 12  1  0  0  0  0
 12  8  2  0  0  0  0
M  END
>  <idnumber>
T0400-1509

>  <LogP>
8.360000000000006e-001

>  <rotating_bonds>
1.000000000000000e+000

>  <hb_acceptors>
2.000000000000000e+000

>  <hb_donors>
2.000000000000000e+000

>  <PSA>
4.891000000000000e+001

>  <clusterid>
22

>  <is_centroid>
@

>  <class1>
685

>  <population1>
28767

>  <population>
28767

>  <cansmi>
CC(c1nc2c([nH]1)cccc2)O

>  <HBA2>
2

>  <HBD>
2

>  <logP>
1.6162

>  <TPSA>
48.91

>  <MW>
162.189

$$$$

 OpenBabel02121609142D

 17 18  0  0  0  0  0  0  0  0999 V2000
    0.0000    1.2500    0.0000 C   0  0  0  0  0  0  0  0  0  0  0  0
   -0.8708    1.7500    0.0000 C   0  0  0  0  0  0  0  0  0  0  0  0
    0.0000    0.2500    0.0000 N   0  0  0  0  0  0  0  0  0  0  0  0
    0.8625   -0.2500    0.0000 C   0  0  0  0  0  0  0  0  0  0  0  0
    0.8625    1.7500    0.0000 O   0  0  0  0  0  0  0  0  0  0  0  0
   -2.6000    1.7500    0.0000 N   0  0  0  0  0  0  0  0  0  0  0  0
    0.8625   -1.2500    0.0000 C   0  0  0  0  0  0  0  0  0  0  0  0
    1.7292   -1.7500    0.0000 C   0  0  0  0  0  0  0  0  0  0  0  0
   -1.7333    1.2500    0.0000 C   0  0  0  0  0  0  0  0  0  0  0  0
    1.7292   -2.7500    0.0000 O   0  0  0  0  0  0  0  0  0  0  0  0
   -0.8708    2.7500    0.0000 C   0  0  0  0  0  0  0  0  0  0  0  0
    2.5917   -0.2500    0.0000 C   0  0  0  0  0  0  0  0  0  0  0  0
   -2.6000    2.7500    0.0000 C   0  0  0  0  0  0  0  0  0  0  0  0
    1.7292    0.2500    0.0000 C   0  0  0  0  0  0  0  0  0  0  0  0
    2.5917   -1.2500    0.0000 C   0  0  0  0  0  0  0  0  0  0  0  0
    2.5917   -3.2500    0.0000 C   0  0  0  0  0  0  0  0  0  0  0  0
   -1.7333    3.2500    0.0000 C   0  0  0  0  0  0  0  0  0  0  0  0
  2  1  1  0  0  0  0
  3  1  1  0  0  0  0
  4  3  1  0  0  0  0
  5  1  2  0  0  0  0
  6  9  1  0  0  0  0
  6 13  2  0  0  0  0
  7  4  1  0  0  0  0
  8  7  2  0  0  0  0
  8 15  1  0  0  0  0
  9  2  2  0  0  0  0
 10  8  1  0  0  0  0
 11  2  1  0  0  0  0
 12 14  1  0  0  0  0
 13 17  1  0  0  0  0
 14  4  2  0  0  0  0
 15 12  2  0  0  0  0
 16 10  1  0  0  0  0
 17 11  2  0  0  0  0
M  END
>  <idnumber>
T0400-1703

>  <LogP>
1.871000000000000e+000

>  <rotating_bonds>
3.000000000000000e+000

>  <hb_acceptors>
3.000000000000000e+000

>  <hb_donors>
1.000000000000000e+000

>  <PSA>
5.121999999999999e+001

>  <clusterid>
28

>  <is_centroid>
@

>  <class1>
625

>  <class2>
632

>  <population1>
877209

>  <population2>
79489

>  <population>
68100

>  <cansmi>
COc1cccc(c1)NC(=O)c1cccnc1

>  <HBA2>
4

>  <HBD>
1

>  <logP>
2.4155

>  <TPSA>
51.22

>  <MW>
228.247

$$$$

 OpenBabel02121609142D

 14 16  0  0  0  0  0  0  0  0999 V2000
    1.5000   -0.5000    0.0000 C   0  0  0  0  0  0  0  0  0  0  0  0
    0.5417   -0.8042    0.0000 N   0  0  0  0  0  0  0  0  0  0  0  0
   -0.0458    0.0000    0.0000 C   0  0  0  0  0  0  0  0  0  0  0  0
    1.5000    0.5000    0.0000 N   0  0  0  0  0  0  0  0  0  0  0  0
    0.5417    0.8125    0.0000 C   0  0  0  0  0  0  0  0  0  0  0  0
    2.4417   -0.8042    0.0000 S   0  0  0  0  0  0  0  0  0  0  0  0
   -1.0458    0.0000    0.0000 C   0  0  0  0  0  0  0  0  0  0  0  0
    2.4417    0.8125    0.0000 C   0  0  0  0  0  0  0  0  0  0  0  0
    3.0375    0.0000    0.0000 C   0  0  0  0  0  0  0  0  0  0  0  0
   -1.5458    0.8708    0.0000 C   0  0  0  0  0  0  0  0  0  0  0  0
   -1.5458   -0.8625    0.0000 C   0  0  0  0  0  0  0  0  0  0  0  0
   -2.5458   -0.8625    0.0000 C   0  0  0  0  0  0  0  0  0  0  0  0
   -2.5458    0.8708    0.0000 C   0  0  0  0  0  0  0  0  0  0  0  0
   -3.0458    0.0000    0.0000 C   0  0  0  0  0  0  0  0  0  0  0  0
  2  1  2  0  0  0  0
  3  2  1  0  0  0  0
  4  1  1  0  0  0  0
  5  4  1  0  0  0  0
  5  3  2  0  0  0  0
  6  1  1  0  0  0  0
  7  3  1  0  0  0  0
  8  4  1  0  0  0  0
  9  6  1  0  0  0  0
  9  8  1  0  0  0  0
 10  7  1  0  0  0  0
 11  7  2  0  0  0  0
 12 11  1  0  0  0  0
 13 10  2  0  0  0  0
 13 14  1  0  0  0  0
 14 12  2  0  0  0  0
M  END
>  <idnumber>
T0400-1756

>  <LogP>
2.716000000000000e+000

>  <rotating_bonds>
1.000000000000000e+000

>  <hb_acceptors>
2.000000000000000e+000

>  <hb_donors>
0.000000000000000e+000

>  <PSA>
4.312000000000001e+001

>  <clusterid>
29

>  <is_centroid>
@

>  <class1>
879

>  <class2>
625

>  <population1>
41

>  <population2>
877209

>  <population>
30

>  <cansmi>
C1Sc2n(C1)cc(n2)c1ccccc1

>  <HBA2>
3

>  <HBD>
0

>  <logP>
2.6558

>  <TPSA>
43.12

>  <MW>
202.276

$$$$

 OpenBabel02121609142D

 11 11  0  0  0  0  0  0  0  0999 V2000
   -0.8708    1.0000    0.0000 C   0  0  0  0  0  0  0  0  0  0  0  0
    0.0000    0.5083    0.0000 C   0  0  0  0  0  0  0  0  0  0  0  0
   -1.7333    0.5083    0.0000 O   0  0  0  0  0  0  0  0  0  0  0  0
    0.0000   -0.5000    0.0000 O   0  0  0  0  0  0  0  0  0  0  0  0
    1.7292   -2.5000    0.0000 O   0  0  0  0  0  0  0  0  0  0  0  0
   -0.8708    2.0000    0.0000 C   0  0  0  0  0  0  0  0  0  0  0  0
    0.8625    1.0000    0.0000 C   0  0  0  0  0  0  0  0  0  0  0  0
    0.8625   -2.0000    0.0000 C   0  0  0  0  0  0  0  0  0  0  0  0
    0.8625   -1.0000    0.0000 C   0  0  0  0  0  0  0  0  0  0  0  0
    0.0000    2.5000    0.0000 C   0  0  0  0  0  0  0  0  0  0  0  0
    0.8625    2.0000    0.0000 C   0  0  0  0  0  0  0  0  0  0  0  0
  2  1  2  0  0  0  0
  3  1  1  0  0  0  0
  4  2  1  0  0  0  0
  5  8  1  0  0  0  0
  6  1  1  0  0  0  0
  7  2  1  0  0  0  0
  7 11  2  0  0  0  0
  8  9  1  0  0  0  0
  9  4  1  0  0  0  0
 10  6  2  0  0  0  0
 11 10  1  0  0  0  0
M  END
>  <idnumber>
T0400-2004

>  <LogP>
4.510000000000000e-001

>  <rotating_bonds>
3.000000000000000e+000

>  <hb_acceptors>
3.000000000000000e+000

>  <hb_donors>
2.000000000000000e+000

>  <PSA>
4.969000000000001e+001

>  <clusterid>
-8

>  <is_centroid>
@

>  <class1>
625

>  <population1>
877209

>  <population>
651286

>  <cansmi>
OCCOc1ccccc1O

>  <HBA2>
3

>  <HBD>
2

>  <logP>
0.7633

>  <TPSA>
49.69

>  <MW>
154.163

$$$$

 OpenBabel02121609142D

 15 16  0  0  0  0  0  0  0  0999 V2000
   -0.6833    0.8708    0.0000 C   0  0  0  0  0  0  0  0  0  0  0  0
    0.3167    0.8708    0.0000 N   0  0  0  0  0  0  0  0  0  0  0  0
    1.8167    1.7333    0.0000 C   0  0  0  0  0  0  0  0  0  0  0  0
    2.6792    1.2333    0.0000 C   0  0  0  0  0  0  0  0  0  0  0  0
    2.6792    2.2333    0.0000 C   0  0  0  0  0  0  0  0  0  0  0  0
   -1.1833    0.0000    0.0000 C   0  0  0  0  0  0  0  0  0  0  0  0
    0.8167    1.7333    0.0000 C   0  0  3  0  0  0  0  0  0  0  0  0
   -1.1833    1.7333    0.0000 O   0  0  0  0  0  0  0  0  0  0  0  0
   -0.6833   -0.8625    0.0000 C   0  0  0  0  0  0  0  0  0  0  0  0
   -1.1833   -1.7292    0.0000 C   0  0  0  0  0  0  0  0  0  0  0  0
   -0.6833   -2.5917    0.0000 F   0  0  0  0  0  0  0  0  0  0  0  0
   -2.1833    0.0000    0.0000 C   0  0  0  0  0  0  0  0  0  0  0  0
   -2.6833   -0.8625    0.0000 C   0  0  0  0  0  0  0  0  0  0  0  0
    0.3167    2.6000    0.0000 C   0  0  0  0  0  0  0  0  0  0  0  0
   -2.1833   -1.7292    0.0000 C   0  0  0  0  0  0  0  0  0  0  0  0
  2  1  1  0  0  0  0
  3  7  1  0  0  0  0
  4  3  1  0  0  0  0
  4  5  1  0  0  0  0
  5  3  1  0  0  0  0
  6  1  1  0  0  0  0
  7  2  1  0  0  0  0
  8  1  2  0  0  0  0
  9  6  2  0  0  0  0
 10  9  1  0  0  0  0
 10 15  2  0  0  0  0
 11 10  1  0  0  0  0
 12  6  1  0  0  0  0
 13 12  2  0  0  0  0
 14  7  1  0  0  0  0
 15 13  1  0  0  0  0
M  END
>  <idnumber>
T0400-2646

>  <LogP>
2.488000000000000e+000

>  <rotating_bonds>
3.000000000000000e+000

>  <hb_acceptors>
2.000000000000000e+000

>  <hb_donors>
1.000000000000000e+000

>  <PSA>
2.910000000000000e+001

>  <clusterid>
-10

>  <is_centroid>
@

>  <class1>
675

>  <class2>
625

>  <population1>
33654

>  <population2>
877209

>  <population>
29191

>  <cansmi>
CC(C1CC1)NC(=O)c1cccc(c1)F

>  <HBA2>
2

>  <HBD>
1

>  <logP>
2.7449

>  <TPSA>
29.1

>  <MW>
207.244

$$$$

 OpenBabel02121609142D

 14 15  0  0  0  0  0  0  0  0999 V2000
    0.0000   -0.5000    0.0000 C   0  0  0  0  0  0  0  0  0  0  0  0
    0.8625    0.0000    0.0000 C   0  0  0  0  0  0  0  0  0  0  0  0
   -1.7333   -0.5000    0.0000 C   0  0  0  0  0  0  0  0  0  0  0  0
   -0.8708    0.0000    0.0000 C   0  0  0  0  0  0  0  0  0  0  0  0
    0.8625    1.0000    0.0000 C   0  0  0  0  0  0  0  0  0  0  0  0
    1.7292    1.5000    0.0000 N   0  0  0  0  0  0  0  0  0  0  0  0
   -1.7333   -1.5000    0.0000 O   0  0  0  0  0  0  0  0  0  0  0  0
    1.7292   -0.5000    0.0000 C   0  0  0  0  0  0  0  0  0  0  0  0
   -0.8708    1.0000    0.0000 C   0  0  0  0  0  0  0  0  0  0  0  0
    0.0000    1.5000    0.0000 C   0  0  0  0  0  0  0  0  0  0  0  0
   -2.6000    0.0000    0.0000 N   0  0  0  0  0  0  0  0  0  0  0  0
    2.5917    1.0000    0.0000 C   0  0  0  0  0  0  0  0  0  0  0  0
    2.5917    0.0000    0.0000 C   0  0  0  0  0  0  0  0  0  0  0  0
    1.7292   -1.5000    0.0000 C   0  0  0  0  0  0  0  0  0  0  0  0
  2  1  1  0  0  0  0
  3  4  1  0  0  0  0
  4  1  2  0  0  0  0
  5  2  1  0  0  0  0
  5 10  1  0  0  0  0
  6  5  2  0  0  0  0
  6 12  1  0  0  0  0
  7  3  2  0  0  0  0
  8  2  2  0  0  0  0
  9  4  1  0  0  0  0
 10  9  2  0  0  0  0
 11  3  1  0  0  0  0
 12 13  2  0  0  0  0
 13  8  1  0  0  0  0
 14  8  1  0  0  0  0
M  END
>  <idnumber>
T0400-2751

>  <LogP>
1.518000000000000e+000

>  <rotating_bonds>
1.000000000000000e+000

>  <hb_acceptors>
2.000000000000000e+000

>  <hb_donors>
1.000000000000000e+000

>  <PSA>
5.598000000000000e+001

>  <clusterid>
-11

>  <is_centroid>
@

>  <class1>
682

>  <population1>
20351

>  <population>
20351

>  <cansmi>
NC(=O)c1ccc2c(c1)c(C)ccn2

>  <HBA2>
3

>  <HBD>
1

>  <logP>
2.3424

>  <TPSA>
55.98

>  <MW>
186.21

$$$$

 OpenBabel02121609142D

 18 19  0  0  0  0  0  0  0  0999 V2000
    1.7292    0.0000    0.0000 C   0  0  0  0  0  0  0  0  0  0  0  0
    0.8625   -0.5000    0.0000 N   0  0  0  0  0  0  0  0  0  0  0  0
    0.0000    0.0000    0.0000 C   0  0  0  0  0  0  0  0  0  0  0  0
   -1.7333    0.0000    0.0000 N   0  0  0  0  0  0  0  0  0  0  0  0
   -0.8708   -0.5000    0.0000 C   0  0  0  0  0  0  0  0  0  0  0  0
    1.7292    1.0000    0.0000 C   0  0  0  0  0  0  0  0  0  0  0  0
    2.5917   -0.5000    0.0000 C   0  0  0  0  0  0  0  0  0  0  0  0
    0.0000    1.0000    0.0000 O   0  0  0  0  0  0  0  0  0  0  0  0
   -1.7333    1.0000    0.0000 C   0  0  0  0  0  0  0  0  0  0  0  0
   -2.6000   -0.5000    0.0000 C   0  0  0  0  0  0  0  0  0  0  0  0
    3.4625    1.0000    0.0000 C   0  0  0  0  0  0  0  0  0  0  0  0
    2.5917    1.5000    0.0000 C   0  0  0  0  0  0  0  0  0  0  0  0
    3.4625    0.0000    0.0000 C   0  0  0  0  0  0  0  0  0  0  0  0
    2.5917   -1.5000    0.0000 C   0  0  0  0  0  0  0  0  0  0  0  0
    0.8625    1.5000    0.0000 C   0  0  0  0  0  0  0  0  0  0  0  0
   -3.4708    0.0000    0.0000 C   0  0  0  0  0  0  0  0  0  0  0  0
   -2.6000    1.5000    0.0000 C   0  0  0  0  0  0  0  0  0  0  0  0
   -3.4708    1.0000    0.0000 C   0  0  0  0  0  0  0  0  0  0  0  0
  2  1  1  0  0  0  0
  3  2  1  0  0  0  0
  4  5  1  0  0  0  0
  5  3  1  0  0  0  0
  6  1  1  0  0  0  0
  7  1  2  0  0  0  0
  8  3  2  0  0  0  0
  9  4  1  0  0  0  0
 10  4  1  0  0  0  0
 11 13  2  0  0  0  0
 11 12  1  0  0  0  0
 12  6  2  0  0  0  0
 13  7  1  0  0  0  0
 14  7  1  0  0  0  0
 15  6  1  0  0  0  0
 16 10  1  0  0  0  0
 17  9  1  0  0  0  0
 17 18  1  0  0  0  0
 18 16  1  0  0  0  0
M  END
>  <idnumber>
T0400-2928

>  <LogP>
2.204000000000000e+000

>  <rotating_bonds>
3.000000000000000e+000

>  <hb_acceptors>
2.000000000000000e+000

>  <hb_donors>
1.000000000000000e+000

>  <PSA>
3.234000000000000e+001

>  <clusterid>
33

>  <is_centroid>
@

>  <class1>
625

>  <class2>
639

>  <population1>
877209

>  <population2>
59855

>  <population>
54917

>  <cansmi>
O=C(Nc1c(C)cccc1C)CN1CCCCC1

>  <HBA2>
3

>  <HBD>
1

>  <logP>
2.7387

>  <TPSA>
32.34

>  <MW>
246.348

$$$$

 OpenBabel02121609142D

 16 18  0  0  0  0  0  0  0  0999 V2000
    0.1292    0.3708    0.0000 C   0  0  0  0  0  0  0  0  0  0  0  0
   -0.4583    1.1750    0.0000 N   0  0  0  0  0  0  0  0  0  0  0  0
   -0.4583   -0.4417    0.0000 O   0  0  0  0  0  0  0  0  0  0  0  0
    1.1292    0.3708    0.0000 C   0  0  0  0  0  0  0  0  0  0  0  0
   -1.4083    0.8708    0.0000 C   0  0  0  0  0  0  0  0  0  0  0  0
   -1.4083   -0.1292    0.0000 C   0  0  0  0  0  0  0  0  0  0  0  0
    1.6292   -0.5000    0.0000 C   0  0  0  0  0  0  0  0  0  0  0  0
    1.1292   -1.3625    0.0000 O   0  0  0  0  0  0  0  0  0  0  0  0
    1.6292    1.2333    0.0000 C   0  0  0  0  0  0  0  0  0  0  0  0
   -2.2708    1.3708    0.0000 C   0  0  0  0  0  0  0  0  0  0  0  0
   -2.2708   -0.6292    0.0000 C   0  0  0  0  0  0  0  0  0  0  0  0
    2.6292   -0.5000    0.0000 C   0  0  0  0  0  0  0  0  0  0  0  0
    2.6292    1.2333    0.0000 C   0  0  0  0  0  0  0  0  0  0  0  0
   -3.1375   -0.1292    0.0000 C   0  0  0  0  0  0  0  0  0  0  0  0
   -3.1375    0.8708    0.0000 C   0  0  0  0  0  0  0  0  0  0  0  0
    3.1292    0.3708    0.0000 C   0  0  0  0  0  0  0  0  0  0  0  0
  2  1  2  0  0  0  0
  3  1  1  0  0  0  0
  4  1  1  0  0  0  0
  5  2  1  0  0  0  0
  5  6  2  0  0  0  0
  6  3  1  0  0  0  0
  7  4  2  0  0  0  0
  8  7  1  0  0  0  0
  9  4  1  0  0  0  0
 10  5  1  0  0  0  0
 11  6  1  0  0  0  0
 12  7  1  0  0  0  0
 12 16  2  0  0  0  0
 13  9  2  0  0  0  0
 14 11  2  0  0  0  0
 15 10  2  0  0  0  0
 15 14  1  0  0  0  0
 16 13  1  0  0  0  0
M  END
>  <idnumber>
T0400-3131

>  <LogP>
2.537000000000000e+000

>  <rotating_bonds>
1.000000000000000e+000

>  <hb_acceptors>
2.000000000000000e+000

>  <hb_donors>
1.000000000000000e+000

>  <PSA>
4.626000000000001e+001

>  <clusterid>
-12

>  <is_centroid>
@

>  <class1>
752

>  <class2>
625

>  <population1>
4005

>  <population2>
877209

>  <population>
4005

>  <cansmi>
Oc1ccccc1c1nc2c(o1)cccc2

>  <HBA2>
3

>  <HBD>
1

>  <logP>
3.2004

>  <TPSA>
46.26

>  <MW>
211.216

$$$$

 OpenBabel02121609142D

 14 15  0  0  0  0  0  0  0  0999 V2000
   -0.4333   -1.0000    0.0000 N   0  0  0  0  0  0  0  0  0  0  0  0
    0.4292   -0.5000    0.0000 C   0  0  0  0  0  0  0  0  0  0  0  0
    1.2917   -1.0000    0.0000 N   0  0  0  0  0  0  0  0  0  0  0  0
    2.1625   -0.5000    0.0000 C   0  0  0  0  0  0  0  0  0  0  0  0
   -1.3000   -0.5000    0.0000 C   0  0  0  0  0  0  0  0  0  0  0  0
    3.0292   -1.0000    0.0000 O   0  0  0  0  0  0  0  0  0  0  0  0
   -1.3000    0.5000    0.0000 C   0  0  0  0  0  0  0  0  0  0  0  0
   -0.4333    1.0000    0.0000 C   0  0  0  0  0  0  0  0  0  0  0  0
    0.4292    0.5000    0.0000 C   0  0  0  0  0  0  0  0  0  0  0  0
    2.1625    0.5000    0.0000 C   0  0  0  0  0  0  0  0  0  0  0  0
   -2.1708   -1.0000    0.0000 C   0  0  0  0  0  0  0  0  0  0  0  0
   -2.1708    1.0000    0.0000 C   0  0  0  0  0  0  0  0  0  0  0  0
   -3.0333   -0.5000    0.0000 C   0  0  0  0  0  0  0  0  0  0  0  0
   -3.0333    0.5000    0.0000 C   0  0  0  0  0  0  0  0  0  0  0  0
  2  1  2  0  0  0  0
  3  2  1  0  0  0  0
  4  3  1  0  0  0  0
  5  1  1  0  0  0  0
  6  4  2  0  0  0  0
  7  5  2  0  0  0  0
  8  7  1  0  0  0  0
  9  2  1  0  0  0  0
  9  8  2  0  0  0  0
 10  4  1  0  0  0  0
 11  5  1  0  0  0  0
 12  7  1  0  0  0  0
 12 14  2  0  0  0  0
 13 11  2  0  0  0  0
 14 13  1  0  0  0  0
M  END
>  <idnumber>
T0400-3299

>  <LogP>
1.876000000000000e+000

>  <rotating_bonds>
1.000000000000000e+000

>  <hb_acceptors>
2.000000000000000e+000

>  <hb_donors>
1.000000000000000e+000

>  <PSA>
4.199000000000000e+001

>  <clusterid>
-13

>  <is_centroid>
@

>  <class1>
682

>  <population1>
20351

>  <population>
20351

>  <cansmi>
CC(=O)Nc1ccc2c(n1)cccc2

>  <HBA2>
3

>  <HBD>
1

>  <logP>
2.2662

>  <TPSA>
41.99

>  <MW>
186.21

$$$$

 OpenBabel02121609142D

 13 14  0  0  0  0  0  0  0  0999 V2000
    0.1500   -0.1917    0.0000 C   0  0  3  0  0  0  0  0  0  0  0  0
    0.8542   -0.9292    0.0000 C   0  0  0  0  0  0  0  0  0  0  0  0
   -0.6708    0.1875    0.0000 C   0  0  0  0  0  0  0  0  0  0  0  0
   -1.0958    0.9583    0.0000 C   0  0  3  0  0  0  0  0  0  0  0  0
    1.8000   -0.6292    0.0000 O   0  0  0  0  0  0  0  0  0  0  0  0
   -1.4333    1.9208    0.0000 Br  0  0  0  0  0  0  0  0  0  0  0  0
    0.6792   -1.9167    0.0000 O   0  0  0  0  0  0  0  0  0  0  0  0
   -0.5208   -0.9917    0.0000 C   0  0  0  0  0  0  0  0  0  0  0  0
    0.8375    0.5458    0.0000 C   0  0  0  0  0  0  0  0  0  0  0  0
   -0.4000    1.7125    0.0000 C   0  0  0  0  0  0  0  0  0  0  0  0
   -1.8083    0.1833    0.0000 C   0  0  0  0  0  0  0  0  0  0  0  0
    0.5542    1.5125    0.0000 C   0  0  0  0  0  0  0  0  0  0  0  0
   -1.5333   -0.8250    0.0000 C   0  0  0  0  0  0  0  0  0  0  0  0
  2  1  1  0  0  0  0
  3  1  1  0  0  0  0
  4  3  1  0  0  0  0
  4 10  1  0  0  0  0
  4 11  1  0  0  0  0
  5  2  2  0  0  0  0
  6  4  1  0  0  0  0
  7  2  1  0  0  0  0
  8  1  1  0  0  0  0
  9  1  1  0  0  0  0
 10 12  1  0  0  0  0
 11 13  1  0  0  0  0
 12  9  1  0  0  0  0
 13  8  1  0  0  0  0
M  END
>  <idnumber>
T0400-3970

>  <LogP>
2.833000000000000e+000

>  <rotating_bonds>
1.000000000000000e+000

>  <hb_acceptors>
2.000000000000000e+000

>  <hb_donors>
1.000000000000000e+000

>  <PSA>
3.730000000000000e+001

>  <clusterid>
39

>  <is_centroid>
@

>  <class1>
881

>  <population1>
8588

>  <population>
8588

>  <cansmi>
OC(=O)C12CCCC(C2)(CCC1)Br

>  <HBA2>
2

>  <HBD>
1

>  <logP>
2.949

>  <TPSA>
37.3

>  <MW>
247.129

$$$$

 OpenBabel02121609142D

 13 14  0  0  0  0  0  0  0  0999 V2000
    0.1500   -0.1917    0.0000 C   0  0  3  0  0  0  0  0  0  0  0  0
    0.8542   -0.9292    0.0000 C   0  0  0  0  0  0  0  0  0  0  0  0
   -0.6708    0.1875    0.0000 C   0  0  0  0  0  0  0  0  0  0  0  0
   -1.0958    0.9583    0.0000 C   0  0  3  0  0  0  0  0  0  0  0  0
    1.8000   -0.6292    0.0000 O   0  0  0  0  0  0  0  0  0  0  0  0
    0.6792   -1.9167    0.0000 N   0  0  0  0  0  0  0  0  0  0  0  0
   -1.4333    1.9208    0.0000 Br  0  0  0  0  0  0  0  0  0  0  0  0
   -0.5208   -0.9917    0.0000 C   0  0  0  0  0  0  0  0  0  0  0  0
    0.8375    0.5458    0.0000 C   0  0  0  0  0  0  0  0  0  0  0  0
   -0.4000    1.7125    0.0000 C   0  0  0  0  0  0  0  0  0  0  0  0
   -1.8083    0.1833    0.0000 C   0  0  0  0  0  0  0  0  0  0  0  0
    0.5542    1.5125    0.0000 C   0  0  0  0  0  0  0  0  0  0  0  0
   -1.5333   -0.8250    0.0000 C   0  0  0  0  0  0  0  0  0  0  0  0
  2  1  1  0  0  0  0
  3  1  1  0  0  0  0
  4  3  1  0  0  0  0
  4 10  1  0  0  0  0
  4 11  1  0  0  0  0
  5  2  2  0  0  0  0
  6  2  1  0  0  0  0
  7  4  1  0  0  0  0
  8  1  1  0  0  0  0
  9  1  1  0  0  0  0
 10 12  1  0  0  0  0
 11 13  1  0  0  0  0
 12  9  1  0  0  0  0
 13  8  1  0  0  0  0
M  END
>  <idnumber>
T0400-3975

>  <LogP>
1.913000000000000e+000

>  <rotating_bonds>
1.000000000000000e+000

>  <hb_acceptors>
1.000000000000000e+000

>  <hb_donors>
1.000000000000000e+000

>  <PSA>
4.309000000000000e+001

>  <clusterid>
-14

>  <is_centroid>
@

>  <class1>
881

>  <population1>
8588

>  <population>
8588

>  <cansmi>
NC(=O)C12CCCC(C2)(CCC1)Br

>  <HBA2>
2

>  <HBD>
1

>  <logP>
3.05

>  <TPSA>
43.09

>  <MW>
246.144

$$$$

 OpenBabel02121609142D

 17 18  0  0  0  0  0  0  0  0999 V2000
   -0.4333    0.2500    0.0000 C   0  0  0  0  0  0  0  0  0  0  0  0
   -0.4333   -0.7500    0.0000 N   0  0  0  0  0  0  0  0  0  0  0  0
    0.4292   -1.2500    0.0000 C   0  0  0  0  0  0  0  0  0  0  0  0
    0.4292   -2.2500    0.0000 N   0  0  0  0  0  0  0  0  0  0  0  0
   -1.3000    0.7500    0.0000 N   0  0  0  0  0  0  0  0  0  0  0  0
    0.4292    0.7500    0.0000 O   0  0  0  0  0  0  0  0  0  0  0  0
    1.2917   -2.7500    0.0000 C   0  0  0  0  0  0  0  0  0  0  0  0
   -1.3000    1.7500    0.0000 C   0  0  0  0  0  0  0  0  0  0  0  0
    1.2917   -0.7500    0.0000 C   0  0  0  0  0  0  0  0  0  0  0  0
    2.1625   -1.2500    0.0000 C   0  0  0  0  0  0  0  0  0  0  0  0
    2.1625   -2.2500    0.0000 C   0  0  0  0  0  0  0  0  0  0  0  0
    1.2917   -3.7500    0.0000 C   0  0  0  0  0  0  0  0  0  0  0  0
   -2.1708    2.2500    0.0000 C   0  0  0  0  0  0  0  0  0  0  0  0
   -0.4333    2.2500    0.0000 C   0  0  0  0  0  0  0  0  0  0  0  0
   -0.4333    3.2500    0.0000 C   0  0  0  0  0  0  0  0  0  0  0  0
   -2.1708    3.2500    0.0000 C   0  0  0  0  0  0  0  0  0  0  0  0
   -1.3000    3.7500    0.0000 C   0  0  0  0  0  0  0  0  0  0  0  0
  2  1  1  0  0  0  0
  3  2  1  0  0  0  0
  4  3  1  0  0  0  0
  5  1  1  0  0  0  0
  6  1  2  0  0  0  0
  7  4  2  0  0  0  0
  7 11  1  0  0  0  0
  8  5  1  0  0  0  0
  9  3  2  0  0  0  0
 10  9  1  0  0  0  0
 11 10  2  0  0  0  0
 12  7  1  0  0  0  0
 13  8  2  0  0  0  0
 14  8  1  0  0  0  0
 15 14  2  0  0  0  0
 16 13  1  0  0  0  0
 16 17  2  0  0  0  0
 17 15  1  0  0  0  0
M  END
>  <idnumber>
T0401-0359

>  <LogP>
2.984000000000000e+000

>  <rotating_bonds>
2.000000000000000e+000

>  <hb_acceptors>
2.000000000000000e+000

>  <hb_donors>
2.000000000000000e+000

>  <PSA>
5.402000000000000e+001

>  <clusterid>
-20

>  <is_centroid>
@

>  <class1>
625

>  <class2>
632

>  <population1>
877209

>  <population2>
79489

>  <population>
68100

>  <cansmi>
O=C(Nc1cccc(n1)C)Nc1ccccc1

>  <HBA2>
4

>  <HBD>
2

>  <logP>
3.18

>  <TPSA>
54.02

>  <MW>
227.262

$$$$

 OpenBabel02121609142D

 20 22  0  0  0  0  0  0  0  0999 V2000
   -0.6208    0.0000    0.0000 N   0  0  0  0  0  0  0  0  0  0  0  0
   -1.2083    0.8125    0.0000 C   0  0  0  0  0  0  0  0  0  0  0  0
   -1.2083   -0.8042    0.0000 C   0  0  0  0  0  0  0  0  0  0  0  0
   -2.1583   -0.5000    0.0000 C   0  0  0  0  0  0  0  0  0  0  0  0
   -2.1583    0.5000    0.0000 C   0  0  0  0  0  0  0  0  0  0  0  0
    0.3792    0.0000    0.0000 C   0  0  0  0  0  0  0  0  0  0  0  0
    0.8792   -0.8625    0.0000 C   0  0  0  0  0  0  0  0  0  0  0  0
    1.8792   -0.8625    0.0000 N   0  0  0  0  0  0  0  0  0  0  0  0
   -0.8958   -1.7542    0.0000 O   0  0  0  0  0  0  0  0  0  0  0  0
   -0.8958    1.7625    0.0000 O   0  0  0  0  0  0  0  0  0  0  0  0
    0.3792   -1.7292    0.0000 O   0  0  0  0  0  0  0  0  0  0  0  0
   -3.0208    1.0000    0.0000 C   0  0  0  0  0  0  0  0  0  0  0  0
   -3.0208   -1.0000    0.0000 C   0  0  0  0  0  0  0  0  0  0  0  0
    2.3792   -1.7292    0.0000 C   0  0  0  0  0  0  0  0  0  0  0  0
    2.3792    0.0000    0.0000 C   0  0  0  0  0  0  0  0  0  0  0  0
   -3.8958   -0.5000    0.0000 C   0  0  0  0  0  0  0  0  0  0  0  0
   -3.8958    0.5000    0.0000 C   0  0  0  0  0  0  0  0  0  0  0  0
    3.3792    0.0000    0.0000 C   0  0  0  0  0  0  0  0  0  0  0  0
    3.3792   -1.7292    0.0000 C   0  0  0  0  0  0  0  0  0  0  0  0
    3.8792   -0.8625    0.0000 C   0  0  0  0  0  0  0  0  0  0  0  0
  2  1  1  0  0  0  0
  3  1  1  0  0  0  0
  4  3  1  0  0  0  0
  5  2  1  0  0  0  0
  5  4  2  0  0  0  0
  6  1  1  0  0  0  0
  7  6  1  0  0  0  0
  8  7  1  0  0  0  0
  9  3  2  0  0  0  0
 10  2  2  0  0  0  0
 11  7  2  0  0  0  0
 12  5  1  0  0  0  0
 13  4  1  0  0  0  0
 14  8  1  0  0  0  0
 15  8  1  0  0  0  0
 16 13  2  0  0  0  0
 17 12  2  0  0  0  0
 17 16  1  0  0  0  0
 18 15  1  0  0  0  0
 19 14  1  0  0  0  0
 19 20  1  0  0  0  0
 20 18  1  0  0  0  0
M  END
>  <idnumber>
T0500-0062

>  <LogP>
1.760000000000000e+000

>  <rotating_bonds>
2.000000000000000e+000

>  <hb_acceptors>
3.000000000000000e+000

>  <hb_donors>
0.000000000000000e+000

>  <PSA>
5.769000000000001e+001

>  <clusterid>
30

>  <is_centroid>
@

>  <class1>
661

>  <class2>
639

>  <population1>
7628

>  <population2>
59855

>  <population>
234

>  <cansmi>
O=C(N1CCCCC1)CN1C(=O)c2c(C1=O)cccc2

>  <HBA2>
5

>  <HBD>
0

>  <logP>
1.1709

>  <TPSA>
57.69

>  <MW>
272.299

$$$$

 OpenBabel02121609142D

 15 16  0  0  0  0  0  0  0  0999 V2000
   -0.8708    1.0000    0.0000 C   0  0  0  0  0  0  0  0  0  0  0  0
   -0.0083    1.5000    0.0000 N   0  0  0  0  0  0  0  0  0  0  0  0
   -0.8708    0.0000    0.0000 C   0  0  0  0  0  0  0  0  0  0  0  0
   -1.7333    1.5000    0.0000 O   0  0  0  0  0  0  0  0  0  0  0  0
    1.7292    2.5000    0.0000 O   0  0  0  0  0  0  0  0  0  0  0  0
   -0.0083   -0.5000    0.0000 C   0  0  0  0  0  0  0  0  0  0  0  0
   -1.7333   -0.5000    0.0000 C   0  0  0  0  0  0  0  0  0  0  0  0
   -0.0083   -1.5000    0.0000 C   0  0  0  0  0  0  0  0  0  0  0  0
   -1.7333   -1.5000    0.0000 C   0  0  0  0  0  0  0  0  0  0  0  0
   -0.8708   -2.0000    0.0000 C   0  0  0  0  0  0  0  0  0  0  0  0
    0.8625    1.0000    0.0000 C   0  0  0  0  0  0  0  0  0  0  0  0
   -0.0083    2.5000    0.0000 C   0  0  0  0  0  0  0  0  0  0  0  0
    0.8625    3.0000    0.0000 C   0  0  0  0  0  0  0  0  0  0  0  0
    1.7292    1.5000    0.0000 C   0  0  0  0  0  0  0  0  0  0  0  0
   -0.8708   -3.0000    0.0000 C   0  0  0  0  0  0  0  0  0  0  0  0
  2  1  1  0  0  0  0
  3  1  1  0  0  0  0
  4  1  2  0  0  0  0
  5 13  1  0  0  0  0
  6  3  1  0  0  0  0
  7  3  2  0  0  0  0
  8  6  2  0  0  0  0
  9  7  1  0  0  0  0
 10  9  2  0  0  0  0
 10  8  1  0  0  0  0
 11  2  1  0  0  0  0
 12  2  1  0  0  0  0
 13 12  1  0  0  0  0
 14 11  1  0  0  0  0
 14  5  1  0  0  0  0
 15 10  1  0  0  0  0
M  END
>  <idnumber>
T0500-0093

>  <LogP>
1.271000000000000e+000

>  <rotating_bonds>
1.000000000000000e+000

>  <hb_acceptors>
2.000000000000000e+000

>  <hb_donors>
0.000000000000000e+000

>  <PSA>
2.954000000000000e+001

>  <clusterid>
8

>  <is_centroid>
@

>  <class1>
625

>  <class2>
786

>  <population1>
877209

>  <population2>
48067

>  <population>
45066

>  <cansmi>
O=C(c1ccc(cc1)C)N1CCOCC1

>  <HBA2>
3

>  <HBD>
0

>  <logP>
1.4053

>  <TPSA>
29.54

>  <MW>
205.253

$$$$

 OpenBabel02121609142D

 14 15  0  0  0  0  0  0  0  0999 V2000
    0.3542    1.2000    0.0000 N   0  0  0  0  0  0  0  0  0  0  0  0
    0.3542   -1.0417    0.0000 N   0  0  0  0  0  0  0  0  0  0  0  0
    1.3292   -0.8250    0.0000 C   0  0  0  0  0  0  0  0  0  0  0  0
   -0.4333    0.5750    0.0000 C   0  0  0  0  0  0  0  0  0  0  0  0
   -0.4333   -0.4250    0.0000 C   0  0  0  0  0  0  0  0  0  0  0  0
    1.3292    0.9833    0.0000 C   0  0  0  0  0  0  0  0  0  0  0  0
    1.7625    0.0750    0.0000 C   0  0  0  0  0  0  0  0  0  0  0  0
    1.6917   -1.7542    0.0000 C   0  0  0  0  0  0  0  0  0  0  0  0
    2.1542   -1.3875    0.0000 C   0  0  0  0  0  0  0  0  0  0  0  0
   -1.2958    1.0750    0.0000 C   0  0  0  0  0  0  0  0  0  0  0  0
   -1.2958   -0.9250    0.0000 C   0  0  0  0  0  0  0  0  0  0  0  0
    1.9542    1.7583    0.0000 C   0  0  0  0  0  0  0  0  0  0  0  0
   -2.1583   -0.4250    0.0000 C   0  0  0  0  0  0  0  0  0  0  0  0
   -2.1583    0.5750    0.0000 C   0  0  0  0  0  0  0  0  0  0  0  0
  2  5  1  0  0  0  0
  2  3  1  0  0  0  0
  3  7  1  0  0  0  0
  4  1  1  0  0  0  0
  5  4  2  0  0  0  0
  6  1  2  0  0  0  0
  7  6  1  0  0  0  0
  8  3  1  0  0  0  0
  9  3  1  0  0  0  0
 10  4  1  0  0  0  0
 11  5  1  0  0  0  0
 11 13  2  0  0  0  0
 12  6  1  0  0  0  0
 13 14  1  0  0  0  0
 14 10  2  0  0  0  0
M  END
>  <idnumber>
T0500-1315

>  <LogP>
2.750000000000000e+000

>  <rotating_bonds>
0.000000000000000e+000

>  <hb_acceptors>
2.000000000000000e+000

>  <hb_donors>
1.000000000000000e+000

>  <PSA>
2.439000000000000e+001

>  <clusterid>
-25

>  <is_centroid>
@

>  <class1>
885

>  <population1>
46

>  <population>
46

>  <cansmi>
CC1=Nc2ccccc2NC(C1)(C)C

>  <HBA2>
2

>  <HBD>
1

>  <logP>
2.9468

>  <TPSA>
24.39

>  <MW>
188.269

$$$$

 OpenBabel02121609142D

 17 19  0  0  0  0  0  0  0  0999 V2000
    0.3667    0.3083    0.0000 N   0  0  0  0  0  0  0  0  0  0  0  0
   -0.1958    1.1375    0.0000 C   0  0  0  0  0  0  0  0  0  0  0  0
   -0.2500   -0.4875    0.0000 C   0  0  0  0  0  0  0  0  0  0  0  0
   -1.1583    0.8583    0.0000 C   0  0  0  0  0  0  0  0  0  0  0  0
   -1.1583   -0.1167    0.0000 C   0  0  0  0  0  0  0  0  0  0  0  0
    1.3542    0.1250    0.0000 C   0  0  0  0  0  0  0  0  0  0  0  0
    1.8917   -0.7167    0.0000 C   0  0  0  0  0  0  0  0  0  0  0  0
    0.1417    2.0833    0.0000 O   0  0  0  0  0  0  0  0  0  0  0  0
    2.8917   -0.6667    0.0000 O   0  0  0  0  0  0  0  0  0  0  0  0
   -1.9750   -0.6750    0.0000 C   0  0  0  0  0  0  0  0  0  0  0  0
   -0.1458   -1.4875    0.0000 C   0  0  0  0  0  0  0  0  0  0  0  0
   -2.0458    1.3333    0.0000 C   0  0  0  0  0  0  0  0  0  0  0  0
    1.3542   -1.5625    0.0000 O   0  0  0  0  0  0  0  0  0  0  0  0
   -0.9583   -2.0792    0.0000 C   0  0  0  0  0  0  0  0  0  0  0  0
   -2.9000    0.8000    0.0000 C   0  0  0  0  0  0  0  0  0  0  0  0
   -2.8583   -0.2042    0.0000 C   0  0  0  0  0  0  0  0  0  0  0  0
   -1.8708   -1.6667    0.0000 C   0  0  0  0  0  0  0  0  0  0  0  0
  2  1  1  0  0  0  0
  3  1  1  0  0  0  0
  4  2  1  0  0  0  0
  4  5  2  0  0  0  0
  5  3  1  0  0  0  0
  6  1  1  0  0  0  0
  7  6  1  0  0  0  0
  8  2  2  0  0  0  0
  9  7  2  0  0  0  0
 10  5  1  0  0  0  0
 10 17  1  0  0  0  0
 11  3  2  0  0  0  0
 12  4  1  0  0  0  0
 13  7  1  0  0  0  0
 14 11  1  0  0  0  0
 15 12  2  0  0  0  0
 15 16  1  0  0  0  0
 16 10  2  0  0  0  0
 17 14  2  0  0  0  0
M  END
>  <idnumber>
T0500-2005

>  <LogP>
1.400000000000000e+000

>  <rotating_bonds>
2.000000000000000e+000

>  <hb_acceptors>
3.000000000000000e+000

>  <hb_donors>
1.000000000000000e+000

>  <PSA>
5.761000000000000e+001

>  <clusterid>
-27

>  <is_centroid>
@

>  <class1>
805

>  <population1>
335

>  <population>
335

>  <cansmi>
OC(=O)Cn1c(=O)c2c3c1cccc3ccc2

>  <HBA2>
4

>  <HBD>
1

>  <logP>
1.6771

>  <TPSA>
59.3

>  <MW>
227.215

$$$$

 OpenBabel02121609142D

 16 18  0  0  0  0  0  0  0  0999 V2000
    0.1292    0.3833    0.0000 C   0  0  0  0  0  0  0  0  0  0  0  0
   -0.4583    1.1958    0.0000 N   0  0  0  0  0  0  0  0  0  0  0  0
   -0.4583   -0.4250    0.0000 N   0  0  0  0  0  0  0  0  0  0  0  0
   -1.4083   -0.1167    0.0000 C   0  0  0  0  0  0  0  0  0  0  0  0
   -1.4083    0.8833    0.0000 C   0  0  0  0  0  0  0  0  0  0  0  0
    1.1292    0.3833    0.0000 C   0  0  0  0  0  0  0  0  0  0  0  0
    2.6292    1.2500    0.0000 N   0  0  0  0  0  0  0  0  0  0  0  0
   -0.1458   -1.3792    0.0000 C   0  0  0  0  0  0  0  0  0  0  0  0
    1.6292    1.2500    0.0000 C   0  0  0  0  0  0  0  0  0  0  0  0
   -2.2708   -0.6167    0.0000 C   0  0  0  0  0  0  0  0  0  0  0  0
    1.6292   -0.4792    0.0000 C   0  0  0  0  0  0  0  0  0  0  0  0
   -2.2708    1.3833    0.0000 C   0  0  0  0  0  0  0  0  0  0  0  0
    3.1292    0.3833    0.0000 C   0  0  0  0  0  0  0  0  0  0  0  0
    2.6292   -0.4792    0.0000 C   0  0  0  0  0  0  0  0  0  0  0  0
   -3.1375   -0.1167    0.0000 C   0  0  0  0  0  0  0  0  0  0  0  0
   -3.1375    0.8833    0.0000 C   0  0  0  0  0  0  0  0  0  0  0  0
  2  1  2  0  0  0  0
  3  1  1  0  0  0  0
  4  3  1  0  0  0  0
  5  2  1  0  0  0  0
  5  4  2  0  0  0  0
  6  1  1  0  0  0  0
  7  9  1  0  0  0  0
  7 13  2  0  0  0  0
  8  3  1  0  0  0  0
  9  6  2  0  0  0  0
 10  4  1  0  0  0  0
 11  6  1  0  0  0  0
 12  5  1  0  0  0  0
 13 14  1  0  0  0  0
 14 11  2  0  0  0  0
 15 10  2  0  0  0  0
 16 12  2  0  0  0  0
 16 15  1  0  0  0  0
M  END
>  <idnumber>
T0500-2041

>  <LogP>
2.269000000000000e+000

>  <rotating_bonds>
1.000000000000000e+000

>  <hb_acceptors>
2.000000000000000e+000

>  <hb_donors>
0.000000000000000e+000

>  <PSA>
3.071000000000000e+001

>  <clusterid>
-28

>  <is_centroid>
@

>  <class1>
685

>  <class2>
632

>  <population1>
28767

>  <population2>
79489

>  <population>
826

>  <cansmi>
Cn1c(nc2c1cccc2)c1cccnc1

>  <HBA2>
3

>  <HBD>
0

>  <logP>
2.6353

>  <TPSA>
30.71

>  <MW>
209.247

$$$$

 OpenBabel02121609142D

 14 15  0  0  0  0  0  0  0  0999 V2000
    1.4125    0.6958    0.0000 N   0  0  0  0  0  0  0  0  0  0  0  0
    1.4125   -0.9250    0.0000 N   0  0  0  0  0  0  0  0  0  0  0  0
    2.0000   -0.1167    0.0000 C   0  0  0  0  0  0  0  0  0  0  0  0
    0.4625    0.3833    0.0000 C   0  0  0  0  0  0  0  0  0  0  0  0
    0.4625   -0.6167    0.0000 C   0  0  0  0  0  0  0  0  0  0  0  0
   -2.1375    0.8833    0.0000 C   0  0  0  0  0  0  0  0  0  0  0  0
   -0.4083    0.8833    0.0000 C   0  0  0  0  0  0  0  0  0  0  0  0
   -1.2708    0.3833    0.0000 C   0  0  0  0  0  0  0  0  0  0  0  0
   -0.4083   -1.1167    0.0000 C   0  0  0  0  0  0  0  0  0  0  0  0
   -1.2708   -0.6167    0.0000 C   0  0  0  0  0  0  0  0  0  0  0  0
   -3.0083    0.3833    0.0000 O   0  0  0  0  0  0  0  0  0  0  0  0
   -2.1375    1.8833    0.0000 O   0  0  0  0  0  0  0  0  0  0  0  0
    1.7167   -1.8792    0.0000 C   0  0  0  0  0  0  0  0  0  0  0  0
    3.0000   -0.1167    0.0000 C   0  0  0  0  0  0  0  0  0  0  0  0
  2  3  1  0  0  0  0
  3  1  2  0  0  0  0
  4  1  1  0  0  0  0
  5  4  2  0  0  0  0
  5  2  1  0  0  0  0
  6  8  1  0  0  0  0
  7  4  1  0  0  0  0
  8  7  2  0  0  0  0
  9  5  1  0  0  0  0
  9 10  2  0  0  0  0
 10  8  1  0  0  0  0
 11  6  2  0  0  0  0
 12  6  1  0  0  0  0
 13  2  1  0  0  0  0
 14  3  1  0  0  0  0
M  END
>  <idnumber>
T0500-2150

>  <LogP>
1.868000000000000e+000

>  <rotating_bonds>
1.000000000000000e+000

>  <hb_acceptors>
3.000000000000000e+000

>  <hb_donors>
1.000000000000000e+000

>  <PSA>
5.512000000000001e+001

>  <clusterid>
-29

>  <is_centroid>
@

>  <class1>
685

>  <population1>
28767

>  <population>
28767

>  <cansmi>
OC(=O)c1ccc2c(c1)nc(n2C)C

>  <HBA2>
4

>  <HBD>
1

>  <logP>
1.5799

>  <TPSA>
55.12

>  <MW>
190.199

$$$$

 OpenBabel02121609142D

 20 21  0  0  0  0  0  0  0  0999 V2000
    0.4292    0.0000    0.0000 C   0  0  0  0  0  0  0  0  0  0  0  0
    1.2917    0.5000    0.0000 N   0  0  0  0  0  0  0  0  0  0  0  0
    0.4292   -1.0000    0.0000 N   0  0  0  0  0  0  0  0  0  0  0  0
    2.1625    0.0000    0.0000 C   0  0  0  0  0  0  0  0  0  0  0  0
    2.1625   -1.0000    0.0000 C   0  0  0  0  0  0  0  0  0  0  0  0
    1.2917   -1.5000    0.0000 C   0  0  0  0  0  0  0  0  0  0  0  0
    1.2917    1.5000    0.0000 C   0  0  0  0  0  0  0  0  0  0  0  0
   -0.4333    0.5000    0.0000 O   0  0  0  0  0  0  0  0  0  0  0  0
   -0.4333   -1.5000    0.0000 C   0  0  0  0  0  0  0  0  0  0  0  0
    3.0292    0.5000    0.0000 O   0  0  0  0  0  0  0  0  0  0  0  0
   -1.3000   -1.0000    0.0000 C   0  0  0  0  0  0  0  0  0  0  0  0
    1.2917   -2.5000    0.0000 C   0  0  0  0  0  0  0  0  0  0  0  0
    0.2917    1.5000    0.0000 C   0  0  0  0  0  0  0  0  0  0  0  0
    2.2917    1.5000    0.0000 C   0  0  0  0  0  0  0  0  0  0  0  0
    1.2917    2.5000    0.0000 C   0  0  0  0  0  0  0  0  0  0  0  0
   -1.3000    0.0000    0.0000 C   0  0  0  0  0  0  0  0  0  0  0  0
   -2.1708   -1.5000    0.0000 C   0  0  0  0  0  0  0  0  0  0  0  0
   -3.0333   -1.0000    0.0000 C   0  0  0  0  0  0  0  0  0  0  0  0
   -2.1708    0.5000    0.0000 C   0  0  0  0  0  0  0  0  0  0  0  0
   -3.0333    0.0000    0.0000 C   0  0  0  0  0  0  0  0  0  0  0  0
  2  1  1  0  0  0  0
  3  1  1  0  0  0  0
  4  2  1  0  0  0  0
  5  6  2  0  0  0  0
  5  4  1  0  0  0  0
  6  3  1  0  0  0  0
  7  2  1  0  0  0  0
  8  1  2  0  0  0  0
  9  3  1  0  0  0  0
 10  4  2  0  0  0  0
 11  9  1  0  0  0  0
 12  6  1  0  0  0  0
 13  7  1  0  0  0  0
 14  7  1  0  0  0  0
 15  7  1  0  0  0  0
 16 11  1  0  0  0  0
 17 11  2  0  0  0  0
 18 17  1  0  0  0  0
 19 16  2  0  0  0  0
 19 20  1  0  0  0  0
 20 18  2  0  0  0  0
M  END
>  <idnumber>
T0500-2178

>  <LogP>
2.960000000000000e+000

>  <rotating_bonds>
3.000000000000000e+000

>  <hb_acceptors>
2.000000000000000e+000

>  <hb_donors>
0.000000000000000e+000

>  <PSA>
4.062000000000001e+001

>  <clusterid>
46

>  <is_centroid>
@

>  <class1>
625

>  <class2>
886

>  <population1>
877209

>  <population2>
22353

>  <population>
18025

>  <cansmi>
Cc1cc(=O)n(c(=O)n1Cc1ccccc1)C(C)(C)C

>  <HBA2>
4

>  <HBD>
0

>  <logP>
2.1217

>  <TPSA>
44

>  <MW>
272.342

$$$$

 OpenBabel02121609142D

 16 18  0  0  0  0  0  0  0  0999 V2000
    0.9167   -1.3625    0.0000 N   0  0  0  0  0  0  0  0  0  0  0  0
    0.4167    0.1750    0.0000 C   0  0  3  0  0  0  0  0  0  0  0  0
    1.2250   -0.4125    0.0000 C   0  0  0  0  0  0  0  0  0  0  0  0
   -0.0833   -1.3625    0.0000 C   0  0  0  0  0  0  0  0  0  0  0  0
   -0.3958   -0.4125    0.0000 N   0  0  0  0  0  0  0  0  0  0  0  0
   -0.4500    0.6750    0.0000 C   0  0  0  0  0  0  0  0  0  0  0  0
    2.1750   -0.1042    0.0000 O   0  0  0  0  0  0  0  0  0  0  0  0
   -0.6708   -2.1667    0.0000 O   0  0  0  0  0  0  0  0  0  0  0  0
   -0.4500    1.6750    0.0000 C   0  0  0  0  0  0  0  0  0  0  0  0
    1.2792    0.6750    0.0000 C   0  0  0  0  0  0  0  0  0  0  0  0
   -1.3208    0.1750    0.0000 C   0  0  0  0  0  0  0  0  0  0  0  0
    1.2792    1.6750    0.0000 C   0  0  0  0  0  0  0  0  0  0  0  0
    0.4167    2.1750    0.0000 C   0  0  0  0  0  0  0  0  0  0  0  0
   -1.3208    2.1750    0.0000 C   0  0  0  0  0  0  0  0  0  0  0  0
   -2.1833    0.6750    0.0000 C   0  0  0  0  0  0  0  0  0  0  0  0
   -2.1833    1.6750    0.0000 C   0  0  0  0  0  0  0  0  0  0  0  0
  2  3  1  0  0  0  0
  2  5  1  0  0  0  0
  3  1  1  0  0  0  0
  4  1  1  0  0  0  0
  5  4  1  0  0  0  0
  6  2  1  0  0  0  0
  7  3  2  0  0  0  0
  8  4  2  0  0  0  0
  9  6  2  0  0  0  0
  9 13  1  0  0  0  0
 10  2  1  0  0  0  0
 11  6  1  0  0  0  0
 12 10  1  0  0  0  0
 13 12  1  0  0  0  0
 14  9  1  0  0  0  0
 14 16  2  0  0  0  0
 15 11  2  0  0  0  0
 16 15  1  0  0  0  0
M  END
>  <idnumber>
T0500-2308

>  <LogP>
1.470000000000000e+000

>  <rotating_bonds>
0.000000000000000e+000

>  <hb_acceptors>
2.000000000000000e+000

>  <hb_donors>
2.000000000000000e+000

>  <PSA>
5.820000000000000e+001

>  <clusterid>
48

>  <is_centroid>
@

>  <class1>
887

>  <population1>
624

>  <population>
624

>  <cansmi>
O=C1NC(=O)C2(N1)CCCc1c2cccc1

>  <HBA2>
4

>  <HBD>
2

>  <logP>
1.7152

>  <TPSA>
58.2

>  <MW>
216.236

$$$$

 OpenBabel02121609142D

 13 14  0  0  0  0  0  0  0  0999 V2000
    0.3792   -0.3625    0.0000 C   0  0  0  0  0  0  0  0  0  0  0  0
   -0.2083   -1.1750    0.0000 S   0  0  0  0  0  0  0  0  0  0  0  0
   -1.1583   -0.8625    0.0000 C   0  0  0  0  0  0  0  0  0  0  0  0
   -1.1583    0.1375    0.0000 C   0  0  0  0  0  0  0  0  0  0  0  0
   -0.2083    0.4458    0.0000 C   0  0  0  0  0  0  0  0  0  0  0  0
    1.3792   -0.3625    0.0000 N   0  0  0  0  0  0  0  0  0  0  0  0
    1.8792    0.5000    0.0000 C   0  0  0  0  0  0  0  0  0  0  0  0
    2.8792    0.5000    0.0000 O   0  0  0  0  0  0  0  0  0  0  0  0
   -2.0208   -1.3625    0.0000 C   0  0  0  0  0  0  0  0  0  0  0  0
   -2.0208    0.6375    0.0000 C   0  0  0  0  0  0  0  0  0  0  0  0
    1.3792    1.3708    0.0000 C   0  0  0  0  0  0  0  0  0  0  0  0
   -2.8875   -0.8625    0.0000 C   0  0  0  0  0  0  0  0  0  0  0  0
   -2.8875    0.1375    0.0000 C   0  0  0  0  0  0  0  0  0  0  0  0
  2  1  1  0  0  0  0
  3  2  1  0  0  0  0
  4  5  1  0  0  0  0
  4  3  2  0  0  0  0
  5  1  2  0  0  0  0
  6  1  1  0  0  0  0
  7  6  1  0  0  0  0
  8  7  2  0  0  0  0
  9  3  1  0  0  0  0
 10  4  1  0  0  0  0
 11  7  1  0  0  0  0
 12  9  1  0  0  0  0
 13 10  1  0  0  0  0
 13 12  1  0  0  0  0
M  END
>  <idnumber>
T0500-2874

>  <LogP>
2.563000000000000e+000

>  <rotating_bonds>
1.000000000000000e+000

>  <hb_acceptors>
2.000000000000000e+000

>  <hb_donors>
1.000000000000000e+000

>  <PSA>
5.734000000000000e+001

>  <clusterid>
-30

>  <is_centroid>
@

>  <class1>
859

>  <population1>
9817

>  <population>
9817

>  <cansmi>
CC(=O)Nc1cc2c(s1)CCCC2

>  <HBA2>
3

>  <HBD>
1

>  <logP>
2.6583

>  <TPSA>
57.34

>  <MW>
195.281

$$$$

 OpenBabel02121609142D

 16 18  0  0  0  0  0  0  0  0999 V2000
    0.3625    0.0000    0.0000 C   0  0  0  0  0  0  0  0  0  0  0  0
    1.3625    0.0000    0.0000 C   0  0  0  0  0  0  0  0  0  0  0  0
   -0.2250    0.8125    0.0000 N   0  0  0  0  0  0  0  0  0  0  0  0
   -0.2250   -0.8042    0.0000 N   0  0  0  0  0  0  0  0  0  0  0  0
    2.9042   -0.5000    0.0000 N   0  0  0  0  0  0  0  0  0  0  0  0
    2.9042    0.5000    0.0000 N   0  0  0  0  0  0  0  0  0  0  0  0
    1.9500    0.8125    0.0000 C   0  0  0  0  0  0  0  0  0  0  0  0
    1.9500   -0.8042    0.0000 C   0  0  0  0  0  0  0  0  0  0  0  0
   -1.1750    0.5000    0.0000 C   0  0  0  0  0  0  0  0  0  0  0  0
   -1.1750   -0.5000    0.0000 C   0  0  0  0  0  0  0  0  0  0  0  0
    1.6417    1.7625    0.0000 C   0  0  0  0  0  0  0  0  0  0  0  0
    1.6417   -1.7542    0.0000 C   0  0  0  0  0  0  0  0  0  0  0  0
   -2.0458    1.0000    0.0000 C   0  0  0  0  0  0  0  0  0  0  0  0
   -2.0458   -1.0000    0.0000 C   0  0  0  0  0  0  0  0  0  0  0  0
   -2.9083   -0.5000    0.0000 C   0  0  0  0  0  0  0  0  0  0  0  0
   -2.9083    0.5000    0.0000 C   0  0  0  0  0  0  0  0  0  0  0  0
  2  1  1  0  0  0  0
  3  1  2  0  0  0  0
  4  1  1  0  0  0  0
  5  8  2  0  0  0  0
  5  6  1  0  0  0  0
  6  7  1  0  0  0  0
  7  2  2  0  0  0  0
  8  2  1  0  0  0  0
  9  3  1  0  0  0  0
  9 10  2  0  0  0  0
 10  4  1  0  0  0  0
 11  7  1  0  0  0  0
 12  8  1  0  0  0  0
 13  9  1  0  0  0  0
 14 10  1  0  0  0  0
 15 14  2  0  0  0  0
 16 13  2  0  0  0  0
 16 15  1  0  0  0  0
M  END
>  <idnumber>
T0500-2936

>  <LogP>
1.907000000000000e+000

>  <rotating_bonds>
1.000000000000000e+000

>  <hb_acceptors>
2.000000000000000e+000

>  <hb_donors>
2.000000000000000e+000

>  <PSA>
5.736000000000001e+001

>  <clusterid>
53

>  <is_centroid>
@

>  <class1>
631

>  <class2>
685

>  <population1>
41612

>  <population2>
28767

>  <population>
756

>  <cansmi>
Cc1n[nH]c(c1c1nc2c([nH]1)cccc2)C

>  <HBA2>
2

>  <HBD>
2

>  <logP>
2.5698

>  <TPSA>
57.36

>  <MW>
212.25

$$$$

 OpenBabel02121609142D

 16 18  0  0  0  0  0  0  0  0999 V2000
    1.1042   -0.4542    0.0000 C   0  0  0  0  0  0  0  0  0  0  0  0
    0.1542   -0.1417    0.0000 O   0  0  0  0  0  0  0  0  0  0  0  0
    1.6917    0.3583    0.0000 N   0  0  0  0  0  0  0  0  0  0  0  0
    1.1042    1.1708    0.0000 N   0  0  0  0  0  0  0  0  0  0  0  0
    0.1542    0.8583    0.0000 C   0  0  0  0  0  0  0  0  0  0  0  0
    1.4167   -1.4042    0.0000 C   0  0  0  0  0  0  0  0  0  0  0  0
    2.3667   -1.7125    0.0000 O   0  0  0  0  0  0  0  0  0  0  0  0
   -0.6500    1.4458    0.0000 C   0  0  0  0  0  0  0  0  0  0  0  0
    0.8292   -2.2125    0.0000 C   0  0  0  0  0  0  0  0  0  0  0  0
    2.3667   -2.7125    0.0000 C   0  0  0  0  0  0  0  0  0  0  0  0
    1.4167   -3.0167    0.0000 C   0  0  0  0  0  0  0  0  0  0  0  0
   -0.5458    2.4375    0.0000 C   0  0  0  0  0  0  0  0  0  0  0  0
   -1.5625    1.0375    0.0000 C   0  0  0  0  0  0  0  0  0  0  0  0
   -2.3750    1.6250    0.0000 C   0  0  0  0  0  0  0  0  0  0  0  0
   -1.3583    3.0250    0.0000 C   0  0  0  0  0  0  0  0  0  0  0  0
   -2.2708    2.6208    0.0000 C   0  0  0  0  0  0  0  0  0  0  0  0
  2  1  1  0  0  0  0
  3  1  2  0  0  0  0
  4  3  1  0  0  0  0
  4  5  2  0  0  0  0
  5  2  1  0  0  0  0
  6  1  1  0  0  0  0
  7  6  1  0  0  0  0
  8  5  1  0  0  0  0
  9  6  2  0  0  0  0
 10  7  1  0  0  0  0
 11  9  1  0  0  0  0
 11 10  2  0  0  0  0
 12  8  1  0  0  0  0
 13  8  2  0  0  0  0
 14 13  1  0  0  0  0
 15 12  2  0  0  0  0
 15 16  1  0  0  0  0
 16 14  2  0  0  0  0
M  END
>  <idnumber>
T0500-3238

>  <LogP>
2.026000000000000e+000

>  <rotating_bonds>
2.000000000000000e+000

>  <hb_acceptors>
2.000000000000000e+000

>  <hb_donors>
0.000000000000000e+000

>  <PSA>
5.206000000000000e+001

>  <clusterid>
-31

>  <is_centroid>
@

>  <class1>
704

>  <class2>
689

>  <class3>
625

>  <population1>
51112

>  <population2>
17264

>  <population3>
877209

>  <population>
1384

>  <cansmi>
c1ccc(cc1)c1nnc(o1)c1ccco1

>  <HBA2>
4

>  <HBD>
0

>  <logP>
2.9966

>  <TPSA>
52.06

>  <MW>
212.204

$$$$

 OpenBabel02121609142D

 18 20  0  0  0  0  0  0  0  0999 V2000
   -1.2083   -1.1750    0.0000 N   0  0  0  0  0  0  0  0  0  0  0  0
   -2.1583    0.1375    0.0000 N   0  0  0  0  0  0  0  0  0  0  0  0
   -2.1583   -0.8625    0.0000 C   0  0  0  0  0  0  0  0  0  0  0  0
   -0.6208   -0.3625    0.0000 C   0  0  0  0  0  0  0  0  0  0  0  0
   -1.2083    0.4458    0.0000 C   0  0  0  0  0  0  0  0  0  0  0  0
   -3.0208    0.6375    0.0000 C   0  0  0  0  0  0  0  0  0  0  0  0
   -3.0208   -1.3625    0.0000 C   0  0  0  0  0  0  0  0  0  0  0  0
    0.8792    0.5000    0.0000 N   0  0  0  0  0  0  0  0  0  0  0  0
   -3.8958    0.1375    0.0000 C   0  0  0  0  0  0  0  0  0  0  0  0
   -3.8958   -0.8625    0.0000 C   0  0  0  0  0  0  0  0  0  0  0  0
    0.3792   -0.3625    0.0000 C   0  0  0  0  0  0  0  0  0  0  0  0
    1.8792    0.5000    0.0000 C   0  0  0  0  0  0  0  0  0  0  0  0
    2.3792   -0.3625    0.0000 C   0  0  0  0  0  0  0  0  0  0  0  0
    3.3792   -0.3625    0.0000 C   0  0  0  0  0  0  0  0  0  0  0  0
    3.3792    1.3708    0.0000 C   0  0  0  0  0  0  0  0  0  0  0  0
    2.3792    1.3708    0.0000 C   0  0  0  0  0  0  0  0  0  0  0  0
    3.8792    0.5000    0.0000 C   0  0  0  0  0  0  0  0  0  0  0  0
    3.8792   -1.2292    0.0000 C   0  0  0  0  0  0  0  0  0  0  0  0
  2  3  1  0  0  0  0
  3  1  2  0  0  0  0
  4  1  1  0  0  0  0
  5  4  2  0  0  0  0
  5  2  1  0  0  0  0
  6  2  1  0  0  0  0
  6  9  2  0  0  0  0
  7  3  1  0  0  0  0
  8 11  1  0  0  0  0
  9 10  1  0  0  0  0
 10  7  2  0  0  0  0
 11  4  1  0  0  0  0
 12  8  1  0  0  0  0
 13 12  1  0  0  0  0
 14 13  2  0  0  0  0
 14 17  1  0  0  0  0
 15 16  1  0  0  0  0
 16 12  2  0  0  0  0
 17 15  2  0  0  0  0
 18 14  1  0  0  0  0
M  END
>  <idnumber>
T0500-4220

>  <LogP>
2.652000000000000e+000

>  <rotating_bonds>
3.000000000000000e+000

>  <hb_acceptors>
3.000000000000000e+000

>  <hb_donors>
1.000000000000000e+000

>  <PSA>
2.933000000000000e+001

>  <clusterid>
57

>  <is_centroid>
@

>  <class1>
625

>  <class2>
660

>  <population1>
877209

>  <population2>
3949

>  <population>
3187

>  <cansmi>
Cc1cccc(c1)NCc1nc2n(c1)cccc2

>  <HBA2>
3

>  <HBD>
1

>  <logP>
3.3278

>  <TPSA>
29.33

>  <MW>
237.3

$$$$

 OpenBabel02121609142D

 19 22  0  0  0  0  0  0  0  0999 V2000
   -0.7833   -0.1792    0.0000 C   0  0  3  0  0  0  0  0  0  0  0  0
   -0.5958    0.8958    0.0000 C   0  0  0  0  0  0  0  0  0  0  0  0
   -0.5708   -2.3917    0.0000 C   0  0  3  0  0  0  0  0  0  0  0  0
    0.3375    1.4250    0.0000 N   0  0  0  0  0  0  0  0  0  0  0  0
   -0.6375   -1.4667    0.0000 C   0  0  0  0  0  0  0  0  0  0  0  0
    0.2542   -0.1500    0.0000 C   0  0  0  0  0  0  0  0  0  0  0  0
   -1.7500   -0.2167    0.0000 C   0  0  0  0  0  0  0  0  0  0  0  0
    0.4000   -1.0500    0.0000 C   0  0  3  0  0  0  0  0  0  0  0  0
   -1.5750   -1.0917    0.0000 C   0  0  3  0  0  0  0  0  0  0  0  0
   -1.4833    1.4083    0.0000 O   0  0  0  0  0  0  0  0  0  0  0  0
   -1.4458   -2.0500    0.0000 C   0  0  0  0  0  0  0  0  0  0  0  0
    0.3292   -1.9750    0.0000 C   0  0  0  0  0  0  0  0  0  0  0  0
   -0.5333   -0.6542    0.0000 C   0  0  0  0  0  0  0  0  0  0  0  0
   -0.0958   -3.1917    0.0000 Cl  0  0  0  0  0  0  0  0  0  0  0  0
    1.1792    3.2083    0.0000 O   0  0  0  0  0  0  0  0  0  0  0  0
    1.3375    1.5208    0.0000 C   0  0  0  0  0  0  0  0  0  0  0  0
   -0.2083    2.2333    0.0000 C   0  0  0  0  0  0  0  0  0  0  0  0
    0.2042    3.1125    0.0000 C   0  0  0  0  0  0  0  0  0  0  0  0
    1.7417    2.4083    0.0000 C   0  0  0  0  0  0  0  0  0  0  0  0
  2  1  1  0  0  0  0
  3  5  1  0  0  0  0
  3 11  1  0  0  0  0
  3 12  1  0  0  0  0
  4  2  1  0  0  0  0
  5  1  1  0  0  0  0
  6  1  1  0  0  0  0
  7  1  1  0  0  0  0
  8  6  1  0  0  0  0
  8 13  1  0  0  0  0
  9  7  1  0  0  0  0
 10  2  2  0  0  0  0
 11  9  1  0  0  0  0
 12  8  1  0  0  0  0
 13  9  1  0  0  0  0
 14  3  1  0  0  0  0
 15 18  1  0  0  0  0
 16  4  1  0  0  0  0
 17  4  1  0  0  0  0
 18 17  1  0  0  0  0
 19 16  1  0  0  0  0
 19 15  1  0  0  0  0
M  END
>  <idnumber>
T0500-5650

>  <LogP>
1.829000000000000e+000

>  <rotating_bonds>
1.000000000000000e+000

>  <hb_acceptors>
3.000000000000000e+000

>  <hb_donors>
0.000000000000000e+000

>  <PSA>
2.954000000000000e+001

>  <clusterid>
59

>  <is_centroid>
@

>  <class1>
809

>  <class2>
786

>  <population1>
8162

>  <population2>
48067

>  <population>
234

>  <cansmi>
O=C(C12CC3CC(C1)CC(C2)(C3)Cl)N1CCOCC1

>  <HBA2>
3

>  <HBD>
0

>  <logP>
2.3609

>  <TPSA>
29.54

>  <MW>
283.794

$$$$

 OpenBabel02121609142D

 21 22  0  0  0  0  0  0  0  0999 V2000
    0.1042   -0.5875    0.0000 C   0  0  0  0  0  0  0  0  0  0  0  0
    0.1042    0.4125    0.0000 C   0  0  0  0  0  0  0  0  0  0  0  0
   -1.4333   -0.0875    0.0000 N   0  0  0  0  0  0  0  0  0  0  0  0
   -0.8458    0.7208    0.0000 N   0  0  0  0  0  0  0  0  0  0  0  0
   -0.8458   -0.9000    0.0000 C   0  0  0  0  0  0  0  0  0  0  0  0
    0.9167   -1.1792    0.0000 N   0  0  0  0  0  0  0  0  0  0  0  0
    0.8167   -2.1667    0.0000 C   0  0  0  0  0  0  0  0  0  0  0  0
    0.9167    1.0000    0.0000 O   0  0  0  0  0  0  0  0  0  0  0  0
    1.6250   -2.7542    0.0000 C   0  0  0  0  0  0  0  0  0  0  0  0
   -1.1500    1.6708    0.0000 C   0  0  0  0  0  0  0  0  0  0  0  0
   -0.1000   -2.5792    0.0000 O   0  0  0  0  0  0  0  0  0  0  0  0
   -2.4333   -0.0875    0.0000 C   0  0  0  0  0  0  0  0  0  0  0  0
   -1.1500   -1.8500    0.0000 C   0  0  0  0  0  0  0  0  0  0  0  0
    2.2125   -1.9500    0.0000 C   0  0  0  0  0  0  0  0  0  0  0  0
    1.0375   -3.5667    0.0000 C   0  0  0  0  0  0  0  0  0  0  0  0
    2.4292   -3.3417    0.0000 C   0  0  0  0  0  0  0  0  0  0  0  0
   -0.4833    2.4125    0.0000 C   0  0  0  0  0  0  0  0  0  0  0  0
   -2.1333    1.8833    0.0000 C   0  0  0  0  0  0  0  0  0  0  0  0
   -2.4375    2.8333    0.0000 C   0  0  0  0  0  0  0  0  0  0  0  0
   -0.7875    3.3708    0.0000 C   0  0  0  0  0  0  0  0  0  0  0  0
   -1.7708    3.5708    0.0000 C   0  0  0  0  0  0  0  0  0  0  0  0
  2  1  1  0  0  0  0
  3  5  1  0  0  0  0
  4  2  1  0  0  0  0
  4  3  1  0  0  0  0
  5  1  2  0  0  0  0
  6  1  1  0  0  0  0
  7  6  1  0  0  0  0
  8  2  2  0  0  0  0
  9  7  1  0  0  0  0
 10  4  1  0  0  0  0
 11  7  2  0  0  0  0
 12  3  1  0  0  0  0
 13  5  1  0  0  0  0
 14  9  1  0  0  0  0
 15  9  1  0  0  0  0
 16  9  1  0  0  0  0
 17 10  1  0  0  0  0
 18 10  2  0  0  0  0
 19 18  1  0  0  0  0
 20 17  2  0  0  0  0
 20 21  1  0  0  0  0
 21 19  2  0  0  0  0
M  END
>  <idnumber>
T0500-5788

>  <LogP>
1.160000000000000e-001

>  <rotating_bonds>
3.000000000000000e+000

>  <hb_acceptors>
3.000000000000000e+000

>  <hb_donors>
1.000000000000000e+000

>  <PSA>
5.265000000000000e+001

>  <clusterid>
60

>  <is_centroid>
@

>  <class1>
813

>  <class2>
625

>  <population1>
2955

>  <population2>
877209

>  <population>
2946

>  <cansmi>
O=C(C(C)(C)C)Nc1c(C)n(n(c1=O)c1ccccc1)C

>  <HBA2>
5

>  <HBD>
1

>  <logP>
2.542

>  <TPSA>
56.03

>  <MW>
287.357

$$$$

 OpenBabel02121609142D

 17 19  0  0  0  0  0  0  0  0999 V2000
    1.2917    0.2500    0.0000 C   0  0  0  0  0  0  0  0  0  0  0  0
    0.4292   -0.2500    0.0000 C   0  0  0  0  0  0  0  0  0  0  0  0
    1.2917    1.2500    0.0000 C   0  0  0  0  0  0  0  0  0  0  0  0
   -0.4333    0.2500    0.0000 C   0  0  0  0  0  0  0  0  0  0  0  0
    0.4292    1.7500    0.0000 O   0  0  0  0  0  0  0  0  0  0  0  0
   -0.4333    1.2500    0.0000 C   0  0  0  0  0  0  0  0  0  0  0  0
    2.1625   -0.2500    0.0000 C   0  0  0  0  0  0  0  0  0  0  0  0
   -1.3000   -0.2500    0.0000 C   0  0  0  0  0  0  0  0  0  0  0  0
    3.0292   -0.7417    0.0000 N   0  0  0  0  0  0  0  0  0  0  0  0
    2.1625    1.7500    0.0000 O   0  0  0  0  0  0  0  0  0  0  0  0
   -1.3000    1.7500    0.0000 C   0  0  0  0  0  0  0  0  0  0  0  0
   -2.1708    0.2500    0.0000 C   0  0  0  0  0  0  0  0  0  0  0  0
   -2.1708    1.2500    0.0000 C   0  0  0  0  0  0  0  0  0  0  0  0
   -1.3000   -1.2500    0.0000 C   0  0  0  0  0  0  0  0  0  0  0  0
   -3.0333   -0.2500    0.0000 C   0  0  0  0  0  0  0  0  0  0  0  0
   -2.1708   -1.7500    0.0000 C   0  0  0  0  0  0  0  0  0  0  0  0
   -3.0333   -1.2500    0.0000 C   0  0  0  0  0  0  0  0  0  0  0  0
  2  1  2  0  0  0  0
  3  1  1  0  0  0  0
  4  2  1  0  0  0  0
  5  3  1  0  0  0  0
  6  5  1  0  0  0  0
  6  4  2  0  0  0  0
  7  1  1  0  0  0  0
  8  4  1  0  0  0  0
  9  7  3  0  0  0  0
 10  3  2  0  0  0  0
 11  6  1  0  0  0  0
 12  8  2  0  0  0  0
 13 11  2  0  0  0  0
 13 12  1  0  0  0  0
 14  8  1  0  0  0  0
 15 12  1  0  0  0  0
 15 17  2  0  0  0  0
 16 14  2  0  0  0  0
 17 16  1  0  0  0  0
M  END
>  <idnumber>
T0500-6902

>  <LogP>
2.019000000000000e+000

>  <rotating_bonds>
1.000000000000000e+000

>  <hb_acceptors>
2.000000000000000e+000

>  <hb_donors>
0.000000000000000e+000

>  <PSA>
5.009000000000000e+001

>  <clusterid>
-40

>  <is_centroid>
@

>  <class1>
896

>  <population1>
378

>  <population>
378

>  <cansmi>
N#Cc1cc2c(oc1=O)ccc1c2cccc1

>  <HBA2>
3

>  <HBD>
0

>  <logP>
2.81788

>  <TPSA>
54

>  <MW>
221.211

$$$$

 OpenBabel02121609142D

 11 11  0  0  0  0  0  0  0  0999 V2000
    0.0000   -0.2500    0.0000 C   0  0  0  0  0  0  0  0  0  0  0  0
   -0.8708    0.2500    0.0000 N   0  0  0  0  0  0  0  0  0  0  0  0
    0.8625    0.2500    0.0000 N   0  0  0  0  0  0  0  0  0  0  0  0
   -0.8708    1.2500    0.0000 C   0  0  0  0  0  0  0  0  0  0  0  0
    0.0000    1.7500    0.0000 C   0  0  0  0  0  0  0  0  0  0  0  0
    0.8625    1.2500    0.0000 C   0  0  0  0  0  0  0  0  0  0  0  0
   -1.7333    1.7500    0.0000 O   0  0  0  0  0  0  0  0  0  0  0  0
    0.0000   -1.2500    0.0000 C   0  0  0  0  0  0  0  0  0  0  0  0
    1.7292    1.7500    0.0000 C   0  0  0  0  0  0  0  0  0  0  0  0
   -0.8708   -1.7500    0.0000 C   0  0  0  0  0  0  0  0  0  0  0  0
    0.8625   -1.7500    0.0000 C   0  0  0  0  0  0  0  0  0  0  0  0
  2  1  1  0  0  0  0
  3  1  2  0  0  0  0
  4  2  1  0  0  0  0
  4  5  1  0  0  0  0
  5  6  2  0  0  0  0
  6  3  1  0  0  0  0
  7  4  2  0  0  0  0
  8  1  1  0  0  0  0
  9  6  1  0  0  0  0
 10  8  1  0  0  0  0
 11  8  1  0  0  0  0
M  END
>  <idnumber>
T0500-7057

>  <LogP>
2.235000000000000e+000

>  <rotating_bonds>
1.000000000000000e+000

>  <hb_acceptors>
2.000000000000000e+000

>  <hb_donors>
1.000000000000000e+000

>  <PSA>
4.146000000000000e+001

>  <clusterid>
-42

>  <is_centroid>
@

>  <class1>
898

>  <population1>
30990

>  <population>
30990

>  <cansmi>
Cc1cc(=O)[nH]c(n1)C(C)C

>  <HBA2>
2

>  <HBD>
1

>  <logP>
1.2017

>  <TPSA>
45.75

>  <MW>
152.194

$$$$

 OpenBabel02121609142D

 18 20  0  0  0  0  0  0  0  0999 V2000
   -0.9750   -0.2167    0.0000 N   0  0  0  0  0  0  0  0  0  0  0  0
   -1.5375   -1.0417    0.0000 C   0  0  0  0  0  0  0  0  0  0  0  0
   -0.0083   -0.4917    0.0000 C   0  0  0  0  0  0  0  0  0  0  0  0
   -0.0083   -1.4750    0.0000 C   0  0  0  0  0  0  0  0  0  0  0  0
   -0.9208   -1.8417    0.0000 C   0  0  0  0  0  0  0  0  0  0  0  0
    0.8042   -2.0250    0.0000 C   0  0  0  0  0  0  0  0  0  0  0  0
    0.8792   -0.0250    0.0000 C   0  0  0  0  0  0  0  0  0  0  0  0
   -1.0833    3.4375    0.0000 N   0  0  0  0  0  0  0  0  0  0  0  0
   -0.8083    2.4750    0.0000 C   0  0  0  0  0  0  0  0  0  0  0  0
   -2.5250   -0.9125    0.0000 O   0  0  0  0  0  0  0  0  0  0  0  0
    1.6917   -1.5542    0.0000 C   0  0  0  0  0  0  0  0  0  0  0  0
    1.7292   -0.5542    0.0000 C   0  0  0  0  0  0  0  0  0  0  0  0
   -1.2208    0.7583    0.0000 C   0  0  0  0  0  0  0  0  0  0  0  0
   -0.5583    1.5083    0.0000 C   0  0  0  0  0  0  0  0  0  0  0  0
   -1.0333   -2.8417    0.0000 C   0  0  0  0  0  0  0  0  0  0  0  0
    2.5167   -2.1167    0.0000 Cl  0  0  0  0  0  0  0  0  0  0  0  0
    0.7000   -3.0167    0.0000 C   0  0  0  0  0  0  0  0  0  0  0  0
   -0.2208   -3.4292    0.0000 C   0  0  0  0  0  0  0  0  0  0  0  0
  2  1  1  0  0  0  0
  3  1  1  0  0  0  0
  4  3  2  0  0  0  0
  5  2  1  0  0  0  0
  5  4  1  0  0  0  0
  6  4  1  0  0  0  0
  6 11  2  0  0  0  0
  7  3  1  0  0  0  0
  8  9  3  0  0  0  0
  9 14  1  0  0  0  0
 10  2  2  0  0  0  0
 11 12  1  0  0  0  0
 12  7  2  0  0  0  0
 13  1  1  0  0  0  0
 14 13  1  0  0  0  0
 15  5  2  0  0  0  0
 16 11  1  0  0  0  0
 17  6  1  0  0  0  0
 18 15  1  0  0  0  0
 18 17  2  0  0  0  0
M  END
>  <idnumber>
T0500-7148

>  <LogP>
2.192000000000000e+000

>  <rotating_bonds>
3.000000000000000e+000

>  <hb_acceptors>
3.000000000000000e+000

>  <hb_donors>
0.000000000000000e+000

>  <PSA>
4.410000000000000e+001

>  <clusterid>
-43

>  <is_centroid>
@

>  <class1>
805

>  <population1>
335

>  <population>
335

>  <cansmi>
N#CCCn1c(=O)c2c3c1ccc(c3ccc2)Cl

>  <HBA2>
3

>  <HBD>
0

>  <logP>
3.15958

>  <TPSA>
45.79

>  <MW>
256.687

$$$$

 OpenBabel02121609142D

 16 17  0  0  0  0  0  0  0  0999 V2000
    0.8292    0.1458    0.0000 C   0  0  0  0  0  0  0  0  0  0  0  0
    1.1417    1.0958    0.0000 C   0  0  0  0  0  0  0  0  0  0  0  0
    0.5250   -0.8042    0.0000 C   0  0  0  0  0  0  0  0  0  0  0  0
    1.1417    2.7125    0.0000 N   0  0  0  0  0  0  0  0  0  0  0  0
    0.5542    1.9083    0.0000 N   0  0  0  0  0  0  0  0  0  0  0  0
    2.0917    1.4083    0.0000 C   0  0  0  0  0  0  0  0  0  0  0  0
   -0.4500   -1.0167    0.0000 C   0  0  0  0  0  0  0  0  0  0  0  0
    2.0917    2.4083    0.0000 C   0  0  0  0  0  0  0  0  0  0  0  0
   -1.1208   -0.2667    0.0000 N   0  0  0  0  0  0  0  0  0  0  0  0
   -0.1208    0.4583    0.0000 C   0  0  0  0  0  0  0  0  0  0  0  0
    1.7875   -0.1667    0.0000 C   0  0  0  0  0  0  0  0  0  0  0  0
    1.1917   -1.5500    0.0000 C   0  0  0  0  0  0  0  0  0  0  0  0
   -0.7625   -1.9667    0.0000 C   0  0  0  0  0  0  0  0  0  0  0  0
   -2.1000   -0.4792    0.0000 C   0  0  0  0  0  0  0  0  0  0  0  0
    0.8875   -2.5000    0.0000 C   0  0  0  0  0  0  0  0  0  0  0  0
   -0.0958   -2.7042    0.0000 C   0  0  0  0  0  0  0  0  0  0  0  0
  2  1  1  0  0  0  0
  3  1  1  0  0  0  0
  4  5  1  0  0  0  0
  5  2  1  0  0  0  0
  6  2  2  0  0  0  0
  7  3  2  0  0  0  0
  8  6  1  0  0  0  0
  8  4  2  0  0  0  0
  9  7  1  0  0  0  0
 10  1  1  0  0  0  0
 11  1  1  0  0  0  0
 12  3  1  0  0  0  0
 13  7  1  0  0  0  0
 13 16  2  0  0  0  0
 14  9  1  0  0  0  0
 15 12  2  0  0  0  0
 16 15  1  0  0  0  0
M  END
>  <idnumber>
T0500-8067

>  <LogP>
2.605000000000000e+000

>  <rotating_bonds>
3.000000000000000e+000

>  <hb_acceptors>
2.000000000000000e+000

>  <hb_donors>
2.000000000000000e+000

>  <PSA>
4.071000000000002e+001

>  <clusterid>
62

>  <is_centroid>
@

>  <class1>
625

>  <class2>
631

>  <population1>
877209

>  <population2>
41612

>  <population>
39300

>  <cansmi>
CNc1ccccc1C(c1[nH]ncc1)(C)C

>  <HBA2>
2

>  <HBD>
2

>  <logP>
2.8503

>  <TPSA>
40.71

>  <MW>
215.294

$$$$

 OpenBabel02121609142D

 19 20  0  0  0  0  0  0  0  0999 V2000
    0.9167    0.2333    0.0000 C   0  0  0  0  0  0  0  0  0  0  0  0
   -2.5458   -0.7667    0.0000 N   0  0  0  0  0  0  0  0  0  0  0  0
    0.0542    0.7333    0.0000 N   0  0  0  0  0  0  0  0  0  0  0  0
    1.7792    0.7333    0.0000 C   0  0  0  0  0  0  0  0  0  0  0  0
   -1.6833   -1.2667    0.0000 C   0  0  0  0  0  0  0  0  0  0  0  0
   -2.5458    0.2333    0.0000 C   0  0  0  0  0  0  0  0  0  0  0  0
   -0.8125    0.2333    0.0000 C   0  0  0  0  0  0  0  0  0  0  0  0
   -1.6833    0.7333    0.0000 C   0  0  0  0  0  0  0  0  0  0  0  0
   -0.8125   -0.7667    0.0000 C   0  0  0  0  0  0  0  0  0  0  0  0
    0.9167   -0.7667    0.0000 O   0  0  0  0  0  0  0  0  0  0  0  0
    2.6500    2.2333    0.0000 N   0  0  0  0  0  0  0  0  0  0  0  0
    1.7792    1.7333    0.0000 C   0  0  0  0  0  0  0  0  0  0  0  0
    2.6500    0.2333    0.0000 C   0  0  0  0  0  0  0  0  0  0  0  0
   -1.3833   -2.2250    0.0000 C   0  0  0  0  0  0  0  0  0  0  0  0
   -1.9750   -2.2250    0.0000 C   0  0  0  0  0  0  0  0  0  0  0  0
   -3.5208    0.4500    0.0000 C   0  0  0  0  0  0  0  0  0  0  0  0
   -3.2250    0.9625    0.0000 C   0  0  0  0  0  0  0  0  0  0  0  0
    3.5167    1.7333    0.0000 C   0  0  0  0  0  0  0  0  0  0  0  0
    3.5167    0.7333    0.0000 C   0  0  0  0  0  0  0  0  0  0  0  0
  2  5  1  0  0  0  0
  3  1  1  0  0  0  0
  4  1  1  0  0  0  0
  5  9  1  0  0  0  0
  6  8  1  0  0  0  0
  6  2  1  0  0  0  0
  7  3  1  0  0  0  0
  8  7  1  0  0  0  0
  9  7  1  0  0  0  0
 10  1  2  0  0  0  0
 11 12  1  0  0  0  0
 11 18  2  0  0  0  0
 12  4  2  0  0  0  0
 13  4  1  0  0  0  0
 14  5  1  0  0  0  0
 15  5  1  0  0  0  0
 16  6  1  0  0  0  0
 17  6  1  0  0  0  0
 18 19  1  0  0  0  0
 19 13  2  0  0  0  0
M  END
>  <idnumber>
T0500-8413

>  <LogP>
1.796000000000000e+000

>  <rotating_bonds>
2.000000000000000e+000

>  <hb_acceptors>
3.000000000000000e+000

>  <hb_donors>
2.000000000000000e+000

>  <PSA>
5.402000000000000e+001

>  <clusterid>
-47

>  <is_centroid>
@

>  <class1>
639

>  <class2>
632

>  <population1>
59855

>  <population2>
79489

>  <population>
3637

>  <cansmi>
O=C(c1cccnc1)NC1CC(C)(C)NC(C1)(C)C

>  <HBA2>
4

>  <HBD>
2

>  <logP>
2.8403

>  <TPSA>
54.02

>  <MW>
261.363

$$$$

 OpenBabel02121609142D

 15 16  0  0  0  0  0  0  0  0999 V2000
   -1.7333    1.0000    0.0000 O   0  0  0  0  0  0  0  0  0  0  0  0
   -2.6000    0.5000    0.0000 C   0  0  0  0  0  0  0  0  0  0  0  0
   -0.8708    0.5000    0.0000 C   0  0  0  0  0  0  0  0  0  0  0  0
   -0.8708   -0.5000    0.0000 C   0  0  0  0  0  0  0  0  0  0  0  0
   -1.7333   -1.0000    0.0000 C   0  0  0  0  0  0  0  0  0  0  0  0
   -2.6000   -0.5000    0.0000 C   0  0  0  0  0  0  0  0  0  0  0  0
    2.5917   -0.5000    0.0000 C   0  0  0  0  0  0  0  0  0  0  0  0
    1.7292   -1.0000    0.0000 N   0  0  0  0  0  0  0  0  0  0  0  0
    0.0000   -1.0000    0.0000 C   0  0  0  0  0  0  0  0  0  0  0  0
    0.8625   -0.5000    0.0000 C   0  0  0  0  0  0  0  0  0  0  0  0
   -3.4708    1.0000    0.0000 O   0  0  0  0  0  0  0  0  0  0  0  0
    3.4625   -1.0000    0.0000 O   0  0  0  0  0  0  0  0  0  0  0  0
    0.0000    1.0000    0.0000 C   0  0  0  0  0  0  0  0  0  0  0  0
    0.8625    0.5000    0.0000 C   0  0  0  0  0  0  0  0  0  0  0  0
    2.5917    0.5000    0.0000 C   0  0  0  0  0  0  0  0  0  0  0  0
  2  1  1  0  0  0  0
  3  1  1  0  0  0  0
  4  3  2  0  0  0  0
  5  4  1  0  0  0  0
  6  2  1  0  0  0  0
  6  5  2  0  0  0  0
  7  8  1  0  0  0  0
  8 10  1  0  0  0  0
  9  4  1  0  0  0  0
  9 10  2  0  0  0  0
 10 14  1  0  0  0  0
 11  2  2  0  0  0  0
 12  7  2  0  0  0  0
 13  3  1  0  0  0  0
 14 13  2  0  0  0  0
 15  7  1  0  0  0  0
M  END
>  <idnumber>
T0500-9110

>  <LogP>
1.193000000000000e+000

>  <rotating_bonds>
1.000000000000000e+000

>  <hb_acceptors>
2.000000000000000e+000

>  <hb_donors>
1.000000000000000e+000

>  <PSA>
5.540000000000000e+001

>  <clusterid>
-49

>  <is_centroid>
@

>  <class1>
799

>  <population1>
7929

>  <population>
7929

>  <cansmi>
CC(=O)Nc1ccc2c(c1)ccc(=O)o2

>  <HBA2>
4

>  <HBD>
1

>  <logP>
1.8244

>  <TPSA>
59.31

>  <MW>
203.194

$$$$

 OpenBabel02121609142D

 15 17  0  0  0  0  0  0  0  0999 V2000
    0.0292    1.2583    0.0000 C   0  0  0  0  0  0  0  0  0  0  0  0
    0.0292    0.2500    0.0000 N   0  0  0  0  0  0  0  0  0  0  0  0
   -0.8375    1.7500    0.0000 N   0  0  0  0  0  0  0  0  0  0  0  0
   -1.7083    1.2583    0.0000 C   0  0  0  0  0  0  0  0  0  0  0  0
    0.9792   -0.0542    0.0000 N   0  0  0  0  0  0  0  0  0  0  0  0
   -1.7083    0.2500    0.0000 C   0  0  0  0  0  0  0  0  0  0  0  0
    0.9792    1.5625    0.0000 C   0  0  0  0  0  0  0  0  0  0  0  0
   -0.8375   -0.2417    0.0000 C   0  0  0  0  0  0  0  0  0  0  0  0
    1.5667    0.7500    0.0000 C   0  0  0  0  0  0  0  0  0  0  0  0
   -2.5708    1.7500    0.0000 O   0  0  0  0  0  0  0  0  0  0  0  0
   -2.5708   -0.2417    0.0000 C   0  0  0  0  0  0  0  0  0  0  0  0
   -0.8375   -1.2500    0.0000 C   0  0  0  0  0  0  0  0  0  0  0  0
    2.5667    0.7500    0.0000 C   0  0  0  0  0  0  0  0  0  0  0  0
   -2.5708   -1.2500    0.0000 C   0  0  0  0  0  0  0  0  0  0  0  0
   -1.7083   -1.7500    0.0000 C   0  0  0  0  0  0  0  0  0  0  0  0
  2  1  1  0  0  0  0
  3  1  1  0  0  0  0
  4  3  1  0  0  0  0
  5  2  1  0  0  0  0
  6  4  1  0  0  0  0
  7  1  2  0  0  0  0
  8  2  1  0  0  0  0
  8  6  2  0  0  0  0
  9  7  1  0  0  0  0
  9  5  2  0  0  0  0
 10  4  2  0  0  0  0
 11  6  1  0  0  0  0
 12  8  1  0  0  0  0
 13  9  1  0  0  0  0
 14 11  2  0  0  0  0
 14 15  1  0  0  0  0
 15 12  2  0  0  0  0
M  END
>  <idnumber>
T0501-0919

>  <LogP>
1.409000000000000e+000

>  <rotating_bonds>
0.000000000000000e+000

>  <hb_acceptors>
2.000000000000000e+000

>  <hb_donors>
1.000000000000000e+000

>  <PSA>
4.692000000000000e+001

>  <clusterid>
-53

>  <is_centroid>
@

>  <class1>
901

>  <population1>
17

>  <population>
17

>  <cansmi>
Cc1nn2c(c1)[nH]c(=O)c1c2cccc1

>  <HBA2>
3

>  <HBD>
1

>  <logP>
1.4842

>  <TPSA>
50.16

>  <MW>
199.209

$$$$

 OpenBabel02121609142D

 19 20  0  0  0  0  0  0  0  0999 V2000
   -0.4333   -0.5000    0.0000 C   0  0  3  0  0  0  0  0  0  0  0  0
   -0.4333    0.5000    0.0000 C   0  0  3  0  0  0  0  0  0  0  0  0
   -1.3000   -1.0000    0.0000 N   0  0  0  0  0  0  0  0  0  0  0  0
   -1.3000    1.0000    0.0000 C   0  0  0  0  0  0  0  0  0  0  0  0
   -2.1708   -0.5000    0.0000 C   0  0  0  0  0  0  0  0  0  0  0  0
    0.4292   -1.0000    0.0000 C   0  0  0  0  0  0  0  0  0  0  0  0
   -2.3000    1.0000    0.0000 O   0  0  0  0  0  0  0  0  0  0  0  0
   -3.0333   -1.0000    0.0000 O   0  0  0  0  0  0  0  0  0  0  0  0
    0.4292   -2.0000    0.0000 C   0  0  0  0  0  0  0  0  0  0  0  0
    1.2917   -0.5000    0.0000 C   0  0  0  0  0  0  0  0  0  0  0  0
    2.1625   -2.0000    0.0000 C   0  0  0  0  0  0  0  0  0  0  0  0
    2.1625   -1.0000    0.0000 C   0  0  0  0  0  0  0  0  0  0  0  0
    1.2917   -2.5000    0.0000 C   0  0  0  0  0  0  0  0  0  0  0  0
    3.0292   -2.5000    0.0000 Cl  0  0  0  0  0  0  0  0  0  0  0  0
    0.4292    1.0000    0.0000 C   0  0  0  0  0  0  0  0  0  0  0  0
   -1.3000    2.0000    0.0000 C   0  0  0  0  0  0  0  0  0  0  0  0
   -2.1708    0.5000    0.0000 C   0  0  0  0  0  0  0  0  0  0  0  0
    0.4292    2.0000    0.0000 C   0  0  0  0  0  0  0  0  0  0  0  0
   -0.4333    2.5000    0.0000 C   0  0  0  0  0  0  0  0  0  0  0  0
  2  1  1  0  0  0  0
  3  1  1  0  0  0  0
  4  2  1  0  0  0  0
  5  3  1  0  0  0  0
  6  1  1  0  0  0  0
  7  4  2  0  0  0  0
  8  5  2  0  0  0  0
  9  6  1  0  0  0  0
 10  6  2  0  0  0  0
 11 12  2  0  0  0  0
 12 10  1  0  0  0  0
 13  9  2  0  0  0  0
 13 11  1  0  0  0  0
 14 11  1  0  0  0  0
 15  2  1  0  0  0  0
 16  4  1  0  0  0  0
 16 19  1  0  0  0  0
 17  5  1  0  0  0  0
 18 15  1  0  0  0  0
 19 18  1  0  0  0  0
M  END
>  <idnumber>
T0501-1196

>  <LogP>
2.545000000000000e+000

>  <rotating_bonds>
3.000000000000000e+000

>  <hb_acceptors>
3.000000000000000e+000

>  <hb_donors>
1.000000000000000e+000

>  <PSA>
4.616999999999997e+001

>  <clusterid>
-54

>  <is_centroid>
@

>  <class1>
625

>  <class2>
839

>  <population1>
877209

>  <population2>
1494

>  <population>
1232

>  <cansmi>
CC(=O)NC(C1CCCCC1=O)c1ccc(cc1)Cl

>  <HBA2>
3

>  <HBD>
1

>  <logP>
3.6674

>  <TPSA>
46.17

>  <MW>
279.762

$$$$

 OpenBabel02121609142D

 19 22  0  0  0  0  0  0  0  0999 V2000
   -0.0833   -1.5667    0.0000 C   0  0  3  0  0  0  0  0  0  0  0  0
   -0.7208   -0.8167    0.0000 C   0  0  0  0  0  0  0  0  0  0  0  0
   -0.4333   -2.4417    0.0000 C   0  0  0  0  0  0  0  0  0  0  0  0
    0.1792   -2.6125    0.0000 C   0  0  0  0  0  0  0  0  0  0  0  0
    0.9000   -1.2917    0.0000 C   0  0  0  0  0  0  0  0  0  0  0  0
   -0.3250    0.0583    0.0000 N   0  0  0  0  0  0  0  0  0  0  0  0
   -0.6833    1.6333    0.0000 C   0  0  0  0  0  0  0  0  0  0  0  0
    1.2625   -1.8375    0.0000 C   0  0  3  0  0  0  0  0  0  0  0  0
    0.3042   -3.1625    0.0000 C   0  0  3  0  0  0  0  0  0  0  0  0
    1.6292   -2.2042    0.0000 C   0  0  3  0  0  0  0  0  0  0  0  0
   -1.2458    2.4000    0.0000 O   0  0  0  0  0  0  0  0  0  0  0  0
   -1.6333   -1.1042    0.0000 O   0  0  0  0  0  0  0  0  0  0  0  0
    0.2250    1.9208    0.0000 C   0  0  0  0  0  0  0  0  0  0  0  0
   -0.6833    3.1708    0.0000 C   0  0  0  0  0  0  0  0  0  0  0  0
    0.2250    2.8750    0.0000 C   0  0  0  0  0  0  0  0  0  0  0  0
    0.5125   -1.8667    0.0000 C   0  0  0  0  0  0  0  0  0  0  0  0
    0.8917   -2.7417    0.0000 C   0  0  0  0  0  0  0  0  0  0  0  0
    1.3250   -3.0500    0.0000 C   0  0  0  0  0  0  0  0  0  0  0  0
   -0.9958    0.7375    0.0000 C   0  0  0  0  0  0  0  0  0  0  0  0
  2  1  1  0  0  0  0
  3  1  1  0  0  0  0
  4  1  1  0  0  0  0
  5  1  1  0  0  0  0
  6  2  1  0  0  0  0
  7 19  1  0  0  0  0
  8  4  1  0  0  0  0
  9  3  1  0  0  0  0
  9 18  1  0  0  0  0
  9 16  1  0  0  0  0
 10  5  1  0  0  0  0
 11  7  1  0  0  0  0
 12  2  2  0  0  0  0
 13  7  2  0  0  0  0
 14 11  1  0  0  0  0
 15 13  1  0  0  0  0
 15 14  2  0  0  0  0
 16  8  1  0  0  0  0
 17 10  1  0  0  0  0
 17  8  1  0  0  0  0
 18 10  1  0  0  0  0
 19  6  1  0  0  0  0
M  END
>  <idnumber>
T0501-1199

>  <LogP>
2.785000000000000e+000

>  <rotating_bonds>
3.000000000000000e+000

>  <hb_acceptors>
1.000000000000000e+000

>  <hb_donors>
1.000000000000000e+000

>  <PSA>
4.224000000000000e+001

>  <clusterid>
67

>  <is_centroid>
@

>  <class1>
809

>  <class2>
704

>  <population1>
8162

>  <population2>
51112

>  <population>
213

>  <cansmi>
O=C(C12CC3CC(C2)CC(C1)C3)NCc1ccco1

>  <HBA2>
3

>  <HBD>
1

>  <logP>
3.5031

>  <TPSA>
42.24

>  <MW>
259.343

$$$$

 OpenBabel02121609142D

 19 21  0  0  0  0  0  0  0  0999 V2000
   -1.2083   -0.4167    0.0000 N   0  0  0  0  0  0  0  0  0  0  0  0
   -0.6208   -1.2292    0.0000 C   0  0  0  0  0  0  0  0  0  0  0  0
   -1.2083   -2.0375    0.0000 N   0  0  0  0  0  0  0  0  0  0  0  0
    1.8792   -0.3625    0.0000 C   0  0  0  0  0  0  0  0  0  0  0  0
   -2.1583   -0.7292    0.0000 C   0  0  0  0  0  0  0  0  0  0  0  0
   -2.1583   -1.7292    0.0000 C   0  0  0  0  0  0  0  0  0  0  0  0
    0.8792   -0.3625    0.0000 N   0  0  0  0  0  0  0  0  0  0  0  0
    2.3792   -1.2292    0.0000 O   0  0  0  0  0  0  0  0  0  0  0  0
    0.3792   -1.2292    0.0000 C   0  0  0  0  0  0  0  0  0  0  0  0
    2.3792    0.5083    0.0000 C   0  0  0  0  0  0  0  0  0  0  0  0
   -3.0208   -0.2292    0.0000 C   0  0  0  0  0  0  0  0  0  0  0  0
   -3.0208   -2.2292    0.0000 C   0  0  0  0  0  0  0  0  0  0  0  0
    3.3792    0.5083    0.0000 C   0  0  0  0  0  0  0  0  0  0  0  0
    1.8792    1.3708    0.0000 C   0  0  0  0  0  0  0  0  0  0  0  0
   -3.8958   -0.7292    0.0000 C   0  0  0  0  0  0  0  0  0  0  0  0
   -3.8958   -1.7292    0.0000 C   0  0  0  0  0  0  0  0  0  0  0  0
    2.3792    2.2333    0.0000 C   0  0  0  0  0  0  0  0  0  0  0  0
    3.8792    1.3708    0.0000 C   0  0  0  0  0  0  0  0  0  0  0  0
    3.3792    2.2333    0.0000 C   0  0  0  0  0  0  0  0  0  0  0  0
  2  1  2  0  0  0  0
  3  2  1  0  0  0  0
  4  7  1  0  0  0  0
  5  1  1  0  0  0  0
  6  5  2  0  0  0  0
  6  3  1  0  0  0  0
  7  9  1  0  0  0  0
  8  4  2  0  0  0  0
  9  2  1  0  0  0  0
 10  4  1  0  0  0  0
 11  5  1  0  0  0  0
 12  6  1  0  0  0  0
 12 16  2  0  0  0  0
 13 10  1  0  0  0  0
 14 10  2  0  0  0  0
 15 11  2  0  0  0  0
 16 15  1  0  0  0  0
 17 14  1  0  0  0  0
 18 13  2  0  0  0  0
 18 19  1  0  0  0  0
 19 17  2  0  0  0  0
M  END
>  <idnumber>
T0501-1236

>  <LogP>
2.252000000000000e+000

>  <rotating_bonds>
3.000000000000000e+000

>  <hb_acceptors>
2.000000000000000e+000

>  <hb_donors>
2.000000000000000e+000

>  <PSA>
5.778000000000000e+001

>  <clusterid>
68

>  <is_centroid>
@

>  <class1>
625

>  <class2>
685

>  <population1>
877209

>  <population2>
28767

>  <population>
28767

>  <cansmi>
O=C(c1ccccc1)NCc1nc2c([nH]1)cccc2

>  <HBA2>
3

>  <HBD>
2

>  <logP>
2.8838

>  <TPSA>
57.78

>  <MW>
251.283

$$$$

 OpenBabel02121609142D

 13 14  0  0  0  0  0  0  0  0999 V2000
   -1.4208   -0.3042    0.0000 N   0  0  0  0  0  0  0  0  0  0  0  0
   -1.4208    1.3125    0.0000 S   0  0  0  0  0  0  0  0  0  0  0  0
   -2.0083    0.5000    0.0000 C   0  0  0  0  0  0  0  0  0  0  0  0
   -0.4708    0.0000    0.0000 C   0  0  0  0  0  0  0  0  0  0  0  0
   -0.4708    1.0000    0.0000 C   0  0  0  0  0  0  0  0  0  0  0  0
    0.4000   -0.5000    0.0000 C   0  0  0  0  0  0  0  0  0  0  0  0
    1.2667    0.0000    0.0000 C   0  0  0  0  0  0  0  0  0  0  0  0
    2.1292   -0.5000    0.0000 C   0  0  0  0  0  0  0  0  0  0  0  0
    0.4000    1.5000    0.0000 C   0  0  0  0  0  0  0  0  0  0  0  0
    1.2667    1.0000    0.0000 C   0  0  0  0  0  0  0  0  0  0  0  0
    3.0000    0.0000    0.0000 O   0  0  0  0  0  0  0  0  0  0  0  0
   -3.0083    0.5000    0.0000 C   0  0  0  0  0  0  0  0  0  0  0  0
    2.1292   -1.5000    0.0000 C   0  0  0  0  0  0  0  0  0  0  0  0
  2  3  1  0  0  0  0
  3  1  2  0  0  0  0
  4  1  1  0  0  0  0
  5  4  2  0  0  0  0
  5  2  1  0  0  0  0
  6  4  1  0  0  0  0
  7  6  2  0  0  0  0
  8  7  1  0  0  0  0
  9  5  1  0  0  0  0
 10  7  1  0  0  0  0
 10  9  2  0  0  0  0
 11  8  2  0  0  0  0
 12  3  1  0  0  0  0
 13  8  1  0  0  0  0
M  END
>  <idnumber>
T0501-1766

>  <LogP>
2.296000000000000e+000

>  <rotating_bonds>
1.000000000000000e+000

>  <hb_acceptors>
3.000000000000000e+000

>  <hb_donors>
0.000000000000000e+000

>  <PSA>
5.820000000000000e+001

>  <clusterid>
-58

>  <is_centroid>
@

>  <class1>
640

>  <population1>
23901

>  <population>
23901

>  <cansmi>
Cc1sc2c(n1)cc(cc2)C(=O)C

>  <HBA2>
3

>  <HBD>
0

>  <logP>
2.8073

>  <TPSA>
58.2

>  <MW>
191.25

$$$$

 OpenBabel02121609142D

 16 18  0  0  0  0  0  0  0  0999 V2000
    0.1750    0.7708    0.0000 N   0  0  0  0  0  0  0  0  0  0  0  0
   -0.7750    0.4625    0.0000 C   0  0  0  0  0  0  0  0  0  0  0  0
   -1.3625    1.2708    0.0000 N   0  0  0  0  0  0  0  0  0  0  0  0
   -0.7750    2.0833    0.0000 N   0  0  0  0  0  0  0  0  0  0  0  0
    0.1750    1.7708    0.0000 C   0  0  0  0  0  0  0  0  0  0  0  0
   -1.0833   -0.4875    0.0000 C   0  0  0  0  0  0  0  0  0  0  0  0
   -1.7000   -2.3917    0.0000 N   0  0  0  0  0  0  0  0  0  0  0  0
    0.9542    0.1500    0.0000 C   0  0  0  0  0  0  0  0  0  0  0  0
    0.9542    2.3958    0.0000 C   0  0  0  0  0  0  0  0  0  0  0  0
   -2.3708   -1.6417    0.0000 C   0  0  0  0  0  0  0  0  0  0  0  0
   -0.7250   -2.1792    0.0000 C   0  0  0  0  0  0  0  0  0  0  0  0
   -2.0625   -0.6917    0.0000 C   0  0  0  0  0  0  0  0  0  0  0  0
   -0.4208   -1.2292    0.0000 C   0  0  0  0  0  0  0  0  0  0  0  0
    1.9292    0.3708    0.0000 C   0  0  0  0  0  0  0  0  0  0  0  0
    1.9292    2.1708    0.0000 C   0  0  0  0  0  0  0  0  0  0  0  0
    2.3667    1.2708    0.0000 C   0  0  0  0  0  0  0  0  0  0  0  0
  2  1  1  0  0  0  0
  3  2  2  0  0  0  0
  4  5  2  0  0  0  0
  4  3  1  0  0  0  0
  5  1  1  0  0  0  0
  6  2  1  0  0  0  0
  7 11  2  0  0  0  0
  8  1  1  0  0  0  0
  9  5  1  0  0  0  0
 10 12  2  0  0  0  0
 10  7  1  0  0  0  0
 11 13  1  0  0  0  0
 12  6  1  0  0  0  0
 13  6  2  0  0  0  0
 14  8  1  0  0  0  0
 15  9  1  0  0  0  0
 16 14  1  0  0  0  0
 16 15  1  0  0  0  0
M  END
>  <idnumber>
T0501-2046

>  <LogP>
8.720000000000001e-001

>  <rotating_bonds>
1.000000000000000e+000

>  <hb_acceptors>
3.000000000000000e+000

>  <hb_donors>
0.000000000000000e+000

>  <PSA>
4.359999999999999e+001

>  <clusterid>
-59

>  <is_centroid>
@

>  <class1>
757

>  <class2>
632

>  <population1>
2963

>  <population2>
79489

>  <population>
125

>  <cansmi>
n1ccc(cc1)c1nnc2n1CCCCC2

>  <HBA2>
4

>  <HBD>
0

>  <logP>
2.0665

>  <TPSA>
43.6

>  <MW>
214.266

$$$$

 OpenBabel02121609142D

 17 18  0  0  0  0  0  0  0  0999 V2000
   -0.8708    1.2500    0.0000 C   0  0  0  0  0  0  0  0  0  0  0  0
   -0.0083    1.7500    0.0000 C   0  0  0  0  0  0  0  0  0  0  0  0
   -0.8708    0.2500    0.0000 N   0  0  0  0  0  0  0  0  0  0  0  0
   -0.8708   -1.7500    0.0000 N   0  0  0  0  0  0  0  0  0  0  0  0
   -0.0083    2.7500    0.0000 C   0  0  0  0  0  0  0  0  0  0  0  0
   -1.7333    1.7500    0.0000 O   0  0  0  0  0  0  0  0  0  0  0  0
   -0.0083   -0.2500    0.0000 C   0  0  0  0  0  0  0  0  0  0  0  0
   -1.7333   -0.2500    0.0000 C   0  0  0  0  0  0  0  0  0  0  0  0
   -0.0083   -1.2500    0.0000 C   0  0  0  0  0  0  0  0  0  0  0  0
   -1.7333   -1.2500    0.0000 C   0  0  0  0  0  0  0  0  0  0  0  0
   -0.8708    3.2500    0.0000 F   0  0  0  0  0  0  0  0  0  0  0  0
    0.8625    1.2500    0.0000 C   0  0  0  0  0  0  0  0  0  0  0  0
   -0.8708   -2.7500    0.0000 C   0  0  0  0  0  0  0  0  0  0  0  0
    0.8625    3.2500    0.0000 C   0  0  0  0  0  0  0  0  0  0  0  0
   -0.0083   -3.2500    0.0000 C   0  0  0  0  0  0  0  0  0  0  0  0
    1.7292    1.7500    0.0000 C   0  0  0  0  0  0  0  0  0  0  0  0
    1.7292    2.7500    0.0000 C   0  0  0  0  0  0  0  0  0  0  0  0
  2  1  1  0  0  0  0
  3  1  1  0  0  0  0
  4 10  1  0  0  0  0
  4  9  1  0  0  0  0
  5  2  2  0  0  0  0
  6  1  2  0  0  0  0
  7  3  1  0  0  0  0
  8  3  1  0  0  0  0
  9  7  1  0  0  0  0
 10  8  1  0  0  0  0
 11  5  1  0  0  0  0
 12  2  1  0  0  0  0
 13  4  1  0  0  0  0
 14  5  1  0  0  0  0
 14 17  2  0  0  0  0
 15 13  1  0  0  0  0
 16 12  2  0  0  0  0
 17 16  1  0  0  0  0
M  END
>  <idnumber>
T0501-2774

>  <LogP>
2.081000000000000e+000

>  <rotating_bonds>
2.000000000000000e+000

>  <hb_acceptors>
3.000000000000000e+000

>  <hb_donors>
0.000000000000000e+000

>  <PSA>
2.355000000000000e+001

>  <clusterid>
70

>  <is_centroid>
@

>  <class1>
717

>  <class2>
625

>  <population1>
74368

>  <population2>
877209

>  <population>
68762

>  <cansmi>
CCN1CCN(CC1)C(=O)c1ccccc1F

>  <HBA2>
3

>  <HBD>
0

>  <logP>
1.4792

>  <TPSA>
23.55

>  <MW>
236.285

$$$$

 OpenBabel02121609142D

 18 19  0  0  0  0  0  0  0  0999 V2000
   -0.6458   -0.4042    0.0000 N   0  0  0  0  0  0  0  0  0  0  0  0
   -1.5083   -0.9042    0.0000 C   0  0  0  0  0  0  0  0  0  0  0  0
    0.2250   -0.9042    0.0000 C   0  0  0  0  0  0  0  0  0  0  0  0
    0.1500   -1.9042    0.0000 N   0  0  0  0  0  0  0  0  0  0  0  0
   -0.6458    0.5958    0.0000 C   0  0  0  0  0  0  0  0  0  0  0  0
   -2.3750   -0.4042    0.0000 O   0  0  0  0  0  0  0  0  0  0  0  0
   -1.5083   -1.9042    0.0000 N   0  0  0  0  0  0  0  0  0  0  0  0
    1.0500   -0.3417    0.0000 C   0  0  0  0  0  0  0  0  0  0  0  0
    0.8792   -2.5875    0.0000 C   0  0  0  0  0  0  0  0  0  0  0  0
    0.2250    1.0958    0.0000 C   0  0  0  0  0  0  0  0  0  0  0  0
   -1.5083    1.0958    0.0000 C   0  0  0  0  0  0  0  0  0  0  0  0
   -2.3750   -2.4042    0.0000 C   0  0  0  0  0  0  0  0  0  0  0  0
    1.8667   -2.4375    0.0000 C   0  0  0  0  0  0  0  0  0  0  0  0
    2.0042   -0.6417    0.0000 C   0  0  0  0  0  0  0  0  0  0  0  0
   -1.5083    2.0958    0.0000 C   0  0  0  0  0  0  0  0  0  0  0  0
    0.2250    2.0958    0.0000 C   0  0  0  0  0  0  0  0  0  0  0  0
    2.3667   -1.5667    0.0000 C   0  0  0  0  0  0  0  0  0  0  0  0
   -0.6458    2.5958    0.0000 C   0  0  0  0  0  0  0  0  0  0  0  0
  2  1  1  0  0  0  0
  3  1  1  0  0  0  0
  4  3  2  0  0  0  0
  5  1  1  0  0  0  0
  6  2  2  0  0  0  0
  7  2  1  0  0  0  0
  8  3  1  0  0  0  0
  9  4  1  0  0  0  0
 10  5  1  0  0  0  0
 11  5  2  0  0  0  0
 12  7  1  0  0  0  0
 13  9  1  0  0  0  0
 13 17  1  0  0  0  0
 14  8  1  0  0  0  0
 15 11  1  0  0  0  0
 16 10  2  0  0  0  0
 16 18  1  0  0  0  0
 17 14  1  0  0  0  0
 18 15  2  0  0  0  0
M  END
>  <idnumber>
T0501-2962

>  <LogP>
2.308000000000000e+000

>  <rotating_bonds>
1.000000000000000e+000

>  <hb_acceptors>
2.000000000000000e+000

>  <hb_donors>
1.000000000000000e+000

>  <PSA>
4.470000000000000e+001

>  <clusterid>
71

>  <is_centroid>
@

>  <class1>
625

>  <class2>
869

>  <population1>
877209

>  <population2>
174

>  <population>
158

>  <cansmi>
CNC(=O)N(C1=NCCCCC1)c1ccccc1

>  <HBA2>
4

>  <HBD>
1

>  <logP>
2.6314

>  <TPSA>
44.7

>  <MW>
245.32

$$$$

 OpenBabel02121609142D

 15 16  0  0  0  0  0  0  0  0999 V2000
   -0.2708   -1.0542    0.0000 O   0  0  0  0  0  0  0  0  0  0  0  0
    0.3167   -1.8625    0.0000 C   0  0  0  0  0  0  0  0  0  0  0  0
    0.3167   -0.2417    0.0000 C   0  0  0  0  0  0  0  0  0  0  0  0
    1.2667   -1.5542    0.0000 C   0  0  0  0  0  0  0  0  0  0  0  0
    1.2667   -0.5542    0.0000 C   0  0  0  0  0  0  0  0  0  0  0  0
    0.0125   -2.8125    0.0000 C   0  0  0  0  0  0  0  0  0  0  0  0
    0.0125    0.7083    0.0000 C   0  0  0  0  0  0  0  0  0  0  0  0
    0.6792   -3.5542    0.0000 O   0  0  0  0  0  0  0  0  0  0  0  0
    0.6792    1.4500    0.0000 C   0  0  0  0  0  0  0  0  0  0  0  0
   -0.9708    0.9208    0.0000 C   0  0  0  0  0  0  0  0  0  0  0  0
   -0.6083    2.6083    0.0000 C   0  0  0  0  0  0  0  0  0  0  0  0
   -0.9208    3.5583    0.0000 N   0  0  0  0  0  0  0  0  0  0  0  0
   -1.2750    1.8708    0.0000 C   0  0  0  0  0  0  0  0  0  0  0  0
    0.3667    2.4000    0.0000 C   0  0  0  0  0  0  0  0  0  0  0  0
   -0.9708   -3.0167    0.0000 C   0  0  0  0  0  0  0  0  0  0  0  0
  2  1  1  0  0  0  0
  3  1  1  0  0  0  0
  4  2  2  0  0  0  0
  4  5  1  0  0  0  0
  5  3  2  0  0  0  0
  6  2  1  0  0  0  0
  7  3  1  0  0  0  0
  8  6  2  0  0  0  0
  9  7  1  0  0  0  0
 10  7  2  0  0  0  0
 11 13  2  0  0  0  0
 12 11  1  0  0  0  0
 13 10  1  0  0  0  0
 14  9  2  0  0  0  0
 14 11  1  0  0  0  0
 15  6  1  0  0  0  0
M  END
>  <idnumber>
T0501-3378

>  <LogP>
1.730000000000000e+000

>  <rotating_bonds>
2.000000000000000e+000

>  <hb_acceptors>
2.000000000000000e+000

>  <hb_donors>
1.000000000000000e+000

>  <PSA>
5.622999999999997e+001

>  <clusterid>
-64

>  <is_centroid>
@

>  <class1>
704

>  <class2>
625

>  <population1>
51112

>  <population2>
877209

>  <population>
42813

>  <cansmi>
Nc1ccc(cc1)c1ccc(o1)C(=O)C

>  <HBA2>
3

>  <HBD>
1

>  <logP>
3.3126

>  <TPSA>
56.23

>  <MW>
201.221

$$$$

 OpenBabel02121609142D

 15 16  0  0  0  0  0  0  0  0999 V2000
   -0.6708   -0.0625    0.0000 C   0  0  0  0  0  0  0  0  0  0  0  0
   -0.0083   -0.8042    0.0000 C   0  0  0  0  0  0  0  0  0  0  0  0
   -1.0333    1.6333    0.0000 C   0  0  0  0  0  0  0  0  0  0  0  0
   -1.3458    0.6833    0.0000 C   0  0  0  0  0  0  0  0  0  0  0  0
   -1.6208    2.4375    0.0000 O   0  0  0  0  0  0  0  0  0  0  0  0
   -0.0833    1.9375    0.0000 C   0  0  0  0  0  0  0  0  0  0  0  0
   -1.0333    3.2500    0.0000 C   0  0  0  0  0  0  0  0  0  0  0  0
   -0.0833    2.9375    0.0000 C   0  0  0  0  0  0  0  0  0  0  0  0
   -2.3208    0.4708    0.0000 O   0  0  0  0  0  0  0  0  0  0  0  0
    0.6667   -1.5500    0.0000 C   0  0  0  0  0  0  0  0  0  0  0  0
    1.6417   -1.3417    0.0000 C   0  0  0  0  0  0  0  0  0  0  0  0
    0.3542   -2.5000    0.0000 C   0  0  0  0  0  0  0  0  0  0  0  0
    1.0292   -3.2417    0.0000 C   0  0  0  0  0  0  0  0  0  0  0  0
    2.3125   -2.0792    0.0000 C   0  0  0  0  0  0  0  0  0  0  0  0
    2.0042   -3.0375    0.0000 C   0  0  0  0  0  0  0  0  0  0  0  0
  2  1  3  0  0  0  0
  3  4  1  0  0  0  0
  4  1  1  0  0  0  0
  5  3  1  0  0  0  0
  6  3  2  0  0  0  0
  7  5  1  0  0  0  0
  8  6  1  0  0  0  0
  8  7  2  0  0  0  0
  9  4  2  0  0  0  0
 10  2  1  0  0  0  0
 11 10  2  0  0  0  0
 12 10  1  0  0  0  0
 13 12  2  0  0  0  0
 14 11  1  0  0  0  0
 14 15  2  0  0  0  0
 15 13  1  0  0  0  0
M  END
>  <idnumber>
T0501-3409

>  <LogP>
2.586000000000000e+000

>  <rotating_bonds>
3.000000000000000e+000

>  <hb_acceptors>
1.000000000000000e+000

>  <hb_donors>
0.000000000000000e+000

>  <PSA>
3.021000000000000e+001

>  <clusterid>
-65

>  <is_centroid>
@

>  <class1>
704

>  <class2>
625

>  <population1>
51112

>  <population2>
877209

>  <population>
42813

>  <cansmi>
O=C(c1ccco1)C#Cc1ccccc1

>  <HBA2>
2

>  <HBD>
0

>  <logP>
2.514

>  <TPSA>
30.21

>  <MW>
196.201

$$$$

 OpenBabel02121609142D

 14 15  0  0  0  0  0  0  0  0999 V2000
   -0.2958   -1.3875    0.0000 C   0  0  0  0  0  0  0  0  0  0  0  0
    0.6792   -1.1792    0.0000 C   0  0  0  0  0  0  0  0  0  0  0  0
    0.6292    1.4708    0.0000 C   0  0  0  0  0  0  0  0  0  0  0  0
    0.0417    2.2750    0.0000 O   0  0  0  0  0  0  0  0  0  0  0  0
   -0.6083   -2.3375    0.0000 C   0  0  0  0  0  0  0  0  0  0  0  0
    0.9917   -0.2292    0.0000 N   0  0  0  0  0  0  0  0  0  0  0  0
    1.5792    1.7750    0.0000 C   0  0  0  0  0  0  0  0  0  0  0  0
    0.6292    3.0833    0.0000 C   0  0  0  0  0  0  0  0  0  0  0  0
    1.5792    2.7750    0.0000 C   0  0  0  0  0  0  0  0  0  0  0  0
   -1.5833   -2.5417    0.0000 O   0  0  0  0  0  0  0  0  0  0  0  0
    0.3167    0.5208    0.0000 C   0  0  0  0  0  0  0  0  0  0  0  0
    1.3500   -1.9167    0.0000 C   0  0  0  0  0  0  0  0  0  0  0  0
    1.0417   -2.8667    0.0000 C   0  0  0  0  0  0  0  0  0  0  0  0
    0.0625   -3.0792    0.0000 C   0  0  0  0  0  0  0  0  0  0  0  0
  2  1  2  0  0  0  0
  3 11  1  0  0  0  0
  4  3  1  0  0  0  0
  5  1  1  0  0  0  0
  6  2  1  0  0  0  0
  7  3  2  0  0  0  0
  8  4  1  0  0  0  0
  9  7  1  0  0  0  0
  9  8  2  0  0  0  0
 10  5  2  0  0  0  0
 11  6  1  0  0  0  0
 12  2  1  0  0  0  0
 13 14  1  0  0  0  0
 13 12  1  0  0  0  0
 14  5  1  0  0  0  0
M  END
>  <idnumber>
T0501-3537

>  <LogP>
1.511000000000000e+000

>  <rotating_bonds>
3.000000000000000e+000

>  <hb_acceptors>
2.000000000000000e+000

>  <hb_donors>
1.000000000000000e+000

>  <PSA>
4.224000000000000e+001

>  <clusterid>
72

>  <is_centroid>
@

>  <class1>
704

>  <class2>
906

>  <population1>
51112

>  <population2>
1170

>  <population>
53

>  <cansmi>
O=C1CCCC(=C1)NCc1ccco1

>  <HBA2>
3

>  <HBD>
1

>  <logP>
2.397

>  <TPSA>
42.24

>  <MW>
191.226

$$$$

 OpenBabel02121609142D

 12 12  0  0  0  0  0  0  0  0999 V2000
    0.0000   -0.7500    0.0000 C   0  0  0  0  0  0  0  0  0  0  0  0
   -0.8708   -0.2417    0.0000 C   0  0  0  0  0  0  0  0  0  0  0  0
    0.8625   -0.2500    0.0000 C   0  0  0  0  0  0  0  0  0  0  0  0
   -0.8708    0.7583    0.0000 N   0  0  0  0  0  0  0  0  0  0  0  0
    0.8625    0.7500    0.0000 C   0  0  0  0  0  0  0  0  0  0  0  0
    0.0000    1.2500    0.0000 C   0  0  0  0  0  0  0  0  0  0  0  0
    0.0000   -1.7500    0.0000 C   0  0  0  0  0  0  0  0  0  0  0  0
   -1.7333   -0.7417    0.0000 O   0  0  0  0  0  0  0  0  0  0  0  0
   -0.8708   -2.2500    0.0000 O   0  0  0  0  0  0  0  0  0  0  0  0
    1.7292   -0.7417    0.0000 C   0  0  0  0  0  0  0  0  0  0  0  0
    0.0000    2.2500    0.0000 C   0  0  0  0  0  0  0  0  0  0  0  0
    0.8625   -2.2500    0.0000 C   0  0  0  0  0  0  0  0  0  0  0  0
  2  1  1  0  0  0  0
  3  1  2  0  0  0  0
  4  2  1  0  0  0  0
  4  6  1  0  0  0  0
  5  3  1  0  0  0  0
  6  5  2  0  0  0  0
  7  1  1  0  0  0  0
  8  2  2  0  0  0  0
  9  7  2  0  0  0  0
 10  3  1  0  0  0  0
 11  6  1  0  0  0  0
 12  7  1  0  0  0  0
M  END
>  <idnumber>
T0501-3566

>  <LogP>
3.570000000000000e-001

>  <rotating_bonds>
1.000000000000000e+000

>  <hb_acceptors>
2.000000000000000e+000

>  <hb_donors>
1.000000000000000e+000

>  <PSA>
4.616999999999997e+001

>  <clusterid>
-66

>  <is_centroid>
@

>  <class1>
696

>  <population1>
4759

>  <population>
4759

>  <cansmi>
CC(=O)c1c(C)cc([nH]c1=O)C

>  <HBA2>
2

>  <HBD>
1

>  <logP>
1.1943

>  <TPSA>
49.93

>  <MW>
165.189

$$$$

 OpenBabel02121609142D

 13 13  0  0  0  0  0  0  0  0999 V2000
    0.0000   -1.5000    0.0000 C   0  0  0  0  0  0  0  0  0  0  0  0
    0.0000   -0.5000    0.0000 N   0  0  0  0  0  0  0  0  0  0  0  0
   -0.8708   -2.0000    0.0000 O   0  0  0  0  0  0  0  0  0  0  0  0
   -1.7333    2.5083    0.0000 N   0  0  0  0  0  0  0  0  0  0  0  0
   -0.8708    1.0000    0.0000 C   0  0  0  0  0  0  0  0  0  0  0  0
   -0.8708    0.0000    0.0000 C   0  0  0  0  0  0  0  0  0  0  0  0
    0.8625   -2.0000    0.0000 C   0  0  0  0  0  0  0  0  0  0  0  0
   -1.7333    1.5000    0.0000 C   0  0  0  0  0  0  0  0  0  0  0  0
   -0.8708    3.0000    0.0000 C   0  0  0  0  0  0  0  0  0  0  0  0
    0.0000    1.5000    0.0000 C   0  0  0  0  0  0  0  0  0  0  0  0
    0.8625   -3.0000    0.0000 C   0  0  0  0  0  0  0  0  0  0  0  0
    1.7292   -1.5000    0.0000 C   0  0  0  0  0  0  0  0  0  0  0  0
    0.0000    2.5083    0.0000 C   0  0  0  0  0  0  0  0  0  0  0  0
  2  1  1  0  0  0  0
  3  1  2  0  0  0  0
  4  8  1  0  0  0  0
  4  9  2  0  0  0  0
  5  6  1  0  0  0  0
  6  2  1  0  0  0  0
  7  1  1  0  0  0  0
  8  5  2  0  0  0  0
  9 13  1  0  0  0  0
 10  5  1  0  0  0  0
 11  7  1  0  0  0  0
 12  7  1  0  0  0  0
 13 10  2  0  0  0  0
M  END
>  <idnumber>
T0501-3909

>  <LogP>
2.910000000000000e-001

>  <rotating_bonds>
3.000000000000000e+000

>  <hb_acceptors>
2.000000000000000e+000

>  <hb_donors>
1.000000000000000e+000

>  <PSA>
4.199000000000000e+001

>  <clusterid>
-71

>  <is_centroid>
@

>  <class1>
632

>  <population1>
79489

>  <population>
79489

>  <cansmi>
O=C(C(C)C)NCc1cccnc1

>  <HBA2>
3

>  <HBD>
1

>  <logP>
1.7447

>  <TPSA>
41.99

>  <MW>
178.231

$$$$

 OpenBabel02121609142D

 13 13  0  0  0  0  0  0  0  0999 V2000
    2.3167   -0.3542    0.0000 C   0  0  0  0  0  0  0  0  0  0  0  0
    1.7292    0.4500    0.0000 N   0  0  0  0  0  0  0  0  0  0  0  0
    3.2667   -0.0500    0.0000 N   0  0  0  0  0  0  0  0  0  0  0  0
    0.7292    0.4500    0.0000 C   0  0  0  0  0  0  0  0  0  0  0  0
    2.0042   -1.3125    0.0000 N   0  0  0  0  0  0  0  0  0  0  0  0
    3.2667    0.9500    0.0000 C   0  0  0  0  0  0  0  0  0  0  0  0
    2.3167    1.2583    0.0000 C   0  0  0  0  0  0  0  0  0  0  0  0
   -3.2708    0.3083    0.0000 Br  0  0  0  0  0  0  0  0  0  0  0  0
    0.2292    1.3208    0.0000 C   0  0  0  0  0  0  0  0  0  0  0  0
    0.2292   -0.4167    0.0000 C   0  0  0  0  0  0  0  0  0  0  0  0
   -0.7708   -0.4167    0.0000 C   0  0  0  0  0  0  0  0  0  0  0  0
   -0.7708    1.3208    0.0000 C   0  0  0  0  0  0  0  0  0  0  0  0
   -1.2708    0.4500    0.0000 C   0  0  0  0  0  0  0  0  0  0  0  0
  2  1  1  0  0  0  0
  3  1  2  0  0  0  0
  4  2  1  0  0  0  0
  5  1  1  0  0  0  0
  6  3  1  0  0  0  0
  6  7  1  0  0  0  0
  7  2  1  0  0  0  0
  9  4  1  0  0  0  0
 10  4  2  0  0  0  0
 11 10  1  0  0  0  0
 12  9  2  0  0  0  0
 12 13  1  0  0  0  0
 13 11  2  0  0  0  0
M  END
>  <idnumber>
T0501-4031

>  <saltdata>
HBr

>  <LogP>
1.903000000000000e+000

>  <rotating_bonds>
1.000000000000000e+000

>  <hb_acceptors>
3.000000000000000e+000

>  <hb_donors>
1.000000000000000e+000

>  <PSA>
4.161999999999998e+001

>  <clusterid>
-73

>  <is_centroid>
@

>  <class1>
787

>  <class2>
625

>  <population1>
1009

>  <population2>
877209

>  <population>
964

>  <cansmi>
NC1=NCCN1c1ccccc1.Br

>  <HBA2>
3

>  <HBD>
2

>  <logP>
1.9803

>  <TPSA>
41.62

>  <MW>
242.116

$$$$

 OpenBabel02121609142D

 20 22  0  0  0  0  0  0  0  0999 V2000
   -1.0500    1.5083    0.0000 C   0  0  0  0  0  0  0  0  0  0  0  0
   -0.6333    0.6000    0.0000 N   0  0  0  0  0  0  0  0  0  0  0  0
    0.2042   -1.2167    0.0000 N   0  0  0  0  0  0  0  0  0  0  0  0
   -0.4750    2.3333    0.0000 C   0  0  0  0  0  0  0  0  0  0  0  0
   -1.2083   -0.2167    0.0000 C   0  0  0  0  0  0  0  0  0  0  0  0
    0.3625    0.5083    0.0000 C   0  0  0  0  0  0  0  0  0  0  0  0
    0.7792   -0.4000    0.0000 C   0  0  0  0  0  0  0  0  0  0  0  0
   -0.7875   -1.1250    0.0000 C   0  0  0  0  0  0  0  0  0  0  0  0
   -2.0458    1.6000    0.0000 O   0  0  0  0  0  0  0  0  0  0  0  0
    0.6292   -2.1250    0.0000 C   0  0  0  0  0  0  0  0  0  0  0  0
   -0.4875    1.3250    0.0000 C   0  0  0  0  0  0  0  0  0  0  0  0
   -1.0625    3.1333    0.0000 C   0  0  0  0  0  0  0  0  0  0  0  0
    0.4750    2.6333    0.0000 C   0  0  0  0  0  0  0  0  0  0  0  0
    0.0500   -2.9417    0.0000 C   0  0  0  0  0  0  0  0  0  0  0  0
    1.6250   -2.2125    0.0000 C   0  0  0  0  0  0  0  0  0  0  0  0
    0.4750    3.6333    0.0000 C   0  0  0  0  0  0  0  0  0  0  0  0
   -0.4750    3.9458    0.0000 C   0  0  0  0  0  0  0  0  0  0  0  0
    2.0417   -3.1167    0.0000 C   0  0  0  0  0  0  0  0  0  0  0  0
    0.4667   -3.8500    0.0000 C   0  0  0  0  0  0  0  0  0  0  0  0
    1.4667   -3.9375    0.0000 C   0  0  0  0  0  0  0  0  0  0  0  0
  2  1  1  0  0  0  0
  3  7  1  0  0  0  0
  4  1  1  0  0  0  0
  5  2  1  0  0  0  0
  6  2  1  0  0  0  0
  7  6  1  0  0  0  0
  8  5  1  0  0  0  0
  8  3  1  0  0  0  0
  9  1  2  0  0  0  0
 10  3  1  0  0  0  0
 11  4  1  0  0  0  0
 12  4  1  0  0  0  0
 13  4  1  0  0  0  0
 14 10  1  0  0  0  0
 15 10  2  0  0  0  0
 16 13  1  0  0  0  0
 16 17  1  0  0  0  0
 17 12  1  0  0  0  0
 18 15  1  0  0  0  0
 19 14  2  0  0  0  0
 19 20  1  0  0  0  0
 20 18  2  0  0  0  0
M  END
>  <idnumber>
T0501-4272

>  <LogP>
2.118000000000000e+000

>  <rotating_bonds>
2.000000000000000e+000

>  <hb_acceptors>
2.000000000000000e+000

>  <hb_donors>
0.000000000000000e+000

>  <PSA>
2.355000000000000e+001

>  <clusterid>
-74

>  <is_centroid>
@

>  <class1>
674

>  <class2>
717

>  <class3>
625

>  <population1>
16474

>  <population2>
74368

>  <population3>
877209

>  <population>
816

>  <cansmi>
O=C(C1(C)CCCC1)N1CCN(CC1)c1ccccc1

>  <HBA2>
3

>  <HBD>
0

>  <logP>
2.9184

>  <TPSA>
23.55

>  <MW>
272.385

$$$$

 OpenBabel02121609142D

 20 22  0  0  0  0  0  0  0  0999 V2000
    0.1042    0.3458    0.0000 C   0  0  0  0  0  0  0  0  0  0  0  0
    1.1042    0.3375    0.0000 C   0  0  0  0  0  0  0  0  0  0  0  0
   -0.4708    1.1625    0.0000 N   0  0  0  0  0  0  0  0  0  0  0  0
   -0.4875   -0.4500    0.0000 C   0  0  0  0  0  0  0  0  0  0  0  0
   -1.4125    0.8750    0.0000 C   0  0  0  0  0  0  0  0  0  0  0  0
   -1.4125   -0.1167    0.0000 C   0  0  0  0  0  0  0  0  0  0  0  0
    1.6250    1.1958    0.0000 C   0  0  0  0  0  0  0  0  0  0  0  0
    1.6042   -0.5292    0.0000 C   0  0  0  0  0  0  0  0  0  0  0  0
    1.1292    2.0625    0.0000 O   0  0  0  0  0  0  0  0  0  0  0  0
    1.1542   -1.4167    0.0000 O   0  0  0  0  0  0  0  0  0  0  0  0
   -2.2125   -0.6542    0.0000 C   0  0  0  0  0  0  0  0  0  0  0  0
   -0.3458   -1.4375    0.0000 C   0  0  0  0  0  0  0  0  0  0  0  0
    2.6167    1.1833    0.0000 O   0  0  0  0  0  0  0  0  0  0  0  0
   -2.2833    1.3583    0.0000 C   0  0  0  0  0  0  0  0  0  0  0  0
   -1.1083   -2.0542    0.0000 C   0  0  0  0  0  0  0  0  0  0  0  0
   -3.1375    0.8583    0.0000 C   0  0  0  0  0  0  0  0  0  0  0  0
    2.6042   -0.5542    0.0000 C   0  0  0  0  0  0  0  0  0  0  0  0
   -2.0583   -1.6917    0.0000 C   0  0  0  0  0  0  0  0  0  0  0  0
   -3.1250   -0.1542    0.0000 C   0  0  0  0  0  0  0  0  0  0  0  0
    3.1292    2.0375    0.0000 C   0  0  0  0  0  0  0  0  0  0  0  0
  2  1  2  0  0  0  0
  3  1  1  0  0  0  0
  4  1  1  0  0  0  0
  5  3  1  0  0  0  0
  5  6  2  0  0  0  0
  6  4  1  0  0  0  0
  7  2  1  0  0  0  0
  8  2  1  0  0  0  0
  9  7  2  0  0  0  0
 10  8  2  0  0  0  0
 11  6  1  0  0  0  0
 11 18  1  0  0  0  0
 12  4  2  0  0  0  0
 13  7  1  0  0  0  0
 14  5  1  0  0  0  0
 15 12  1  0  0  0  0
 16 14  2  0  0  0  0
 16 19  1  0  0  0  0
 17  8  1  0  0  0  0
 18 15  2  0  0  0  0
 19 11  2  0  0  0  0
 20 13  1  0  0  0  0
M  END
>  <idnumber>
T0501-4666

>  <LogP>
2.446000000000000e+000

>  <rotating_bonds>
3.000000000000000e+000

>  <hb_acceptors>
3.000000000000000e+000

>  <hb_donors>
1.000000000000000e+000

>  <PSA>
5.540000000000000e+001

>  <clusterid>
-76

>  <is_centroid>
@

>  <class1>
911

>  <population1>
357

>  <population>
357

>  <cansmi>
COC(=O)/C(=c/1\[nH]c2c3c1cccc3ccc2)/C(=O)C

>  <HBA2>
3

>  <HBD>
1

>  <logP>
1.9527

>  <TPSA>
59.16

>  <MW>
267.279

$$$$

 OpenBabel02121609142D

 18 20  0  0  0  0  0  0  0  0999 V2000
    0.0000    0.0083    0.0000 N   0  0  0  0  0  0  0  0  0  0  0  0
    0.8625   -0.5000    0.0000 C   0  0  0  0  0  0  0  0  0  0  0  0
    1.7292    0.0083    0.0000 C   0  0  0  0  0  0  0  0  0  0  0  0
   -0.8708   -0.5000    0.0000 C   0  0  0  0  0  0  0  0  0  0  0  0
   -1.7333    0.0083    0.0000 C   0  0  0  0  0  0  0  0  0  0  0  0
    0.0000    1.0000    0.0000 C   0  0  0  0  0  0  0  0  0  0  0  0
    0.8625   -1.5000    0.0000 O   0  0  0  0  0  0  0  0  0  0  0  0
   -1.7333    1.0000    0.0000 C   0  0  0  0  0  0  0  0  0  0  0  0
    2.5917    1.5000    0.0000 N   0  0  0  0  0  0  0  0  0  0  0  0
   -0.8708    1.5000    0.0000 C   0  0  0  0  0  0  0  0  0  0  0  0
    1.7292    1.0000    0.0000 C   0  0  0  0  0  0  0  0  0  0  0  0
    2.5917   -0.5000    0.0000 C   0  0  0  0  0  0  0  0  0  0  0  0
   -2.6000   -0.5000    0.0000 C   0  0  0  0  0  0  0  0  0  0  0  0
    3.4625    1.0000    0.0000 C   0  0  0  0  0  0  0  0  0  0  0  0
   -2.6000    1.5000    0.0000 C   0  0  0  0  0  0  0  0  0  0  0  0
    3.4625    0.0083    0.0000 C   0  0  0  0  0  0  0  0  0  0  0  0
   -3.4708    0.0083    0.0000 C   0  0  0  0  0  0  0  0  0  0  0  0
   -3.4708    1.0000    0.0000 C   0  0  0  0  0  0  0  0  0  0  0  0
  2  1  1  0  0  0  0
  3  2  1  0  0  0  0
  4  1  1  0  0  0  0
  5  4  1  0  0  0  0
  5  8  2  0  0  0  0
  6  1  1  0  0  0  0
  7  2  2  0  0  0  0
  8 10  1  0  0  0  0
  9 11  1  0  0  0  0
  9 14  2  0  0  0  0
 10  6  1  0  0  0  0
 11  3  2  0  0  0  0
 12  3  1  0  0  0  0
 13  5  1  0  0  0  0
 14 16  1  0  0  0  0
 15  8  1  0  0  0  0
 16 12  2  0  0  0  0
 17 13  2  0  0  0  0
 18 15  2  0  0  0  0
 18 17  1  0  0  0  0
M  END
>  <idnumber>
T0501-4795

>  <LogP>
1.979000000000000e+000

>  <rotating_bonds>
1.000000000000000e+000

>  <hb_acceptors>
2.000000000000000e+000

>  <hb_donors>
0.000000000000000e+000

>  <PSA>
3.320000000000000e+001

>  <clusterid>
74

>  <is_centroid>
@

>  <class1>
750

>  <class2>
632

>  <population1>
7929

>  <population2>
79489

>  <population>
464

>  <cansmi>
O=C(N1CCc2c(C1)cccc2)c1cccnc1

>  <HBA2>
3

>  <HBD>
0

>  <logP>
2.218

>  <TPSA>
33.2

>  <MW>
238.284

$$$$

 OpenBabel02121609142D

 21 23  0  0  0  0  0  0  0  0999 V2000
    0.0000   -0.5000    0.0000 C   0  0  3  0  0  0  0  0  0  0  0  0
   -0.8708   -1.0000    0.0000 C   0  0  0  0  0  0  0  0  0  0  0  0
    0.0000    0.5000    0.0000 N   0  0  0  0  0  0  0  0  0  0  0  0
    0.0000   -2.5000    0.0000 N   0  0  0  0  0  0  0  0  0  0  0  0
   -0.8708   -2.0000    0.0000 C   0  0  0  0  0  0  0  0  0  0  0  0
   -0.8708    1.0000    0.0000 C   0  0  0  0  0  0  0  0  0  0  0  0
    0.8625   -1.0000    0.0000 C   0  0  0  0  0  0  0  0  0  0  0  0
    0.8625   -2.0000    0.0000 C   0  0  3  0  0  0  0  0  0  0  0  0
    0.8625    1.0000    0.0000 C   0  0  0  0  0  0  0  0  0  0  0  0
   -0.8708    2.0000    0.0000 O   0  0  0  0  0  0  0  0  0  0  0  0
   -1.7333   -0.5000    0.0000 C   0  0  0  0  0  0  0  0  0  0  0  0
   -1.7333   -2.5000    0.0000 C   0  0  0  0  0  0  0  0  0  0  0  0
   -1.7333    0.5000    0.0000 C   0  0  0  0  0  0  0  0  0  0  0  0
    0.8625    2.0000    0.0000 C   0  0  0  0  0  0  0  0  0  0  0  0
    1.7292    0.5000    0.0000 C   0  0  0  0  0  0  0  0  0  0  0  0
    1.7292   -2.5000    0.0000 C   0  0  0  0  0  0  0  0  0  0  0  0
   -2.6000   -1.0000    0.0000 C   0  0  0  0  0  0  0  0  0  0  0  0
   -2.6000   -2.0000    0.0000 C   0  0  0  0  0  0  0  0  0  0  0  0
    2.5917    1.0000    0.0000 C   0  0  0  0  0  0  0  0  0  0  0  0
    1.7292    2.5000    0.0000 C   0  0  0  0  0  0  0  0  0  0  0  0
    2.5917    2.0000    0.0000 C   0  0  0  0  0  0  0  0  0  0  0  0
  2  1  1  0  0  0  0
  3  1  1  0  0  0  0
  4  8  1  0  0  0  0
  5  2  2  0  0  0  0
  5  4  1  0  0  0  0
  6  3  1  0  0  0  0
  7  1  1  0  0  0  0
  8  7  1  0  0  0  0
  9  3  1  0  0  0  0
 10  6  2  0  0  0  0
 11  2  1  0  0  0  0
 12  5  1  0  0  0  0
 12 18  2  0  0  0  0
 13  6  1  0  0  0  0
 14  9  2  0  0  0  0
 15  9  1  0  0  0  0
 16  8  1  0  0  0  0
 17 11  2  0  0  0  0
 18 17  1  0  0  0  0
 19 15  2  0  0  0  0
 20 14  1  0  0  0  0
 20 21  2  0  0  0  0
 21 19  1  0  0  0  0
M  END
>  <idnumber>
T0501-5824

>  <LogP>
2.838000000000000e+000

>  <rotating_bonds>
2.000000000000000e+000

>  <hb_acceptors>
2.000000000000000e+000

>  <hb_donors>
1.000000000000000e+000

>  <PSA>
3.234000000000000e+001

>  <clusterid>
-78

>  <is_centroid>
@

>  <class1>
625

>  <class2>
814

>  <population1>
877209

>  <population2>
5317

>  <population>
5317

>  <cansmi>
CC1Nc2ccccc2C(C1)N(c1ccccc1)C(=O)C

>  <HBA2>
3

>  <HBD>
1

>  <logP>
4.1229

>  <TPSA>
32.34

>  <MW>
280.364

$$$$

 OpenBabel02121609142D

  8  8  0  0  0  0  0  0  0  0999 V2000
   -0.0875   -0.3292    0.0000 C   0  0  0  0  0  0  0  0  0  0  0  0
   -0.6750    0.4833    0.0000 C   0  0  0  0  0  0  0  0  0  0  0  0
    0.8625    0.9833    0.0000 N   0  0  0  0  0  0  0  0  0  0  0  0
   -0.0875    1.2875    0.0000 N   0  0  0  0  0  0  0  0  0  0  0  0
    0.8625   -0.0167    0.0000 C   0  0  0  0  0  0  0  0  0  0  0  0
   -0.3958   -1.2792    0.0000 Br  0  0  0  0  0  0  0  0  0  0  0  0
   -1.6750    0.4833    0.0000 N   0  0  0  0  0  0  0  0  0  0  0  0
    1.6667   -0.6042    0.0000 C   0  0  0  0  0  0  0  0  0  0  0  0
  2  1  2  0  0  0  0
  3  5  2  0  0  0  0
  3  4  1  0  0  0  0
  4  2  1  0  0  0  0
  5  1  1  0  0  0  0
  6  1  1  0  0  0  0
  7  2  1  0  0  0  0
  8  5  1  0  0  0  0
M  END
>  <idnumber>
T0501-6322

>  <LogP>
1.211000000000000e+000

>  <rotating_bonds>
0.000000000000000e+000

>  <hb_acceptors>
2.000000000000000e+000

>  <hb_donors>
2.000000000000000e+000

>  <PSA>
5.470000000000000e+001

>  <clusterid>
-80

>  <is_centroid>
@

>  <class1>
631

>  <population1>
41612

>  <population>
41612

>  <cansmi>
Cc1n[nH]c(c1Br)N

>  <HBA2>
2

>  <HBD>
2

>  <logP>
1.644

>  <TPSA>
54.7

>  <MW>
176.015

$$$$

 OpenBabel02121609142D

 16 17  0  0  0  0  0  0  0  0999 V2000
   -1.0333    0.6833    0.0000 C   0  0  0  0  0  0  0  0  0  0  0  0
   -1.3458   -0.2667    0.0000 C   0  0  0  0  0  0  0  0  0  0  0  0
   -1.6208    1.4875    0.0000 O   0  0  0  0  0  0  0  0  0  0  0  0
   -0.6708   -1.0167    0.0000 N   0  0  0  0  0  0  0  0  0  0  0  0
   -1.0333    2.2958    0.0000 C   0  0  0  0  0  0  0  0  0  0  0  0
   -0.0833    0.9875    0.0000 C   0  0  0  0  0  0  0  0  0  0  0  0
   -0.0833    1.9875    0.0000 C   0  0  0  0  0  0  0  0  0  0  0  0
    0.6667   -2.5000    0.0000 N   0  0  0  0  0  0  0  0  0  0  0  0
   -2.3208   -0.4792    0.0000 O   0  0  0  0  0  0  0  0  0  0  0  0
   -0.9833   -1.9667    0.0000 C   0  0  0  0  0  0  0  0  0  0  0  0
    0.3042   -0.8042    0.0000 C   0  0  0  0  0  0  0  0  0  0  0  0
   -0.3125   -2.7042    0.0000 C   0  0  0  0  0  0  0  0  0  0  0  0
    0.9750   -1.5500    0.0000 C   0  0  0  0  0  0  0  0  0  0  0  0
   -1.3458    3.2500    0.0000 Br  0  0  0  0  0  0  0  0  0  0  0  0
    1.3375   -3.2417    0.0000 C   0  0  0  0  0  0  0  0  0  0  0  0
    2.3125   -3.0375    0.0000 C   0  0  0  0  0  0  0  0  0  0  0  0
  2  1  1  0  0  0  0
  3  1  1  0  0  0  0
  4  2  1  0  0  0  0
  5  3  1  0  0  0  0
  6  1  2  0  0  0  0
  7  6  1  0  0  0  0
  7  5  2  0  0  0  0
  8 13  1  0  0  0  0
  9  2  2  0  0  0  0
 10  4  1  0  0  0  0
 11  4  1  0  0  0  0
 12 10  1  0  0  0  0
 12  8  1  0  0  0  0
 13 11  1  0  0  0  0
 14  5  1  0  0  0  0
 15  8  1  0  0  0  0
 16 15  1  0  0  0  0
M  END
>  <idnumber>
T0501-6453

>  <LogP>
1.977000000000000e+000

>  <rotating_bonds>
2.000000000000000e+000

>  <hb_acceptors>
2.000000000000000e+000

>  <hb_donors>
0.000000000000000e+000

>  <PSA>
3.669000000000001e+001

>  <clusterid>
75

>  <is_centroid>
@

>  <class1>
704

>  <class2>
717

>  <population1>
51112

>  <population2>
74368

>  <population>
4190

>  <cansmi>
CCN1CCN(CC1)C(=O)c1ccc(o1)Br

>  <HBA2>
4

>  <HBD>
0

>  <logP>
1.6956

>  <TPSA>
36.69

>  <MW>
287.153

$$$$

 OpenBabel02121609142D

 16 18  0  0  0  0  0  0  0  0999 V2000
    0.0167    1.4500    0.0000 C   0  0  3  0  0  0  0  0  0  0  0  0
   -0.7333    0.8458    0.0000 C   0  0  0  0  0  0  0  0  0  0  0  0
   -0.1583    0.0458    0.0000 N   0  0  0  0  0  0  0  0  0  0  0  0
   -0.3833   -0.8792    0.0000 C   0  0  0  0  0  0  0  0  0  0  0  0
   -0.0333    2.4250    0.0000 C   0  0  0  0  0  0  0  0  0  0  0  0
    0.2917   -1.6125    0.0000 N   0  0  0  0  0  0  0  0  0  0  0  0
   -1.6958    0.6750    0.0000 O   0  0  0  0  0  0  0  0  0  0  0  0
    1.0042    1.6250    0.0000 C   0  0  0  0  0  0  0  0  0  0  0  0
    0.9042    1.0208    0.0000 C   0  0  0  0  0  0  0  0  0  0  0  0
    0.8792    2.7750    0.0000 C   0  0  3  0  0  0  0  0  0  0  0  0
    1.5625    1.8500    0.0000 C   0  0  0  0  0  0  0  0  0  0  0  0
    1.6875    2.5208    0.0000 C   0  0  0  0  0  0  0  0  0  0  0  0
   -0.0208   -2.5625    0.0000 C   0  0  0  0  0  0  0  0  0  0  0  0
   -1.3583   -1.0667    0.0000 C   0  0  0  0  0  0  0  0  0  0  0  0
   -1.0000   -2.7667    0.0000 C   0  0  0  0  0  0  0  0  0  0  0  0
   -1.6708   -2.0167    0.0000 C   0  0  0  0  0  0  0  0  0  0  0  0
  2  1  1  0  0  0  0
  3  2  1  0  0  0  0
  4  3  1  0  0  0  0
  5  1  1  0  0  0  0
  6  4  2  0  0  0  0
  7  2  2  0  0  0  0
  8  1  1  0  0  0  0
  9  1  1  0  0  0  0
 10  5  1  0  0  0  0
 10 12  1  0  0  0  0
 11  9  1  0  0  0  0
 11 10  1  0  0  0  0
 12  8  1  0  0  0  0
 13  6  1  0  0  0  0
 13 15  2  0  0  0  0
 14  4  1  0  0  0  0
 15 16  1  0  0  0  0
 16 14  2  0  0  0  0
M  END
>  <idnumber>
T0501-6871

>  <LogP>
2.278000000000000e+000

>  <rotating_bonds>
2.000000000000000e+000

>  <hb_acceptors>
2.000000000000000e+000

>  <hb_donors>
1.000000000000000e+000

>  <PSA>
4.199000000000000e+001

>  <clusterid>
77

>  <is_centroid>
@

>  <class1>
831

>  <class2>
632

>  <population1>
1775

>  <population2>
79489

>  <population>
65

>  <cansmi>
O=C(C12CCC(C2)CC1)Nc1ccccn1

>  <HBA2>
3

>  <HBD>
1

>  <logP>
2.6734

>  <TPSA>
41.99

>  <MW>
216.279

$$$$

 OpenBabel02121609142D

 22 24  0  0  0  0  0  0  0  0999 V2000
    0.0000   -0.4917    0.0000 C   0  0  0  0  0  0  0  0  0  0  0  0
   -1.7333   -0.4917    0.0000 C   0  0  0  0  0  0  0  0  0  0  0  0
   -0.8708    0.0000    0.0000 C   0  0  0  0  0  0  0  0  0  0  0  0
    0.8625    0.0000    0.0000 C   0  0  0  0  0  0  0  0  0  0  0  0
   -2.6000    0.0000    0.0000 C   0  0  0  0  0  0  0  0  0  0  0  0
    0.0000   -1.5000    0.0000 C   0  0  0  0  0  0  0  0  0  0  0  0
   -1.7333   -1.5000    0.0000 C   0  0  0  0  0  0  0  0  0  0  0  0
   -0.8708    1.0000    0.0000 O   0  0  0  0  0  0  0  0  0  0  0  0
   -3.4708    2.5000    0.0000 N   0  0  0  0  0  0  0  0  0  0  0  0
    3.4625   -0.4917    0.0000 N   0  0  0  0  0  0  0  0  0  0  0  0
   -0.8708   -2.0000    0.0000 C   0  0  3  0  0  0  0  0  0  0  0  0
    1.7292   -0.4917    0.0000 C   0  0  0  0  0  0  0  0  0  0  0  0
   -2.6000    1.0000    0.0000 C   0  0  0  0  0  0  0  0  0  0  0  0
   -3.4708    1.5083    0.0000 C   0  0  0  0  0  0  0  0  0  0  0  0
    2.5917    0.0000    0.0000 C   0  0  0  0  0  0  0  0  0  0  0  0
   -2.6000    3.0000    0.0000 C   0  0  0  0  0  0  0  0  0  0  0  0
    3.4625   -1.5000    0.0000 C   0  0  0  0  0  0  0  0  0  0  0  0
   -0.8708   -3.0000    0.0000 C   0  0  0  0  0  0  0  0  0  0  0  0
    1.7292   -1.5000    0.0000 C   0  0  0  0  0  0  0  0  0  0  0  0
   -1.7333    1.5083    0.0000 C   0  0  0  0  0  0  0  0  0  0  0  0
    2.5917   -2.0000    0.0000 C   0  0  0  0  0  0  0  0  0  0  0  0
   -1.7333    2.5000    0.0000 C   0  0  0  0  0  0  0  0  0  0  0  0
  2  3  1  0  0  0  0
  2  7  1  0  0  0  0
  3  1  1  0  0  0  0
  4  1  2  0  0  0  0
  5  2  2  0  0  0  0
  6  1  1  0  0  0  0
  7 11  1  0  0  0  0
  8  3  2  0  0  0  0
  9 14  1  0  0  0  0
  9 16  2  0  0  0  0
 10 15  1  0  0  0  0
 10 17  2  0  0  0  0
 11  6  1  0  0  0  0
 12  4  1  0  0  0  0
 13  5  1  0  0  0  0
 14 13  2  0  0  0  0
 15 12  2  0  0  0  0
 16 22  1  0  0  0  0
 17 21  1  0  0  0  0
 18 11  1  0  0  0  0
 19 12  1  0  0  0  0
 20 13  1  0  0  0  0
 21 19  2  0  0  0  0
 22 20  2  0  0  0  0
M  END
>  <idnumber>
T0501-6952

>  <LogP>
2.855999999999999e+000

>  <rotating_bonds>
2.000000000000000e+000

>  <hb_acceptors>
3.000000000000000e+000

>  <hb_donors>
0.000000000000000e+000

>  <PSA>
4.284999999999997e+001

>  <clusterid>
78

>  <is_centroid>
@

>  <class1>
839

>  <class2>
632

>  <class3>
632

>  <population1>
1494

>  <population2>
79489

>  <population3>
79489

>  <population>
70

>  <cansmi>
CC1C/C(=C/c2cccnc2)/C(=O)/C(=C/c2cccnc2)/C1

>  <HBA2>
3

>  <HBD>
0

>  <logP>
3.9426

>  <TPSA>
42.85

>  <MW>
290.359

$$$$

 OpenBabel02121609142D

 17 18  0  0  0  0  0  0  0  0999 V2000
    0.1292    0.0250    0.0000 C   0  0  0  0  0  0  0  0  0  0  0  0
   -0.4583    0.8375    0.0000 N   0  0  0  0  0  0  0  0  0  0  0  0
   -0.4583   -0.7792    0.0000 C   0  0  0  0  0  0  0  0  0  0  0  0
    1.1292    0.0250    0.0000 C   0  0  0  0  0  0  0  0  0  0  0  0
   -1.4083    0.5250    0.0000 C   0  0  0  0  0  0  0  0  0  0  0  0
   -1.4083   -0.4750    0.0000 C   0  0  0  0  0  0  0  0  0  0  0  0
    1.6292   -0.8375    0.0000 C   0  0  0  0  0  0  0  0  0  0  0  0
    1.1292   -1.7042    0.0000 O   0  0  0  0  0  0  0  0  0  0  0  0
    2.6292   -0.8375    0.0000 N   0  0  0  0  0  0  0  0  0  0  0  0
   -0.1458    1.7875    0.0000 C   0  0  0  0  0  0  0  0  0  0  0  0
    0.1167   -1.6000    0.0000 C   0  0  0  0  0  0  0  0  0  0  0  0
   -0.4458   -1.7792    0.0000 C   0  0  0  0  0  0  0  0  0  0  0  0
   -2.2708    1.0250    0.0000 C   0  0  0  0  0  0  0  0  0  0  0  0
   -2.2708   -0.9750    0.0000 C   0  0  0  0  0  0  0  0  0  0  0  0
    3.1292   -1.7042    0.0000 C   0  0  0  0  0  0  0  0  0  0  0  0
   -3.1375   -0.4750    0.0000 C   0  0  0  0  0  0  0  0  0  0  0  0
   -3.1375    0.5250    0.0000 C   0  0  0  0  0  0  0  0  0  0  0  0
  2  1  1  0  0  0  0
  3  1  1  0  0  0  0
  4  1  2  0  0  0  0
  5  2  1  0  0  0  0
  5  6  2  0  0  0  0
  6  3  1  0  0  0  0
  7  4  1  0  0  0  0
  8  7  2  0  0  0  0
  9  7  1  0  0  0  0
 10  2  1  0  0  0  0
 11  3  1  0  0  0  0
 12  3  1  0  0  0  0
 13  5  1  0  0  0  0
 14  6  1  0  0  0  0
 15  9  1  0  0  0  0
 16 14  2  0  0  0  0
 17 13  2  0  0  0  0
 17 16  1  0  0  0  0
M  END
>  <idnumber>
T0501-7825

>  <LogP>
2.923000000000000e+000

>  <rotating_bonds>
1.000000000000000e+000

>  <hb_acceptors>
2.000000000000000e+000

>  <hb_donors>
1.000000000000000e+000

>  <PSA>
3.234000000000000e+001

>  <clusterid>
-83

>  <is_centroid>
@

>  <class1>
732

>  <population1>
13534

>  <population>
13534

>  <cansmi>
CNC(=O)/C=C\1/N(C)c2c(C1(C)C)cccc2

>  <HBA2>
3

>  <HBD>
1

>  <logP>
2.4998

>  <TPSA>
32.34

>  <MW>
230.306

$$$$

 OpenBabel02121609142D

 20 22  0  0  0  0  0  0  0  0999 V2000
   -1.3000    0.2500    0.0000 N   0  0  0  0  0  0  0  0  0  0  0  0
   -0.4333   -0.2417    0.0000 C   0  0  0  0  0  0  0  0  0  0  0  0
   -1.3000    1.2583    0.0000 C   0  0  0  0  0  0  0  0  0  0  0  0
    0.4292    0.2500    0.0000 C   0  0  0  0  0  0  0  0  0  0  0  0
    0.4292    1.2583    0.0000 C   0  0  0  0  0  0  0  0  0  0  0  0
   -0.4333    1.7500    0.0000 C   0  0  0  0  0  0  0  0  0  0  0  0
   -0.4333   -1.2417    0.0000 O   0  0  0  0  0  0  0  0  0  0  0  0
   -2.1708   -0.2417    0.0000 C   0  0  0  0  0  0  0  0  0  0  0  0
   -2.1708    1.7500    0.0000 O   0  0  0  0  0  0  0  0  0  0  0  0
    1.2917   -0.2417    0.0000 C   0  0  0  0  0  0  0  0  0  0  0  0
    1.2917    1.7500    0.0000 C   0  0  0  0  0  0  0  0  0  0  0  0
    2.1625    0.2500    0.0000 C   0  0  0  0  0  0  0  0  0  0  0  0
    2.1625    1.2583    0.0000 C   0  0  0  0  0  0  0  0  0  0  0  0
    3.0292   -0.2417    0.0000 O   0  0  0  0  0  0  0  0  0  0  0  0
   -3.0333    0.2500    0.0000 C   0  0  0  0  0  0  0  0  0  0  0  0
   -2.1708   -1.2417    0.0000 C   0  0  0  0  0  0  0  0  0  0  0  0
    3.8917    0.2500    0.0000 C   0  0  0  0  0  0  0  0  0  0  0  0
   -3.0333   -1.7500    0.0000 C   0  0  0  0  0  0  0  0  0  0  0  0
   -3.9000   -0.2417    0.0000 C   0  0  0  0  0  0  0  0  0  0  0  0
   -3.9000   -1.2417    0.0000 C   0  0  0  0  0  0  0  0  0  0  0  0
  2  1  1  0  0  0  0
  3  1  1  0  0  0  0
  4  2  1  0  0  0  0
  4  5  2  0  0  0  0
  5  6  1  0  0  0  0
  6  3  1  0  0  0  0
  7  2  2  0  0  0  0
  8  1  1  0  0  0  0
  9  3  2  0  0  0  0
 10  4  1  0  0  0  0
 11  5  1  0  0  0  0
 12 10  2  0  0  0  0
 12 13  1  0  0  0  0
 13 11  2  0  0  0  0
 14 12  1  0  0  0  0
 15  8  1  0  0  0  0
 16  8  2  0  0  0  0
 17 14  1  0  0  0  0
 18 16  1  0  0  0  0
 19 15  2  0  0  0  0
 19 20  1  0  0  0  0
 20 18  2  0  0  0  0
M  END
>  <idnumber>
T0501-8635

>  <LogP>
2.502000000000000e+000

>  <rotating_bonds>
2.000000000000000e+000

>  <hb_acceptors>
3.000000000000000e+000

>  <hb_donors>
0.000000000000000e+000

>  <PSA>
4.661000000000000e+001

>  <clusterid>
54

>  <is_centroid>
@

>  <class1>
915

>  <class2>
625

>  <population1>
2013

>  <population2>
877209

>  <population>
2013

>  <cansmi>
COc1ccc2c(c1)C(=O)N(C(=O)C2)c1ccccc1

>  <HBA2>
4

>  <HBD>
0

>  <logP>
2.4897

>  <TPSA>
46.61

>  <MW>
267.279

$$$$

 OpenBabel02121609142D

 15 16  0  0  0  0  0  0  0  0999 V2000
    0.0000    0.2500    0.0000 N   0  0  0  0  0  0  0  0  0  0  0  0
    0.0000    1.2500    0.0000 C   0  0  0  0  0  0  0  0  0  0  0  0
    0.8625   -0.2500    0.0000 C   0  0  0  0  0  0  0  0  0  0  0  0
    1.7292    0.2500    0.0000 C   0  0  0  0  0  0  0  0  0  0  0  0
    0.8625    1.7500    0.0000 C   0  0  0  0  0  0  0  0  0  0  0  0
    1.7292    1.2500    0.0000 C   0  0  0  0  0  0  0  0  0  0  0  0
   -0.8708   -0.2500    0.0000 C   0  0  0  0  0  0  0  0  0  0  0  0
    2.5917    1.7500    0.0000 O   0  0  0  0  0  0  0  0  0  0  0  0
    0.8625   -1.2500    0.0000 C   0  0  0  0  0  0  0  0  0  0  0  0
   -0.8708    1.7500    0.0000 C   0  0  0  0  0  0  0  0  0  0  0  0
   -1.7333    0.2500    0.0000 C   0  0  0  0  0  0  0  0  0  0  0  0
   -0.8708   -1.2500    0.0000 C   0  0  0  0  0  0  0  0  0  0  0  0
   -1.7333   -1.7500    0.0000 C   0  0  0  0  0  0  0  0  0  0  0  0
   -2.6000   -0.2500    0.0000 C   0  0  0  0  0  0  0  0  0  0  0  0
   -2.6000   -1.2500    0.0000 C   0  0  0  0  0  0  0  0  0  0  0  0
  2  1  1  0  0  0  0
  3  1  1  0  0  0  0
  4  3  2  0  0  0  0
  5  2  2  0  0  0  0
  6  4  1  0  0  0  0
  6  5  1  0  0  0  0
  7  1  1  0  0  0  0
  8  6  2  0  0  0  0
  9  3  1  0  0  0  0
 10  2  1  0  0  0  0
 11  7  1  0  0  0  0
 12  7  2  0  0  0  0
 13 12  1  0  0  0  0
 14 11  2  0  0  0  0
 14 15  1  0  0  0  0
 15 13  2  0  0  0  0
M  END
>  <idnumber>
T0501-8744

>  <LogP>
1.413000000000000e+000

>  <rotating_bonds>
1.000000000000000e+000

>  <hb_acceptors>
2.000000000000000e+000

>  <hb_donors>
0.000000000000000e+000

>  <PSA>
2.031000000000000e+001

>  <clusterid>
73

>  <is_centroid>
@

>  <class1>
877

>  <class2>
625

>  <population1>
71

>  <population2>
877209

>  <population>
58

>  <cansmi>
O=c1cc(C)n(c(c1)C)c1ccccc1

>  <HBA2>
2

>  <HBD>
0

>  <logP>
2.4543

>  <TPSA>
22

>  <MW>
199.248

$$$$

 OpenBabel02121609142D

 21 23  0  0  0  0  0  0  0  0999 V2000
    0.4292    1.2500    0.0000 C   0  0  0  0  0  0  0  0  0  0  0  0
    0.4292    0.2500    0.0000 C   0  0  0  0  0  0  0  0  0  0  0  0
    0.4292    3.2500    0.0000 N   0  0  0  0  0  0  0  0  0  0  0  0
    1.2917    2.7583    0.0000 C   0  0  0  0  0  0  0  0  0  0  0  0
   -0.4333    1.7500    0.0000 C   0  0  0  0  0  0  0  0  0  0  0  0
    1.2917    1.7500    0.0000 C   0  0  0  0  0  0  0  0  0  0  0  0
   -0.4333    2.7583    0.0000 C   0  0  0  0  0  0  0  0  0  0  0  0
   -0.4333   -0.2500    0.0000 N   0  0  0  0  0  0  0  0  0  0  0  0
    1.2917   -0.2500    0.0000 O   0  0  0  0  0  0  0  0  0  0  0  0
    2.1625    3.2500    0.0000 O   0  0  0  0  0  0  0  0  0  0  0  0
   -0.4333   -1.2417    0.0000 C   0  0  0  0  0  0  0  0  0  0  0  0
   -1.3000   -1.7500    0.0000 C   0  0  0  0  0  0  0  0  0  0  0  0
   -1.3000   -2.7417    0.0000 C   0  0  0  0  0  0  0  0  0  0  0  0
   -1.3000    1.2500    0.0000 C   0  0  0  0  0  0  0  0  0  0  0  0
   -1.3000    3.2500    0.0000 C   0  0  0  0  0  0  0  0  0  0  0  0
    0.4292   -2.7417    0.0000 C   0  0  0  0  0  0  0  0  0  0  0  0
    0.4292   -1.7500    0.0000 C   0  0  0  0  0  0  0  0  0  0  0  0
   -0.4333   -3.2500    0.0000 C   0  0  0  0  0  0  0  0  0  0  0  0
   -2.1708   -3.2500    0.0000 C   0  0  0  0  0  0  0  0  0  0  0  0
   -2.1708    1.7500    0.0000 C   0  0  0  0  0  0  0  0  0  0  0  0
   -2.1708    2.7583    0.0000 C   0  0  0  0  0  0  0  0  0  0  0  0
  2  1  1  0  0  0  0
  3  4  1  0  0  0  0
  4  6  1  0  0  0  0
  5  1  1  0  0  0  0
  6  1  2  0  0  0  0
  7  5  2  0  0  0  0
  7  3  1  0  0  0  0
  8  2  1  0  0  0  0
  9  2  2  0  0  0  0
 10  4  2  0  0  0  0
 11  8  1  0  0  0  0
 12 11  1  0  0  0  0
 13 12  2  0  0  0  0
 13 18  1  0  0  0  0
 14  5  1  0  0  0  0
 15  7  1  0  0  0  0
 15 21  2  0  0  0  0
 16 17  1  0  0  0  0
 17 11  2  0  0  0  0
 18 16  2  0  0  0  0
 19 13  1  0  0  0  0
 20 14  2  0  0  0  0
 21 20  1  0  0  0  0
M  END
>  <idnumber>
T0502-4362

>  <LogP>
2.403000000000000e+000

>  <rotating_bonds>
2.000000000000000e+000

>  <hb_acceptors>
2.000000000000000e+000

>  <hb_donors>
2.000000000000000e+000

>  <PSA>
5.820000000000000e+001

>  <clusterid>
81

>  <is_centroid>
@

>  <class1>
625

>  <class2>
801

>  <population1>
877209

>  <population2>
1387

>  <population>
1387

>  <cansmi>
Cc1cccc(c1)NC(=O)c1cc(=O)[nH]c2c1cccc2

>  <HBA2>
3

>  <HBD>
2

>  <logP>
3.1618

>  <TPSA>
61.96

>  <MW>
278.305

$$$$

 OpenBabel02121609142D

 12 13  0  0  0  0  0  0  0  0999 V2000
    1.2917    0.0083    0.0000 N   0  0  0  0  0  0  0  0  0  0  0  0
    0.4292    0.5083    0.0000 C   0  0  0  0  0  0  0  0  0  0  0  0
   -0.4333    0.0083    0.0000 C   0  0  0  0  0  0  0  0  0  0  0  0
    1.2917   -1.0000    0.0000 C   0  0  0  0  0  0  0  0  0  0  0  0
    0.4292   -1.5000    0.0000 O   0  0  0  0  0  0  0  0  0  0  0  0
   -0.4333   -0.9917    0.0000 C   0  0  0  0  0  0  0  0  0  0  0  0
    0.4292    1.5000    0.0000 O   0  0  0  0  0  0  0  0  0  0  0  0
   -1.3000    0.5083    0.0000 C   0  0  0  0  0  0  0  0  0  0  0  0
    2.1625   -1.5000    0.0000 C   0  0  0  0  0  0  0  0  0  0  0  0
   -1.3000   -1.4917    0.0000 C   0  0  0  0  0  0  0  0  0  0  0  0
   -2.1708    0.0083    0.0000 C   0  0  0  0  0  0  0  0  0  0  0  0
   -2.1708   -0.9917    0.0000 C   0  0  0  0  0  0  0  0  0  0  0  0
  2  1  1  0  0  0  0
  3  2  1  0  0  0  0
  3  6  2  0  0  0  0
  4  1  2  0  0  0  0
  5  4  1  0  0  0  0
  6  5  1  0  0  0  0
  7  2  2  0  0  0  0
  8  3  1  0  0  0  0
  9  4  1  0  0  0  0
 10  6  1  0  0  0  0
 11  8  2  0  0  0  0
 11 12  1  0  0  0  0
 12 10  2  0  0  0  0
M  END
>  <idnumber>
T0502-4388

>  <LogP>
1.494000000000000e+000

>  <rotating_bonds>
0.000000000000000e+000

>  <hb_acceptors>
3.000000000000000e+000

>  <hb_donors>
0.000000000000000e+000

>  <PSA>
3.866000000000000e+001

>  <clusterid>
-89

>  <is_centroid>
@

>  <class1>
871

>  <population1>
15

>  <population>
15

>  <cansmi>
Cc1nc(=O)c2c(o1)cccc2

>  <HBA2>
3

>  <HBD>
0

>  <logP>
1.4964

>  <TPSA>
43.1

>  <MW>
161.157

$$$$

 OpenBabel02121609142D

 22 24  0  0  0  0  0  0  0  0999 V2000
   -0.6208   -2.0000    0.0000 C   0  0  0  0  0  0  0  0  0  0  0  0
   -0.6208   -1.0000    0.0000 N   0  0  0  0  0  0  0  0  0  0  0  0
   -0.6208    1.0000    0.0000 N   0  0  0  0  0  0  0  0  0  0  0  0
   -0.6208    2.0000    0.0000 C   0  0  0  0  0  0  0  0  0  0  0  0
   -1.9833    0.6375    0.0000 N   0  0  0  0  0  0  0  0  0  0  0  0
   -1.1208    1.1375    0.0000 C   0  0  0  0  0  0  0  0  0  0  0  0
   -1.4833   -0.5000    0.0000 C   0  0  0  0  0  0  0  0  0  0  0  0
    0.2500   -0.5000    0.0000 C   0  0  0  0  0  0  0  0  0  0  0  0
    0.2500    0.5000    0.0000 C   0  0  0  0  0  0  0  0  0  0  0  0
   -1.4833    0.5000    0.0000 C   0  0  0  0  0  0  0  0  0  0  0  0
   -1.4833   -2.5000    0.0000 O   0  0  0  0  0  0  0  0  0  0  0  0
    0.2500   -2.5000    0.0000 C   0  0  0  0  0  0  0  0  0  0  0  0
   -1.4833    2.5000    0.0000 C   0  0  0  0  0  0  0  0  0  0  0  0
    0.2500    2.5000    0.0000 C   0  0  0  0  0  0  0  0  0  0  0  0
    0.2500   -3.5000    0.0000 C   0  0  0  0  0  0  0  0  0  0  0  0
    1.1125   -2.0000    0.0000 C   0  0  0  0  0  0  0  0  0  0  0  0
    0.2500    3.5083    0.0000 C   0  0  0  0  0  0  0  0  0  0  0  0
   -1.4833    3.5083    0.0000 C   0  0  0  0  0  0  0  0  0  0  0  0
    1.9792   -2.5000    0.0000 C   0  0  0  0  0  0  0  0  0  0  0  0
    1.1125   -4.0000    0.0000 C   0  0  0  0  0  0  0  0  0  0  0  0
   -0.6208    4.0000    0.0000 C   0  0  0  0  0  0  0  0  0  0  0  0
    1.9792   -3.5000    0.0000 C   0  0  0  0  0  0  0  0  0  0  0  0
  2  1  1  0  0  0  0
  3  9  1  0  0  0  0
  4  3  1  0  0  0  0
  5  6  3  0  0  0  0
  6  4  1  0  0  0  0
  7  2  1  0  0  0  0
  8  2  1  0  0  0  0
  9  8  1  0  0  0  0
 10  7  1  0  0  0  0
 10  3  1  0  0  0  0
 11  1  2  0  0  0  0
 12  1  1  0  0  0  0
 13  4  1  0  0  0  0
 14  4  1  0  0  0  0
 15 12  1  0  0  0  0
 16 12  2  0  0  0  0
 17 14  1  0  0  0  0
 18 13  1  0  0  0  0
 18 21  1  0  0  0  0
 19 16  1  0  0  0  0
 20 15  2  0  0  0  0
 20 22  1  0  0  0  0
 21 17  1  0  0  0  0
 22 19  2  0  0  0  0
M  END
>  <idnumber>
T0502-4817

>  <LogP>
2.603000000000000e+000

>  <rotating_bonds>
3.000000000000000e+000

>  <hb_acceptors>
3.000000000000000e+000

>  <hb_donors>
0.000000000000000e+000

>  <PSA>
4.734000000000000e+001

>  <clusterid>
-90

>  <is_centroid>
@

>  <class1>
625

>  <class2>
797

>  <class3>
717

>  <population1>
877209

>  <population2>
40410

>  <population3>
74368

>  <population>
1455

>  <cansmi>
N#CC1(CCCCC1)N1CCN(CC1)C(=O)c1ccccc1

>  <HBA2>
4

>  <HBD>
0

>  <logP>
2.54668

>  <TPSA>
47.34

>  <MW>
297.395

$$$$

 OpenBabel02121609142D

 14 15  0  0  0  0  0  0  0  0999 V2000
   -0.0833   -0.6167    0.0000 N   0  0  0  0  0  0  0  0  0  0  0  0
    0.8667   -0.9250    0.0000 C   0  0  0  0  0  0  0  0  0  0  0  0
    0.8667   -1.9250    0.0000 C   0  0  0  0  0  0  0  0  0  0  0  0
   -0.6708   -1.4250    0.0000 N   0  0  0  0  0  0  0  0  0  0  0  0
   -0.0833   -2.2292    0.0000 C   0  0  0  0  0  0  0  0  0  0  0  0
   -0.3958    0.3375    0.0000 C   0  0  0  0  0  0  0  0  0  0  0  0
    1.6750   -0.3375    0.0000 O   0  0  0  0  0  0  0  0  0  0  0  0
    0.2750    1.0833    0.0000 C   0  0  0  0  0  0  0  0  0  0  0  0
   -1.3708    0.5458    0.0000 C   0  0  0  0  0  0  0  0  0  0  0  0
   -1.0125    2.2375    0.0000 C   0  0  0  0  0  0  0  0  0  0  0  0
   -1.6833    1.4958    0.0000 C   0  0  0  0  0  0  0  0  0  0  0  0
   -0.0333    2.0333    0.0000 C   0  0  0  0  0  0  0  0  0  0  0  0
   -1.3208    3.1875    0.0000 Cl  0  0  0  0  0  0  0  0  0  0  0  0
   -0.3958   -3.1792    0.0000 C   0  0  0  0  0  0  0  0  0  0  0  0
  2  1  1  0  0  0  0
  3  2  1  0  0  0  0
  4  1  1  0  0  0  0
  5  4  1  0  0  0  0
  5  3  2  0  0  0  0
  6  1  1  0  0  0  0
  7  2  2  0  0  0  0
  8  6  1  0  0  0  0
  9  6  2  0  0  0  0
 10 11  2  0  0  0  0
 11  9  1  0  0  0  0
 12  8  2  0  0  0  0
 12 10  1  0  0  0  0
 13 10  1  0  0  0  0
 14  5  1  0  0  0  0
M  END
>  <idnumber>
T0502-4944

>  <LogP>
2.051000000000000e+000

>  <rotating_bonds>
1.000000000000000e+000

>  <hb_acceptors>
3.000000000000000e+000

>  <hb_donors>
1.000000000000000e+000

>  <PSA>
3.234000000000000e+001

>  <clusterid>
-91

>  <is_centroid>
@

>  <class1>
813

>  <class2>
625

>  <population1>
2955

>  <population2>
877209

>  <population>
2946

>  <cansmi>
Clc1ccc(cc1)n1[nH]c(cc1=O)C

>  <HBA2>
2

>  <HBD>
1

>  <logP>
2.1274

>  <TPSA>
37.79

>  <MW>
208.644

$$$$

 OpenBabel02121609142D

 19 21  0  0  0  0  0  0  0  0999 V2000
   -0.8250    1.8250    0.0000 N   0  0  0  0  0  0  0  0  0  0  0  0
    0.1292    1.5208    0.0000 C   0  0  0  0  0  0  0  0  0  0  0  0
    0.7167    2.3333    0.0000 N   0  0  0  0  0  0  0  0  0  0  0  0
    0.1292    3.1333    0.0000 N   0  0  0  0  0  0  0  0  0  0  0  0
   -0.8250    2.8333    0.0000 C   0  0  0  0  0  0  0  0  0  0  0  0
    0.4375    0.5708    0.0000 C   0  0  0  0  0  0  0  0  0  0  0  0
    1.4125    0.3583    0.0000 N   0  0  0  0  0  0  0  0  0  0  0  0
    1.7250   -0.5917    0.0000 C   0  0  0  0  0  0  0  0  0  0  0  0
   -1.6083    1.2083    0.0000 C   0  0  0  0  0  0  0  0  0  0  0  0
    2.3417   -2.4917    0.0000 C   0  0  0  0  0  0  0  0  0  0  0  0
    2.7000   -0.8000    0.0000 C   0  0  0  0  0  0  0  0  0  0  0  0
    1.0542   -1.3375    0.0000 C   0  0  0  0  0  0  0  0  0  0  0  0
    3.0125   -1.7500    0.0000 C   0  0  0  0  0  0  0  0  0  0  0  0
    1.3625   -2.2875    0.0000 C   0  0  0  0  0  0  0  0  0  0  0  0
   -1.6083    3.4583    0.0000 C   0  0  0  0  0  0  0  0  0  0  0  0
    2.6500   -3.4417    0.0000 C   0  0  0  0  0  0  0  0  0  0  0  0
   -2.5833    1.4250    0.0000 C   0  0  0  0  0  0  0  0  0  0  0  0
   -2.5833    3.2333    0.0000 C   0  0  0  0  0  0  0  0  0  0  0  0
   -3.0125    2.3333    0.0000 C   0  0  0  0  0  0  0  0  0  0  0  0
  2  1  1  0  0  0  0
  3  2  2  0  0  0  0
  3  4  1  0  0  0  0
  4  5  2  0  0  0  0
  5  1  1  0  0  0  0
  6  2  1  0  0  0  0
  7  6  1  0  0  0  0
  8  7  1  0  0  0  0
  9  1  1  0  0  0  0
 10 14  2  0  0  0  0
 10 13  1  0  0  0  0
 11  8  1  0  0  0  0
 12  8  2  0  0  0  0
 13 11  2  0  0  0  0
 14 12  1  0  0  0  0
 15  5  1  0  0  0  0
 16 10  1  0  0  0  0
 17  9  1  0  0  0  0
 18 15  1  0  0  0  0
 18 19  1  0  0  0  0
 19 17  1  0  0  0  0
M  END
>  <idnumber>
T0502-5162

>  <LogP>
1.617000000000000e+000

>  <rotating_bonds>
3.000000000000000e+000

>  <hb_acceptors>
3.000000000000000e+000

>  <hb_donors>
1.000000000000000e+000

>  <PSA>
4.274000000000000e+001

>  <clusterid>
86

>  <is_centroid>
@

>  <class1>
625

>  <class2>
757

>  <population1>
877209

>  <population2>
2963

>  <population>
2685

>  <cansmi>
Cc1ccc(cc1)NCc1nnc2n1CCCCC2

>  <HBA2>
4

>  <HBD>
1

>  <logP>
2.998

>  <TPSA>
42.74

>  <MW>
256.346

$$$$

 OpenBabel02121609142D

 15 16  0  0  0  0  0  0  0  0999 V2000
    0.8625   -1.5000    0.0000 C   0  0  0  0  0  0  0  0  0  0  0  0
    0.8625   -0.5000    0.0000 C   0  0  0  0  0  0  0  0  0  0  0  0
    1.7292   -2.0000    0.0000 C   0  0  0  0  0  0  0  0  0  0  0  0
   -0.0083    0.0000    0.0000 N   0  0  0  0  0  0  0  0  0  0  0  0
    1.7292   -3.0000    0.0000 O   0  0  0  0  0  0  0  0  0  0  0  0
   -0.0083    1.0000    0.0000 C   0  0  0  0  0  0  0  0  0  0  0  0
   -0.8708    1.5000    0.0000 C   0  0  0  0  0  0  0  0  0  0  0  0
    1.7292    0.0000    0.0000 C   0  0  0  0  0  0  0  0  0  0  0  0
    2.5917   -0.5000    0.0000 C   0  0  0  0  0  0  0  0  0  0  0  0
    2.5917   -1.5000    0.0000 C   0  0  0  0  0  0  0  0  0  0  0  0
   -0.8708    2.5000    0.0000 C   0  0  0  0  0  0  0  0  0  0  0  0
   -1.7333    1.0000    0.0000 C   0  0  0  0  0  0  0  0  0  0  0  0
   -2.6000    1.5000    0.0000 C   0  0  0  0  0  0  0  0  0  0  0  0
   -1.7333    3.0000    0.0000 C   0  0  0  0  0  0  0  0  0  0  0  0
   -2.6000    2.5000    0.0000 C   0  0  0  0  0  0  0  0  0  0  0  0
  2  1  2  0  0  0  0
  3  1  1  0  0  0  0
  4  2  1  0  0  0  0
  5  3  2  0  0  0  0
  6  4  1  0  0  0  0
  7  6  1  0  0  0  0
  8  2  1  0  0  0  0
  9 10  1  0  0  0  0
  9  8  1  0  0  0  0
 10  3  1  0  0  0  0
 11  7  1  0  0  0  0
 12  7  2  0  0  0  0
 13 12  1  0  0  0  0
 14 11  2  0  0  0  0
 14 15  1  0  0  0  0
 15 13  2  0  0  0  0
M  END
>  <idnumber>
T0502-5261

>  <LogP>
2.335000000000000e+000

>  <rotating_bonds>
3.000000000000000e+000

>  <hb_acceptors>
2.000000000000000e+000

>  <hb_donors>
1.000000000000000e+000

>  <PSA>
2.910000000000000e+001

>  <clusterid>
-92

>  <is_centroid>
@

>  <class1>
625

>  <class2>
906

>  <population1>
877209

>  <population2>
1170

>  <population>
992

>  <cansmi>
O=C1CCCC(=C1)NCc1ccccc1

>  <HBA2>
2

>  <HBD>
1

>  <logP>
2.804

>  <TPSA>
29.1

>  <MW>
201.264

$$$$

 OpenBabel02121609142D

 20 22  0  0  0  0  0  0  0  0999 V2000
    0.1375    0.3375    0.0000 C   0  0  0  0  0  0  0  0  0  0  0  0
   -2.3375   -1.2500    0.0000 C   0  0  0  0  0  0  0  0  0  0  0  0
    0.9500   -0.1917    0.0000 N   0  0  0  0  0  0  0  0  0  0  0  0
   -0.6208   -0.2292    0.0000 C   0  0  3  0  0  0  0  0  0  0  0  0
   -1.7083   -1.5792    0.0000 C   0  0  3  0  0  0  0  0  0  0  0  0
   -2.2625   -0.0417    0.0000 C   0  0  3  0  0  0  0  0  0  0  0  0
   -0.7583   -1.2417    0.0000 C   0  0  0  0  0  0  0  0  0  0  0  0
   -1.4208    0.3458    0.0000 C   0  0  0  0  0  0  0  0  0  0  0  0
    1.8042    0.3083    0.0000 C   0  0  0  0  0  0  0  0  0  0  0  0
    0.0875    1.3000    0.0000 O   0  0  0  0  0  0  0  0  0  0  0  0
   -3.4000   -1.5542    0.0000 O   0  0  0  0  0  0  0  0  0  0  0  0
    2.6667   -0.1917    0.0000 C   0  0  0  0  0  0  0  0  0  0  0  0
   -3.2083    0.0750    0.0000 C   0  0  0  0  0  0  0  0  0  0  0  0
   -2.7583   -1.7875    0.0000 C   0  0  0  0  0  0  0  0  0  0  0  0
   -3.5333   -0.8167    0.0000 C   0  0  0  0  0  0  0  0  0  0  0  0
    1.8042    1.2958    0.0000 C   0  0  0  0  0  0  0  0  0  0  0  0
    2.6667   -1.1792    0.0000 C   0  0  0  0  0  0  0  0  0  0  0  0
    3.5250    0.3083    0.0000 C   0  0  0  0  0  0  0  0  0  0  0  0
    2.6667    1.7958    0.0000 C   0  0  0  0  0  0  0  0  0  0  0  0
    3.5250    1.2958    0.0000 C   0  0  0  0  0  0  0  0  0  0  0  0
  2  6  1  0  0  0  0
  3  1  1  0  0  0  0
  4  1  1  0  0  0  0
  5  7  1  0  0  0  0
  5  2  1  0  0  0  0
  6  8  1  0  0  0  0
  7  4  1  0  0  0  0
  8  4  1  0  0  0  0
  9  3  1  0  0  0  0
 10  1  2  0  0  0  0
 11  2  2  0  0  0  0
 12  9  2  0  0  0  0
 13  6  1  0  0  0  0
 14  5  1  0  0  0  0
 14 15  1  0  0  0  0
 15 13  1  0  0  0  0
 16  9  1  0  0  0  0
 17 12  1  0  0  0  0
 18 12  1  0  0  0  0
 18 20  2  0  0  0  0
 19 16  2  0  0  0  0
 20 19  1  0  0  0  0
M  END
>  <idnumber>
T0502-5477

>  <LogP>
1.425000000000000e+000

>  <rotating_bonds>
2.000000000000000e+000

>  <hb_acceptors>
2.000000000000000e+000

>  <hb_donors>
1.000000000000000e+000

>  <PSA>
4.616999999999997e+001

>  <clusterid>
87

>  <is_centroid>
@

>  <class1>
816

>  <class2>
625

>  <population1>
265

>  <population2>
877209

>  <population>
212

>  <cansmi>
O=C(C1CC2CCCC(C1)C2=O)Nc1ccccc1C

>  <HBA2>
3

>  <HBD>
1

>  <logP>
3.4019

>  <TPSA>
46.17

>  <MW>
271.354

$$$$

 OpenBabel02121609142D

 14 14  0  0  0  0  0  0  0  0999 V2000
   -1.3000    0.7500    0.0000 N   0  0  0  0  0  0  0  0  0  0  0  0
    0.4292    0.7500    0.0000 C   0  0  0  0  0  0  0  0  0  0  0  0
   -0.4333   -0.7500    0.0000 C   0  0  0  0  0  0  0  0  0  0  0  0
    0.4292   -0.2500    0.0000 C   0  0  0  0  0  0  0  0  0  0  0  0
   -0.4333    1.2500    0.0000 C   0  0  0  0  0  0  0  0  0  0  0  0
   -1.3000   -0.2500    0.0000 C   0  0  0  0  0  0  0  0  0  0  0  0
    1.2917    1.2500    0.0000 C   0  0  0  0  0  0  0  0  0  0  0  0
   -0.4333   -1.7500    0.0000 C   0  0  0  0  0  0  0  0  0  0  0  0
    1.2917    2.2500    0.0000 O   0  0  0  0  0  0  0  0  0  0  0  0
    0.4292   -2.2500    0.0000 O   0  0  0  0  0  0  0  0  0  0  0  0
   -0.4333    2.2500    0.0000 C   0  0  0  0  0  0  0  0  0  0  0  0
   -2.1708   -0.7500    0.0000 C   0  0  0  0  0  0  0  0  0  0  0  0
    2.1625    0.7500    0.0000 C   0  0  0  0  0  0  0  0  0  0  0  0
   -1.3000   -2.2500    0.0000 C   0  0  0  0  0  0  0  0  0  0  0  0
  2  5  1  0  0  0  0
  3  6  2  0  0  0  0
  4  3  1  0  0  0  0
  4  2  2  0  0  0  0
  5  1  2  0  0  0  0
  6  1  1  0  0  0  0
  7  2  1  0  0  0  0
  8  3  1  0  0  0  0
  9  7  2  0  0  0  0
 10  8  2  0  0  0  0
 11  5  1  0  0  0  0
 12  6  1  0  0  0  0
 13  7  1  0  0  0  0
 14  8  1  0  0  0  0
M  END
>  <idnumber>
T0502-5510

>  <LogP>
1.242000000000000e+000

>  <rotating_bonds>
2.000000000000000e+000

>  <hb_acceptors>
3.000000000000000e+000

>  <hb_donors>
0.000000000000000e+000

>  <PSA>
4.703000000000000e+001

>  <clusterid>
89

>  <is_centroid>
@

>  <class1>
632

>  <population1>
79489

>  <population>
79489

>  <cansmi>
CC(=O)c1cc(C(=O)C)c(nc1C)C

>  <HBA2>
3

>  <HBD>
0

>  <logP>
2.1036

>  <TPSA>
47.03

>  <MW>
191.226

$$$$

 OpenBabel02121609142D

 16 17  0  0  0  0  0  0  0  0999 V2000
    0.0000    0.7500    0.0000 C   0  0  0  0  0  0  0  0  0  0  0  0
    0.0000   -0.2500    0.0000 C   0  0  0  0  0  0  0  0  0  0  0  0
    0.8625    1.2500    0.0000 N   0  0  0  0  0  0  0  0  0  0  0  0
    1.7292   -0.2500    0.0000 N   0  0  0  0  0  0  0  0  0  0  0  0
    0.8625   -0.7500    0.0000 C   0  0  0  0  0  0  0  0  0  0  0  0
    1.7292    0.7500    0.0000 C   0  0  0  0  0  0  0  0  0  0  0  0
   -0.8708    1.2500    0.0000 O   0  0  0  0  0  0  0  0  0  0  0  0
   -0.8708   -0.7500    0.0000 C   0  0  0  0  0  0  0  0  0  0  0  0
    0.8625    2.2500    0.0000 C   0  0  0  0  0  0  0  0  0  0  0  0
    0.8625   -1.7500    0.0000 C   0  0  0  0  0  0  0  0  0  0  0  0
    2.5917    1.2500    0.0000 C   0  0  0  0  0  0  0  0  0  0  0  0
   -1.7333   -0.2500    0.0000 C   0  0  0  0  0  0  0  0  0  0  0  0
   -0.8708   -1.7500    0.0000 C   0  0  0  0  0  0  0  0  0  0  0  0
   -1.7333   -2.2500    0.0000 C   0  0  0  0  0  0  0  0  0  0  0  0
   -2.6000   -0.7500    0.0000 C   0  0  0  0  0  0  0  0  0  0  0  0
   -2.6000   -1.7500    0.0000 C   0  0  0  0  0  0  0  0  0  0  0  0
  2  1  1  0  0  0  0
  3  1  1  0  0  0  0
  4  6  2  0  0  0  0
  5  2  2  0  0  0  0
  5  4  1  0  0  0  0
  6  3  1  0  0  0  0
  7  1  2  0  0  0  0
  8  2  1  0  0  0  0
  9  3  1  0  0  0  0
 10  5  1  0  0  0  0
 11  6  1  0  0  0  0
 12  8  1  0  0  0  0
 13  8  2  0  0  0  0
 14 13  1  0  0  0  0
 15 12  2  0  0  0  0
 15 16  1  0  0  0  0
 16 14  2  0  0  0  0
M  END
>  <idnumber>
T0502-6679

>  <LogP>
1.723000000000000e+000

>  <rotating_bonds>
1.000000000000000e+000

>  <hb_acceptors>
2.000000000000000e+000

>  <hb_donors>
0.000000000000000e+000

>  <PSA>
3.267000000000000e+001

>  <clusterid>
90

>  <is_centroid>
@

>  <class1>
898

>  <class2>
625

>  <population1>
30990

>  <population2>
877209

>  <population>
23951

>  <cansmi>
Cc1nc(C)n(c(=O)c1c1ccccc1)C

>  <HBA2>
3

>  <HBD>
0

>  <logP>
2.0641

>  <TPSA>
34.89

>  <MW>
214.263

$$$$

 OpenBabel02121609142D

 17 18  0  0  0  0  0  0  0  0999 V2000
   -0.2125   -0.0292    0.0000 C   0  0  0  0  0  0  0  0  0  0  0  0
   -0.8000   -0.8417    0.0000 N   0  0  0  0  0  0  0  0  0  0  0  0
   -0.2125   -1.6542    0.0000 C   0  0  0  0  0  0  0  0  0  0  0  0
    0.7375   -1.3417    0.0000 N   0  0  0  0  0  0  0  0  0  0  0  0
    0.7375   -0.3417    0.0000 C   0  0  0  0  0  0  0  0  0  0  0  0
   -0.5208    0.9208    0.0000 C   0  0  3  0  0  0  0  0  0  0  0  0
   -0.5208   -2.6042    0.0000 C   0  0  0  0  0  0  0  0  0  0  0  0
    0.1500    1.6583    0.0000 C   0  0  0  0  0  0  0  0  0  0  0  0
   -1.8000   -0.8417    0.0000 C   0  0  0  0  0  0  0  0  0  0  0  0
   -1.5000    1.1208    0.0000 O   0  0  0  0  0  0  0  0  0  0  0  0
    1.1250    1.4500    0.0000 C   0  0  0  0  0  0  0  0  0  0  0  0
   -0.1625    2.6083    0.0000 C   0  0  0  0  0  0  0  0  0  0  0  0
    0.1500   -3.3500    0.0000 C   0  0  0  0  0  0  0  0  0  0  0  0
   -1.5000   -2.8125    0.0000 C   0  0  0  0  0  0  0  0  0  0  0  0
    0.5042    3.3583    0.0000 C   0  0  0  0  0  0  0  0  0  0  0  0
    1.7917    2.1958    0.0000 C   0  0  0  0  0  0  0  0  0  0  0  0
    1.4875    3.1458    0.0000 C   0  0  0  0  0  0  0  0  0  0  0  0
  2  1  1  0  0  0  0
  3  2  1  0  0  0  0
  3  4  2  0  0  0  0
  4  5  1  0  0  0  0
  5  1  2  0  0  0  0
  6  1  1  0  0  0  0
  7  3  1  0  0  0  0
  8  6  1  0  0  0  0
  9  2  1  0  0  0  0
 10  6  1  0  0  0  0
 11  8  1  0  0  0  0
 12  8  2  0  0  0  0
 13  7  1  0  0  0  0
 14  7  1  0  0  0  0
 15 12  1  0  0  0  0
 16 11  2  0  0  0  0
 16 17  1  0  0  0  0
 17 15  2  0  0  0  0
M  END
>  <idnumber>
T0502-8174

>  <LogP>
1.494000000000000e+000

>  <rotating_bonds>
3.000000000000000e+000

>  <hb_acceptors>
2.000000000000000e+000

>  <hb_donors>
1.000000000000000e+000

>  <PSA>
3.805000000000000e+001

>  <clusterid>
-99

>  <is_centroid>
@

>  <class1>
625

>  <class2>
686

>  <population1>
877209

>  <population2>
31113

>  <population>
26567

>  <cansmi>
OC(c1cnc(n1C)C(C)C)c1ccccc1

>  <HBA2>
3

>  <HBD>
1

>  <logP>
2.6252

>  <TPSA>
38.05

>  <MW>
230.306

$$$$

 OpenBabel02121609142D

 18 20  0  0  0  0  0  0  0  0999 V2000
   -0.6208   -0.3625    0.0000 C   0  0  0  0  0  0  0  0  0  0  0  0
   -1.2083    0.4458    0.0000 N   0  0  0  0  0  0  0  0  0  0  0  0
   -1.2083   -1.1750    0.0000 N   0  0  0  0  0  0  0  0  0  0  0  0
    0.3792   -0.3625    0.0000 C   0  0  0  0  0  0  0  0  0  0  0  0
   -2.1583    0.1375    0.0000 C   0  0  0  0  0  0  0  0  0  0  0  0
    0.8792    0.5000    0.0000 C   0  0  0  0  0  0  0  0  0  0  0  0
   -2.1583   -0.8625    0.0000 C   0  0  0  0  0  0  0  0  0  0  0  0
    0.3792    1.3708    0.0000 O   0  0  0  0  0  0  0  0  0  0  0  0
    1.8792    0.5000    0.0000 C   0  0  0  0  0  0  0  0  0  0  0  0
   -3.0208    0.6375    0.0000 C   0  0  0  0  0  0  0  0  0  0  0  0
   -3.0208   -1.3625    0.0000 C   0  0  0  0  0  0  0  0  0  0  0  0
    2.3792   -0.3625    0.0000 C   0  0  0  0  0  0  0  0  0  0  0  0
    2.3792    1.3708    0.0000 C   0  0  0  0  0  0  0  0  0  0  0  0
   -3.8958    0.1375    0.0000 C   0  0  0  0  0  0  0  0  0  0  0  0
   -3.8958   -0.8625    0.0000 C   0  0  0  0  0  0  0  0  0  0  0  0
    3.3792    1.3708    0.0000 C   0  0  0  0  0  0  0  0  0  0  0  0
    3.3792   -0.3625    0.0000 C   0  0  0  0  0  0  0  0  0  0  0  0
    3.8792    0.5000    0.0000 C   0  0  0  0  0  0  0  0  0  0  0  0
  2  1  2  0  0  0  0
  3  1  1  0  0  0  0
  4  1  1  0  0  0  0
  5  2  1  0  0  0  0
  5  7  2  0  0  0  0
  6  4  1  0  0  0  0
  7  3  1  0  0  0  0
  8  6  2  0  0  0  0
  9  6  1  0  0  0  0
 10  5  1  0  0  0  0
 11  7  1  0  0  0  0
 12  9  1  0  0  0  0
 13  9  2  0  0  0  0
 14 10  2  0  0  0  0
 14 15  1  0  0  0  0
 15 11  2  0  0  0  0
 16 13  1  0  0  0  0
 17 12  2  0  0  0  0
 17 18  1  0  0  0  0
 18 16  2  0  0  0  0
M  END
>  <idnumber>
T0503-1623

>  <LogP>
2.772000000000000e+000

>  <rotating_bonds>
3.000000000000000e+000

>  <hb_acceptors>
2.000000000000000e+000

>  <hb_donors>
1.000000000000000e+000

>  <PSA>
4.575000000000000e+001

>  <clusterid>
-107

>  <is_centroid>
@

>  <class1>
625

>  <class2>
685

>  <population1>
877209

>  <population2>
28767

>  <population>
28767

>  <cansmi>
O=C(c1ccccc1)Cc1nc2c([nH]1)cccc2

>  <HBA2>
2

>  <HBD>
1

>  <logP>
2.9883

>  <TPSA>
45.75

>  <MW>
236.269

$$$$

 OpenBabel02121609142D

 17 19  0  0  0  0  0  0  0  0999 V2000
    0.5042   -0.0917    0.0000 C   0  0  0  0  0  0  0  0  0  0  0  0
   -0.3583    0.4000    0.0000 N   0  0  0  0  0  0  0  0  0  0  0  0
    1.3667    0.4000    0.0000 C   0  0  0  0  0  0  0  0  0  0  0  0
    0.5042   -1.1000    0.0000 C   0  0  0  0  0  0  0  0  0  0  0  0
   -0.3583   -1.6000    0.0000 N   0  0  0  0  0  0  0  0  0  0  0  0
    2.2792   -0.0042    0.0000 N   0  0  0  0  0  0  0  0  0  0  0  0
    1.4750    1.3958    0.0000 N   0  0  0  0  0  0  0  0  0  0  0  0
   -1.2250   -0.0917    0.0000 C   0  0  0  0  0  0  0  0  0  0  0  0
   -1.2250   -1.1000    0.0000 C   0  0  0  0  0  0  0  0  0  0  0  0
    2.4542    1.6083    0.0000 C   0  0  0  0  0  0  0  0  0  0  0  0
    2.9542    0.7375    0.0000 C   0  0  0  0  0  0  0  0  0  0  0  0
    1.3667   -1.6000    0.0000 O   0  0  0  0  0  0  0  0  0  0  0  0
    2.4917   -0.9792    0.0000 C   0  0  0  0  0  0  0  0  0  0  0  0
   -2.0958    0.4000    0.0000 C   0  0  0  0  0  0  0  0  0  0  0  0
   -2.0958   -1.6000    0.0000 C   0  0  0  0  0  0  0  0  0  0  0  0
   -2.9583   -1.1000    0.0000 C   0  0  0  0  0  0  0  0  0  0  0  0
   -2.9583   -0.0917    0.0000 C   0  0  0  0  0  0  0  0  0  0  0  0
  2  1  2  0  0  0  0
  3  1  1  0  0  0  0
  4  1  1  0  0  0  0
  5  4  1  0  0  0  0
  6  3  1  0  0  0  0
  7  3  2  0  0  0  0
  8  2  1  0  0  0  0
  8  9  2  0  0  0  0
  9  5  1  0  0  0  0
 10  7  1  0  0  0  0
 11  6  1  0  0  0  0
 11 10  2  0  0  0  0
 12  4  2  0  0  0  0
 13  6  1  0  0  0  0
 14  8  1  0  0  0  0
 15  9  1  0  0  0  0
 16 15  2  0  0  0  0
 17 14  2  0  0  0  0
 17 16  1  0  0  0  0
M  END
>  <idnumber>
T0503-2162

>  <LogP>
5.600000000000001e-001

>  <rotating_bonds>
1.000000000000000e+000

>  <hb_acceptors>
3.000000000000000e+000

>  <hb_donors>
1.000000000000000e+000

>  <PSA>
5.928000000000000e+001

>  <clusterid>
-109

>  <is_centroid>
@

>  <class1>
802

>  <class2>
686

>  <population1>
1299

>  <population2>
31113

>  <population>
17

>  <cansmi>
Cn1ccnc1c1nc2ccccc2[nH]c1=O

>  <HBA2>
4

>  <HBD>
1

>  <logP>
1.3236

>  <TPSA>
63.57

>  <MW>
226.234

$$$$

 OpenBabel02121609142D

 14 15  0  0  0  0  0  0  0  0999 V2000
    0.3042   -0.2292    0.0000 C   0  0  0  0  0  0  0  0  0  0  0  0
   -0.3625    0.5208    0.0000 C   0  0  0  0  0  0  0  0  0  0  0  0
    0.0000   -1.1792    0.0000 N   0  0  0  0  0  0  0  0  0  0  0  0
   -0.0583    1.4708    0.0000 C   0  0  0  0  0  0  0  0  0  0  0  0
   -0.6458    2.2750    0.0000 S   0  0  0  0  0  0  0  0  0  0  0  0
    1.2792   -0.0167    0.0000 O   0  0  0  0  0  0  0  0  0  0  0  0
   -0.0583    3.0833    0.0000 C   0  0  0  0  0  0  0  0  0  0  0  0
    0.9000    1.7750    0.0000 C   0  0  0  0  0  0  0  0  0  0  0  0
    0.9000    2.7750    0.0000 C   0  0  0  0  0  0  0  0  0  0  0  0
   -0.6208   -3.0792    0.0000 O   0  0  0  0  0  0  0  0  0  0  0  0
   -0.9833   -1.3875    0.0000 C   0  0  0  0  0  0  0  0  0  0  0  0
    0.6667   -1.9167    0.0000 C   0  0  0  0  0  0  0  0  0  0  0  0
    0.3542   -2.8667    0.0000 C   0  0  0  0  0  0  0  0  0  0  0  0
   -1.2875   -2.3375    0.0000 C   0  0  0  0  0  0  0  0  0  0  0  0
  2  1  1  0  0  0  0
  3  1  1  0  0  0  0
  4  2  1  0  0  0  0
  5  4  1  0  0  0  0
  6  1  2  0  0  0  0
  7  5  1  0  0  0  0
  8  4  2  0  0  0  0
  9  8  1  0  0  0  0
  9  7  2  0  0  0  0
 10 13  1  0  0  0  0
 11  3  1  0  0  0  0
 12  3  1  0  0  0  0
 13 12  1  0  0  0  0
 14 11  1  0  0  0  0
 14 10  1  0  0  0  0
M  END
>  <idnumber>
T0503-2294

>  <LogP>
1.920000000000000e+000

>  <rotating_bonds>
2.000000000000000e+000

>  <hb_acceptors>
3.000000000000000e+000

>  <hb_donors>
0.000000000000000e+000

>  <PSA>
5.778000000000000e+001

>  <clusterid>
-110

>  <is_centroid>
@

>  <class1>
645

>  <class2>
786

>  <population1>
105961

>  <population2>
48067

>  <population>
4498

>  <cansmi>
O=C(N1CCOCC1)Cc1cccs1

>  <HBA2>
4

>  <HBD>
0

>  <logP>
1.0873

>  <TPSA>
57.78

>  <MW>
211.281

$$$$

 OpenBabel02121609142D

 13 14  0  0  0  0  0  0  0  0999 V2000
    0.5792   -0.3417    0.0000 C   0  0  0  0  0  0  0  0  0  0  0  0
   -0.4208   -0.3417    0.0000 C   0  0  3  0  0  0  0  0  0  0  0  0
    1.1667   -1.1500    0.0000 N   0  0  0  0  0  0  0  0  0  0  0  0
    1.1667    0.4708    0.0000 N   0  0  0  0  0  0  0  0  0  0  0  0
   -0.9208    0.5250    0.0000 C   0  0  0  0  0  0  0  0  0  0  0  0
    2.1167    0.1583    0.0000 C   0  0  0  0  0  0  0  0  0  0  0  0
   -1.9208    0.6333    0.0000 O   0  0  0  0  0  0  0  0  0  0  0  0
    2.1167   -0.8417    0.0000 C   0  0  0  0  0  0  0  0  0  0  0  0
   -0.5125    1.4375    0.0000 C   0  0  0  0  0  0  0  0  0  0  0  0
   -2.1208    1.6083    0.0000 C   0  0  0  0  0  0  0  0  0  0  0  0
   -1.2583    2.1083    0.0000 C   0  0  0  0  0  0  0  0  0  0  0  0
   -0.9208   -1.2042    0.0000 O   0  0  0  0  0  0  0  0  0  0  0  0
    0.8542   -2.1042    0.0000 C   0  0  0  0  0  0  0  0  0  0  0  0
  2  1  1  0  0  0  0
  3  1  1  0  0  0  0
  4  1  2  0  0  0  0
  5  2  1  0  0  0  0
  6  4  1  0  0  0  0
  7  5  1  0  0  0  0
  8  3  1  0  0  0  0
  8  6  2  0  0  0  0
  9  5  2  0  0  0  0
 10  7  1  0  0  0  0
 11  9  1  0  0  0  0
 11 10  2  0  0  0  0
 12  2  1  0  0  0  0
 13  3  1  0  0  0  0
M  END
>  <idnumber>
T0503-2549

>  <LogP>
-5.270000000000000e-001

>  <rotating_bonds>
2.000000000000000e+000

>  <hb_acceptors>
2.000000000000000e+000

>  <hb_donors>
1.000000000000000e+000

>  <PSA>
5.119000000000001e+001

>  <clusterid>
-112

>  <is_centroid>
@

>  <class1>
704

>  <class2>
686

>  <population1>
51112

>  <population2>
31113

>  <population>
849

>  <cansmi>
Cn1ccnc1C(c1ccco1)O

>  <HBA2>
4

>  <HBD>
1

>  <logP>
1.0948

>  <TPSA>
51.19

>  <MW>
178.188

$$$$

 OpenBabel02121609142D

 18 20  0  0  0  0  0  0  0  0999 V2000
    0.4167    0.1750    0.0000 C   0  0  0  0  0  0  0  0  0  0  0  0
    0.4167   -0.8250    0.0000 N   0  0  0  0  0  0  0  0  0  0  0  0
    1.2792    0.6750    0.0000 N   0  0  0  0  0  0  0  0  0  0  0  0
   -0.3958   -1.4125    0.0000 N   0  0  0  0  0  0  0  0  0  0  0  0
    1.2250   -1.4125    0.0000 C   0  0  0  0  0  0  0  0  0  0  0  0
   -0.4500    0.6750    0.0000 C   0  0  0  0  0  0  0  0  0  0  0  0
    1.2792    1.6750    0.0000 N   0  0  0  0  0  0  0  0  0  0  0  0
    0.9167   -2.3625    0.0000 C   0  0  0  0  0  0  0  0  0  0  0  0
    0.4167    2.1750    0.0000 C   0  0  0  0  0  0  0  0  0  0  0  0
   -0.4500    1.6750    0.0000 C   0  0  0  0  0  0  0  0  0  0  0  0
   -0.0833   -2.3625    0.0000 C   0  0  0  0  0  0  0  0  0  0  0  0
    0.4167    3.1750    0.0000 O   0  0  0  0  0  0  0  0  0  0  0  0
    2.1750   -1.1042    0.0000 C   0  0  0  0  0  0  0  0  0  0  0  0
   -1.3208    0.1750    0.0000 C   0  0  0  0  0  0  0  0  0  0  0  0
   -1.3208    2.1750    0.0000 C   0  0  0  0  0  0  0  0  0  0  0  0
   -0.6708   -3.1667    0.0000 C   0  0  0  0  0  0  0  0  0  0  0  0
   -2.1833    0.6750    0.0000 C   0  0  0  0  0  0  0  0  0  0  0  0
   -2.1833    1.6750    0.0000 C   0  0  0  0  0  0  0  0  0  0  0  0
  2  1  1  0  0  0  0
  3  1  2  0  0  0  0
  4  2  1  0  0  0  0
  5  2  1  0  0  0  0
  6  1  1  0  0  0  0
  7  3  1  0  0  0  0
  7  9  1  0  0  0  0
  8  5  2  0  0  0  0
  9 10  1  0  0  0  0
 10  6  2  0  0  0  0
 11  4  2  0  0  0  0
 11  8  1  0  0  0  0
 12  9  2  0  0  0  0
 13  5  1  0  0  0  0
 14  6  1  0  0  0  0
 15 10  1  0  0  0  0
 15 18  2  0  0  0  0
 16 11  1  0  0  0  0
 17 14  2  0  0  0  0
 18 17  1  0  0  0  0
M  END
>  <idnumber>
T0503-2915

>  <LogP>
1.647000000000000e+000

>  <rotating_bonds>
1.000000000000000e+000

>  <hb_acceptors>
3.000000000000000e+000

>  <hb_donors>
1.000000000000000e+000

>  <PSA>
5.928000000000000e+001

>  <clusterid>
-114

>  <is_centroid>
@

>  <class1>
792

>  <class2>
631

>  <population1>
7197

>  <population2>
41612

>  <population>
113

>  <cansmi>
Cc1nn(c(c1)C)c1n[nH]c(=O)c2c1cccc2

>  <HBA2>
4

>  <HBD>
1

>  <logP>
1.7256

>  <TPSA>
63.57

>  <MW>
240.261

$$$$

 OpenBabel02121609142D

 17 19  0  0  0  0  0  0  0  0999 V2000
   -1.1500    1.9833    0.0000 N   0  0  0  0  0  0  0  0  0  0  0  0
   -0.2000    1.6750    0.0000 C   0  0  0  0  0  0  0  0  0  0  0  0
    0.3875    2.4833    0.0000 N   0  0  0  0  0  0  0  0  0  0  0  0
   -0.2000    3.2958    0.0000 N   0  0  0  0  0  0  0  0  0  0  0  0
   -1.1500    2.9833    0.0000 C   0  0  0  0  0  0  0  0  0  0  0  0
    0.1042    0.7250    0.0000 C   0  0  0  0  0  0  0  0  0  0  0  0
    1.0875    0.5208    0.0000 O   0  0  0  0  0  0  0  0  0  0  0  0
   -2.1000    1.6750    0.0000 C   0  0  0  0  0  0  0  0  0  0  0  0
    1.3917   -0.4375    0.0000 C   0  0  0  0  0  0  0  0  0  0  0  0
    2.0167   -2.3375    0.0000 C   0  0  0  0  0  0  0  0  0  0  0  0
    2.3167   -3.2875    0.0000 Br  0  0  0  0  0  0  0  0  0  0  0  0
   -2.1000    3.2958    0.0000 C   0  0  0  0  0  0  0  0  0  0  0  0
    2.3750   -0.6417    0.0000 C   0  0  0  0  0  0  0  0  0  0  0  0
    0.7292   -1.1792    0.0000 C   0  0  0  0  0  0  0  0  0  0  0  0
    2.6792   -1.5917    0.0000 C   0  0  0  0  0  0  0  0  0  0  0  0
    1.0375   -2.1292    0.0000 C   0  0  0  0  0  0  0  0  0  0  0  0
   -2.6875    2.4833    0.0000 C   0  0  0  0  0  0  0  0  0  0  0  0
  2  1  1  0  0  0  0
  3  2  2  0  0  0  0
  3  4  1  0  0  0  0
  4  5  2  0  0  0  0
  5  1  1  0  0  0  0
  6  2  1  0  0  0  0
  7  6  1  0  0  0  0
  8  1  1  0  0  0  0
  9  7  1  0  0  0  0
 10 16  2  0  0  0  0
 10 15  1  0  0  0  0
 11 10  1  0  0  0  0
 12  5  1  0  0  0  0
 12 17  1  0  0  0  0
 13  9  1  0  0  0  0
 14  9  2  0  0  0  0
 15 13  2  0  0  0  0
 16 14  1  0  0  0  0
 17  8  1  0  0  0  0
M  END
>  <idnumber>
T0503-4098

>  <LogP>
1.743000000000000e+000

>  <rotating_bonds>
3.000000000000000e+000

>  <hb_acceptors>
3.000000000000000e+000

>  <hb_donors>
0.000000000000000e+000

>  <PSA>
3.994000000000000e+001

>  <clusterid>
97

>  <is_centroid>
@

>  <class1>
625

>  <class2>
784

>  <population1>
877209

>  <population2>
235

>  <population>
213

>  <cansmi>
Brc1ccc(cc1)OCc1nnc2n1CCC2

>  <HBA2>
4

>  <HBD>
0

>  <logP>
2.5658

>  <TPSA>
39.94

>  <MW>
294.147

$$$$

 OpenBabel02121609142D

 13 14  0  0  0  0  0  0  0  0999 V2000
   -0.4333   -0.2500    0.0000 N   0  0  0  0  0  0  0  0  0  0  0  0
    0.4292    0.2500    0.0000 C   0  0  0  0  0  0  0  0  0  0  0  0
    1.2917   -0.2500    0.0000 C   0  0  0  0  0  0  0  0  0  0  0  0
   -2.1708   -1.2500    0.0000 O   0  0  0  0  0  0  0  0  0  0  0  0
    1.2917   -1.2500    0.0000 N   0  0  0  0  0  0  0  0  0  0  0  0
   -1.3000    0.2500    0.0000 C   0  0  0  0  0  0  0  0  0  0  0  0
   -0.4333   -1.2500    0.0000 C   0  0  0  0  0  0  0  0  0  0  0  0
    0.4292    1.2500    0.0000 C   0  0  0  0  0  0  0  0  0  0  0  0
   -1.3000   -1.7500    0.0000 C   0  0  0  0  0  0  0  0  0  0  0  0
   -2.1708   -0.2500    0.0000 C   0  0  0  0  0  0  0  0  0  0  0  0
    2.1625    0.2500    0.0000 C   0  0  0  0  0  0  0  0  0  0  0  0
    1.2917    1.7500    0.0000 C   0  0  0  0  0  0  0  0  0  0  0  0
    2.1625    1.2500    0.0000 C   0  0  0  0  0  0  0  0  0  0  0  0
  2  1  1  0  0  0  0
  3  2  2  0  0  0  0
  4  9  1  0  0  0  0
  5  3  1  0  0  0  0
  6  1  1  0  0  0  0
  7  1  1  0  0  0  0
  8  2  1  0  0  0  0
  9  7  1  0  0  0  0
 10  6  1  0  0  0  0
 10  4  1  0  0  0  0
 11  3  1  0  0  0  0
 11 13  2  0  0  0  0
 12  8  2  0  0  0  0
 13 12  1  0  0  0  0
M  END
>  <idnumber>
T0503-4407

>  <LogP>
7.350000000000000e-001

>  <rotating_bonds>
1.000000000000000e+000

>  <hb_acceptors>
3.000000000000000e+000

>  <hb_donors>
1.000000000000000e+000

>  <PSA>
3.849000000000000e+001

>  <clusterid>
-119

>  <is_centroid>
@

>  <class1>
786

>  <class2>
625

>  <population1>
48067

>  <population2>
877209

>  <population>
45066

>  <cansmi>
Nc1ccccc1N1CCOCC1

>  <HBA2>
3

>  <HBD>
1

>  <logP>
1.7516

>  <TPSA>
38.49

>  <MW>
178.231

$$$$

 OpenBabel02121609142D

 14 15  0  0  0  0  0  0  0  0999 V2000
    1.5792    1.5208    0.0000 N   0  0  0  0  0  0  0  0  0  0  0  0
    2.1292    0.6833    0.0000 C   0  0  0  0  0  0  0  0  0  0  0  0
    0.6042    1.2375    0.0000 C   0  0  0  0  0  0  0  0  0  0  0  0
    1.5250   -0.1125    0.0000 C   0  0  0  0  0  0  0  0  0  0  0  0
    0.6042    0.2583    0.0000 C   0  0  0  0  0  0  0  0  0  0  0  0
    3.1292    0.6208    0.0000 N   0  0  0  0  0  0  0  0  0  0  0  0
   -0.2000   -0.2917    0.0000 C   0  0  0  0  0  0  0  0  0  0  0  0
   -0.2833    1.7083    0.0000 C   0  0  0  0  0  0  0  0  0  0  0  0
   -3.1333    0.2208    0.0000 Cl  0  0  0  0  0  0  0  0  0  0  0  0
    1.6292   -1.1125    0.0000 C   0  0  0  0  0  0  0  0  0  0  0  0
   -1.1333    1.1833    0.0000 C   0  0  0  0  0  0  0  0  0  0  0  0
    0.8292   -1.7042    0.0000 C   0  0  0  0  0  0  0  0  0  0  0  0
   -1.0958    0.1750    0.0000 C   0  0  0  0  0  0  0  0  0  0  0  0
   -0.0958   -1.2917    0.0000 C   0  0  0  0  0  0  0  0  0  0  0  0
  2  1  2  0  0  0  0
  3  1  1  0  0  0  0
  4  2  1  0  0  0  0
  4  5  1  0  0  0  0
  5  3  2  0  0  0  0
  6  2  1  0  0  0  0
  7  5  1  0  0  0  0
  7 13  2  0  0  0  0
  8  3  1  0  0  0  0
 10  4  2  0  0  0  0
 11  8  2  0  0  0  0
 12 10  1  0  0  0  0
 13 11  1  0  0  0  0
 14  7  1  0  0  0  0
 14 12  2  0  0  0  0
M  END
>  <idnumber>
T0503-5624

>  <LogP>
8.710000000000001e-001

>  <rotating_bonds>
0.000000000000000e+000

>  <hb_acceptors>
2.000000000000000e+000

>  <hb_donors>
1.000000000000000e+000

>  <PSA>
3.838000000000000e+001

>  <clusterid>
-122

>  <is_centroid>
@

>  <class1>
908

>  <population1>
25

>  <population>
25

>  <cansmi>
NC1=Nc2c3c1cccc3ccc2.Cl

>  <HBA2>
2

>  <HBD>
2

>  <logP>
3.1281

>  <TPSA>
38.38

>  <MW>
204.656

$$$$

 OpenBabel02121609142D

 18 20  0  0  0  0  0  0  0  0999 V2000
    0.8917    0.7708    0.0000 N   0  0  0  0  0  0  0  0  0  0  0  0
    0.0250    0.2708    0.0000 C   0  0  0  0  0  0  0  0  0  0  0  0
    0.8917    1.7708    0.0000 C   0  0  0  0  0  0  0  0  0  0  0  0
   -0.8375    0.7708    0.0000 C   0  0  0  0  0  0  0  0  0  0  0  0
   -0.8375    1.7708    0.0000 C   0  0  0  0  0  0  0  0  0  0  0  0
    0.0250    2.2708    0.0000 C   0  0  0  0  0  0  0  0  0  0  0  0
    1.7542    0.2708    0.0000 C   0  0  0  0  0  0  0  0  0  0  0  0
    1.7542   -0.7292    0.0000 C   0  0  0  0  0  0  0  0  0  0  0  0
    0.0250   -0.7292    0.0000 O   0  0  0  0  0  0  0  0  0  0  0  0
    2.5667   -1.3167    0.0000 O   0  0  0  0  0  0  0  0  0  0  0  0
    1.7542    2.2708    0.0000 O   0  0  0  0  0  0  0  0  0  0  0  0
    0.9500   -1.3167    0.0000 C   0  0  0  0  0  0  0  0  0  0  0  0
    2.2542   -2.2667    0.0000 C   0  0  0  0  0  0  0  0  0  0  0  0
    1.2542   -2.2667    0.0000 C   0  0  0  0  0  0  0  0  0  0  0  0
   -1.7083    0.2708    0.0000 C   0  0  0  0  0  0  0  0  0  0  0  0
   -1.7083    2.2708    0.0000 C   0  0  0  0  0  0  0  0  0  0  0  0
   -2.5708    0.7708    0.0000 C   0  0  0  0  0  0  0  0  0  0  0  0
   -2.5708    1.7708    0.0000 C   0  0  0  0  0  0  0  0  0  0  0  0
  2  1  1  0  0  0  0
  3  1  1  0  0  0  0
  4  2  1  0  0  0  0
  5  6  1  0  0  0  0
  5  4  2  0  0  0  0
  6  3  1  0  0  0  0
  7  1  1  0  0  0  0
  8  7  1  0  0  0  0
  9  2  2  0  0  0  0
 10  8  1  0  0  0  0
 11  3  2  0  0  0  0
 12  8  2  0  0  0  0
 13 10  1  0  0  0  0
 14 12  1  0  0  0  0
 14 13  2  0  0  0  0
 15  4  1  0  0  0  0
 16  5  1  0  0  0  0
 17 15  2  0  0  0  0
 18 16  2  0  0  0  0
 18 17  1  0  0  0  0
M  END
>  <idnumber>
T0503-5859

>  <LogP>
1.652000000000000e+000

>  <rotating_bonds>
2.000000000000000e+000

>  <hb_acceptors>
2.000000000000000e+000

>  <hb_donors>
0.000000000000000e+000

>  <PSA>
5.052000000000000e+001

>  <clusterid>
100

>  <is_centroid>
@

>  <class1>
704

>  <class2>
915

>  <population1>
51112

>  <population2>
2013

>  <population>
29

>  <cansmi>
O=C1Cc2ccccc2C(=O)N1Cc1ccco1

>  <HBA2>
4

>  <HBD>
0

>  <logP>
1.9426

>  <TPSA>
50.52

>  <MW>
241.242

$$$$

 OpenBabel02121609142D

 19 21  0  0  0  0  0  0  0  0999 V2000
    0.0500    0.8333    0.0000 N   0  0  0  0  0  0  0  0  0  0  0  0
    0.0500   -0.7875    0.0000 C   0  0  0  0  0  0  0  0  0  0  0  0
    1.0000    0.5208    0.0000 N   0  0  0  0  0  0  0  0  0  0  0  0
   -0.5375    0.0208    0.0000 C   0  0  0  0  0  0  0  0  0  0  0  0
    1.0000   -0.4792    0.0000 C   0  0  0  0  0  0  0  0  0  0  0  0
   -0.2583   -1.7375    0.0000 C   0  0  0  0  0  0  0  0  0  0  0  0
   -0.5708   -2.6875    0.0000 N   0  0  0  0  0  0  0  0  0  0  0  0
   -1.5375    0.0208    0.0000 C   0  0  0  0  0  0  0  0  0  0  0  0
    1.8125    1.1083    0.0000 C   0  0  0  0  0  0  0  0  0  0  0  0
   -3.0375   -0.8417    0.0000 N   0  0  0  0  0  0  0  0  0  0  0  0
   -2.0375   -0.8417    0.0000 C   0  0  0  0  0  0  0  0  0  0  0  0
   -2.0375    0.8875    0.0000 C   0  0  0  0  0  0  0  0  0  0  0  0
   -3.5375    0.0208    0.0000 C   0  0  0  0  0  0  0  0  0  0  0  0
    2.7250    0.7083    0.0000 C   0  0  0  0  0  0  0  0  0  0  0  0
    1.7042    2.1083    0.0000 C   0  0  0  0  0  0  0  0  0  0  0  0
   -3.0375    0.8875    0.0000 C   0  0  0  0  0  0  0  0  0  0  0  0
    2.5167    2.6958    0.0000 C   0  0  0  0  0  0  0  0  0  0  0  0
    3.5292    1.2958    0.0000 C   0  0  0  0  0  0  0  0  0  0  0  0
    3.4292    2.2875    0.0000 C   0  0  0  0  0  0  0  0  0  0  0  0
  2  4  1  0  0  0  0
  2  5  2  0  0  0  0
  3  1  1  0  0  0  0
  4  1  2  0  0  0  0
  5  3  1  0  0  0  0
  6  2  1  0  0  0  0
  7  6  3  0  0  0  0
  8  4  1  0  0  0  0
  9  3  1  0  0  0  0
 10 11  1  0  0  0  0
 10 13  2  0  0  0  0
 11  8  2  0  0  0  0
 12  8  1  0  0  0  0
 13 16  1  0  0  0  0
 14  9  1  0  0  0  0
 15  9  2  0  0  0  0
 16 12  2  0  0  0  0
 17 15  1  0  0  0  0
 18 14  2  0  0  0  0
 18 19  1  0  0  0  0
 19 17  2  0  0  0  0
M  END
>  <idnumber>
T0503-6449

>  <LogP>
2.764000000000000e+000

>  <rotating_bonds>
3.000000000000000e+000

>  <hb_acceptors>
3.000000000000000e+000

>  <hb_donors>
0.000000000000000e+000

>  <PSA>
5.450000000000000e+001

>  <clusterid>
-125

>  <is_centroid>
@

>  <class1>
631

>  <class2>
625

>  <class3>
632

>  <population1>
41612

>  <population2>
877209

>  <population3>
79489

>  <population>
2670

>  <cansmi>
N#Cc1cn(nc1c1cccnc1)c1ccccc1

>  <HBA2>
4

>  <HBD>
0

>  <logP>
2.80598

>  <TPSA>
54.5

>  <MW>
246.267

$$$$

 OpenBabel02121609142D

 19 21  0  0  0  0  0  0  0  0999 V2000
    0.0500    0.7333    0.0000 N   0  0  0  0  0  0  0  0  0  0  0  0
    1.0000    0.4208    0.0000 N   0  0  0  0  0  0  0  0  0  0  0  0
    0.0500   -0.8917    0.0000 C   0  0  0  0  0  0  0  0  0  0  0  0
   -0.5375   -0.0792    0.0000 C   0  0  0  0  0  0  0  0  0  0  0  0
    1.0000   -0.5792    0.0000 C   0  0  0  0  0  0  0  0  0  0  0  0
   -1.5375   -0.0792    0.0000 C   0  0  0  0  0  0  0  0  0  0  0  0
    1.8125    1.0083    0.0000 C   0  0  0  0  0  0  0  0  0  0  0  0
   -3.0375   -0.9417    0.0000 N   0  0  0  0  0  0  0  0  0  0  0  0
   -0.2583   -1.8417    0.0000 C   0  0  0  0  0  0  0  0  0  0  0  0
   -2.0375   -0.9417    0.0000 C   0  0  0  0  0  0  0  0  0  0  0  0
    0.4125   -2.5792    0.0000 O   0  0  0  0  0  0  0  0  0  0  0  0
   -2.0375    0.7833    0.0000 C   0  0  0  0  0  0  0  0  0  0  0  0
   -3.5375   -0.0792    0.0000 C   0  0  0  0  0  0  0  0  0  0  0  0
    2.7250    0.6000    0.0000 C   0  0  0  0  0  0  0  0  0  0  0  0
    1.7042    2.0000    0.0000 C   0  0  0  0  0  0  0  0  0  0  0  0
   -3.0375    0.7833    0.0000 C   0  0  0  0  0  0  0  0  0  0  0  0
    2.5167    2.5875    0.0000 C   0  0  0  0  0  0  0  0  0  0  0  0
    3.5292    1.1875    0.0000 C   0  0  0  0  0  0  0  0  0  0  0  0
    3.4292    2.1833    0.0000 C   0  0  0  0  0  0  0  0  0  0  0  0
  2  1  1  0  0  0  0
  3  4  1  0  0  0  0
  3  5  2  0  0  0  0
  4  1  2  0  0  0  0
  5  2  1  0  0  0  0
  6  4  1  0  0  0  0
  7  2  1  0  0  0  0
  8 10  1  0  0  0  0
  8 13  2  0  0  0  0
  9  3  1  0  0  0  0
 10  6  2  0  0  0  0
 11  9  1  0  0  0  0
 12  6  1  0  0  0  0
 13 16  1  0  0  0  0
 14  7  1  0  0  0  0
 15  7  2  0  0  0  0
 16 12  2  0  0  0  0
 17 15  1  0  0  0  0
 18 14  2  0  0  0  0
 18 19  1  0  0  0  0
 19 17  2  0  0  0  0
M  END
>  <idnumber>
T0503-6802

>  <LogP>
1.656000000000000e+000

>  <rotating_bonds>
3.000000000000000e+000

>  <hb_acceptors>
3.000000000000000e+000

>  <hb_donors>
1.000000000000000e+000

>  <PSA>
5.094000000000000e+001

>  <clusterid>
-126

>  <is_centroid>
@

>  <class1>
631

>  <class2>
625

>  <class3>
632

>  <population1>
41612

>  <population2>
877209

>  <population3>
79489

>  <population>
2670

>  <cansmi>
OCc1cn(nc1c1cccnc1)c1ccccc1

>  <HBA2>
4

>  <HBD>
1

>  <logP>
2.4266

>  <TPSA>
50.94

>  <MW>
251.283

$$$$

 OpenBabel02121609142D

 17 19  0  0  0  0  0  0  0  0999 V2000
    0.8625    0.5000    0.0000 C   0  0  0  0  0  0  0  0  0  0  0  0
   -0.0083    1.0000    0.0000 C   0  0  0  0  0  0  0  0  0  0  0  0
   -0.0083   -1.0000    0.0000 N   0  0  0  0  0  0  0  0  0  0  0  0
    0.8625   -0.5000    0.0000 C   0  0  0  0  0  0  0  0  0  0  0  0
   -0.8708    0.5000    0.0000 N   0  0  0  0  0  0  0  0  0  0  0  0
   -1.7333   -2.0000    0.0000 O   0  0  0  0  0  0  0  0  0  0  0  0
   -0.0083    2.0000    0.0000 C   0  0  0  0  0  0  0  0  0  0  0  0
    1.7292    1.0000    0.0000 C   0  0  0  0  0  0  0  0  0  0  0  0
   -0.0083   -2.0000    0.0000 C   0  0  0  0  0  0  0  0  0  0  0  0
   -0.8708   -0.5000    0.0000 C   0  0  0  0  0  0  0  0  0  0  0  0
    1.7292    2.0000    0.0000 C   0  0  0  0  0  0  0  0  0  0  0  0
   -1.7333    1.0000    0.0000 C   0  0  0  0  0  0  0  0  0  0  0  0
   -1.7333   -1.0000    0.0000 C   0  0  0  0  0  0  0  0  0  0  0  0
   -0.8708   -2.5000    0.0000 C   0  0  0  0  0  0  0  0  0  0  0  0
    0.8625    2.5000    0.0000 C   0  0  0  0  0  0  0  0  0  0  0  0
   -0.8708    2.5000    0.0000 C   0  0  0  0  0  0  0  0  0  0  0  0
   -1.7333    2.0000    0.0000 C   0  0  0  0  0  0  0  0  0  0  0  0
  2  1  2  0  0  0  0
  3  4  1  0  0  0  0
  4  1  1  0  0  0  0
  5  2  1  0  0  0  0
  6 13  1  0  0  0  0
  7  2  1  0  0  0  0
  7 15  2  0  0  0  0
  8  1  1  0  0  0  0
  9  3  1  0  0  0  0
 10  3  1  0  0  0  0
 11  8  2  0  0  0  0
 12  5  2  0  0  0  0
 13 10  1  0  0  0  0
 14  9  1  0  0  0  0
 14  6  1  0  0  0  0
 15 11  1  0  0  0  0
 16  7  1  0  0  0  0
 17 16  2  0  0  0  0
 17 12  1  0  0  0  0
M  END
>  <idnumber>
T0503-7165

>  <LogP>
1.776000000000000e+000

>  <rotating_bonds>
2.000000000000000e+000

>  <hb_acceptors>
3.000000000000000e+000

>  <hb_donors>
0.000000000000000e+000

>  <PSA>
2.536000000000000e+001

>  <clusterid>
102

>  <is_centroid>
@

>  <class1>
786

>  <class2>
682

>  <population1>
48067

>  <population2>
20351

>  <population>
855

>  <cansmi>
O1CCN(CC1)Cc1cccc2c1nccc2

>  <HBA2>
3

>  <HBD>
0

>  <logP>
2.0049

>  <TPSA>
25.36

>  <MW>
228.29

$$$$

 OpenBabel02121609142D

 13 14  0  0  0  0  0  0  0  0999 V2000
    0.4292   -0.7500    0.0000 N   0  0  0  0  0  0  0  0  0  0  0  0
    1.2917   -1.2500    0.0000 C   0  0  0  0  0  0  0  0  0  0  0  0
    0.4292    0.2500    0.0000 C   0  0  0  0  0  0  0  0  0  0  0  0
    2.1625   -0.7500    0.0000 N   0  0  0  0  0  0  0  0  0  0  0  0
   -0.4333    0.7500    0.0000 C   0  0  0  0  0  0  0  0  0  0  0  0
    1.2917   -2.2500    0.0000 N   0  0  0  0  0  0  0  0  0  0  0  0
    1.2917    0.7500    0.0000 C   0  0  0  0  0  0  0  0  0  0  0  0
    2.1625    0.2500    0.0000 C   0  0  0  0  0  0  0  0  0  0  0  0
   -0.4333    1.7500    0.0000 C   0  0  0  0  0  0  0  0  0  0  0  0
   -1.3000    0.2500    0.0000 C   0  0  0  0  0  0  0  0  0  0  0  0
   -2.1708    0.7500    0.0000 C   0  0  0  0  0  0  0  0  0  0  0  0
   -1.3000    2.2500    0.0000 C   0  0  0  0  0  0  0  0  0  0  0  0
   -2.1708    1.7500    0.0000 C   0  0  0  0  0  0  0  0  0  0  0  0
  2  1  2  0  0  0  0
  3  1  1  0  0  0  0
  4  2  1  0  0  0  0
  4  8  2  0  0  0  0
  5  3  1  0  0  0  0
  6  2  1  0  0  0  0
  7  3  2  0  0  0  0
  8  7  1  0  0  0  0
  9  5  1  0  0  0  0
 10  5  2  0  0  0  0
 11 10  1  0  0  0  0
 12  9  2  0  0  0  0
 12 13  1  0  0  0  0
 13 11  2  0  0  0  0
M  END
>  <idnumber>
T0503-8085

>  <LogP>
1.774000000000000e+000

>  <rotating_bonds>
1.000000000000000e+000

>  <hb_acceptors>
3.000000000000000e+000

>  <hb_donors>
1.000000000000000e+000

>  <PSA>
5.180000000000000e+001

>  <clusterid>
-129

>  <is_centroid>
@

>  <class1>
625

>  <class2>
737

>  <population1>
877209

>  <population2>
30296

>  <population>
23887

>  <cansmi>
Nc1nccc(n1)c1ccccc1

>  <HBA2>
3

>  <HBD>
1

>  <logP>
2.307

>  <TPSA>
51.8

>  <MW>
171.199

$$$$

 OpenBabel02121609142D

 14 15  0  0  0  0  0  0  0  0999 V2000
    0.4292    0.2500    0.0000 C   0  0  0  0  0  0  0  0  0  0  0  0
    0.4292   -1.7500    0.0000 N   0  0  0  0  0  0  0  0  0  0  0  0
    0.4292    1.2500    0.0000 C   0  0  0  0  0  0  0  0  0  0  0  0
   -0.4333   -0.2500    0.0000 C   0  0  0  0  0  0  0  0  0  0  0  0
   -0.4333   -1.2500    0.0000 C   0  0  0  0  0  0  0  0  0  0  0  0
    1.2917   -0.2500    0.0000 C   0  0  0  0  0  0  0  0  0  0  0  0
    1.2917   -1.2500    0.0000 C   0  0  0  0  0  0  0  0  0  0  0  0
   -0.4333    1.7500    0.0000 O   0  0  0  0  0  0  0  0  0  0  0  0
    1.2917    1.7500    0.0000 N   0  0  0  0  0  0  0  0  0  0  0  0
   -1.3000    0.2500    0.0000 C   0  0  0  0  0  0  0  0  0  0  0  0
   -1.3000   -1.7500    0.0000 C   0  0  0  0  0  0  0  0  0  0  0  0
    2.1625   -1.7500    0.0000 C   0  0  0  0  0  0  0  0  0  0  0  0
   -2.1708   -0.2500    0.0000 C   0  0  0  0  0  0  0  0  0  0  0  0
   -2.1708   -1.2500    0.0000 C   0  0  0  0  0  0  0  0  0  0  0  0
  2  7  2  0  0  0  0
  3  1  1  0  0  0  0
  4  1  1  0  0  0  0
  5  4  2  0  0  0  0
  5  2  1  0  0  0  0
  6  1  2  0  0  0  0
  7  6  1  0  0  0  0
  8  3  2  0  0  0  0
  9  3  1  0  0  0  0
 10  4  1  0  0  0  0
 11  5  1  0  0  0  0
 11 14  2  0  0  0  0
 12  7  1  0  0  0  0
 13 10  2  0  0  0  0
 14 13  1  0  0  0  0
M  END
>  <idnumber>
T0503-8126

>  <LogP>
1.677000000000000e+000

>  <rotating_bonds>
1.000000000000000e+000

>  <hb_acceptors>
2.000000000000000e+000

>  <hb_donors>
1.000000000000000e+000

>  <PSA>
5.598000000000000e+001

>  <clusterid>
-130

>  <is_centroid>
@

>  <class1>
682

>  <population1>
20351

>  <population>
20351

>  <cansmi>
Cc1nc2ccccc2c(c1)C(=O)N

>  <HBA2>
3

>  <HBD>
1

>  <logP>
2.3424

>  <TPSA>
55.98

>  <MW>
186.21

$$$$

 OpenBabel02121609142D

 14 15  0  0  0  0  0  0  0  0999 V2000
    0.1167   -0.5167    0.0000 N   0  0  0  0  0  0  0  0  0  0  0  0
    0.4125    0.4333    0.0000 C   0  0  0  0  0  0  0  0  0  0  0  0
   -1.2833   -0.6292    0.0000 N   0  0  0  0  0  0  0  0  0  0  0  0
   -0.4333   -0.0917    0.0000 C   0  0  0  0  0  0  0  0  0  0  0  0
   -0.8583   -0.7417    0.0000 C   0  0  0  0  0  0  0  0  0  0  0  0
    0.7917   -1.2542    0.0000 C   0  0  0  0  0  0  0  0  0  0  0  0
   -0.4583    0.9333    0.0000 C   0  0  0  0  0  0  0  0  0  0  0  0
    1.2792    0.9333    0.0000 C   0  0  0  0  0  0  0  0  0  0  0  0
    0.5000   -2.2042    0.0000 C   0  0  0  0  0  0  0  0  0  0  0  0
   -1.1583   -1.6917    0.0000 C   0  0  0  0  0  0  0  0  0  0  0  0
    1.2792    1.9333    0.0000 C   0  0  0  0  0  0  0  0  0  0  0  0
   -0.4583    1.9333    0.0000 C   0  0  0  0  0  0  0  0  0  0  0  0
    0.4125    2.4333    0.0000 C   0  0  0  0  0  0  0  0  0  0  0  0
   -0.4750   -2.4292    0.0000 C   0  0  0  0  0  0  0  0  0  0  0  0
  2  1  1  0  0  0  0
  3  4  3  0  0  0  0
  4  2  1  0  0  0  0
  5  1  1  0  0  0  0
  6  1  1  0  0  0  0
  7  2  1  0  0  0  0
  8  2  1  0  0  0  0
  9  6  1  0  0  0  0
 10  5  1  0  0  0  0
 10 14  1  0  0  0  0
 11  8  1  0  0  0  0
 12  7  1  0  0  0  0
 12 13  1  0  0  0  0
 13 11  1  0  0  0  0
 14  9  1  0  0  0  0
M  END
>  <idnumber>
T0503-8167

>  <LogP>
2.715000000000000e+000

>  <rotating_bonds>
2.000000000000000e+000

>  <hb_acceptors>
2.000000000000000e+000

>  <hb_donors>
0.000000000000000e+000

>  <PSA>
2.703000000000000e+001

>  <clusterid>
-131

>  <is_centroid>
@

>  <class1>
797

>  <class2>
639

>  <population1>
40410

>  <population2>
59855

>  <population>
2128

>  <cansmi>
N#CC1(CCCCC1)N1CCCCC1

>  <HBA2>
2

>  <HBD>
0

>  <logP>
2.63668

>  <TPSA>
27.03

>  <MW>
192.301

$$$$

 OpenBabel02121609142D

 19 21  0  0  0  0  0  0  0  0999 V2000
    0.4292    1.0000    0.0000 N   0  0  0  0  0  0  0  0  0  0  0  0
    0.4292    0.0000    0.0000 C   0  0  0  0  0  0  0  0  0  0  0  0
   -0.4333    1.5000    0.0000 C   0  0  0  0  0  0  0  0  0  0  0  0
    1.2917   -0.5000    0.0000 C   0  0  0  0  0  0  0  0  0  0  0  0
   -0.4333   -0.5000    0.0000 N   0  0  0  0  0  0  0  0  0  0  0  0
    1.2917    1.5000    0.0000 C   0  0  0  0  0  0  0  0  0  0  0  0
   -1.3000    1.0000    0.0000 C   0  0  0  0  0  0  0  0  0  0  0  0
    2.1625    0.0000    0.0000 C   0  0  0  0  0  0  0  0  0  0  0  0
    2.1625    1.0000    0.0000 C   0  0  0  0  0  0  0  0  0  0  0  0
   -1.3000    0.0000    0.0000 C   0  0  0  0  0  0  0  0  0  0  0  0
    1.2917   -1.5000    0.0000 C   0  0  0  0  0  0  0  0  0  0  0  0
    1.2917   -2.5000    0.0000 N   0  0  0  0  0  0  0  0  0  0  0  0
   -0.4333    2.5000    0.0000 O   0  0  0  0  0  0  0  0  0  0  0  0
    1.2917    2.5000    0.0000 C   0  0  0  0  0  0  0  0  0  0  0  0
   -2.1708    1.5000    0.0000 C   0  0  0  0  0  0  0  0  0  0  0  0
    3.0292   -0.5000    0.0000 C   0  0  0  0  0  0  0  0  0  0  0  0
   -2.1708   -0.5000    0.0000 C   0  0  0  0  0  0  0  0  0  0  0  0
   -3.0333    1.0000    0.0000 C   0  0  0  0  0  0  0  0  0  0  0  0
   -3.0333    0.0000    0.0000 C   0  0  0  0  0  0  0  0  0  0  0  0
  2  1  1  0  0  0  0
  3  1  1  0  0  0  0
  4  2  1  0  0  0  0
  4  8  2  0  0  0  0
  5  2  2  0  0  0  0
  5 10  1  0  0  0  0
  6  1  1  0  0  0  0
  7  3  1  0  0  0  0
  8  9  1  0  0  0  0
  9  6  2  0  0  0  0
 10  7  2  0  0  0  0
 11  4  1  0  0  0  0
 12 11  3  0  0  0  0
 13  3  2  0  0  0  0
 14  6  1  0  0  0  0
 15  7  1  0  0  0  0
 16  8  1  0  0  0  0
 17 10  1  0  0  0  0
 18 15  2  0  0  0  0
 19 18  1  0  0  0  0
 19 17  2  0  0  0  0
M  END
>  <idnumber>
T0503-9253

>  <LogP>
1.905000000000000e+000

>  <rotating_bonds>
1.000000000000000e+000

>  <hb_acceptors>
3.000000000000000e+000

>  <hb_donors>
0.000000000000000e+000

>  <PSA>
5.646000000000000e+001

>  <clusterid>
103

>  <is_centroid>
@

>  <class1>
929

>  <population1>
39

>  <population>
39

>  <cansmi>
N#Cc1c(C)cc(n2c1nc1ccccc1c2=O)C

>  <HBA2>
4

>  <HBD>
0

>  <logP>
2.33618

>  <TPSA>
58.16

>  <MW>
249.267

$$$$

 OpenBabel02121609142D

 20 22  0  0  0  0  0  0  0  0999 V2000
    0.2917    1.9458    0.0000 C   0  0  0  0  0  0  0  0  0  0  0  0
    0.6042    2.8958    0.0000 C   0  0  0  0  0  0  0  0  0  0  0  0
   -0.2708   -2.6042    0.0000 N   0  0  0  0  0  0  0  0  0  0  0  0
    0.9625    1.2000    0.0000 N   0  0  0  0  0  0  0  0  0  0  0  0
    0.0375   -1.6542    0.0000 C   0  0  0  0  0  0  0  0  0  0  0  0
    0.0167    3.7083    0.0000 O   0  0  0  0  0  0  0  0  0  0  0  0
    1.5542    3.2083    0.0000 C   0  0  0  0  0  0  0  0  0  0  0  0
   -0.6833    1.7333    0.0000 O   0  0  0  0  0  0  0  0  0  0  0  0
    0.6042    4.5042    0.0000 C   0  0  0  0  0  0  0  0  0  0  0  0
    1.5542    4.2000    0.0000 C   0  0  0  0  0  0  0  0  0  0  0  0
   -0.8958   -4.5042    0.0000 O   0  0  0  0  0  0  0  0  0  0  0  0
    1.0167   -1.4417    0.0000 C   0  0  0  0  0  0  0  0  0  0  0  0
   -0.6333   -0.9125    0.0000 C   0  0  0  0  0  0  0  0  0  0  0  0
    0.6542    0.2500    0.0000 C   0  0  0  0  0  0  0  0  0  0  0  0
    1.3250   -0.4917    0.0000 C   0  0  0  0  0  0  0  0  0  0  0  0
   -0.3250    0.0458    0.0000 C   0  0  0  0  0  0  0  0  0  0  0  0
    0.3917   -3.3500    0.0000 C   0  0  0  0  0  0  0  0  0  0  0  0
   -1.2500   -2.8125    0.0000 C   0  0  0  0  0  0  0  0  0  0  0  0
   -1.5583   -3.7625    0.0000 C   0  0  0  0  0  0  0  0  0  0  0  0
    0.0875   -4.3000    0.0000 C   0  0  0  0  0  0  0  0  0  0  0  0
  2  1  1  0  0  0  0
  3  5  1  0  0  0  0
  4  1  1  0  0  0  0
  5 13  1  0  0  0  0
  6  2  1  0  0  0  0
  7  2  2  0  0  0  0
  8  1  2  0  0  0  0
  9  6  1  0  0  0  0
 10  7  1  0  0  0  0
 10  9  2  0  0  0  0
 11 19  1  0  0  0  0
 12 15  1  0  0  0  0
 12  5  2  0  0  0  0
 13 16  2  0  0  0  0
 14  4  1  0  0  0  0
 15 14  2  0  0  0  0
 16 14  1  0  0  0  0
 17  3  1  0  0  0  0
 18  3  1  0  0  0  0
 19 18  1  0  0  0  0
 20 17  1  0  0  0  0
 20 11  1  0  0  0  0
M  END
>  <idnumber>
T0503-9259

>  <LogP>
1.646000000000000e+000

>  <rotating_bonds>
3.000000000000000e+000

>  <hb_acceptors>
3.000000000000000e+000

>  <hb_donors>
1.000000000000000e+000

>  <PSA>
5.471000000000003e+001

>  <clusterid>
104

>  <is_centroid>
@

>  <class1>
704

>  <class2>
786

>  <class3>
625

>  <population1>
51112

>  <population2>
48067

>  <population3>
877209

>  <population>
1367

>  <cansmi>
O=C(c1ccco1)Nc1ccc(cc1)N1CCOCC1

>  <HBA2>
5

>  <HBD>
1

>  <logP>
2.5065

>  <TPSA>
54.71

>  <MW>
272.299

$$$$

 OpenBabel02121609142D

 17 18  0  0  0  0  0  0  0  0999 V2000
   -0.8833    1.6333    0.0000 C   0  0  0  0  0  0  0  0  0  0  0  0
   -1.4708    2.4375    0.0000 N   0  0  0  0  0  0  0  0  0  0  0  0
    0.0667    1.9375    0.0000 N   0  0  0  0  0  0  0  0  0  0  0  0
   -1.1958    0.6833    0.0000 C   0  0  3  0  0  0  0  0  0  0  0  0
    0.0667    2.9375    0.0000 C   0  0  0  0  0  0  0  0  0  0  0  0
   -0.8833    3.2500    0.0000 C   0  0  0  0  0  0  0  0  0  0  0  0
   -0.5208   -0.0625    0.0000 C   0  0  0  0  0  0  0  0  0  0  0  0
    0.8167   -1.5500    0.0000 C   0  0  0  0  0  0  0  0  0  0  0  0
    1.4875   -2.2917    0.0000 N   0  0  0  0  0  0  0  0  0  0  0  0
    0.4542    0.1458    0.0000 C   0  0  0  0  0  0  0  0  0  0  0  0
   -0.8333   -1.0167    0.0000 C   0  0  0  0  0  0  0  0  0  0  0  0
    1.1250   -0.6000    0.0000 C   0  0  0  0  0  0  0  0  0  0  0  0
   -0.1625   -1.7542    0.0000 C   0  0  0  0  0  0  0  0  0  0  0  0
   -2.1708    0.4708    0.0000 O   0  0  0  0  0  0  0  0  0  0  0  0
   -2.4708    2.4375    0.0000 C   0  0  0  0  0  0  0  0  0  0  0  0
    1.1792   -3.2417    0.0000 C   0  0  0  0  0  0  0  0  0  0  0  0
    2.4667   -2.0792    0.0000 C   0  0  0  0  0  0  0  0  0  0  0  0
  2  1  1  0  0  0  0
  3  1  2  0  0  0  0
  4  1  1  0  0  0  0
  5  3  1  0  0  0  0
  5  6  2  0  0  0  0
  6  2  1  0  0  0  0
  7  4  1  0  0  0  0
  8 13  2  0  0  0  0
  8 12  1  0  0  0  0
  9  8  1  0  0  0  0
 10  7  1  0  0  0  0
 11  7  2  0  0  0  0
 12 10  2  0  0  0  0
 13 11  1  0  0  0  0
 14  4  1  0  0  0  0
 15  2  1  0  0  0  0
 16  9  1  0  0  0  0
 17  9  1  0  0  0  0
M  END
>  <idnumber>
T0503-9538

>  <LogP>
4.619999999999999e-001

>  <rotating_bonds>
3.000000000000000e+000

>  <hb_acceptors>
3.000000000000000e+000

>  <hb_donors>
1.000000000000000e+000

>  <PSA>
4.129000000000001e+001

>  <clusterid>
105

>  <is_centroid>
@

>  <class1>
625

>  <class2>
686

>  <population1>
877209

>  <population2>
31113

>  <population>
26567

>  <cansmi>
CN(c1ccc(cc1)C(c1nccn1C)O)C

>  <HBA2>
4

>  <HBD>
1

>  <logP>
1.5678

>  <TPSA>
41.29

>  <MW>
231.294

$$$$

 OpenBabel02121609142D

 12 13  0  0  0  0  0  0  0  0999 V2000
    1.0292    0.3375    0.0000 C   0  0  0  0  0  0  0  0  0  0  0  0
    1.0292   -1.2792    0.0000 N   0  0  0  0  0  0  0  0  0  0  0  0
    1.6167   -0.4750    0.0000 C   0  0  0  0  0  0  0  0  0  0  0  0
    0.0792   -0.9750    0.0000 C   0  0  0  0  0  0  0  0  0  0  0  0
    0.0792    0.0250    0.0000 C   0  0  0  0  0  0  0  0  0  0  0  0
    1.3375    1.2875    0.0000 C   0  0  0  0  0  0  0  0  0  0  0  0
    1.6500    2.2375    0.0000 N   0  0  0  0  0  0  0  0  0  0  0  0
    1.3375   -2.2292    0.0000 C   0  0  0  0  0  0  0  0  0  0  0  0
   -0.7875   -1.4750    0.0000 C   0  0  0  0  0  0  0  0  0  0  0  0
   -0.7875    0.5250    0.0000 C   0  0  0  0  0  0  0  0  0  0  0  0
   -1.6583    0.0250    0.0000 C   0  0  0  0  0  0  0  0  0  0  0  0
   -1.6583   -0.9750    0.0000 C   0  0  0  0  0  0  0  0  0  0  0  0
  2  3  1  0  0  0  0
  2  4  1  0  0  0  0
  3  1  2  0  0  0  0
  4  5  2  0  0  0  0
  5  1  1  0  0  0  0
  6  1  1  0  0  0  0
  7  6  3  0  0  0  0
  8  2  1  0  0  0  0
  9  4  1  0  0  0  0
  9 12  2  0  0  0  0
 10  5  1  0  0  0  0
 11 10  2  0  0  0  0
 12 11  1  0  0  0  0
M  END
>  <idnumber>
T0503-9642

>  <LogP>
2.161000000000000e+000

>  <rotating_bonds>
1.000000000000000e+000

>  <hb_acceptors>
1.000000000000000e+000

>  <hb_donors>
0.000000000000000e+000

>  <PSA>
2.872000000000000e+001

>  <clusterid>
-137

>  <is_centroid>
@

>  <class1>
748

>  <population1>
15713

>  <population>
15713

>  <cansmi>
N#Cc1cn(c2c1cccc2)C

>  <HBA2>
2

>  <HBD>
0

>  <logP>
2.04998

>  <TPSA>
28.72

>  <MW>
156.184

$$$$

 OpenBabel02121609142D

 18 20  0  0  0  0  0  0  0  0999 V2000
    0.5417    0.7958    0.0000 C   0  0  0  0  0  0  0  0  0  0  0  0
   -0.4083    1.1000    0.0000 N   0  0  0  0  0  0  0  0  0  0  0  0
    1.1292    1.6000    0.0000 C   0  0  0  0  0  0  0  0  0  0  0  0
   -0.4083    2.1000    0.0000 C   0  0  0  0  0  0  0  0  0  0  0  0
    0.5417    2.4083    0.0000 C   0  0  0  0  0  0  0  0  0  0  0  0
    0.8542   -0.1542    0.0000 C   0  0  0  0  0  0  0  0  0  0  0  0
   -1.2708    0.6000    0.0000 C   0  0  0  0  0  0  0  0  0  0  0  0
   -1.2708    2.6000    0.0000 C   0  0  0  0  0  0  0  0  0  0  0  0
    1.8292   -0.3667    0.0000 O   0  0  0  0  0  0  0  0  0  0  0  0
    0.1875   -0.9042    0.0000 C   0  0  0  0  0  0  0  0  0  0  0  0
   -1.1583   -2.3875    0.0000 N   0  0  0  0  0  0  0  0  0  0  0  0
   -2.1375    1.1000    0.0000 C   0  0  0  0  0  0  0  0  0  0  0  0
   -2.1375    2.1000    0.0000 C   0  0  0  0  0  0  0  0  0  0  0  0
    2.1292    1.6000    0.0000 C   0  0  0  0  0  0  0  0  0  0  0  0
   -1.4625   -1.4375    0.0000 C   0  0  0  0  0  0  0  0  0  0  0  0
   -0.1750   -2.5917    0.0000 C   0  0  0  0  0  0  0  0  0  0  0  0
   -0.7958   -0.6917    0.0000 C   0  0  0  0  0  0  0  0  0  0  0  0
    0.4917   -1.8542    0.0000 C   0  0  0  0  0  0  0  0  0  0  0  0
  2  1  1  0  0  0  0
  3  1  2  0  0  0  0
  4  2  1  0  0  0  0
  5  3  1  0  0  0  0
  5  4  2  0  0  0  0
  6  1  1  0  0  0  0
  7  2  1  0  0  0  0
  8  4  1  0  0  0  0
  8 13  2  0  0  0  0
  9  6  2  0  0  0  0
 10  6  1  0  0  0  0
 11 16  2  0  0  0  0
 12  7  2  0  0  0  0
 13 12  1  0  0  0  0
 14  3  1  0  0  0  0
 15 17  2  0  0  0  0
 15 11  1  0  0  0  0
 16 18  1  0  0  0  0
 17 10  1  0  0  0  0
 18 10  2  0  0  0  0
M  END
>  <idnumber>
T0504-0340

>  <LogP>
2.879000000000000e+000

>  <rotating_bonds>
2.000000000000000e+000

>  <hb_acceptors>
3.000000000000000e+000

>  <hb_donors>
0.000000000000000e+000

>  <PSA>
3.437000000000000e+001

>  <clusterid>
107

>  <is_centroid>
@

>  <class1>
913

>  <class2>
632

>  <population1>
744

>  <population2>
79489

>  <population>
60

>  <cansmi>
Cc1cc2n(c1C(=O)c1ccncc1)cccc2

>  <HBA2>
3

>  <HBD>
0

>  <logP>
2.8737

>  <TPSA>
34.37

>  <MW>
236.269

$$$$

 OpenBabel02121609142D

 12 13  0  0  0  0  0  0  0  0999 V2000
   -0.4083    0.3583    0.0000 N   0  0  0  0  0  0  0  0  0  0  0  0
    0.5417    0.0500    0.0000 C   0  0  0  0  0  0  0  0  0  0  0  0
   -0.4083    1.3583    0.0000 C   0  0  0  0  0  0  0  0  0  0  0  0
    1.1292    0.8583    0.0000 C   0  0  0  0  0  0  0  0  0  0  0  0
    0.5417    1.6708    0.0000 C   0  0  0  0  0  0  0  0  0  0  0  0
    0.8542   -0.9042    0.0000 C   0  0  0  0  0  0  0  0  0  0  0  0
    1.1625   -1.8542    0.0000 N   0  0  0  0  0  0  0  0  0  0  0  0
   -1.2708   -0.1417    0.0000 C   0  0  0  0  0  0  0  0  0  0  0  0
   -1.2708    1.8583    0.0000 C   0  0  0  0  0  0  0  0  0  0  0  0
   -2.1375    0.3583    0.0000 C   0  0  0  0  0  0  0  0  0  0  0  0
   -2.1375    1.3583    0.0000 C   0  0  0  0  0  0  0  0  0  0  0  0
    2.1292    0.8583    0.0000 C   0  0  0  0  0  0  0  0  0  0  0  0
  2  1  1  0  0  0  0
  3  1  1  0  0  0  0
  4  2  2  0  0  0  0
  4  5  1  0  0  0  0
  5  3  2  0  0  0  0
  6  2  1  0  0  0  0
  7  6  3  0  0  0  0
  8  1  1  0  0  0  0
  9  3  1  0  0  0  0
  9 11  2  0  0  0  0
 10  8  2  0  0  0  0
 11 10  1  0  0  0  0
 12  4  1  0  0  0  0
M  END
>  <idnumber>
T0504-0341

>  <LogP>
2.591000000000000e+000

>  <rotating_bonds>
1.000000000000000e+000

>  <hb_acceptors>
2.000000000000000e+000

>  <hb_donors>
0.000000000000000e+000

>  <PSA>
2.820000000000000e+001

>  <clusterid>
-139

>  <is_centroid>
@

>  <class1>
913

>  <population1>
744

>  <population>
744

>  <cansmi>
N#Cc1c(C)cc2n1cccc2

>  <HBA2>
2

>  <HBD>
0

>  <logP>
2.11938

>  <TPSA>
28.2

>  <MW>
156.184

$$$$

 OpenBabel02121609142D

 14 15  0  0  0  0  0  0  0  0999 V2000
   -0.4083    1.2083    0.0000 N   0  0  0  0  0  0  0  0  0  0  0  0
   -0.4083    2.2083    0.0000 C   0  0  0  0  0  0  0  0  0  0  0  0
    0.5417    0.8958    0.0000 C   0  0  0  0  0  0  0  0  0  0  0  0
    1.1292    1.7083    0.0000 C   0  0  0  0  0  0  0  0  0  0  0  0
    0.5417    2.5208    0.0000 C   0  0  0  0  0  0  0  0  0  0  0  0
    0.8042   -2.7000    0.0000 N   0  0  0  0  0  0  0  0  0  0  0  0
   -1.2708    0.7083    0.0000 C   0  0  0  0  0  0  0  0  0  0  0  0
    0.4917   -1.7500    0.0000 C   0  0  0  0  0  0  0  0  0  0  0  0
   -1.2708    2.7083    0.0000 C   0  0  0  0  0  0  0  0  0  0  0  0
   -2.1375    1.2083    0.0000 C   0  0  0  0  0  0  0  0  0  0  0  0
   -2.1375    2.2083    0.0000 C   0  0  0  0  0  0  0  0  0  0  0  0
    0.8542   -0.0542    0.0000 C   0  0  0  0  0  0  0  0  0  0  0  0
    2.1292    1.7083    0.0000 C   0  0  0  0  0  0  0  0  0  0  0  0
    0.1875   -0.8000    0.0000 C   0  0  0  0  0  0  0  0  0  0  0  0
  2  1  1  0  0  0  0
  3  1  1  0  0  0  0
  4  3  2  0  0  0  0
  4  5  1  0  0  0  0
  5  2  2  0  0  0  0
  6  8  3  0  0  0  0
  7  1  1  0  0  0  0
  8 14  1  0  0  0  0
  9  2  1  0  0  0  0
  9 11  2  0  0  0  0
 10  7  2  0  0  0  0
 11 10  1  0  0  0  0
 12  3  1  0  0  0  0
 13  4  1  0  0  0  0
 14 12  1  0  0  0  0
M  END
>  <idnumber>
T0504-0345

>  <LogP>
2.389000000000000e+000

>  <rotating_bonds>
3.000000000000000e+000

>  <hb_acceptors>
2.000000000000000e+000

>  <hb_donors>
0.000000000000000e+000

>  <PSA>
2.820000000000000e+001

>  <clusterid>
-140

>  <is_centroid>
@

>  <class1>
913

>  <population1>
744

>  <population>
744

>  <cansmi>
N#CCCc1c(C)cc2n1cccc2

>  <HBA2>
2

>  <HBD>
0

>  <logP>
2.70388

>  <TPSA>
28.2

>  <MW>
184.237

$$$$

 OpenBabel02121609142D

 13 14  0  0  0  0  0  0  0  0999 V2000
    1.1292    0.3750    0.0000 C   0  0  0  0  0  0  0  0  0  0  0  0
    0.5417   -0.4375    0.0000 N   0  0  0  0  0  0  0  0  0  0  0  0
    0.5417    1.1833    0.0000 C   0  0  0  0  0  0  0  0  0  0  0  0
   -0.4083    0.8750    0.0000 C   0  0  0  0  0  0  0  0  0  0  0  0
   -0.4083   -0.1250    0.0000 C   0  0  0  0  0  0  0  0  0  0  0  0
    2.1292    0.3750    0.0000 O   0  0  0  0  0  0  0  0  0  0  0  0
    0.8542    2.1333    0.0000 O   0  0  0  0  0  0  0  0  0  0  0  0
    0.8542   -1.3875    0.0000 C   0  0  0  0  0  0  0  0  0  0  0  0
   -1.2708    1.3750    0.0000 C   0  0  0  0  0  0  0  0  0  0  0  0
   -1.2708   -0.6250    0.0000 C   0  0  0  0  0  0  0  0  0  0  0  0
    0.1875   -2.1292    0.0000 C   0  0  0  0  0  0  0  0  0  0  0  0
   -2.1375    0.8750    0.0000 C   0  0  0  0  0  0  0  0  0  0  0  0
   -2.1375   -0.1250    0.0000 C   0  0  0  0  0  0  0  0  0  0  0  0
  2  1  1  0  0  0  0
  3  1  1  0  0  0  0
  4  3  1  0  0  0  0
  4  5  2  0  0  0  0
  5  2  1  0  0  0  0
  6  1  2  0  0  0  0
  7  3  2  0  0  0  0
  8  2  1  0  0  0  0
  9  4  1  0  0  0  0
 10  5  1  0  0  0  0
 11  8  1  0  0  0  0
 12  9  2  0  0  0  0
 12 13  1  0  0  0  0
 13 10  2  0  0  0  0
M  END
>  <idnumber>
T0504-0603

>  <LogP>
1.093000000000000e+000

>  <rotating_bonds>
1.000000000000000e+000

>  <hb_acceptors>
2.000000000000000e+000

>  <hb_donors>
0.000000000000000e+000

>  <PSA>
3.738000000000000e+001

>  <clusterid>
20

>  <is_centroid>
@

>  <class1>
935

>  <population1>
446

>  <population>
446

>  <cansmi>
CCN1C(=O)C(=O)c2c1cccc2

>  <HBA2>
3

>  <HBD>
0

>  <logP>
1.3008

>  <TPSA>
37.38

>  <MW>
175.184

$$$$

 OpenBabel02121609142D

 20 22  0  0  0  0  0  0  0  0999 V2000
    0.8625    0.1208    0.0000 C   0  0  0  0  0  0  0  0  0  0  0  0
   -0.8708    0.1208    0.0000 C   0  0  0  0  0  0  0  0  0  0  0  0
   -0.8708   -0.8792    0.0000 C   0  0  0  0  0  0  0  0  0  0  0  0
    0.8625   -0.8792    0.0000 C   0  0  0  0  0  0  0  0  0  0  0  0
    0.0000   -1.3792    0.0000 N   0  0  0  0  0  0  0  0  0  0  0  0
    0.0000    0.6208    0.0000 C   0  0  0  0  0  0  0  0  0  0  0  0
    1.7292    0.6208    0.0000 C   0  0  0  0  0  0  0  0  0  0  0  0
   -1.7333    0.6208    0.0000 C   0  0  0  0  0  0  0  0  0  0  0  0
    1.7292   -1.3792    0.0000 C   0  0  0  0  0  0  0  0  0  0  0  0
   -1.7333   -1.3792    0.0000 C   0  0  0  0  0  0  0  0  0  0  0  0
   -2.6000   -0.8792    0.0000 C   0  0  0  0  0  0  0  0  0  0  0  0
    2.5917   -0.8792    0.0000 C   0  0  0  0  0  0  0  0  0  0  0  0
    2.5917    0.1208    0.0000 C   0  0  0  0  0  0  0  0  0  0  0  0
   -2.6000    0.1208    0.0000 C   0  0  0  0  0  0  0  0  0  0  0  0
   -1.7333    1.6208    0.0000 O   0  0  0  0  0  0  0  0  0  0  0  0
    1.7292    1.6208    0.0000 O   0  0  0  0  0  0  0  0  0  0  0  0
    3.2750   -1.6167    0.0000 C   0  0  0  0  0  0  0  0  0  0  0  0
   -3.2833   -1.6167    0.0000 C   0  0  0  0  0  0  0  0  0  0  0  0
   -3.5750   -1.1042    0.0000 C   0  0  0  0  0  0  0  0  0  0  0  0
    3.5667   -1.1042    0.0000 C   0  0  0  0  0  0  0  0  0  0  0  0
  2  6  1  0  0  0  0
  3  2  2  0  0  0  0
  4  1  2  0  0  0  0
  5  4  1  0  0  0  0
  5  3  1  0  0  0  0
  6  1  1  0  0  0  0
  7  1  1  0  0  0  0
  8  2  1  0  0  0  0
  9  4  1  0  0  0  0
  9 12  1  0  0  0  0
 10  3  1  0  0  0  0
 11 14  1  0  0  0  0
 11 10  1  0  0  0  0
 12 13  1  0  0  0  0
 13  7  1  0  0  0  0
 14  8  1  0  0  0  0
 15  8  2  0  0  0  0
 16  7  2  0  0  0  0
 17 12  1  0  0  0  0
 18 11  1  0  0  0  0
 19 11  1  0  0  0  0
 20 12  1  0  0  0  0
M  END
>  <idnumber>
T0504-0635

>  <LogP>
2.199000000000000e+000

>  <rotating_bonds>
0.000000000000000e+000

>  <hb_acceptors>
3.000000000000000e+000

>  <hb_donors>
1.000000000000000e+000

>  <PSA>
4.616999999999997e+001

>  <clusterid>
109

>  <is_centroid>
@

>  <class1>
893

>  <population1>
20

>  <population>
20

>  <cansmi>
O=C1CC(C)(C)CC2=C1CC1=C(N2)CC(CC1=O)(C)C

>  <HBA2>
3

>  <HBD>
1

>  <logP>
3.5949

>  <TPSA>
46.17

>  <MW>
273.37

$$$$

 OpenBabel02121609142D

 15 17  0  0  0  0  0  0  0  0999 V2000
    0.1667   -1.0000    0.0000 C   0  0  0  0  0  0  0  0  0  0  0  0
    0.1667    0.0000    0.0000 N   0  0  0  0  0  0  0  0  0  0  0  0
   -0.7833   -1.3042    0.0000 N   0  0  0  0  0  0  0  0  0  0  0  0
    1.0292    0.5000    0.0000 C   0  0  0  0  0  0  0  0  0  0  0  0
    1.0292   -1.5000    0.0000 N   0  0  0  0  0  0  0  0  0  0  0  0
    1.9000    0.0000    0.0000 C   0  0  0  0  0  0  0  0  0  0  0  0
   -0.7833    0.3125    0.0000 C   0  0  0  0  0  0  0  0  0  0  0  0
   -1.3708   -0.5000    0.0000 C   0  0  0  0  0  0  0  0  0  0  0  0
    1.9000   -1.0000    0.0000 C   0  0  0  0  0  0  0  0  0  0  0  0
    1.0292    1.5000    0.0000 C   0  0  0  0  0  0  0  0  0  0  0  0
   -1.1875    1.2250    0.0000 C   0  0  0  0  0  0  0  0  0  0  0  0
   -2.3625   -0.3917    0.0000 C   0  0  0  0  0  0  0  0  0  0  0  0
    2.7667   -1.5000    0.0000 C   0  0  0  0  0  0  0  0  0  0  0  0
   -2.1833    1.3333    0.0000 C   0  0  0  0  0  0  0  0  0  0  0  0
   -2.7708    0.5208    0.0000 C   0  0  0  0  0  0  0  0  0  0  0  0
  2  1  1  0  0  0  0
  3  1  2  0  0  0  0
  4  2  1  0  0  0  0
  5  1  1  0  0  0  0
  6  9  1  0  0  0  0
  6  4  2  0  0  0  0
  7  2  1  0  0  0  0
  7  8  2  0  0  0  0
  8  3  1  0  0  0  0
  9  5  2  0  0  0  0
 10  4  1  0  0  0  0
 11  7  1  0  0  0  0
 12  8  1  0  0  0  0
 13  9  1  0  0  0  0
 14 11  2  0  0  0  0
 14 15  1  0  0  0  0
 15 12  2  0  0  0  0
M  END
>  <idnumber>
T0504-0681

>  <LogP>
2.689000000000000e+000

>  <rotating_bonds>
0.000000000000000e+000

>  <hb_acceptors>
3.000000000000000e+000

>  <hb_donors>
0.000000000000000e+000

>  <PSA>
3.019000000000000e+001

>  <clusterid>
-144

>  <is_centroid>
@

>  <class1>
936

>  <population1>
19

>  <population>
19

>  <cansmi>
Cc1cc(C)n2c(n1)nc1c2cccc1

>  <HBA2>
3

>  <HBD>
0

>  <logP>
2.4993

>  <TPSA>
30.19

>  <MW>
197.236

$$$$

 OpenBabel02121609142D

 12 13  0  0  0  0  0  0  0  0999 V2000
   -0.5000    0.0458    0.0000 C   0  0  0  0  0  0  0  0  0  0  0  0
   -1.4500    0.3583    0.0000 N   0  0  0  0  0  0  0  0  0  0  0  0
   -2.0375   -0.4542    0.0000 N   0  0  0  0  0  0  0  0  0  0  0  0
   -0.5000   -0.9542    0.0000 C   0  0  0  0  0  0  0  0  0  0  0  0
   -1.4500   -1.2625    0.0000 C   0  0  0  0  0  0  0  0  0  0  0  0
    0.3125    0.6333    0.0000 C   0  0  0  0  0  0  0  0  0  0  0  0
   -1.7583   -2.2125    0.0000 C   0  0  0  0  0  0  0  0  0  0  0  0
    1.2250    0.2333    0.0000 C   0  0  0  0  0  0  0  0  0  0  0  0
    0.2042    1.6333    0.0000 C   0  0  0  0  0  0  0  0  0  0  0  0
    1.0167    2.2208    0.0000 C   0  0  0  0  0  0  0  0  0  0  0  0
    2.0292    0.8208    0.0000 C   0  0  0  0  0  0  0  0  0  0  0  0
    1.9292    1.8083    0.0000 C   0  0  0  0  0  0  0  0  0  0  0  0
  2  1  1  0  0  0  0
  3  2  1  0  0  0  0
  4  1  2  0  0  0  0
  5  4  1  0  0  0  0
  5  3  2  0  0  0  0
  6  1  1  0  0  0  0
  7  5  1  0  0  0  0
  8  6  1  0  0  0  0
  9  6  2  0  0  0  0
 10  9  1  0  0  0  0
 11  8  2  0  0  0  0
 11 12  1  0  0  0  0
 12 10  2  0  0  0  0
M  END
>  <idnumber>
T0504-0703

>  <LogP>
2.608000000000000e+000

>  <rotating_bonds>
1.000000000000000e+000

>  <hb_acceptors>
1.000000000000000e+000

>  <hb_donors>
1.000000000000000e+000

>  <PSA>
2.868000000000000e+001

>  <clusterid>
-145

>  <is_centroid>
@

>  <class1>
631

>  <class2>
625

>  <population1>
41612

>  <population2>
877209

>  <population>
39300

>  <cansmi>
Cc1n[nH]c(c1)c1ccccc1

>  <HBA2>
1

>  <HBD>
1

>  <logP>
2.3851

>  <TPSA>
28.68

>  <MW>
158.2

$$$$

 OpenBabel02121609142D

 20 22  0  0  0  0  0  0  0  0999 V2000
    0.8625    0.1208    0.0000 C   0  0  0  0  0  0  0  0  0  0  0  0
   -0.8708    0.1208    0.0000 C   0  0  0  0  0  0  0  0  0  0  0  0
   -0.8708   -0.8792    0.0000 C   0  0  0  0  0  0  0  0  0  0  0  0
    0.8625   -0.8792    0.0000 C   0  0  0  0  0  0  0  0  0  0  0  0
    0.0000   -1.3792    0.0000 O   0  0  0  0  0  0  0  0  0  0  0  0
    0.0000    0.6208    0.0000 C   0  0  0  0  0  0  0  0  0  0  0  0
    1.7292    0.6208    0.0000 C   0  0  0  0  0  0  0  0  0  0  0  0
   -1.7333    0.6208    0.0000 C   0  0  0  0  0  0  0  0  0  0  0  0
    1.7292   -1.3792    0.0000 C   0  0  0  0  0  0  0  0  0  0  0  0
   -1.7333   -1.3792    0.0000 C   0  0  0  0  0  0  0  0  0  0  0  0
   -2.6000   -0.8792    0.0000 C   0  0  0  0  0  0  0  0  0  0  0  0
    2.5917   -0.8792    0.0000 C   0  0  0  0  0  0  0  0  0  0  0  0
    2.5917    0.1208    0.0000 C   0  0  0  0  0  0  0  0  0  0  0  0
   -2.6000    0.1208    0.0000 C   0  0  0  0  0  0  0  0  0  0  0  0
   -1.7333    1.6208    0.0000 O   0  0  0  0  0  0  0  0  0  0  0  0
    1.7292    1.6208    0.0000 O   0  0  0  0  0  0  0  0  0  0  0  0
    3.2750   -1.6167    0.0000 C   0  0  0  0  0  0  0  0  0  0  0  0
   -3.2833   -1.6167    0.0000 C   0  0  0  0  0  0  0  0  0  0  0  0
   -3.5750   -1.1042    0.0000 C   0  0  0  0  0  0  0  0  0  0  0  0
    3.5667   -1.1042    0.0000 C   0  0  0  0  0  0  0  0  0  0  0  0
  2  6  1  0  0  0  0
  3  2  2  0  0  0  0
  4  1  2  0  0  0  0
  5  4  1  0  0  0  0
  5  3  1  0  0  0  0
  6  1  1  0  0  0  0
  7  1  1  0  0  0  0
  8  2  1  0  0  0  0
  9  4  1  0  0  0  0
  9 12  1  0  0  0  0
 10  3  1  0  0  0  0
 11 14  1  0  0  0  0
 11 10  1  0  0  0  0
 12 13  1  0  0  0  0
 13  7  1  0  0  0  0
 14  8  1  0  0  0  0
 15  8  2  0  0  0  0
 16  7  2  0  0  0  0
 17 12  1  0  0  0  0
 18 11  1  0  0  0  0
 19 11  1  0  0  0  0
 20 12  1  0  0  0  0
M  END
>  <idnumber>
T0504-0750

>  <LogP>
1.211000000000000e+000

>  <rotating_bonds>
0.000000000000000e+000

>  <hb_acceptors>
3.000000000000000e+000

>  <hb_donors>
0.000000000000000e+000

>  <PSA>
4.337000000000000e+001

>  <clusterid>
111

>  <is_centroid>
@

>  <class1>
892

>  <population1>
18

>  <population>
18

>  <cansmi>
O=C1CC(C)(C)CC2=C1CC1=C(O2)CC(CC1=O)(C)C

>  <HBA2>
3

>  <HBD>
0

>  <logP>
3.6931

>  <TPSA>
43.37

>  <MW>
274.355

$$$$

 OpenBabel02121609142D

 13 14  0  0  0  0  0  0  0  0999 V2000
    1.1292    0.7583    0.0000 C   0  0  0  0  0  0  0  0  0  0  0  0
    0.5417   -0.0542    0.0000 N   0  0  0  0  0  0  0  0  0  0  0  0
    0.5417    1.5625    0.0000 N   0  0  0  0  0  0  0  0  0  0  0  0
   -0.4083    0.2583    0.0000 C   0  0  0  0  0  0  0  0  0  0  0  0
   -0.4083    1.2583    0.0000 C   0  0  0  0  0  0  0  0  0  0  0  0
    2.1292    0.7583    0.0000 O   0  0  0  0  0  0  0  0  0  0  0  0
    0.8542   -1.0042    0.0000 C   0  0  0  0  0  0  0  0  0  0  0  0
   -1.2708   -0.2417    0.0000 C   0  0  0  0  0  0  0  0  0  0  0  0
   -1.2708    1.7583    0.0000 C   0  0  0  0  0  0  0  0  0  0  0  0
    1.8292   -1.2125    0.0000 C   0  0  0  0  0  0  0  0  0  0  0  0
    0.1875   -1.7500    0.0000 C   0  0  0  0  0  0  0  0  0  0  0  0
   -2.1375    0.2583    0.0000 C   0  0  0  0  0  0  0  0  0  0  0  0
   -2.1375    1.2583    0.0000 C   0  0  0  0  0  0  0  0  0  0  0  0
  2  1  1  0  0  0  0
  3  1  1  0  0  0  0
  4  2  1  0  0  0  0
  5  3  1  0  0  0  0
  5  4  2  0  0  0  0
  6  1  2  0  0  0  0
  7  2  1  0  0  0  0
  8  4  1  0  0  0  0
  9  5  1  0  0  0  0
 10  7  1  0  0  0  0
 11  7  1  0  0  0  0
 12  8  2  0  0  0  0
 13  9  2  0  0  0  0
 13 12  1  0  0  0  0
M  END
>  <idnumber>
T0504-1520

>  <LogP>
2.452000000000000e+000

>  <rotating_bonds>
1.000000000000000e+000

>  <hb_acceptors>
1.000000000000000e+000

>  <hb_donors>
1.000000000000000e+000

>  <PSA>
3.234000000000000e+001

>  <clusterid>
113

>  <is_centroid>
@

>  <class1>
727

>  <population1>
3921

>  <population>
3921

>  <cansmi>
CC(n1c(=O)[nH]c2c1cccc2)C

>  <HBA2>
2

>  <HBD>
1

>  <logP>
1.9105

>  <TPSA>
37.79

>  <MW>
176.215

$$$$

 OpenBabel02121609142D

 15 17  0  0  0  0  0  0  0  0999 V2000
   -1.4083    0.5000    0.0000 C   0  0  0  0  0  0  0  0  0  0  0  0
   -0.4583    0.8125    0.0000 N   0  0  0  0  0  0  0  0  0  0  0  0
   -1.4083   -0.5000    0.0000 N   0  0  0  0  0  0  0  0  0  0  0  0
    0.1292    0.0000    0.0000 C   0  0  0  0  0  0  0  0  0  0  0  0
   -0.4583   -0.8042    0.0000 C   0  0  0  0  0  0  0  0  0  0  0  0
   -2.2708    1.0000    0.0000 N   0  0  0  0  0  0  0  0  0  0  0  0
   -2.2708   -1.0000    0.0000 C   0  0  0  0  0  0  0  0  0  0  0  0
   -3.1375   -0.5000    0.0000 C   0  0  0  0  0  0  0  0  0  0  0  0
    1.1292    0.0000    0.0000 C   0  0  0  0  0  0  0  0  0  0  0  0
   -3.1375    0.5000    0.0000 C   0  0  0  0  0  0  0  0  0  0  0  0
    1.6292   -0.8625    0.0000 C   0  0  0  0  0  0  0  0  0  0  0  0
    1.6292    0.8708    0.0000 C   0  0  0  0  0  0  0  0  0  0  0  0
    2.6292    0.8708    0.0000 C   0  0  0  0  0  0  0  0  0  0  0  0
    2.6292   -0.8625    0.0000 C   0  0  0  0  0  0  0  0  0  0  0  0
    3.1292    0.0000    0.0000 C   0  0  0  0  0  0  0  0  0  0  0  0
  2  1  2  0  0  0  0
  3  1  1  0  0  0  0
  4  2  1  0  0  0  0
  5  3  1  0  0  0  0
  5  4  2  0  0  0  0
  6  1  1  0  0  0  0
  7  3  1  0  0  0  0
  7  8  2  0  0  0  0
  8 10  1  0  0  0  0
  9  4  1  0  0  0  0
 10  6  2  0  0  0  0
 11  9  1  0  0  0  0
 12  9  2  0  0  0  0
 13 12  1  0  0  0  0
 14 11  2  0  0  0  0
 14 15  1  0  0  0  0
 15 13  2  0  0  0  0
M  END
>  <idnumber>
T0504-1625

>  <LogP>
2.195000000000000e+000

>  <rotating_bonds>
1.000000000000000e+000

>  <hb_acceptors>
3.000000000000000e+000

>  <hb_donors>
0.000000000000000e+000

>  <PSA>
3.019000000000000e+001

>  <clusterid>
-147

>  <is_centroid>
@

>  <class1>
937

>  <class2>
625

>  <population1>
280

>  <population2>
877209

>  <population>
192

>  <cansmi>
c1ccc(cc1)c1cn2c(n1)nccc2

>  <HBA2>
3

>  <HBD>
0

>  <logP>
2.3963

>  <TPSA>
30.19

>  <MW>
195.22

$$$$

 OpenBabel02121609142D

 17 19  0  0  0  0  0  0  0  0999 V2000
    0.0000    0.2500    0.0000 C   0  0  0  0  0  0  0  0  0  0  0  0
    0.0000   -1.7500    0.0000 N   0  0  0  0  0  0  0  0  0  0  0  0
   -0.8708   -0.2500    0.0000 C   0  0  0  0  0  0  0  0  0  0  0  0
   -0.8708   -1.2500    0.0000 C   0  0  0  0  0  0  0  0  0  0  0  0
    0.0000    1.2500    0.0000 C   0  0  0  0  0  0  0  0  0  0  0  0
    0.8625   -0.2500    0.0000 C   0  0  0  0  0  0  0  0  0  0  0  0
    0.8625   -1.2500    0.0000 C   0  0  0  0  0  0  0  0  0  0  0  0
   -0.8708    1.7500    0.0000 O   0  0  0  0  0  0  0  0  0  0  0  0
    0.8625    1.7500    0.0000 N   0  0  0  0  0  0  0  0  0  0  0  0
   -1.7333    0.2500    0.0000 C   0  0  0  0  0  0  0  0  0  0  0  0
   -1.7333   -1.7500    0.0000 C   0  0  0  0  0  0  0  0  0  0  0  0
    1.7292    0.2500    0.0000 C   0  0  0  0  0  0  0  0  0  0  0  0
    1.7292   -1.7500    0.0000 C   0  0  0  0  0  0  0  0  0  0  0  0
   -2.6000   -0.2500    0.0000 C   0  0  0  0  0  0  0  0  0  0  0  0
   -2.6000   -1.2500    0.0000 C   0  0  0  0  0  0  0  0  0  0  0  0
    2.5917   -0.2500    0.0000 C   0  0  0  0  0  0  0  0  0  0  0  0
    2.5917   -1.2500    0.0000 C   0  0  0  0  0  0  0  0  0  0  0  0
  2  7  2  0  0  0  0
  3  1  1  0  0  0  0
  4  3  2  0  0  0  0
  4  2  1  0  0  0  0
  5  1  1  0  0  0  0
  6  1  2  0  0  0  0
  7  6  1  0  0  0  0
  8  5  2  0  0  0  0
  9  5  1  0  0  0  0
 10  3  1  0  0  0  0
 11  4  1  0  0  0  0
 11 15  1  0  0  0  0
 12  6  1  0  0  0  0
 13  7  1  0  0  0  0
 13 17  2  0  0  0  0
 14 10  1  0  0  0  0
 15 14  1  0  0  0  0
 16 12  2  0  0  0  0
 17 16  1  0  0  0  0
M  END
>  <idnumber>
T0504-2145

>  <LogP>
2.750000000000000e+000

>  <rotating_bonds>
1.000000000000000e+000

>  <hb_acceptors>
2.000000000000000e+000

>  <hb_donors>
1.000000000000000e+000

>  <PSA>
5.598000000000000e+001

>  <clusterid>
-150

>  <is_centroid>
@

>  <class1>
844

>  <population1>
1164

>  <population>
1164

>  <cansmi>
NC(=O)c1c2CCCCc2nc2c1cccc2

>  <HBA2>
3

>  <HBD>
1

>  <logP>
2.9128

>  <TPSA>
55.98

>  <MW>
226.274

$$$$

 OpenBabel02121609142D

 13 14  0  0  0  0  0  0  0  0999 V2000
   -0.0833   -0.1417    0.0000 N   0  0  0  0  0  0  0  0  0  0  0  0
    0.8667   -0.4500    0.0000 C   0  0  0  0  0  0  0  0  0  0  0  0
   -0.6708   -0.9500    0.0000 N   0  0  0  0  0  0  0  0  0  0  0  0
    0.8667   -1.4500    0.0000 C   0  0  0  0  0  0  0  0  0  0  0  0
   -0.3958    0.8125    0.0000 C   0  0  0  0  0  0  0  0  0  0  0  0
   -0.0833   -1.7542    0.0000 C   0  0  0  0  0  0  0  0  0  0  0  0
   -1.3708    1.0208    0.0000 N   0  0  0  0  0  0  0  0  0  0  0  0
    1.6750    0.1375    0.0000 N   0  0  0  0  0  0  0  0  0  0  0  0
    0.2750    1.5583    0.0000 C   0  0  0  0  0  0  0  0  0  0  0  0
   -0.3958   -2.7042    0.0000 C   0  0  0  0  0  0  0  0  0  0  0  0
   -1.6833    1.9708    0.0000 C   0  0  0  0  0  0  0  0  0  0  0  0
   -0.0333    2.5083    0.0000 C   0  0  0  0  0  0  0  0  0  0  0  0
   -1.0125    2.7125    0.0000 C   0  0  0  0  0  0  0  0  0  0  0  0
  2  1  1  0  0  0  0
  3  1  1  0  0  0  0
  4  2  2  0  0  0  0
  5  1  1  0  0  0  0
  6  3  2  0  0  0  0
  6  4  1  0  0  0  0
  7  5  2  0  0  0  0
  8  2  1  0  0  0  0
  9  5  1  0  0  0  0
 10  6  1  0  0  0  0
 11  7  1  0  0  0  0
 11 13  2  0  0  0  0
 12  9  2  0  0  0  0
 13 12  1  0  0  0  0
M  END
>  <idnumber>
T0504-2524

>  <LogP>
9.060000000000000e-001

>  <rotating_bonds>
1.000000000000000e+000

>  <hb_acceptors>
3.000000000000000e+000

>  <hb_donors>
1.000000000000000e+000

>  <PSA>
5.673000000000000e+001

>  <clusterid>
116

>  <is_centroid>
@

>  <class1>
631

>  <class2>
632

>  <population1>
41612

>  <population2>
79489

>  <population>
3006

>  <cansmi>
Cc1nn(c(c1)N)c1ccccn1

>  <HBA2>
4

>  <HBD>
1

>  <logP>
1.7391

>  <TPSA>
56.73

>  <MW>
174.202

$$$$

 OpenBabel02121609142D

 17 18  0  0  0  0  0  0  0  0999 V2000
   -1.3833   -1.1500    0.0000 N   0  0  0  0  0  0  0  0  0  0  0  0
   -1.9708   -1.9542    0.0000 N   0  0  0  0  0  0  0  0  0  0  0  0
   -0.4333   -1.4542    0.0000 C   0  0  0  0  0  0  0  0  0  0  0  0
   -0.4333   -2.4542    0.0000 C   0  0  0  0  0  0  0  0  0  0  0  0
   -1.3833   -2.7667    0.0000 C   0  0  0  0  0  0  0  0  0  0  0  0
    0.9875    2.7708    0.0000 C   0  0  0  0  0  0  0  0  0  0  0  0
   -1.6958   -0.2000    0.0000 C   0  0  0  0  0  0  0  0  0  0  0  0
    0.3167    2.0333    0.0000 C   0  0  0  0  0  0  0  0  0  0  0  0
    0.6792    3.7333    0.0000 O   0  0  0  0  0  0  0  0  0  0  0  0
   -0.6625    2.2375    0.0000 C   0  0  0  0  0  0  0  0  0  0  0  0
    0.6250    1.0833    0.0000 C   0  0  0  0  0  0  0  0  0  0  0  0
   -1.0208    0.5458    0.0000 C   0  0  0  0  0  0  0  0  0  0  0  0
    1.9667    2.5708    0.0000 O   0  0  0  0  0  0  0  0  0  0  0  0
   -0.0458    0.3375    0.0000 C   0  0  0  0  0  0  0  0  0  0  0  0
   -1.3333    1.4958    0.0000 C   0  0  0  0  0  0  0  0  0  0  0  0
    0.3792   -0.8667    0.0000 C   0  0  0  0  0  0  0  0  0  0  0  0
   -1.6958   -3.7167    0.0000 C   0  0  0  0  0  0  0  0  0  0  0  0
  2  1  1  0  0  0  0
  3  1  1  0  0  0  0
  4  3  2  0  0  0  0
  5  2  2  0  0  0  0
  5  4  1  0  0  0  0
  6  8  1  0  0  0  0
  7  1  1  0  0  0  0
  8 10  2  0  0  0  0
  9  6  2  0  0  0  0
 10 15  1  0  0  0  0
 11 14  2  0  0  0  0
 11  8  1  0  0  0  0
 12  7  1  0  0  0  0
 13  6  1  0  0  0  0
 14 12  1  0  0  0  0
 15 12  2  0  0  0  0
 16  3  1  0  0  0  0
 17  5  1  0  0  0  0
M  END
>  <idnumber>
T0504-2949

>  <LogP>
2.306000000000000e+000

>  <rotating_bonds>
3.000000000000000e+000

>  <hb_acceptors>
3.000000000000000e+000

>  <hb_donors>
1.000000000000000e+000

>  <PSA>
5.512000000000001e+001

>  <clusterid>
118

>  <is_centroid>
@

>  <class1>
625

>  <class2>
631

>  <population1>
877209

>  <population2>
41612

>  <population>
39300

>  <cansmi>
Cc1nn(c(c1)C)Cc1ccc(cc1)C(=O)O

>  <HBA2>
4

>  <HBD>
1

>  <logP>
2.2464

>  <TPSA>
55.12

>  <MW>
230.262

$$$$

 OpenBabel02121609142D

 17 18  0  0  0  0  0  0  0  0999 V2000
   -0.4333    0.7583    0.0000 C   0  0  0  0  0  0  0  0  0  0  0  0
    0.4292    0.2500    0.0000 N   0  0  0  0  0  0  0  0  0  0  0  0
   -1.3000    0.2500    0.0000 C   0  0  0  0  0  0  0  0  0  0  0  0
    1.2917    0.7583    0.0000 C   0  0  3  0  0  0  0  0  0  0  0  0
   -0.4333    1.7500    0.0000 O   0  0  0  0  0  0  0  0  0  0  0  0
   -1.3000   -0.7500    0.0000 C   0  0  0  0  0  0  0  0  0  0  0  0
    2.1625    0.2500    0.0000 C   0  0  3  0  0  0  0  0  0  0  0  0
   -2.1708   -1.2500    0.0000 C   0  0  0  0  0  0  0  0  0  0  0  0
   -2.1708   -2.2500    0.0000 Cl  0  0  0  0  0  0  0  0  0  0  0  0
    2.1625   -0.7500    0.0000 O   0  0  0  0  0  0  0  0  0  0  0  0
   -2.1708    0.7583    0.0000 C   0  0  0  0  0  0  0  0  0  0  0  0
   -3.0333    0.2500    0.0000 C   0  0  0  0  0  0  0  0  0  0  0  0
    1.2917    1.7500    0.0000 C   0  0  0  0  0  0  0  0  0  0  0  0
   -3.0333   -0.7500    0.0000 C   0  0  0  0  0  0  0  0  0  0  0  0
    3.0292    0.7583    0.0000 C   0  0  0  0  0  0  0  0  0  0  0  0
    2.1625    2.2500    0.0000 C   0  0  0  0  0  0  0  0  0  0  0  0
    3.0292    1.7500    0.0000 C   0  0  0  0  0  0  0  0  0  0  0  0
  2  1  1  0  0  0  0
  3  1  1  0  0  0  0
  4  2  1  0  0  0  0
  5  1  2  0  0  0  0
  6  3  2  0  0  0  0
  7  4  1  0  0  0  0
  8  6  1  0  0  0  0
  8 14  2  0  0  0  0
  9  8  1  0  0  0  0
 10  7  1  0  0  0  0
 11  3  1  0  0  0  0
 12 11  2  0  0  0  0
 13  4  1  0  0  0  0
 14 12  1  0  0  0  0
 15  7  1  0  0  0  0
 15 17  1  0  0  0  0
 16 13  1  0  0  0  0
 17 16  1  0  0  0  0
M  END
>  <idnumber>
T0504-4469

>  <LogP>
2.617000000000000e+000

>  <rotating_bonds>
2.000000000000000e+000

>  <hb_acceptors>
3.000000000000000e+000

>  <hb_donors>
2.000000000000000e+000

>  <PSA>
4.933000000000001e+001

>  <clusterid>
-153

>  <is_centroid>
@

>  <class1>
625

>  <class2>
797

>  <population1>
877209

>  <population2>
40410

>  <population>
31549

>  <cansmi>
OC1CCCCC1NC(=O)c1cccc(c1)Cl

>  <HBA2>
3

>  <HBD>
2

>  <logP>
2.7642

>  <TPSA>
49.33

>  <MW>
253.725

$$$$

 OpenBabel02121609142D

 22 24  0  0  0  0  0  0  0  0999 V2000
   -3.4708   -0.7500    0.0000 C   0  0  0  0  0  0  0  0  0  0  0  0
   -2.6000   -1.2500    0.0000 O   0  0  0  0  0  0  0  0  0  0  0  0
   -1.7333   -0.7500    0.0000 C   0  0  0  0  0  0  0  0  0  0  0  0
   -1.7333    0.2500    0.0000 C   0  0  0  0  0  0  0  0  0  0  0  0
   -2.6000    0.7500    0.0000 C   0  0  0  0  0  0  0  0  0  0  0  0
   -3.4708    0.2500    0.0000 C   0  0  0  0  0  0  0  0  0  0  0  0
    2.5917   -1.2500    0.0000 C   0  0  0  0  0  0  0  0  0  0  0  0
   -0.8708   -1.2500    0.0000 C   0  0  0  0  0  0  0  0  0  0  0  0
   -0.8708    0.7500    0.0000 C   0  0  0  0  0  0  0  0  0  0  0  0
   -4.3333   -1.2500    0.0000 O   0  0  0  0  0  0  0  0  0  0  0  0
    3.4625   -0.7500    0.0000 N   0  0  0  0  0  0  0  0  0  0  0  0
    1.7292   -0.7500    0.0000 C   0  0  0  0  0  0  0  0  0  0  0  0
    2.5917   -2.2500    0.0000 O   0  0  0  0  0  0  0  0  0  0  0  0
   -0.0083   -0.7500    0.0000 C   0  0  0  0  0  0  0  0  0  0  0  0
    0.8625   -1.2500    0.0000 O   0  0  0  0  0  0  0  0  0  0  0  0
   -0.0083    0.2500    0.0000 C   0  0  0  0  0  0  0  0  0  0  0  0
   -2.6000    1.7500    0.0000 C   0  0  0  0  0  0  0  0  0  0  0  0
   -4.3333    0.7500    0.0000 C   0  0  0  0  0  0  0  0  0  0  0  0
    4.3292   -1.2500    0.0000 C   0  0  0  0  0  0  0  0  0  0  0  0
    3.4625    0.2500    0.0000 C   0  0  0  0  0  0  0  0  0  0  0  0
   -3.4708    2.2583    0.0000 C   0  0  0  0  0  0  0  0  0  0  0  0
   -4.3333    1.7500    0.0000 C   0  0  0  0  0  0  0  0  0  0  0  0
  2  1  1  0  0  0  0
  3  2  1  0  0  0  0
  4  5  1  0  0  0  0
  4  3  2  0  0  0  0
  5  6  2  0  0  0  0
  6  1  1  0  0  0  0
  7 12  1  0  0  0  0
  8  3  1  0  0  0  0
  9  4  1  0  0  0  0
 10  1  2  0  0  0  0
 11  7  1  0  0  0  0
 12 15  1  0  0  0  0
 13  7  2  0  0  0  0
 14  8  2  0  0  0  0
 14 16  1  0  0  0  0
 15 14  1  0  0  0  0
 16  9  2  0  0  0  0
 17  5  1  0  0  0  0
 17 21  2  0  0  0  0
 18  6  1  0  0  0  0
 19 11  1  0  0  0  0
 20 11  1  0  0  0  0
 21 22  1  0  0  0  0
 22 18  2  0  0  0  0
M  END
>  <idnumber>
T0504-4894

>  <LogP>
2.320000000000000e+000

>  <rotating_bonds>
3.000000000000000e+000

>  <hb_acceptors>
3.000000000000000e+000

>  <hb_donors>
0.000000000000000e+000

>  <PSA>
5.584000000000000e+001

>  <clusterid>
119

>  <is_centroid>
@

>  <class1>
940

>  <population1>
41

>  <population>
41

>  <cansmi>
O=C(N(C)C)COc1ccc2c(c1)oc(=O)c1c2cccc1

>  <HBA2>
5

>  <HBD>
0

>  <logP>
2.4132

>  <TPSA>
59.75

>  <MW>
297.305

$$$$

 OpenBabel02121609142D

 16 17  0  0  0  0  0  0  0  0999 V2000
    0.8167    1.3000    0.0000 C   0  0  0  0  0  0  0  0  0  0  0  0
   -1.1833   -0.4292    0.0000 C   0  0  0  0  0  0  0  0  0  0  0  0
    0.3167    0.4333    0.0000 N   0  0  0  0  0  0  0  0  0  0  0  0
   -0.6833    0.4333    0.0000 C   0  0  0  0  0  0  0  0  0  0  0  0
    1.8167    1.3000    0.0000 C   0  0  0  0  0  0  0  0  0  0  0  0
   -0.6833   -1.2917    0.0000 C   0  0  0  0  0  0  0  0  0  0  0  0
    2.6792    1.8000    0.0000 C   0  0  0  0  0  0  0  0  0  0  0  0
    2.6792    0.8000    0.0000 C   0  0  0  0  0  0  0  0  0  0  0  0
    0.3167    2.1708    0.0000 O   0  0  0  0  0  0  0  0  0  0  0  0
    0.3167   -1.2917    0.0000 O   0  0  0  0  0  0  0  0  0  0  0  0
   -1.1833   -2.1625    0.0000 O   0  0  0  0  0  0  0  0  0  0  0  0
   -2.1833   -0.4292    0.0000 C   0  0  0  0  0  0  0  0  0  0  0  0
    0.8167   -0.4292    0.0000 C   0  0  0  0  0  0  0  0  0  0  0  0
   -1.1833    1.3000    0.0000 C   0  0  0  0  0  0  0  0  0  0  0  0
   -2.6833    0.4333    0.0000 C   0  0  0  0  0  0  0  0  0  0  0  0
   -2.1833    1.3000    0.0000 C   0  0  0  0  0  0  0  0  0  0  0  0
  2  4  2  0  0  0  0
  3  1  1  0  0  0  0
  4  3  1  0  0  0  0
  5  1  1  0  0  0  0
  6  2  1  0  0  0  0
  7  5  1  0  0  0  0
  8  5  1  0  0  0  0
  8  7  1  0  0  0  0
  9  1  2  0  0  0  0
 10  6  2  0  0  0  0
 11  6  1  0  0  0  0
 12  2  1  0  0  0  0
 12 15  2  0  0  0  0
 13  3  1  0  0  0  0
 14  4  1  0  0  0  0
 15 16  1  0  0  0  0
 16 14  2  0  0  0  0
M  END
>  <idnumber>
T0504-5162

>  <LogP>
2.814000000000000e+000

>  <rotating_bonds>
3.000000000000000e+000

>  <hb_acceptors>
3.000000000000000e+000

>  <hb_donors>
1.000000000000000e+000

>  <PSA>
5.761000000000000e+001

>  <clusterid>
-156

>  <is_centroid>
@

>  <class1>
675

>  <class2>
625

>  <population1>
33654

>  <population2>
877209

>  <population>
29191

>  <cansmi>
O=C(N(c1ccccc1C(=O)O)C)C1CC1

>  <HBA2>
4

>  <HBD>
1

>  <logP>
1.7576

>  <TPSA>
57.61

>  <MW>
219.237

$$$$

 OpenBabel02121609142D

 13 14  0  0  0  0  0  0  0  0999 V2000
    0.8792    0.3833    0.0000 C   0  0  0  0  0  0  0  0  0  0  0  0
    0.2917    1.1958    0.0000 N   0  0  0  0  0  0  0  0  0  0  0  0
    0.2917   -0.4250    0.0000 C   0  0  0  0  0  0  0  0  0  0  0  0
   -0.6583   -0.1167    0.0000 C   0  0  0  0  0  0  0  0  0  0  0  0
   -0.6583    0.8833    0.0000 C   0  0  0  0  0  0  0  0  0  0  0  0
    1.8792    0.3833    0.0000 C   0  0  0  0  0  0  0  0  0  0  0  0
    2.3792    1.2500    0.0000 O   0  0  0  0  0  0  0  0  0  0  0  0
    0.6042   -1.3792    0.0000 Br  0  0  0  0  0  0  0  0  0  0  0  0
    2.3792   -0.4792    0.0000 O   0  0  0  0  0  0  0  0  0  0  0  0
   -1.5208   -0.6167    0.0000 C   0  0  0  0  0  0  0  0  0  0  0  0
   -1.5208    1.3833    0.0000 C   0  0  0  0  0  0  0  0  0  0  0  0
   -2.3875   -0.1167    0.0000 C   0  0  0  0  0  0  0  0  0  0  0  0
   -2.3875    0.8833    0.0000 C   0  0  0  0  0  0  0  0  0  0  0  0
  2  1  1  0  0  0  0
  3  1  2  0  0  0  0
  4  3  1  0  0  0  0
  5  2  1  0  0  0  0
  5  4  2  0  0  0  0
  6  1  1  0  0  0  0
  7  6  2  0  0  0  0
  8  3  1  0  0  0  0
  9  6  1  0  0  0  0
 10  4  1  0  0  0  0
 11  5  1  0  0  0  0
 12 10  2  0  0  0  0
 13 11  2  0  0  0  0
 13 12  1  0  0  0  0
M  END
>  <idnumber>
T0504-6187

>  <LogP>
2.452000000000000e+000

>  <rotating_bonds>
1.000000000000000e+000

>  <hb_acceptors>
2.000000000000000e+000

>  <hb_donors>
2.000000000000000e+000

>  <PSA>
5.309000000000000e+001

>  <clusterid>
-158

>  <is_centroid>
@

>  <class1>
748

>  <population1>
15713

>  <population>
15713

>  <cansmi>
OC(=O)c1[nH]c2c(c1Br)cccc2

>  <HBA2>
2

>  <HBD>
2

>  <logP>
2.6286

>  <TPSA>
53.09

>  <MW>
240.053

$$$$

 OpenBabel02121609142D

 19 22  0  0  0  0  0  0  0  0999 V2000
    0.3500   -1.0500    0.0000 C   0  0  3  0  0  0  0  0  0  0  0  0
    0.3542   -0.0125    0.0000 C   0  0  3  0  0  0  0  0  0  0  0  0
   -0.4833   -1.4625    0.0000 C   0  0  0  0  0  0  0  0  0  0  0  0
   -0.2583   -1.9542    0.0000 C   0  0  0  0  0  0  0  0  0  0  0  0
    1.2917   -1.5625    0.0000 C   0  0  0  0  0  0  0  0  0  0  0  0
   -0.4750    1.2208    0.0000 N   0  0  0  0  0  0  0  0  0  0  0  0
    0.9417   -2.2917    0.0000 C   0  0  3  0  0  0  0  0  0  0  0  0
   -0.3750   -2.5042    0.0000 C   0  0  3  0  0  0  0  0  0  0  0  0
    1.2625   -2.6542    0.0000 C   0  0  3  0  0  0  0  0  0  0  0  0
   -0.5583    0.2833    0.0000 C   0  0  0  0  0  0  0  0  0  0  0  0
    0.5917   -1.6000    0.0000 C   0  0  0  0  0  0  0  0  0  0  0  0
    0.2250   -2.7000    0.0000 C   0  0  0  0  0  0  0  0  0  0  0  0
    0.4917   -3.1042    0.0000 C   0  0  0  0  0  0  0  0  0  0  0  0
   -0.4750    3.1083    0.0000 O   0  0  0  0  0  0  0  0  0  0  0  0
    1.2625    0.3083    0.0000 O   0  0  0  0  0  0  0  0  0  0  0  0
    0.3500    1.6875    0.0000 C   0  0  0  0  0  0  0  0  0  0  0  0
   -1.3000    1.6875    0.0000 C   0  0  0  0  0  0  0  0  0  0  0  0
   -1.3000    2.6333    0.0000 C   0  0  0  0  0  0  0  0  0  0  0  0
    0.3500    2.6333    0.0000 C   0  0  0  0  0  0  0  0  0  0  0  0
  2  1  1  0  0  0  0
  3  1  1  0  0  0  0
  4  1  1  0  0  0  0
  5  1  1  0  0  0  0
  6 10  1  0  0  0  0
  7  4  1  0  0  0  0
  8  3  1  0  0  0  0
  8 13  1  0  0  0  0
  8 11  1  0  0  0  0
  9  5  1  0  0  0  0
 10  2  1  0  0  0  0
 11  7  1  0  0  0  0
 12  9  1  0  0  0  0
 12  7  1  0  0  0  0
 13  9  1  0  0  0  0
 14 18  1  0  0  0  0
 15  2  1  0  0  0  0
 16  6  1  0  0  0  0
 17  6  1  0  0  0  0
 18 17  1  0  0  0  0
 19 16  1  0  0  0  0
 19 14  1  0  0  0  0
M  END
>  <idnumber>
T0504-9704

>  <LogP>
2.650000000000000e+000

>  <rotating_bonds>
3.000000000000000e+000

>  <hb_acceptors>
3.000000000000000e+000

>  <hb_donors>
1.000000000000000e+000

>  <PSA>
3.270000000000000e+001

>  <clusterid>
123

>  <is_centroid>
@

>  <class1>
809

>  <class2>
786

>  <population1>
8162

>  <population2>
48067

>  <population>
234

>  <cansmi>
OC(C12CC3CC(C2)CC(C1)C3)CN1CCOCC1

>  <HBA2>
3

>  <HBD>
1

>  <logP>
1.8338

>  <TPSA>
32.7

>  <MW>
265.391

$$$$

 OpenBabel02121609142D

 19 21  0  0  0  0  0  0  0  0999 V2000
   -0.5375   -0.4542    0.0000 N   0  0  0  0  0  0  0  0  0  0  0  0
    0.0500    0.3583    0.0000 C   0  0  0  0  0  0  0  0  0  0  0  0
    0.0500   -1.2625    0.0000 C   0  0  0  0  0  0  0  0  0  0  0  0
    1.0000    0.0458    0.0000 C   0  0  3  0  0  0  0  0  0  0  0  0
    1.0000   -0.9542    0.0000 C   0  0  0  0  0  0  0  0  0  0  0  0
    1.8125    0.6333    0.0000 N   0  0  0  0  0  0  0  0  0  0  0  0
   -0.2583    1.3083    0.0000 O   0  0  0  0  0  0  0  0  0  0  0  0
   -1.5375   -0.4542    0.0000 C   0  0  0  0  0  0  0  0  0  0  0  0
   -0.2583   -2.2125    0.0000 O   0  0  0  0  0  0  0  0  0  0  0  0
    2.7250    0.2333    0.0000 C   0  0  0  0  0  0  0  0  0  0  0  0
    1.7042    1.6333    0.0000 C   0  0  0  0  0  0  0  0  0  0  0  0
   -2.0375    0.4125    0.0000 C   0  0  0  0  0  0  0  0  0  0  0  0
   -2.0375   -1.3167    0.0000 C   0  0  0  0  0  0  0  0  0  0  0  0
    2.5167    2.2208    0.0000 C   0  0  0  0  0  0  0  0  0  0  0  0
    3.5292    0.8208    0.0000 C   0  0  0  0  0  0  0  0  0  0  0  0
   -3.0375   -1.3167    0.0000 C   0  0  0  0  0  0  0  0  0  0  0  0
   -3.0375    0.4125    0.0000 C   0  0  0  0  0  0  0  0  0  0  0  0
    3.4292    1.8083    0.0000 C   0  0  0  0  0  0  0  0  0  0  0  0
   -3.5375   -0.4542    0.0000 C   0  0  0  0  0  0  0  0  0  0  0  0
  2  1  1  0  0  0  0
  3  1  1  0  0  0  0
  4  2  1  0  0  0  0
  5  3  1  0  0  0  0
  5  4  1  0  0  0  0
  6  4  1  0  0  0  0
  7  2  2  0  0  0  0
  8  1  1  0  0  0  0
  9  3  2  0  0  0  0
 10  6  1  0  0  0  0
 11  6  1  0  0  0  0
 12  8  1  0  0  0  0
 13  8  2  0  0  0  0
 14 11  1  0  0  0  0
 15 10  1  0  0  0  0
 15 18  1  0  0  0  0
 16 13  1  0  0  0  0
 17 12  2  0  0  0  0
 17 19  1  0  0  0  0
 18 14  1  0  0  0  0
 19 16  2  0  0  0  0
M  END
>  <idnumber>
T0504-9982

>  <LogP>
2.366000000000000e+000

>  <rotating_bonds>
2.000000000000000e+000

>  <hb_acceptors>
3.000000000000000e+000

>  <hb_donors>
0.000000000000000e+000

>  <PSA>
4.062000000000001e+001

>  <clusterid>
124

>  <is_centroid>
@

>  <class1>
705

>  <class2>
639

>  <class3>
625

>  <population1>
4908

>  <population2>
59855

>  <population3>
877209

>  <population>
176

>  <cansmi>
O=C1C(CC(=O)N1c1ccccc1)N1CCCCC1

>  <HBA2>
4

>  <HBD>
0

>  <logP>
1.8073

>  <TPSA>
40.62

>  <MW>
258.316

$$$$

 OpenBabel02121609142D

 15 16  0  0  0  0  0  0  0  0999 V2000
    1.4375   -1.5667    0.0000 C   0  0  0  0  0  0  0  0  0  0  0  0
   -0.7083   -0.9042    0.0000 N   0  0  0  0  0  0  0  0  0  0  0  0
    0.9375   -2.4375    0.0000 N   0  0  0  0  0  0  0  0  0  0  0  0
    1.0750   -0.6417    0.0000 C   0  0  0  0  0  0  0  0  0  0  0  0
    2.4375   -1.6417    0.0000 O   0  0  0  0  0  0  0  0  0  0  0  0
    0.1167   -0.3417    0.0000 C   0  0  0  0  0  0  0  0  0  0  0  0
   -1.5750   -0.4042    0.0000 C   0  0  0  0  0  0  0  0  0  0  0  0
   -0.0500   -2.5875    0.0000 C   0  0  0  0  0  0  0  0  0  0  0  0
   -1.5750    0.5958    0.0000 C   0  0  0  0  0  0  0  0  0  0  0  0
   -0.7833   -1.9042    0.0000 C   0  0  0  0  0  0  0  0  0  0  0  0
   -2.4458    1.0958    0.0000 C   0  0  0  0  0  0  0  0  0  0  0  0
   -0.7083    1.0958    0.0000 C   0  0  0  0  0  0  0  0  0  0  0  0
   -0.7083    2.0958    0.0000 C   0  0  0  0  0  0  0  0  0  0  0  0
   -2.4458    2.0958    0.0000 C   0  0  0  0  0  0  0  0  0  0  0  0
   -1.5750    2.5958    0.0000 C   0  0  0  0  0  0  0  0  0  0  0  0
  2  6  1  0  0  0  0
  2 10  1  0  0  0  0
  3  1  1  0  0  0  0
  4  1  1  0  0  0  0
  5  1  2  0  0  0  0
  6  4  1  0  0  0  0
  7  2  1  0  0  0  0
  8  3  1  0  0  0  0
  9  7  1  0  0  0  0
 10  8  1  0  0  0  0
 11  9  2  0  0  0  0
 12  9  1  0  0  0  0
 13 12  2  0  0  0  0
 14 11  1  0  0  0  0
 14 15  2  0  0  0  0
 15 13  1  0  0  0  0
M  END
>  <idnumber>
T0505-1137

>  <LogP>
1.322000000000000e+000

>  <rotating_bonds>
2.000000000000000e+000

>  <hb_acceptors>
2.000000000000000e+000

>  <hb_donors>
1.000000000000000e+000

>  <PSA>
3.234000000000000e+001

>  <clusterid>
-163

>  <is_centroid>
@

>  <class1>
625

>  <class2>
943

>  <population1>
877209

>  <population2>
56

>  <population>
39

>  <cansmi>
O=C1NCCN(CC1)Cc1ccccc1

>  <HBA2>
3

>  <HBD>
1

>  <logP>
1.2752

>  <TPSA>
32.34

>  <MW>
204.268

$$$$

 OpenBabel02121609142D

 20 21  0  0  0  0  0  0  0  0999 V2000
   -3.4708   -0.5000    0.0000 C   0  0  0  0  0  0  0  0  0  0  0  0
   -2.6000    1.0000    0.0000 C   0  0  0  0  0  0  0  0  0  0  0  0
   -3.4708    0.5000    0.0000 C   0  0  0  0  0  0  0  0  0  0  0  0
   -2.6000   -1.0000    0.0000 O   0  0  0  0  0  0  0  0  0  0  0  0
   -1.7333   -0.5000    0.0000 C   0  0  0  0  0  0  0  0  0  0  0  0
   -1.7333    0.5000    0.0000 C   0  0  0  0  0  0  0  0  0  0  0  0
    2.5917   -1.0000    0.0000 C   0  0  0  0  0  0  0  0  0  0  0  0
   -0.8708   -1.0000    0.0000 C   0  0  0  0  0  0  0  0  0  0  0  0
   -0.8708    1.0000    0.0000 C   0  0  0  0  0  0  0  0  0  0  0  0
   -4.3333   -1.0000    0.0000 O   0  0  0  0  0  0  0  0  0  0  0  0
    3.4625   -0.5000    0.0000 N   0  0  0  0  0  0  0  0  0  0  0  0
    1.7292   -0.5000    0.0000 C   0  0  0  0  0  0  0  0  0  0  0  0
    2.5917   -2.0000    0.0000 O   0  0  0  0  0  0  0  0  0  0  0  0
    0.0000   -0.5000    0.0000 C   0  0  0  0  0  0  0  0  0  0  0  0
    0.8625   -1.0000    0.0000 O   0  0  0  0  0  0  0  0  0  0  0  0
    0.0000    0.5000    0.0000 C   0  0  0  0  0  0  0  0  0  0  0  0
   -2.6000    2.0000    0.0000 C   0  0  0  0  0  0  0  0  0  0  0  0
   -4.3333    1.0000    0.0000 C   0  0  0  0  0  0  0  0  0  0  0  0
    4.3292   -1.0000    0.0000 C   0  0  0  0  0  0  0  0  0  0  0  0
    3.4625    0.5000    0.0000 C   0  0  0  0  0  0  0  0  0  0  0  0
  2  3  2  0  0  0  0
  3  1  1  0  0  0  0
  4  1  1  0  0  0  0
  5  4  1  0  0  0  0
  6  5  2  0  0  0  0
  6  2  1  0  0  0  0
  7 12  1  0  0  0  0
  8  5  1  0  0  0  0
  9  6  1  0  0  0  0
 10  1  2  0  0  0  0
 11  7  1  0  0  0  0
 12 15  1  0  0  0  0
 13  7  2  0  0  0  0
 14  8  2  0  0  0  0
 15 14  1  0  0  0  0
 16 14  1  0  0  0  0
 16  9  2  0  0  0  0
 17  2  1  0  0  0  0
 18  3  1  0  0  0  0
 19 11  1  0  0  0  0
 20 11  1  0  0  0  0
M  END
>  <idnumber>
T0505-1511

>  <LogP>
1.884000000000000e+000

>  <rotating_bonds>
3.000000000000000e+000

>  <hb_acceptors>
3.000000000000000e+000

>  <hb_donors>
0.000000000000000e+000

>  <PSA>
5.584000000000000e+001

>  <clusterid>
-164

>  <is_centroid>
@

>  <class1>
799

>  <population1>
7929

>  <population>
7929

>  <cansmi>
O=C(N(C)C)COc1ccc2c(c1)oc(=O)c(c2C)C

>  <HBA2>
5

>  <HBD>
0

>  <logP>
1.8768

>  <TPSA>
59.75

>  <MW>
275.3

$$$$

 OpenBabel02121609142D

 17 19  0  0  0  0  0  0  0  0999 V2000
    0.1167    0.5083    0.0000 C   0  0  0  0  0  0  0  0  0  0  0  0
   -0.8333    0.8125    0.0000 N   0  0  0  0  0  0  0  0  0  0  0  0
    0.7042    1.3125    0.0000 N   0  0  0  0  0  0  0  0  0  0  0  0
    0.1167    2.1250    0.0000 N   0  0  0  0  0  0  0  0  0  0  0  0
    0.4292   -0.4417    0.0000 C   0  0  0  0  0  0  0  0  0  0  0  0
   -0.8333    1.8125    0.0000 C   0  0  0  0  0  0  0  0  0  0  0  0
    1.4042   -0.6542    0.0000 C   0  0  0  0  0  0  0  0  0  0  0  0
    1.8125   -1.5667    0.0000 N   0  0  0  0  0  0  0  0  0  0  0  0
    2.8042   -1.4625    0.0000 C   0  0  0  0  0  0  0  0  0  0  0  0
    2.1500    0.0208    0.0000 C   0  0  0  0  0  0  0  0  0  0  0  0
    3.0167   -0.4792    0.0000 C   0  0  0  0  0  0  0  0  0  0  0  0
   -1.6125    0.1958    0.0000 C   0  0  0  0  0  0  0  0  0  0  0  0
    1.3125   -2.4292    0.0000 C   0  0  0  0  0  0  0  0  0  0  0  0
   -1.6125    2.4375    0.0000 C   0  0  0  0  0  0  0  0  0  0  0  0
   -2.5875    0.4125    0.0000 C   0  0  0  0  0  0  0  0  0  0  0  0
   -2.5875    2.2208    0.0000 C   0  0  0  0  0  0  0  0  0  0  0  0
   -3.0208    1.3125    0.0000 C   0  0  0  0  0  0  0  0  0  0  0  0
  2  1  1  0  0  0  0
  3  1  2  0  0  0  0
  4  3  1  0  0  0  0
  4  6  2  0  0  0  0
  5  1  1  0  0  0  0
  6  2  1  0  0  0  0
  7  5  1  0  0  0  0
  8  7  1  0  0  0  0
  9  8  1  0  0  0  0
  9 11  2  0  0  0  0
 10  7  2  0  0  0  0
 11 10  1  0  0  0  0
 12  2  1  0  0  0  0
 13  8  1  0  0  0  0
 14  6  1  0  0  0  0
 15 12  1  0  0  0  0
 16 14  1  0  0  0  0
 16 17  1  0  0  0  0
 17 15  1  0  0  0  0
M  END
>  <idnumber>
T0505-1601

>  <LogP>
1.310000000000000e+000

>  <rotating_bonds>
2.000000000000000e+000

>  <hb_acceptors>
2.000000000000000e+000

>  <hb_donors>
0.000000000000000e+000

>  <PSA>
3.564000000000000e+001

>  <clusterid>
-165

>  <is_centroid>
@

>  <class1>
757

>  <class2>
635

>  <population1>
2963

>  <population2>
31512

>  <population>
93

>  <cansmi>
Cn1cccc1Cc1nnc2n1CCCCC2

>  <HBA2>
4

>  <HBD>
0

>  <logP>
1.9338

>  <TPSA>
35.64

>  <MW>
230.309

$$$$

 OpenBabel02121609142D

 17 19  0  0  0  0  0  0  0  0999 V2000
   -0.2833    0.2583    0.0000 C   0  0  0  0  0  0  0  0  0  0  0  0
    0.0250   -0.6917    0.0000 C   0  0  0  0  0  0  0  0  0  0  0  0
   -1.2333    0.5708    0.0000 C   0  0  0  0  0  0  0  0  0  0  0  0
    0.3042    1.0708    0.0000 C   0  0  0  0  0  0  0  0  0  0  0  0
   -0.2833    1.8750    0.0000 S   0  0  0  0  0  0  0  0  0  0  0  0
   -1.2333    1.5708    0.0000 C   0  0  0  0  0  0  0  0  0  0  0  0
    1.0042   -0.9042    0.0000 N   0  0  0  0  0  0  0  0  0  0  0  0
   -0.6458   -1.4375    0.0000 O   0  0  0  0  0  0  0  0  0  0  0  0
    2.9625   -1.3167    0.0000 O   0  0  0  0  0  0  0  0  0  0  0  0
   -2.1000    0.0708    0.0000 C   0  0  0  0  0  0  0  0  0  0  0  0
    1.3125   -1.8542    0.0000 C   0  0  0  0  0  0  0  0  0  0  0  0
    1.6750   -0.1542    0.0000 C   0  0  0  0  0  0  0  0  0  0  0  0
   -2.1000    2.0708    0.0000 C   0  0  0  0  0  0  0  0  0  0  0  0
    2.2917   -2.0625    0.0000 C   0  0  0  0  0  0  0  0  0  0  0  0
    2.6542   -0.3667    0.0000 C   0  0  0  0  0  0  0  0  0  0  0  0
   -2.9708    0.5708    0.0000 C   0  0  0  0  0  0  0  0  0  0  0  0
   -2.9708    1.5708    0.0000 C   0  0  0  0  0  0  0  0  0  0  0  0
  2  1  1  0  0  0  0
  3  1  1  0  0  0  0
  4  1  2  0  0  0  0
  5  4  1  0  0  0  0
  5  6  1  0  0  0  0
  6  3  2  0  0  0  0
  7  2  1  0  0  0  0
  8  2  2  0  0  0  0
  9 15  1  0  0  0  0
 10  3  1  0  0  0  0
 11  7  1  0  0  0  0
 12  7  1  0  0  0  0
 13  6  1  0  0  0  0
 13 17  1  0  0  0  0
 14 11  1  0  0  0  0
 14  9  1  0  0  0  0
 15 12  1  0  0  0  0
 16 10  1  0  0  0  0
 17 16  1  0  0  0  0
M  END
>  <idnumber>
T0505-1730

>  <LogP>
2.120000000000000e+000

>  <rotating_bonds>
1.000000000000000e+000

>  <hb_acceptors>
3.000000000000000e+000

>  <hb_donors>
0.000000000000000e+000

>  <PSA>
5.778000000000000e+001

>  <clusterid>
-166

>  <is_centroid>
@

>  <class1>
859

>  <class2>
786

>  <population1>
9817

>  <population2>
48067

>  <population>
336

>  <cansmi>
O=C(c1csc2c1CCCC2)N1CCOCC1

>  <HBA2>
4

>  <HBD>
0

>  <logP>
2.0372

>  <TPSA>
57.78

>  <MW>
251.345

$$$$

 OpenBabel02121609142D

 18 20  0  0  0  0  0  0  0  0999 V2000
   -0.2833    0.3208    0.0000 C   0  0  0  0  0  0  0  0  0  0  0  0
    0.3042    1.1250    0.0000 C   0  0  0  0  0  0  0  0  0  0  0  0
    0.0250   -0.6292    0.0000 C   0  0  3  0  0  0  0  0  0  0  0  0
   -0.2833    1.9333    0.0000 N   0  0  0  0  0  0  0  0  0  0  0  0
   -1.2333    0.6250    0.0000 C   0  0  0  0  0  0  0  0  0  0  0  0
    1.0042   -0.8417    0.0000 N   0  0  0  0  0  0  0  0  0  0  0  0
   -1.3125   -2.1167    0.0000 N   0  0  0  0  0  0  0  0  0  0  0  0
   -0.6458   -1.3792    0.0000 C   0  0  0  0  0  0  0  0  0  0  0  0
   -1.2333    1.6250    0.0000 C   0  0  0  0  0  0  0  0  0  0  0  0
    1.6750   -0.0917    0.0000 C   0  0  0  0  0  0  0  0  0  0  0  0
    1.3125   -1.7917    0.0000 C   0  0  0  0  0  0  0  0  0  0  0  0
   -2.1000    0.1250    0.0000 C   0  0  0  0  0  0  0  0  0  0  0  0
   -2.1000    2.1250    0.0000 C   0  0  0  0  0  0  0  0  0  0  0  0
    2.2917   -2.0000    0.0000 C   0  0  0  0  0  0  0  0  0  0  0  0
    2.6542   -0.3042    0.0000 C   0  0  0  0  0  0  0  0  0  0  0  0
   -2.9708    0.6250    0.0000 C   0  0  0  0  0  0  0  0  0  0  0  0
   -2.9708    1.6250    0.0000 C   0  0  0  0  0  0  0  0  0  0  0  0
    2.9625   -1.2542    0.0000 C   0  0  0  0  0  0  0  0  0  0  0  0
  2  1  2  0  0  0  0
  3  1  1  0  0  0  0
  4  2  1  0  0  0  0
  4  9  1  0  0  0  0
  5  1  1  0  0  0  0
  6  3  1  0  0  0  0
  7  8  3  0  0  0  0
  8  3  1  0  0  0  0
  9  5  2  0  0  0  0
 10  6  1  0  0  0  0
 11  6  1  0  0  0  0
 12  5  1  0  0  0  0
 13  9  1  0  0  0  0
 13 17  2  0  0  0  0
 14 11  1  0  0  0  0
 15 10  1  0  0  0  0
 15 18  1  0  0  0  0
 16 12  2  0  0  0  0
 17 16  1  0  0  0  0
 18 14  1  0  0  0  0
M  END
>  <idnumber>
T0505-1904

>  <LogP>
2.627000000000000e+000

>  <rotating_bonds>
3.000000000000000e+000

>  <hb_acceptors>
2.000000000000000e+000

>  <hb_donors>
1.000000000000000e+000

>  <PSA>
4.282000000000000e+001

>  <clusterid>
128

>  <is_centroid>
@

>  <class1>
748

>  <class2>
639

>  <population1>
15713

>  <population2>
59855

>  <population>
739

>  <cansmi>
N#CC(c1c[nH]c2c1cccc2)N1CCCCC1

>  <HBA2>
2

>  <HBD>
1

>  <logP>
3.15638

>  <TPSA>
42.82

>  <MW>
239.316

$$$$

 OpenBabel02121609142D

 18 20  0  0  0  0  0  0  0  0999 V2000
   -0.5333   -2.4917    0.0000 C   0  0  0  0  0  0  0  0  0  0  0  0
   -1.3958   -0.9917    0.0000 C   0  0  0  0  0  0  0  0  0  0  0  0
   -1.3958   -1.9917    0.0000 C   0  0  0  0  0  0  0  0  0  0  0  0
    0.3292   -1.9917    0.0000 O   0  0  0  0  0  0  0  0  0  0  0  0
    0.3292   -0.9917    0.0000 C   0  0  0  0  0  0  0  0  0  0  0  0
   -0.5333   -0.4917    0.0000 C   0  0  0  0  0  0  0  0  0  0  0  0
    1.2000   -0.4917    0.0000 C   0  0  0  0  0  0  0  0  0  0  0  0
   -0.5333    0.5083    0.0000 C   0  0  0  0  0  0  0  0  0  0  0  0
   -0.5333   -3.5000    0.0000 O   0  0  0  0  0  0  0  0  0  0  0  0
    1.2000    0.5083    0.0000 C   0  0  0  0  0  0  0  0  0  0  0  0
   -2.3500   -0.6875    0.0000 C   0  0  0  0  0  0  0  0  0  0  0  0
    0.3292    1.0000    0.0000 C   0  0  0  0  0  0  0  0  0  0  0  0
   -2.3500   -2.3042    0.0000 C   0  0  0  0  0  0  0  0  0  0  0  0
    2.0667    1.0000    0.0000 O   0  0  0  0  0  0  0  0  0  0  0  0
   -2.9375   -1.4917    0.0000 C   0  0  0  0  0  0  0  0  0  0  0  0
    2.9292    3.5000    0.0000 O   0  0  0  0  0  0  0  0  0  0  0  0
    2.9292    2.5000    0.0000 C   0  0  0  0  0  0  0  0  0  0  0  0
    2.0667    2.0000    0.0000 C   0  0  0  0  0  0  0  0  0  0  0  0
  2  3  2  0  0  0  0
  3  1  1  0  0  0  0
  4  1  1  0  0  0  0
  5  4  1  0  0  0  0
  6  5  2  0  0  0  0
  6  2  1  0  0  0  0
  7  5  1  0  0  0  0
  8  6  1  0  0  0  0
  9  1  2  0  0  0  0
 10  7  2  0  0  0  0
 11  2  1  0  0  0  0
 11 15  1  0  0  0  0
 12 10  1  0  0  0  0
 12  8  2  0  0  0  0
 13  3  1  0  0  0  0
 14 10  1  0  0  0  0
 15 13  1  0  0  0  0
 16 17  1  0  0  0  0
 17 18  1  0  0  0  0
 18 14  1  0  0  0  0
M  END
>  <idnumber>
T0505-2890

>  <LogP>
1.885000000000000e+000

>  <rotating_bonds>
3.000000000000000e+000

>  <hb_acceptors>
3.000000000000000e+000

>  <hb_donors>
1.000000000000000e+000

>  <PSA>
5.576000000000001e+001

>  <clusterid>
130

>  <is_centroid>
@

>  <class1>
948

>  <population1>
324

>  <population>
324

>  <cansmi>
OCCOc1ccc2c(c1)oc(=O)c1c2CCC1

>  <HBA2>
4

>  <HBD>
1

>  <logP>
1.6528

>  <TPSA>
59.67

>  <MW>
246.259

$$$$

 OpenBabel02121609142D

 21 24  0  0  0  0  0  0  0  0999 V2000
    0.1292    1.7333    0.0000 C   0  0  0  0  0  0  0  0  0  0  0  0
   -0.4583    2.5458    0.0000 N   0  0  0  0  0  0  0  0  0  0  0  0
   -0.4583    0.9250    0.0000 N   0  0  0  0  0  0  0  0  0  0  0  0
    1.1292    1.7333    0.0000 C   0  0  0  0  0  0  0  0  0  0  0  0
    1.6292   -0.8625    0.0000 C   0  0  0  0  0  0  0  0  0  0  0  0
    1.1292    0.0000    0.0000 N   0  0  0  0  0  0  0  0  0  0  0  0
    1.6292    0.8708    0.0000 C   0  0  0  0  0  0  0  0  0  0  0  0
    1.1292   -1.7292    0.0000 C   0  0  0  0  0  0  0  0  0  0  0  0
   -1.4083    2.2333    0.0000 C   0  0  0  0  0  0  0  0  0  0  0  0
   -1.4083    1.2333    0.0000 C   0  0  0  0  0  0  0  0  0  0  0  0
    0.2667   -2.2292    0.0000 C   0  0  0  0  0  0  0  0  0  0  0  0
    1.1292   -2.7292    0.0000 C   0  0  0  0  0  0  0  0  0  0  0  0
    2.6292   -0.8625    0.0000 O   0  0  0  0  0  0  0  0  0  0  0  0
    1.6292    2.6000    0.0000 C   0  0  0  0  0  0  0  0  0  0  0  0
    2.6292    0.8708    0.0000 C   0  0  0  0  0  0  0  0  0  0  0  0
   -2.2708    2.7333    0.0000 C   0  0  0  0  0  0  0  0  0  0  0  0
   -2.2708    0.7333    0.0000 C   0  0  0  0  0  0  0  0  0  0  0  0
    2.6292    2.6000    0.0000 C   0  0  0  0  0  0  0  0  0  0  0  0
    3.1292    1.7333    0.0000 C   0  0  0  0  0  0  0  0  0  0  0  0
   -3.1375    2.2333    0.0000 C   0  0  0  0  0  0  0  0  0  0  0  0
   -3.1375    1.2333    0.0000 C   0  0  0  0  0  0  0  0  0  0  0  0
  2  1  2  0  0  0  0
  3  1  1  0  0  0  0
  4  1  1  0  0  0  0
  5  6  1  0  0  0  0
  6  7  1  0  0  0  0
  7  4  2  0  0  0  0
  8  5  1  0  0  0  0
  9  2  1  0  0  0  0
  9 10  2  0  0  0  0
 10  3  1  0  0  0  0
 11  8  1  0  0  0  0
 11 12  1  0  0  0  0
 12  8  1  0  0  0  0
 13  5  2  0  0  0  0
 14  4  1  0  0  0  0
 15  7  1  0  0  0  0
 15 19  2  0  0  0  0
 16  9  1  0  0  0  0
 17 10  1  0  0  0  0
 18 14  2  0  0  0  0
 19 18  1  0  0  0  0
 20 16  2  0  0  0  0
 20 21  1  0  0  0  0
 21 17  2  0  0  0  0
M  END
>  <idnumber>
T0505-3848

>  <LogP>
2.172000000000000e+000

>  <rotating_bonds>
3.000000000000000e+000

>  <hb_acceptors>
2.000000000000000e+000

>  <hb_donors>
2.000000000000000e+000

>  <PSA>
5.778000000000000e+001

>  <clusterid>
132

>  <is_centroid>
@

>  <class1>
675

>  <class2>
685

>  <class3>
625

>  <population1>
33654

>  <population2>
28767

>  <population3>
877209

>  <population>
409

>  <cansmi>
O=C(C1CC1)Nc1ccccc1c1nc2c([nH]1)cccc2

>  <HBA2>
3

>  <HBD>
2

>  <logP>
3.6514

>  <TPSA>
57.78

>  <MW>
277.321

$$$$

 OpenBabel02121609142D

 20 22  0  0  0  0  0  0  0  0999 V2000
   -0.6208    0.0208    0.0000 C   0  0  0  0  0  0  0  0  0  0  0  0
   -1.2083    0.8250    0.0000 N   0  0  0  0  0  0  0  0  0  0  0  0
   -1.2083   -0.7917    0.0000 N   0  0  0  0  0  0  0  0  0  0  0  0
    0.3792    0.0208    0.0000 C   0  0  3  0  0  0  0  0  0  0  0  0
   -2.1583   -0.4792    0.0000 C   0  0  0  0  0  0  0  0  0  0  0  0
   -2.1583    0.5208    0.0000 C   0  0  0  0  0  0  0  0  0  0  0  0
    0.8792    0.8833    0.0000 C   0  0  3  0  0  0  0  0  0  0  0  0
    1.8792    0.8833    0.0000 C   0  0  0  0  0  0  0  0  0  0  0  0
    0.8792   -0.8500    0.0000 O   0  0  0  0  0  0  0  0  0  0  0  0
   -0.8958   -1.7417    0.0000 C   0  0  0  0  0  0  0  0  0  0  0  0
    0.3792    1.7500    0.0000 O   0  0  0  0  0  0  0  0  0  0  0  0
   -3.0208   -0.9792    0.0000 C   0  0  0  0  0  0  0  0  0  0  0  0
   -3.0208    1.0208    0.0000 C   0  0  0  0  0  0  0  0  0  0  0  0
    2.3792    0.0208    0.0000 C   0  0  0  0  0  0  0  0  0  0  0  0
    2.3792    1.7500    0.0000 C   0  0  0  0  0  0  0  0  0  0  0  0
   -3.8958   -0.4792    0.0000 C   0  0  0  0  0  0  0  0  0  0  0  0
   -3.8958    0.5208    0.0000 C   0  0  0  0  0  0  0  0  0  0  0  0
    3.3792    1.7500    0.0000 C   0  0  0  0  0  0  0  0  0  0  0  0
    3.3792    0.0208    0.0000 C   0  0  0  0  0  0  0  0  0  0  0  0
    3.8792    0.8833    0.0000 C   0  0  0  0  0  0  0  0  0  0  0  0
  2  1  2  0  0  0  0
  3  1  1  0  0  0  0
  4  1  1  0  0  0  0
  5  3  1  0  0  0  0
  6  2  1  0  0  0  0
  6  5  2  0  0  0  0
  7  4  1  0  0  0  0
  8  7  1  0  0  0  0
  9  4  1  0  0  0  0
 10  3  1  0  0  0  0
 11  7  1  0  0  0  0
 12  5  1  0  0  0  0
 13  6  1  0  0  0  0
 14  8  1  0  0  0  0
 15  8  2  0  0  0  0
 16 12  2  0  0  0  0
 17 13  2  0  0  0  0
 17 16  1  0  0  0  0
 18 15  1  0  0  0  0
 19 14  2  0  0  0  0
 19 20  1  0  0  0  0
 20 18  2  0  0  0  0
M  END
>  <idnumber>
T0505-4065

>  <LogP>
1.210000000000000e+000

>  <rotating_bonds>
3.000000000000000e+000

>  <hb_acceptors>
3.000000000000000e+000

>  <hb_donors>
2.000000000000000e+000

>  <PSA>
5.827999999999996e+001

>  <clusterid>
133

>  <is_centroid>
@

>  <class1>
625

>  <class2>
685

>  <population1>
877209

>  <population2>
28767

>  <population>
28767

>  <cansmi>
OC(c1nc2c(n1C)cccc2)C(c1ccccc1)O

>  <HBA2>
4

>  <HBD>
2

>  <logP>
2.3403

>  <TPSA>
58.28

>  <MW>
268.31

$$$$

 OpenBabel02121609142D

 15 16  0  0  0  0  0  0  0  0999 V2000
    0.4625   -0.0792    0.0000 C   0  0  0  0  0  0  0  0  0  0  0  0
   -0.4875    0.2333    0.0000 C   0  0  0  0  0  0  0  0  0  0  0  0
    0.4625   -1.0792    0.0000 N   0  0  0  0  0  0  0  0  0  0  0  0
   -1.0750   -0.5792    0.0000 O   0  0  0  0  0  0  0  0  0  0  0  0
   -0.4875   -1.3875    0.0000 C   0  0  0  0  0  0  0  0  0  0  0  0
   -0.7958    1.1833    0.0000 N   0  0  0  0  0  0  0  0  0  0  0  0
    1.2667    0.5083    0.0000 C   0  0  0  0  0  0  0  0  0  0  0  0
    2.0792    1.1000    0.0000 N   0  0  0  0  0  0  0  0  0  0  0  0
   -0.1333    1.9250    0.0000 C   0  0  0  0  0  0  0  0  0  0  0  0
   -1.7833    1.3958    0.0000 C   0  0  0  0  0  0  0  0  0  0  0  0
   -0.7958   -2.3375    0.0000 C   0  0  0  0  0  0  0  0  0  0  0  0
   -0.1333   -3.0792    0.0000 C   0  0  0  0  0  0  0  0  0  0  0  0
   -2.0833    2.3458    0.0000 C   0  0  0  0  0  0  0  0  0  0  0  0
   -0.4375    2.8750    0.0000 C   0  0  0  0  0  0  0  0  0  0  0  0
   -1.4208    3.0833    0.0000 C   0  0  0  0  0  0  0  0  0  0  0  0
  2  1  2  0  0  0  0
  3  1  1  0  0  0  0
  4  2  1  0  0  0  0
  5  3  2  0  0  0  0
  5  4  1  0  0  0  0
  6  2  1  0  0  0  0
  7  1  1  0  0  0  0
  8  7  3  0  0  0  0
  9  6  1  0  0  0  0
 10  6  1  0  0  0  0
 11  5  1  0  0  0  0
 12 11  1  0  0  0  0
 13 10  1  0  0  0  0
 14  9  1  0  0  0  0
 14 15  1  0  0  0  0
 15 13  1  0  0  0  0
M  END
>  <idnumber>
T0505-4277

>  <LogP>
2.355999999999999e+000

>  <rotating_bonds>
3.000000000000000e+000

>  <hb_acceptors>
3.000000000000000e+000

>  <hb_donors>
0.000000000000000e+000

>  <PSA>
5.306000000000000e+001

>  <clusterid>
-180

>  <is_centroid>
@

>  <class1>
639

>  <class2>
789

>  <population1>
59855

>  <population2>
4296

>  <population>
140

>  <cansmi>
CCc1oc(c(n1)C#N)N1CCCCC1

>  <HBA2>
4

>  <HBD>
0

>  <logP>
2.16398

>  <TPSA>
53.06

>  <MW>
205.256

$$$$

 OpenBabel02121609142D

 17 18  0  0  0  0  0  0  0  0999 V2000
    0.7417    0.9583    0.0000 C   0  0  0  0  0  0  0  0  0  0  0  0
    1.6917    1.2708    0.0000 C   0  0  0  0  0  0  0  0  0  0  0  0
    0.4292    0.0083    0.0000 C   0  0  0  0  0  0  0  0  0  0  0  0
    0.1500    1.7708    0.0000 N   0  0  0  0  0  0  0  0  0  0  0  0
    1.6917    2.2708    0.0000 C   0  0  0  0  0  0  0  0  0  0  0  0
    0.7417    2.5833    0.0000 N   0  0  0  0  0  0  0  0  0  0  0  0
    0.1167   -0.9417    0.0000 C   0  0  0  0  0  0  0  0  0  0  0  0
   -0.8583   -1.1542    0.0000 C   0  0  0  0  0  0  0  0  0  0  0  0
    2.5000    2.8583    0.0000 O   0  0  0  0  0  0  0  0  0  0  0  0
   -1.5250   -0.4125    0.0000 N   0  0  0  0  0  0  0  0  0  0  0  0
    1.3792   -0.3042    0.0000 C   0  0  0  0  0  0  0  0  0  0  0  0
   -0.5208    0.3125    0.0000 C   0  0  0  0  0  0  0  0  0  0  0  0
    0.7917   -1.6875    0.0000 C   0  0  0  0  0  0  0  0  0  0  0  0
   -1.1708   -2.1042    0.0000 C   0  0  0  0  0  0  0  0  0  0  0  0
   -2.5083   -0.6167    0.0000 C   0  0  0  0  0  0  0  0  0  0  0  0
    0.4792   -2.6417    0.0000 C   0  0  0  0  0  0  0  0  0  0  0  0
   -0.4958   -2.8500    0.0000 C   0  0  0  0  0  0  0  0  0  0  0  0
  2  1  2  0  0  0  0
  3  1  1  0  0  0  0
  4  1  1  0  0  0  0
  5  2  1  0  0  0  0
  5  6  1  0  0  0  0
  6  4  1  0  0  0  0
  7  3  1  0  0  0  0
  8  7  2  0  0  0  0
  9  5  2  0  0  0  0
 10  8  1  0  0  0  0
 11  3  1  0  0  0  0
 12  3  1  0  0  0  0
 13  7  1  0  0  0  0
 14  8  1  0  0  0  0
 14 17  2  0  0  0  0
 15 10  1  0  0  0  0
 16 13  2  0  0  0  0
 17 16  1  0  0  0  0
M  END
>  <idnumber>
T0505-5603

>  <LogP>
2.299000000000000e+000

>  <rotating_bonds>
3.000000000000000e+000

>  <hb_acceptors>
3.000000000000000e+000

>  <hb_donors>
3.000000000000000e+000

>  <PSA>
5.316000000000000e+001

>  <clusterid>
-181

>  <is_centroid>
@

>  <class1>
625

>  <class2>
813

>  <population1>
877209

>  <population2>
2955

>  <population>
2946

>  <cansmi>
CNc1ccccc1C(c1[nH][nH]c(=O)c1)(C)C

>  <HBA2>
2

>  <HBD>
3

>  <logP>
2.1436

>  <TPSA>
60.68

>  <MW>
231.294

$$$$

 OpenBabel02121609142D

 16 17  0  0  0  0  0  0  0  0999 V2000
   -0.4333    0.2500    0.0000 C   0  0  0  0  0  0  0  0  0  0  0  0
   -0.4333   -0.7500    0.0000 N   0  0  0  0  0  0  0  0  0  0  0  0
    0.4292    0.7500    0.0000 N   0  0  0  0  0  0  0  0  0  0  0  0
   -0.4333   -2.7500    0.0000 N   0  0  0  0  0  0  0  0  0  0  0  0
   -1.3000    0.7500    0.0000 O   0  0  0  0  0  0  0  0  0  0  0  0
   -1.3000   -1.2500    0.0000 C   0  0  0  0  0  0  0  0  0  0  0  0
    0.4292   -1.2500    0.0000 C   0  0  0  0  0  0  0  0  0  0  0  0
   -1.3000   -2.2500    0.0000 C   0  0  0  0  0  0  0  0  0  0  0  0
    0.4292   -2.2500    0.0000 C   0  0  0  0  0  0  0  0  0  0  0  0
    0.4292    1.7500    0.0000 C   0  0  0  0  0  0  0  0  0  0  0  0
   -0.4333   -3.7500    0.0000 C   0  0  0  0  0  0  0  0  0  0  0  0
    1.2917    2.2500    0.0000 C   0  0  0  0  0  0  0  0  0  0  0  0
   -0.4333    2.2500    0.0000 C   0  0  0  0  0  0  0  0  0  0  0  0
   -0.4333    3.2500    0.0000 C   0  0  0  0  0  0  0  0  0  0  0  0
    1.2917    3.2500    0.0000 C   0  0  0  0  0  0  0  0  0  0  0  0
    0.4292    3.7500    0.0000 C   0  0  0  0  0  0  0  0  0  0  0  0
  2  1  1  0  0  0  0
  3  1  1  0  0  0  0
  4  9  1  0  0  0  0
  5  1  2  0  0  0  0
  6  2  1  0  0  0  0
  7  2  1  0  0  0  0
  8  6  1  0  0  0  0
  8  4  1  0  0  0  0
  9  7  1  0  0  0  0
 10  3  1  0  0  0  0
 11  4  1  0  0  0  0
 12 10  1  0  0  0  0
 13 10  1  0  0  0  0
 14 13  1  0  0  0  0
 15 12  1  0  0  0  0
 15 16  1  0  0  0  0
 16 14  1  0  0  0  0
M  END
>  <idnumber>
T0505-8318

>  <LogP>
2.339000000000000e+000

>  <rotating_bonds>
1.000000000000000e+000

>  <hb_acceptors>
2.000000000000000e+000

>  <hb_donors>
1.000000000000000e+000

>  <PSA>
3.558000000000000e+001

>  <clusterid>
135

>  <is_centroid>
@

>  <class1>
717

>  <class2>
797

>  <population1>
74368

>  <population2>
40410

>  <population>
1983

>  <cansmi>
CN1CCN(CC1)C(=O)NC1CCCCC1

>  <HBA2>
4

>  <HBD>
1

>  <logP>
1.5428

>  <TPSA>
35.58

>  <MW>
225.331

$$$$

 OpenBabel02121609142D

 15 16  0  0  0  0  0  0  0  0999 V2000
    0.8792   -0.7500    0.0000 N   0  0  0  0  0  0  0  0  0  0  0  0
    0.2917   -1.5542    0.0000 N   0  0  0  0  0  0  0  0  0  0  0  0
    0.2917    0.0583    0.0000 C   0  0  3  0  0  0  0  0  0  0  0  0
   -0.6583   -1.2500    0.0000 C   0  0  0  0  0  0  0  0  0  0  0  0
   -0.6583   -0.2500    0.0000 C   0  0  3  0  0  0  0  0  0  0  0  0
    1.8792   -0.7500    0.0000 C   0  0  0  0  0  0  0  0  0  0  0  0
    2.3792    0.1208    0.0000 O   0  0  0  0  0  0  0  0  0  0  0  0
    0.6042    1.0125    0.0000 C   0  0  0  0  0  0  0  0  0  0  0  0
   -1.5208   -1.7500    0.0000 C   0  0  0  0  0  0  0  0  0  0  0  0
   -1.5208    0.2500    0.0000 C   0  0  0  0  0  0  0  0  0  0  0  0
    2.3792   -1.6167    0.0000 C   0  0  0  0  0  0  0  0  0  0  0  0
    1.5792    1.2208    0.0000 C   0  0  0  0  0  0  0  0  0  0  0  0
   -0.0708    1.7583    0.0000 C   0  0  0  0  0  0  0  0  0  0  0  0
   -2.3875   -0.2500    0.0000 C   0  0  0  0  0  0  0  0  0  0  0  0
   -2.3875   -1.2500    0.0000 C   0  0  0  0  0  0  0  0  0  0  0  0
  2  1  1  0  0  0  0
  3  1  1  0  0  0  0
  4  2  2  0  0  0  0
  5  3  1  0  0  0  0
  5  4  1  0  0  0  0
  6  1  1  0  0  0  0
  7  6  2  0  0  0  0
  8  3  1  0  0  0  0
  9  4  1  0  0  0  0
 10  5  1  0  0  0  0
 11  6  1  0  0  0  0
 12  8  1  0  0  0  0
 13  8  1  0  0  0  0
 14 10  1  0  0  0  0
 14 15  1  0  0  0  0
 15  9  1  0  0  0  0
M  END
>  <idnumber>
T0505-8333

>  <LogP>
1.396000000000000e+000

>  <rotating_bonds>
1.000000000000000e+000

>  <hb_acceptors>
2.000000000000000e+000

>  <hb_donors>
0.000000000000000e+000

>  <PSA>
3.267000000000000e+001

>  <clusterid>
-183

>  <is_centroid>
@

>  <class1>
949

>  <population1>
566

>  <population>
566

>  <cansmi>
CC(C1N(N=C2C1CCCC2)C(=O)C)C

>  <HBA2>
3

>  <HBD>
0

>  <logP>
1.7928

>  <TPSA>
32.67

>  <MW>
208.3

$$$$

 OpenBabel02121609142D

 13 13  0  0  0  0  0  0  0  0999 V2000
    1.4292    0.0000    0.0000 C   0  0  0  0  0  0  0  0  0  0  0  0
    1.4292    1.0000    0.0000 C   0  0  0  0  0  0  0  0  0  0  0  0
    0.5667    1.5000    0.0000 N   0  0  0  0  0  0  0  0  0  0  0  0
    0.5667   -0.5000    0.0000 C   0  0  0  0  0  0  0  0  0  0  0  0
   -0.3000    1.0000    0.0000 C   0  0  0  0  0  0  0  0  0  0  0  0
   -0.3000    0.0000    0.0000 C   0  0  0  0  0  0  0  0  0  0  0  0
    2.2917   -0.5000    0.0000 C   0  0  3  0  0  0  0  0  0  0  0  0
   -1.1708    1.5000    0.0000 O   0  0  0  0  0  0  0  0  0  0  0  0
    2.2917   -1.5000    0.0000 N   0  0  0  0  0  0  0  0  0  0  0  0
    2.2917    1.5000    0.0000 C   0  0  0  0  0  0  0  0  0  0  0  0
   -3.1708    0.4208    0.0000 Cl  0  0  0  0  0  0  0  0  0  0  0  0
    3.1625    1.0000    0.0000 C   0  0  0  0  0  0  0  0  0  0  0  0
    3.1625    0.0000    0.0000 C   0  0  0  0  0  0  0  0  0  0  0  0
  2  1  2  0  0  0  0
  3  2  1  0  0  0  0
  3  5  1  0  0  0  0
  4  1  1  0  0  0  0
  5  6  1  0  0  0  0
  6  4  2  0  0  0  0
  7  1  1  0  0  0  0
  8  5  2  0  0  0  0
  9  7  1  0  0  0  0
 10  2  1  0  0  0  0
 10 12  1  0  0  0  0
 12 13  1  0  0  0  0
 13  7  1  0  0  0  0
M  END
>  <idnumber>
T0506-0410

>  <saltdata>
HCl

>  <LogP>
-6.470000000000000e-001

>  <rotating_bonds>
0.000000000000000e+000

>  <hb_acceptors>
2.000000000000000e+000

>  <hb_donors>
2.000000000000000e+000

>  <PSA>
5.512000000000001e+001

>  <clusterid>
-187

>  <is_centroid>
@

>  <class1>
951

>  <population1>
254

>  <population>
254

>  <cansmi>
NC1CCCc2c1ccc(=O)[nH]2.Cl

>  <HBA2>
2

>  <HBD>
3

>  <logP>
2.2133

>  <TPSA>
58.88

>  <MW>
200.665

$$$$

 OpenBabel02121609142D

 13 14  0  0  0  0  0  0  0  0999 V2000
    0.0000   -0.9917    0.0000 C   0  0  0  0  0  0  0  0  0  0  0  0
    0.0000    0.0000    0.0000 C   0  0  0  0  0  0  0  0  0  0  0  0
   -0.8708    0.5000    0.0000 C   0  0  0  0  0  0  0  0  0  0  0  0
   -1.7333    0.0000    0.0000 C   0  0  0  0  0  0  0  0  0  0  0  0
   -0.8708   -1.5000    0.0000 O   0  0  0  0  0  0  0  0  0  0  0  0
   -1.7333   -0.9917    0.0000 C   0  0  0  0  0  0  0  0  0  0  0  0
    0.8625    0.5000    0.0000 C   0  0  0  0  0  0  0  0  0  0  0  0
    0.8625   -1.5000    0.0000 C   0  0  0  0  0  0  0  0  0  0  0  0
   -0.8708    1.5000    0.0000 O   0  0  0  0  0  0  0  0  0  0  0  0
    1.7292    0.0000    0.0000 C   0  0  0  0  0  0  0  0  0  0  0  0
    1.7292   -0.9917    0.0000 C   0  0  0  0  0  0  0  0  0  0  0  0
   -2.6000   -1.5000    0.0000 C   0  0  0  0  0  0  0  0  0  0  0  0
    2.5917   -1.5000    0.0000 C   0  0  0  0  0  0  0  0  0  0  0  0
  2  1  2  0  0  0  0
  3  2  1  0  0  0  0
  3  4  1  0  0  0  0
  4  6  2  0  0  0  0
  5  1  1  0  0  0  0
  6  5  1  0  0  0  0
  7  2  1  0  0  0  0
  8  1  1  0  0  0  0
  9  3  2  0  0  0  0
 10 11  1  0  0  0  0
 10  7  2  0  0  0  0
 11  8  2  0  0  0  0
 12  6  1  0  0  0  0
 13 11  1  0  0  0  0
M  END
>  <idnumber>
T0506-5404

>  <LogP>
2.380000000000000e+000

>  <rotating_bonds>
0.000000000000000e+000

>  <hb_acceptors>
2.000000000000000e+000

>  <hb_donors>
0.000000000000000e+000

>  <PSA>
2.630000000000000e+001

>  <clusterid>
-191

>  <is_centroid>
@

>  <class1>
819

>  <population1>
2257

>  <population>
2257

>  <cansmi>
Cc1ccc2c(c1)oc(cc2=O)C

>  <HBA2>
2

>  <HBD>
0

>  <logP>
2.4098

>  <TPSA>
30.21

>  <MW>
174.196

$$$$

 OpenBabel02121609142D

 18 20  0  0  0  0  0  0  0  0999 V2000
   -1.3458   -0.5667    0.0000 C   0  0  0  0  0  0  0  0  0  0  0  0
   -0.3500   -0.4625    0.0000 O   0  0  0  0  0  0  0  0  0  0  0  0
   -1.5583   -1.5417    0.0000 N   0  0  0  0  0  0  0  0  0  0  0  0
   -0.6875   -2.0417    0.0000 N   0  0  0  0  0  0  0  0  0  0  0  0
    0.0542   -1.3750    0.0000 C   0  0  0  0  0  0  0  0  0  0  0  0
   -2.0208    0.1750    0.0000 C   0  0  0  0  0  0  0  0  0  0  0  0
    1.0292   -1.5792    0.0000 C   0  0  0  0  0  0  0  0  0  0  0  0
   -2.9958   -0.0292    0.0000 O   0  0  0  0  0  0  0  0  0  0  0  0
   -1.7083    1.1333    0.0000 C   0  0  0  0  0  0  0  0  0  0  0  0
    1.3417   -2.5292    0.0000 C   0  0  0  0  0  0  0  0  0  0  0  0
    1.7042   -0.8417    0.0000 C   0  0  0  0  0  0  0  0  0  0  0  0
   -0.7583    1.4375    0.0000 C   0  0  0  0  0  0  0  0  0  0  0  0
   -2.2958    1.9375    0.0000 C   0  0  0  0  0  0  0  0  0  0  0  0
    2.6792   -1.0417    0.0000 C   0  0  0  0  0  0  0  0  0  0  0  0
    2.3167   -2.7417    0.0000 C   0  0  0  0  0  0  0  0  0  0  0  0
   -1.7083    2.7458    0.0000 C   0  0  0  0  0  0  0  0  0  0  0  0
   -0.7583    2.4375    0.0000 C   0  0  0  0  0  0  0  0  0  0  0  0
    2.9875   -2.0000    0.0000 C   0  0  0  0  0  0  0  0  0  0  0  0
  2  1  1  0  0  0  0
  3  1  2  0  0  0  0
  4  3  1  0  0  0  0
  4  5  2  0  0  0  0
  5  2  1  0  0  0  0
  6  1  1  0  0  0  0
  7  5  1  0  0  0  0
  8  6  2  0  0  0  0
  9  6  1  0  0  0  0
 10  7  1  0  0  0  0
 11  7  2  0  0  0  0
 12  9  1  0  0  0  0
 13  9  1  0  0  0  0
 14 11  1  0  0  0  0
 15 10  2  0  0  0  0
 15 18  1  0  0  0  0
 16 13  1  0  0  0  0
 17 12  1  0  0  0  0
 17 16  1  0  0  0  0
 18 14  2  0  0  0  0
M  END
>  <idnumber>
T0506-7517

>  <LogP>
2.088000000000000e+000

>  <rotating_bonds>
3.000000000000000e+000

>  <hb_acceptors>
3.000000000000000e+000

>  <hb_donors>
0.000000000000000e+000

>  <PSA>
5.599000000000000e+001

>  <clusterid>
142

>  <is_centroid>
@

>  <class1>
674

>  <class2>
689

>  <class3>
625

>  <population1>
16474

>  <population2>
17264

>  <population3>
877209

>  <population>
153

>  <cansmi>
O=C(c1nnc(o1)c1ccccc1)C1CCCC1

>  <HBA2>
4

>  <HBD>
0

>  <logP>
3.1095

>  <TPSA>
55.99

>  <MW>
242.273

$$$$

 OpenBabel02121609142D

 14 16  0  0  0  0  0  0  0  0999 V2000
    0.5042    0.9333    0.0000 N   0  0  0  0  0  0  0  0  0  0  0  0
   -0.4500    0.6208    0.0000 C   0  0  0  0  0  0  0  0  0  0  0  0
   -1.0375    1.4333    0.0000 N   0  0  0  0  0  0  0  0  0  0  0  0
   -0.4500    2.2375    0.0000 N   0  0  0  0  0  0  0  0  0  0  0  0
    0.5042    1.9333    0.0000 C   0  0  0  0  0  0  0  0  0  0  0  0
   -0.7583   -0.3292    0.0000 C   0  0  0  0  0  0  0  0  0  0  0  0
   -1.3750   -2.2292    0.0000 N   0  0  0  0  0  0  0  0  0  0  0  0
    1.4542    0.6208    0.0000 C   0  0  0  0  0  0  0  0  0  0  0  0
    1.4542    2.2375    0.0000 C   0  0  0  0  0  0  0  0  0  0  0  0
    2.0417    1.4333    0.0000 C   0  0  0  0  0  0  0  0  0  0  0  0
   -2.0458   -1.4917    0.0000 C   0  0  0  0  0  0  0  0  0  0  0  0
   -0.3958   -2.0250    0.0000 C   0  0  0  0  0  0  0  0  0  0  0  0
   -1.7375   -0.5375    0.0000 C   0  0  0  0  0  0  0  0  0  0  0  0
   -0.0875   -1.0750    0.0000 C   0  0  0  0  0  0  0  0  0  0  0  0
  2  1  1  0  0  0  0
  3  2  2  0  0  0  0
  4  5  2  0  0  0  0
  4  3  1  0  0  0  0
  5  1  1  0  0  0  0
  6  2  1  0  0  0  0
  7 12  2  0  0  0  0
  8  1  1  0  0  0  0
  9  5  1  0  0  0  0
 10  8  1  0  0  0  0
 10  9  1  0  0  0  0
 11 13  2  0  0  0  0
 11  7  1  0  0  0  0
 12 14  1  0  0  0  0
 13  6  1  0  0  0  0
 14  6  2  0  0  0  0
M  END
>  <idnumber>
T0506-9622

>  <LogP>
-2.460000000000000e-001

>  <rotating_bonds>
1.000000000000000e+000

>  <hb_acceptors>
3.000000000000000e+000

>  <hb_donors>
0.000000000000000e+000

>  <PSA>
4.359999999999999e+001

>  <clusterid>
-192

>  <is_centroid>
@

>  <class1>
784

>  <class2>
632

>  <population1>
235

>  <population2>
79489

>  <population>
13

>  <cansmi>
n1ccc(cc1)c1nnc2n1CCC2

>  <HBA2>
4

>  <HBD>
0

>  <logP>
1.2863

>  <TPSA>
43.6

>  <MW>
186.213

$$$$

 OpenBabel02121609142D

  9  9  0  0  0  0  0  0  0  0999 V2000
    0.2042    0.7125    0.0000 S   0  0  0  0  0  0  0  0  0  0  0  0
   -0.0625   -0.2500    0.0000 C   0  0  0  0  0  0  0  0  0  0  0  0
    1.2042    0.7583    0.0000 C   0  0  0  0  0  0  0  0  0  0  0  0
    0.7667   -0.8042    0.0000 C   0  0  0  0  0  0  0  0  0  0  0  0
    1.5542   -0.1875    0.0000 C   0  0  0  0  0  0  0  0  0  0  0  0
   -1.0000   -0.5917    0.0000 C   0  0  0  0  0  0  0  0  0  0  0  0
   -1.1708   -1.5792    0.0000 O   0  0  0  0  0  0  0  0  0  0  0  0
    1.7667    1.5833    0.0000 Cl  0  0  0  0  0  0  0  0  0  0  0  0
   -1.7708    0.0458    0.0000 C   0  0  0  0  0  0  0  0  0  0  0  0
  2  1  1  0  0  0  0
  3  1  1  0  0  0  0
  4  2  2  0  0  0  0
  4  5  1  0  0  0  0
  5  3  2  0  0  0  0
  6  2  1  0  0  0  0
  7  6  2  0  0  0  0
  8  3  1  0  0  0  0
  9  6  1  0  0  0  0
M  END
>  <idnumber>
T0507-1318

>  <LogP>
2.115000000000000e+000

>  <rotating_bonds>
1.000000000000000e+000

>  <hb_acceptors>
3.000000000000000e+000

>  <hb_donors>
0.000000000000000e+000

>  <PSA>
4.531000000000000e+001

>  <clusterid>
-193

>  <is_centroid>
@

>  <class1>
645

>  <population1>
105961

>  <population>
105961

>  <cansmi>
CC(=O)c1ccc(s1)Cl

>  <HBA2>
2

>  <HBD>
0

>  <logP>
2.6041

>  <TPSA>
45.31

>  <MW>
160.621

$$$$

 OpenBabel02121609142D

 15 16  0  0  0  0  0  0  0  0999 V2000
    0.6292    1.4708    0.0000 N   0  0  0  0  0  0  0  0  0  0  0  0
    1.5792    1.7750    0.0000 N   0  0  0  0  0  0  0  0  0  0  0  0
    1.5792    2.7750    0.0000 N   0  0  0  0  0  0  0  0  0  0  0  0
    0.0417    2.2750    0.0000 C   0  0  0  0  0  0  0  0  0  0  0  0
    0.6292    3.0833    0.0000 C   0  0  0  0  0  0  0  0  0  0  0  0
    0.3167    0.5208    0.0000 C   0  0  0  0  0  0  0  0  0  0  0  0
   -0.2958   -1.3875    0.0000 C   0  0  0  0  0  0  0  0  0  0  0  0
   -0.6083   -2.3375    0.0000 C   0  0  0  0  0  0  0  0  0  0  0  0
   -0.6583    0.3083    0.0000 C   0  0  0  0  0  0  0  0  0  0  0  0
    0.9917   -0.2292    0.0000 C   0  0  0  0  0  0  0  0  0  0  0  0
    0.0625   -3.0792    0.0000 O   0  0  0  0  0  0  0  0  0  0  0  0
   -0.9708   -0.6417    0.0000 C   0  0  0  0  0  0  0  0  0  0  0  0
    0.6792   -1.1792    0.0000 C   0  0  0  0  0  0  0  0  0  0  0  0
   -0.9583    2.2750    0.0000 C   0  0  0  0  0  0  0  0  0  0  0  0
   -1.5833   -2.5417    0.0000 C   0  0  0  0  0  0  0  0  0  0  0  0
  2  1  1  0  0  0  0
  3  2  2  0  0  0  0
  3  5  1  0  0  0  0
  4  1  1  0  0  0  0
  5  4  2  0  0  0  0
  6  1  1  0  0  0  0
  7 13  1  0  0  0  0
  8  7  1  0  0  0  0
  9  6  2  0  0  0  0
 10  6  1  0  0  0  0
 11  8  2  0  0  0  0
 12  9  1  0  0  0  0
 12  7  2  0  0  0  0
 13 10  2  0  0  0  0
 14  4  1  0  0  0  0
 15  8  1  0  0  0  0
M  END
>  <idnumber>
T0507-2086

>  <LogP>
1.821000000000000e+000

>  <rotating_bonds>
2.000000000000000e+000

>  <hb_acceptors>
3.000000000000000e+000

>  <hb_donors>
0.000000000000000e+000

>  <PSA>
4.778000000000000e+001

>  <clusterid>
-194

>  <is_centroid>
@

>  <class1>
777

>  <class2>
625

>  <population1>
500

>  <population2>
877209

>  <population>
492

>  <cansmi>
CC(=O)c1ccc(cc1)n1nncc1C

>  <HBA2>
4

>  <HBD>
0

>  <logP>
1.7783

>  <TPSA>
47.78

>  <MW>
201.225

$$$$

 OpenBabel02121609142D

 18 20  0  0  0  0  0  0  0  0999 V2000
    0.0000   -0.7417    0.0000 C   0  0  0  0  0  0  0  0  0  0  0  0
    0.8625   -0.2500    0.0000 C   0  0  0  0  0  0  0  0  0  0  0  0
    0.8625    0.7500    0.0000 C   0  0  0  0  0  0  0  0  0  0  0  0
    0.0000    1.2583    0.0000 C   0  0  0  0  0  0  0  0  0  0  0  0
   -0.8708   -0.2500    0.0000 C   0  0  0  0  0  0  0  0  0  0  0  0
   -0.8708    0.7500    0.0000 C   0  0  0  0  0  0  0  0  0  0  0  0
    1.7292   -0.7500    0.0000 C   0  0  0  0  0  0  0  0  0  0  0  0
    0.0000   -1.7500    0.0000 O   0  0  0  0  0  0  0  0  0  0  0  0
    0.0000    2.2583    0.0000 O   0  0  0  0  0  0  0  0  0  0  0  0
    1.7292   -1.7500    0.0000 N   0  0  0  0  0  0  0  0  0  0  0  0
    1.7292    1.2500    0.0000 C   0  0  0  0  0  0  0  0  0  0  0  0
   -1.7333   -0.7417    0.0000 C   0  0  0  0  0  0  0  0  0  0  0  0
   -1.7333    1.2583    0.0000 C   0  0  0  0  0  0  0  0  0  0  0  0
    2.5917    0.7500    0.0000 C   0  0  0  0  0  0  0  0  0  0  0  0
    2.5917   -0.2500    0.0000 C   0  0  0  0  0  0  0  0  0  0  0  0
    2.5917   -2.2500    0.0000 C   0  0  0  0  0  0  0  0  0  0  0  0
   -2.6000   -0.2500    0.0000 C   0  0  0  0  0  0  0  0  0  0  0  0
   -2.6000    0.7500    0.0000 C   0  0  0  0  0  0  0  0  0  0  0  0
  2  1  1  0  0  0  0
  3  2  1  0  0  0  0
  3  4  1  0  0  0  0
  4  6  1  0  0  0  0
  5  1  1  0  0  0  0
  6  5  2  0  0  0  0
  7  2  2  0  0  0  0
  8  1  2  0  0  0  0
  9  4  2  0  0  0  0
 10  7  1  0  0  0  0
 11  3  2  0  0  0  0
 11 14  1  0  0  0  0
 12  5  1  0  0  0  0
 13  6  1  0  0  0  0
 13 18  2  0  0  0  0
 14 15  2  0  0  0  0
 15  7  1  0  0  0  0
 16 10  1  0  0  0  0
 17 12  2  0  0  0  0
 18 17  1  0  0  0  0
M  END
>  <idnumber>
T0507-2886

>  <LogP>
2.650000000000000e+000

>  <rotating_bonds>
1.000000000000000e+000

>  <hb_acceptors>
3.000000000000000e+000

>  <hb_donors>
1.000000000000000e+000

>  <PSA>
4.616999999999997e+001

>  <clusterid>
-199

>  <is_centroid>
@

>  <class1>
880

>  <population1>
926

>  <population>
926

>  <cansmi>
CNc1cccc2c1C(=O)c1c(C2=O)cccc1

>  <HBA2>
3

>  <HBD>
1

>  <logP>
2.5767

>  <TPSA>
46.17

>  <MW>
237.253

$$$$

 OpenBabel02121609142D

 11 11  0  0  0  0  0  0  0  0999 V2000
   -0.1750   -0.3292    0.0000 N   0  0  0  0  0  0  0  0  0  0  0  0
    0.4125    0.4750    0.0000 C   0  0  0  0  0  0  0  0  0  0  0  0
    0.4125   -1.1417    0.0000 N   0  0  0  0  0  0  0  0  0  0  0  0
    1.3625    0.1708    0.0000 C   0  0  0  0  0  0  0  0  0  0  0  0
    1.3625   -0.8292    0.0000 C   0  0  0  0  0  0  0  0  0  0  0  0
   -1.1750   -0.3292    0.0000 C   0  0  0  0  0  0  0  0  0  0  0  0
    0.1042    1.4250    0.0000 N   0  0  0  0  0  0  0  0  0  0  0  0
    2.1667   -1.4167    0.0000 C   0  0  0  0  0  0  0  0  0  0  0  0
   -1.1750   -1.3292    0.0000 C   0  0  0  0  0  0  0  0  0  0  0  0
   -1.1750    0.6708    0.0000 C   0  0  0  0  0  0  0  0  0  0  0  0
   -2.1750   -0.3292    0.0000 C   0  0  0  0  0  0  0  0  0  0  0  0
  2  1  1  0  0  0  0
  3  1  1  0  0  0  0
  4  2  2  0  0  0  0
  5  3  2  0  0  0  0
  5  4  1  0  0  0  0
  6  1  1  0  0  0  0
  7  2  1  0  0  0  0
  8  5  1  0  0  0  0
  9  6  1  0  0  0  0
 10  6  1  0  0  0  0
 11  6  1  0  0  0  0
M  END
>  <idnumber>
T0507-4045

>  <LogP>
9.780000000000000e-001

>  <rotating_bonds>
1.000000000000000e+000

>  <hb_acceptors>
2.000000000000000e+000

>  <hb_donors>
1.000000000000000e+000

>  <PSA>
4.384000000000000e+001

>  <clusterid>
-204

>  <is_centroid>
@

>  <class1>
631

>  <population1>
41612

>  <population>
41612

>  <cansmi>
Cc1nn(c(c1)N)C(C)(C)C

>  <HBA2>
3

>  <HBD>
1

>  <logP>
2.1099

>  <TPSA>
43.84

>  <MW>
153.225

$$$$

 OpenBabel02121609142D

 14 15  0  0  0  0  0  0  0  0999 V2000
   -0.8708    0.0000    0.0000 C   0  0  0  0  0  0  0  0  0  0  0  0
   -0.8708    1.0000    0.0000 N   0  0  0  0  0  0  0  0  0  0  0  0
    0.0000   -0.5000    0.0000 N   0  0  0  0  0  0  0  0  0  0  0  0
   -1.7333   -0.5000    0.0000 S   0  0  0  0  0  0  0  0  0  0  0  0
    0.8625    0.0000    0.0000 C   0  0  0  0  0  0  0  0  0  0  0  0
    1.7292   -0.5000    0.0000 C   0  0  0  0  0  0  0  0  0  0  0  0
   -1.7333    1.5000    0.0000 C   0  0  0  0  0  0  0  0  0  0  0  0
   -2.6000    1.0000    0.0000 C   0  0  0  0  0  0  0  0  0  0  0  0
   -2.6000    0.0000    0.0000 C   0  0  0  0  0  0  0  0  0  0  0  0
    0.8625    1.0000    0.0000 C   0  0  0  0  0  0  0  0  0  0  0  0
    1.7292   -1.5000    0.0000 C   0  0  0  0  0  0  0  0  0  0  0  0
    2.5917    0.0000    0.0000 C   0  0  0  0  0  0  0  0  0  0  0  0
    1.7292    1.5000    0.0000 C   0  0  0  0  0  0  0  0  0  0  0  0
    2.5917    1.0000    0.0000 C   0  0  0  0  0  0  0  0  0  0  0  0
  2  1  2  0  0  0  0
  3  1  1  0  0  0  0
  4  1  1  0  0  0  0
  5  3  1  0  0  0  0
  6  5  2  0  0  0  0
  7  2  1  0  0  0  0
  7  8  1  0  0  0  0
  8  9  1  0  0  0  0
  9  4  1  0  0  0  0
 10  5  1  0  0  0  0
 11  6  1  0  0  0  0
 12  6  1  0  0  0  0
 12 14  2  0  0  0  0
 13 10  2  0  0  0  0
 14 13  1  0  0  0  0
M  END
>  <idnumber>
T0507-4150

>  <LogP>
5.610000000000001e-001

>  <rotating_bonds>
1.000000000000000e+000

>  <hb_acceptors>
3.000000000000000e+000

>  <hb_donors>
1.000000000000000e+000

>  <PSA>
4.969000000000001e+001

>  <clusterid>
141

>  <is_centroid>
@

>  <class1>
625

>  <class2>
849

>  <population1>
877209

>  <population2>
101

>  <population>
95

>  <cansmi>
Cc1ccccc1NC1=NCCCS1

>  <HBA2>
3

>  <HBD>
1

>  <logP>
2.4084

>  <TPSA>
49.69

>  <MW>
206.307

$$$$

 OpenBabel02121609142D

 17 19  0  0  0  0  0  0  0  0999 V2000
   -0.0333   -0.3292    0.0000 C   0  0  0  0  0  0  0  0  0  0  0  0
   -0.0333   -1.3292    0.0000 C   0  0  0  0  0  0  0  0  0  0  0  0
   -0.9833   -0.0167    0.0000 N   0  0  0  0  0  0  0  0  0  0  0  0
    0.8375    0.1708    0.0000 N   0  0  0  0  0  0  0  0  0  0  0  0
   -1.5708   -0.8292    0.0000 N   0  0  0  0  0  0  0  0  0  0  0  0
    0.8375   -1.8292    0.0000 C   0  0  0  0  0  0  0  0  0  0  0  0
    1.7042   -1.3292    0.0000 N   0  0  0  0  0  0  0  0  0  0  0  0
   -0.9833   -1.6375    0.0000 C   0  0  0  0  0  0  0  0  0  0  0  0
    1.7042   -0.3292    0.0000 C   0  0  0  0  0  0  0  0  0  0  0  0
   -1.2875    0.9333    0.0000 C   0  0  0  0  0  0  0  0  0  0  0  0
    0.8375   -2.8292    0.0000 O   0  0  0  0  0  0  0  0  0  0  0  0
    2.5667    0.1708    0.0000 C   0  0  0  0  0  0  0  0  0  0  0  0
   -0.6208    1.6750    0.0000 C   0  0  0  0  0  0  0  0  0  0  0  0
   -2.2708    1.1375    0.0000 C   0  0  0  0  0  0  0  0  0  0  0  0
   -2.5750    2.0958    0.0000 C   0  0  0  0  0  0  0  0  0  0  0  0
   -0.9333    2.6250    0.0000 C   0  0  0  0  0  0  0  0  0  0  0  0
   -1.9083    2.8333    0.0000 C   0  0  0  0  0  0  0  0  0  0  0  0
  2  1  2  0  0  0  0
  3  1  1  0  0  0  0
  4  1  1  0  0  0  0
  5  3  1  0  0  0  0
  5  8  2  0  0  0  0
  6  2  1  0  0  0  0
  6  7  1  0  0  0  0
  7  9  1  0  0  0  0
  8  2  1  0  0  0  0
  9  4  2  0  0  0  0
 10  3  1  0  0  0  0
 11  6  2  0  0  0  0
 12  9  1  0  0  0  0
 13 10  1  0  0  0  0
 14 10  2  0  0  0  0
 15 14  1  0  0  0  0
 16 13  2  0  0  0  0
 16 17  1  0  0  0  0
 17 15  2  0  0  0  0
M  END
>  <idnumber>
T0507-4455

>  <LogP>
1.624000000000000e+000

>  <rotating_bonds>
1.000000000000000e+000

>  <hb_acceptors>
3.000000000000000e+000

>  <hb_donors>
1.000000000000000e+000

>  <PSA>
5.928000000000000e+001

>  <clusterid>
52

>  <is_centroid>
@

>  <class1>
662

>  <class2>
625

>  <population1>
1235

>  <population2>
877209

>  <population>
1138

>  <cansmi>
Cc1[nH]c(=O)c2c(n1)n(nc2)c1ccccc1

>  <HBA2>
4

>  <HBD>
1

>  <logP>
1.4172

>  <TPSA>
63.57

>  <MW>
226.234

$$$$

 OpenBabel02121609142D

 13 14  0  0  0  0  0  0  0  0999 V2000
   -0.2083    0.0625    0.0000 N   0  0  0  0  0  0  0  0  0  0  0  0
    0.6542    0.5625    0.0000 C   0  0  0  0  0  0  0  0  0  0  0  0
   -0.2083   -0.9375    0.0000 C   0  0  0  0  0  0  0  0  0  0  0  0
    0.6542   -1.4375    0.0000 N   0  0  0  0  0  0  0  0  0  0  0  0
    1.5250    0.0625    0.0000 C   0  0  0  0  0  0  0  0  0  0  0  0
    1.5250   -0.9375    0.0000 C   0  0  0  0  0  0  0  0  0  0  0  0
    0.6542    1.5625    0.0000 O   0  0  0  0  0  0  0  0  0  0  0  0
   -0.9875    0.6875    0.0000 C   0  0  0  0  0  0  0  0  0  0  0  0
   -0.9875   -1.5542    0.0000 C   0  0  0  0  0  0  0  0  0  0  0  0
    2.3917   -1.4375    0.0000 C   0  0  0  0  0  0  0  0  0  0  0  0
   -1.9708    0.4708    0.0000 C   0  0  0  0  0  0  0  0  0  0  0  0
   -1.9708   -1.3375    0.0000 C   0  0  0  0  0  0  0  0  0  0  0  0
   -2.3958   -0.4375    0.0000 C   0  0  0  0  0  0  0  0  0  0  0  0
  2  1  1  0  0  0  0
  3  1  1  0  0  0  0
  4  3  2  0  0  0  0
  5  2  1  0  0  0  0
  6  4  1  0  0  0  0
  6  5  2  0  0  0  0
  7  2  2  0  0  0  0
  8  1  1  0  0  0  0
  9  3  1  0  0  0  0
 10  6  1  0  0  0  0
 11  8  1  0  0  0  0
 12  9  1  0  0  0  0
 13 11  1  0  0  0  0
 13 12  1  0  0  0  0
M  END
>  <idnumber>
T0507-4516

>  <LogP>
1.058000000000000e+000

>  <rotating_bonds>
0.000000000000000e+000

>  <hb_acceptors>
2.000000000000000e+000

>  <hb_donors>
0.000000000000000e+000

>  <PSA>
3.267000000000000e+001

>  <clusterid>
-206

>  <is_centroid>
@

>  <class1>
957

>  <population1>
115

>  <population>
115

>  <cansmi>
Cc1nc2CCCCCn2c(=O)c1

>  <HBA2>
3

>  <HBD>
0

>  <logP>
1.2781

>  <TPSA>
34.89

>  <MW>
178.231

$$$$

 OpenBabel02121609142D

 12 13  0  0  0  0  0  0  0  0999 V2000
   -1.5708    0.3833    0.0000 C   0  0  0  0  0  0  0  0  0  0  0  0
   -0.0333   -0.1167    0.0000 C   0  0  0  0  0  0  0  0  0  0  0  0
   -0.9833    1.1958    0.0000 N   0  0  0  0  0  0  0  0  0  0  0  0
   -0.9833   -0.4250    0.0000 C   0  0  0  0  0  0  0  0  0  0  0  0
   -0.0333    0.8833    0.0000 C   0  0  0  0  0  0  0  0  0  0  0  0
    0.8292   -0.6167    0.0000 C   0  0  0  0  0  0  0  0  0  0  0  0
   -2.5708    0.3833    0.0000 O   0  0  0  0  0  0  0  0  0  0  0  0
   -1.2958   -1.3792    0.0000 O   0  0  0  0  0  0  0  0  0  0  0  0
    0.8292    1.3833    0.0000 C   0  0  0  0  0  0  0  0  0  0  0  0
    1.7000   -0.1167    0.0000 C   0  0  0  0  0  0  0  0  0  0  0  0
    1.7000    0.8833    0.0000 C   0  0  0  0  0  0  0  0  0  0  0  0
    2.5667   -0.6167    0.0000 F   0  0  0  0  0  0  0  0  0  0  0  0
  2  4  1  0  0  0  0
  3  1  1  0  0  0  0
  4  1  1  0  0  0  0
  5  3  1  0  0  0  0
  5  2  2  0  0  0  0
  6  2  1  0  0  0  0
  7  1  2  0  0  0  0
  8  4  2  0  0  0  0
  9  5  1  0  0  0  0
 10  6  2  0  0  0  0
 10 11  1  0  0  0  0
 11  9  2  0  0  0  0
 12 10  1  0  0  0  0
M  END
>  <idnumber>
T0507-5688

>  <LogP>
9.710000000000001e-001

>  <rotating_bonds>
0.000000000000000e+000

>  <hb_acceptors>
3.000000000000000e+000

>  <hb_donors>
1.000000000000000e+000

>  <PSA>
4.616999999999997e+001

>  <clusterid>
-208

>  <is_centroid>
@

>  <class1>
935

>  <population1>
446

>  <population>
446

>  <cansmi>
Fc1ccc2c(c1)C(=O)C(=O)N2

>  <HBA2>
3

>  <HBD>
1

>  <logP>
1.0985

>  <TPSA>
46.17

>  <MW>
165.121

$$$$

 OpenBabel02121609142D

 16 17  0  0  0  0  0  0  0  0999 V2000
   -0.2375   -0.9875    0.0000 N   0  0  0  0  0  0  0  0  0  0  0  0
   -0.5458   -0.0292    0.0000 C   0  0  0  0  0  0  0  0  0  0  0  0
   -0.8250   -1.7917    0.0000 N   0  0  0  0  0  0  0  0  0  0  0  0
    0.7125   -1.2917    0.0000 C   0  0  0  0  0  0  0  0  0  0  0  0
    0.7125   -2.2917    0.0000 C   0  0  0  0  0  0  0  0  0  0  0  0
   -0.2375   -2.6042    0.0000 C   0  0  0  0  0  0  0  0  0  0  0  0
    0.1167    0.7083    0.0000 N   0  0  0  0  0  0  0  0  0  0  0  0
   -1.5250    0.1708    0.0000 O   0  0  0  0  0  0  0  0  0  0  0  0
   -0.1875    1.6583    0.0000 C   0  0  0  0  0  0  0  0  0  0  0  0
    1.5167   -0.7042    0.0000 C   0  0  0  0  0  0  0  0  0  0  0  0
   -0.5458   -3.5542    0.0000 C   0  0  0  0  0  0  0  0  0  0  0  0
    0.4792    2.4000    0.0000 C   0  0  0  0  0  0  0  0  0  0  0  0
   -1.1708    1.8708    0.0000 C   0  0  0  0  0  0  0  0  0  0  0  0
   -1.4750    2.8208    0.0000 C   0  0  0  0  0  0  0  0  0  0  0  0
    0.1667    3.3583    0.0000 C   0  0  0  0  0  0  0  0  0  0  0  0
   -0.8083    3.5583    0.0000 C   0  0  0  0  0  0  0  0  0  0  0  0
  2  1  1  0  0  0  0
  3  1  1  0  0  0  0
  4  1  1  0  0  0  0
  5  4  2  0  0  0  0
  6  3  2  0  0  0  0
  6  5  1  0  0  0  0
  7  2  1  0  0  0  0
  8  2  2  0  0  0  0
  9  7  1  0  0  0  0
 10  4  1  0  0  0  0
 11  6  1  0  0  0  0
 12  9  1  0  0  0  0
 13  9  1  0  0  0  0
 14 13  1  0  0  0  0
 15 12  1  0  0  0  0
 15 16  1  0  0  0  0
 16 14  1  0  0  0  0
M  END
>  <idnumber>
T0507-6017

>  <LogP>
2.416000000000000e+000

>  <rotating_bonds>
1.000000000000000e+000

>  <hb_acceptors>
2.000000000000000e+000

>  <hb_donors>
1.000000000000000e+000

>  <PSA>
4.692000000000000e+001

>  <clusterid>
-209

>  <is_centroid>
@

>  <class1>
631

>  <class2>
797

>  <population1>
41612

>  <population2>
40410

>  <population>
843

>  <cansmi>
O=C(n1nc(cc1C)C)NC1CCCCC1

>  <HBA2>
4

>  <HBD>
1

>  <logP>
2.7812

>  <TPSA>
46.92

>  <MW>
221.299

$$$$

 OpenBabel02121609142D

 20 23  0  0  0  0  0  0  0  0999 V2000
    0.2750   -1.6792    0.0000 C   0  0  3  0  0  0  0  0  0  0  0  0
   -0.5583   -1.1667    0.0000 C   0  0  0  0  0  0  0  0  0  0  0  0
    0.2167   -2.6250    0.0000 C   0  0  0  0  0  0  0  0  0  0  0  0
    0.8500   -2.5917    0.0000 C   0  0  0  0  0  0  0  0  0  0  0  0
    1.1292   -1.1167    0.0000 C   0  0  0  0  0  0  0  0  0  0  0  0
   -0.4583   -0.2042    0.0000 N   0  0  0  0  0  0  0  0  0  0  0  0
    1.6417   -1.5250    0.0000 C   0  0  3  0  0  0  0  0  0  0  0  0
    1.1417   -3.0792    0.0000 C   0  0  3  0  0  0  0  0  0  0  0  0
    2.1042   -1.7625    0.0000 C   0  0  3  0  0  0  0  0  0  0  0  0
   -1.3500   -1.7167    0.0000 O   0  0  0  0  0  0  0  0  0  0  0  0
   -1.2875    3.0875    0.0000 N   0  0  0  0  0  0  0  0  0  0  0  0
    0.9292   -1.7792    0.0000 C   0  0  0  0  0  0  0  0  0  0  0  0
    1.5667   -2.4917    0.0000 C   0  0  0  0  0  0  0  0  0  0  0  0
    2.0667   -2.6625    0.0000 C   0  0  0  0  0  0  0  0  0  0  0  0
   -1.3083    0.2333    0.0000 C   0  0  0  0  0  0  0  0  0  0  0  0
   -1.2875    1.1833    0.0000 C   0  0  0  0  0  0  0  0  0  0  0  0
   -0.4583    2.6083    0.0000 C   0  0  0  0  0  0  0  0  0  0  0  0
   -2.1125    2.6083    0.0000 C   0  0  0  0  0  0  0  0  0  0  0  0
   -0.4583    1.6583    0.0000 C   0  0  0  0  0  0  0  0  0  0  0  0
   -2.1125    1.6583    0.0000 C   0  0  0  0  0  0  0  0  0  0  0  0
  2  1  1  0  0  0  0
  3  1  1  0  0  0  0
  4  1  1  0  0  0  0
  5  1  1  0  0  0  0
  6  2  1  0  0  0  0
  7  4  1  0  0  0  0
  8  3  1  0  0  0  0
  8 14  1  0  0  0  0
  8 12  1  0  0  0  0
  9  5  1  0  0  0  0
 10  2  2  0  0  0  0
 11 18  2  0  0  0  0
 12  7  1  0  0  0  0
 13  9  1  0  0  0  0
 13  7  1  0  0  0  0
 14  9  1  0  0  0  0
 15  6  1  0  0  0  0
 16 15  1  0  0  0  0
 17 19  2  0  0  0  0
 17 11  1  0  0  0  0
 18 20  1  0  0  0  0
 19 16  1  0  0  0  0
 20 16  2  0  0  0  0
M  END
>  <idnumber>
T0507-6577

>  <LogP>
2.112000000000000e+000

>  <rotating_bonds>
3.000000000000000e+000

>  <hb_acceptors>
2.000000000000000e+000

>  <hb_donors>
1.000000000000000e+000

>  <PSA>
4.199000000000000e+001

>  <clusterid>
-210

>  <is_centroid>
@

>  <class1>
809

>  <class2>
632

>  <population1>
8162

>  <population2>
79489

>  <population>
345

>  <cansmi>
O=C(C12CC3CC(C2)CC(C1)C3)NCc1ccncc1

>  <HBA2>
3

>  <HBD>
1

>  <logP>
3.3051

>  <TPSA>
41.99

>  <MW>
270.369

$$$$

 OpenBabel02121609142D

 20 22  0  0  0  0  0  0  0  0999 V2000
    0.9000    1.3583    0.0000 C   0  0  3  0  0  0  0  0  0  0  0  0
    0.0375    0.9333    0.0000 C   0  0  0  0  0  0  0  0  0  0  0  0
    0.1292   -0.0292    0.0000 N   0  0  0  0  0  0  0  0  0  0  0  0
    1.7000    0.8333    0.0000 C   0  0  0  0  0  0  0  0  0  0  0  0
    1.9792    1.3958    0.0000 C   0  0  0  0  0  0  0  0  0  0  0  0
    0.8417    2.3708    0.0000 C   0  0  0  0  0  0  0  0  0  0  0  0
    0.1167   -1.9375    0.0000 N   0  0  0  0  0  0  0  0  0  0  0  0
    1.4417    2.6250    0.0000 C   0  0  3  0  0  0  0  0  0  0  0  0
    2.5542    1.4000    0.0000 C   0  0  3  0  0  0  0  0  0  0  0  0
    1.8917    2.8958    0.0000 C   0  0  3  0  0  0  0  0  0  0  0  0
   -0.7708    1.4583    0.0000 O   0  0  0  0  0  0  0  0  0  0  0  0
   -0.6958   -0.5042    0.0000 C   0  0  0  0  0  0  0  0  0  0  0  0
    0.9500   -0.5167    0.0000 C   0  0  0  0  0  0  0  0  0  0  0  0
    1.3375    1.8958    0.0000 C   0  0  0  0  0  0  0  0  0  0  0  0
    2.2542    2.0833    0.0000 C   0  0  0  0  0  0  0  0  0  0  0  0
    2.6625    2.4208    0.0000 C   0  0  0  0  0  0  0  0  0  0  0  0
    0.9417   -1.4667    0.0000 C   0  0  0  0  0  0  0  0  0  0  0  0
   -0.7000   -1.4542    0.0000 C   0  0  0  0  0  0  0  0  0  0  0  0
   -2.6708    0.6750    0.0000 Cl  0  0  0  0  0  0  0  0  0  0  0  0
    0.1292   -2.8875    0.0000 C   0  0  0  0  0  0  0  0  0  0  0  0
  2  1  1  0  0  0  0
  3  2  1  0  0  0  0
  4  1  1  0  0  0  0
  5  1  1  0  0  0  0
  6  1  1  0  0  0  0
  7 17  1  0  0  0  0
  8  5  1  0  0  0  0
  9  4  1  0  0  0  0
  9 16  1  0  0  0  0
  9 14  1  0  0  0  0
 10  6  1  0  0  0  0
 11  2  2  0  0  0  0
 12  3  1  0  0  0  0
 13  3  1  0  0  0  0
 14  8  1  0  0  0  0
 15 10  1  0  0  0  0
 15  8  1  0  0  0  0
 16 10  1  0  0  0  0
 17 13  1  0  0  0  0
 18 12  1  0  0  0  0
 18  7  1  0  0  0  0
 20  7  1  0  0  0  0
M  END
>  <idnumber>
T0507-8020

>  <saltdata>
HCl

>  <LogP>
2.407000000000000e+000

>  <rotating_bonds>
1.000000000000000e+000

>  <hb_acceptors>
2.000000000000000e+000

>  <hb_donors>
0.000000000000000e+000

>  <PSA>
2.355000000000000e+001

>  <clusterid>
151

>  <is_centroid>
@

>  <class1>
809

>  <class2>
717

>  <population1>
8162

>  <population2>
74368

>  <population>
310

>  <cansmi>
CN1CCN(CC1)C(=O)C12CC3CC(C2)CC(C1)C3.Cl

>  <HBA2>
3

>  <HBD>
1

>  <logP>
2.6546

>  <TPSA>
23.55

>  <MW>
298.851

$$$$

 OpenBabel02121609142D

 16 17  0  0  0  0  0  0  0  0999 V2000
   -0.5625    0.3458    0.0000 C   0  0  0  0  0  0  0  0  0  0  0  0
    0.3042   -0.1542    0.0000 N   0  0  0  0  0  0  0  0  0  0  0  0
    0.3042   -1.1542    0.0000 C   0  0  0  0  0  0  0  0  0  0  0  0
   -0.6000   -1.5875    0.0000 N   0  0  0  0  0  0  0  0  0  0  0  0
   -1.4333   -0.1542    0.0000 O   0  0  0  0  0  0  0  0  0  0  0  0
   -0.5625    1.3458    0.0000 C   0  0  0  0  0  0  0  0  0  0  0  0
   -0.8208   -2.5625    0.0000 C   0  0  0  0  0  0  0  0  0  0  0  0
    1.2042   -1.5875    0.0000 C   0  0  0  0  0  0  0  0  0  0  0  0
    0.3042    1.8458    0.0000 C   0  0  0  0  0  0  0  0  0  0  0  0
   -1.4333    1.8458    0.0000 C   0  0  0  0  0  0  0  0  0  0  0  0
   -0.1958   -3.3417    0.0000 C   0  0  0  0  0  0  0  0  0  0  0  0
    1.4250   -2.5625    0.0000 C   0  0  0  0  0  0  0  0  0  0  0  0
   -1.4333    2.8458    0.0000 C   0  0  0  0  0  0  0  0  0  0  0  0
    0.3042    2.8458    0.0000 C   0  0  0  0  0  0  0  0  0  0  0  0
    0.8042   -3.3417    0.0000 C   0  0  0  0  0  0  0  0  0  0  0  0
   -0.5625    3.3458    0.0000 C   0  0  0  0  0  0  0  0  0  0  0  0
  2  1  1  0  0  0  0
  3  2  1  0  0  0  0
  4  3  2  0  0  0  0
  5  1  2  0  0  0  0
  6  1  1  0  0  0  0
  7  4  1  0  0  0  0
  8  3  1  0  0  0  0
  9  6  1  0  0  0  0
 10  6  2  0  0  0  0
 11  7  1  0  0  0  0
 11 15  1  0  0  0  0
 12  8  1  0  0  0  0
 13 10  1  0  0  0  0
 14  9  2  0  0  0  0
 14 16  1  0  0  0  0
 15 12  1  0  0  0  0
 16 13  2  0  0  0  0
M  END
>  <idnumber>
T0507-8605

>  <LogP>
2.200000000000000e+000

>  <rotating_bonds>
1.000000000000000e+000

>  <hb_acceptors>
2.000000000000000e+000

>  <hb_donors>
1.000000000000000e+000

>  <PSA>
4.146000000000000e+001

>  <clusterid>
-213

>  <is_centroid>
@

>  <class1>
625

>  <class2>
869

>  <population1>
877209

>  <population2>
174

>  <population>
158

>  <cansmi>
O=C(c1ccccc1)NC1=NCCCCC1

>  <HBA2>
3

>  <HBD>
1

>  <logP>
2.2154

>  <TPSA>
41.46

>  <MW>
216.279

$$$$

 OpenBabel02121609142D

 11 12  0  0  0  0  0  0  0  0999 V2000
    0.2917    0.8125    0.0000 N   0  0  0  0  0  0  0  0  0  0  0  0
    0.2917   -0.8042    0.0000 S   0  0  0  0  0  0  0  0  0  0  0  0
    0.8792    0.0000    0.0000 C   0  0  0  0  0  0  0  0  0  0  0  0
   -0.6583    0.5000    0.0000 C   0  0  0  0  0  0  0  0  0  0  0  0
   -0.6583   -0.5000    0.0000 C   0  0  0  0  0  0  0  0  0  0  0  0
    1.8792    0.0000    0.0000 C   0  0  0  0  0  0  0  0  0  0  0  0
    2.3792    0.8708    0.0000 F   0  0  0  0  0  0  0  0  0  0  0  0
   -1.5208    1.0000    0.0000 C   0  0  0  0  0  0  0  0  0  0  0  0
   -1.5208   -1.0000    0.0000 C   0  0  0  0  0  0  0  0  0  0  0  0
   -2.3875   -0.5000    0.0000 C   0  0  0  0  0  0  0  0  0  0  0  0
   -2.3875    0.5000    0.0000 C   0  0  0  0  0  0  0  0  0  0  0  0
  2  3  1  0  0  0  0
  3  1  2  0  0  0  0
  4  1  1  0  0  0  0
  5  4  2  0  0  0  0
  5  2  1  0  0  0  0
  6  3  1  0  0  0  0
  7  6  1  0  0  0  0
  8  4  1  0  0  0  0
  9  5  1  0  0  0  0
  9 10  2  0  0  0  0
 10 11  1  0  0  0  0
 11  8  2  0  0  0  0
M  END
>  <idnumber>
T0507-8860

>  <LogP>
2.202000000000000e+000

>  <rotating_bonds>
1.000000000000000e+000

>  <hb_acceptors>
3.000000000000000e+000

>  <hb_donors>
0.000000000000000e+000

>  <PSA>
4.113000000000000e+001

>  <clusterid>
-215

>  <is_centroid>
@

>  <class1>
640

>  <population1>
23901

>  <population>
23901

>  <cansmi>
FCc1nc2c(s1)cccc2

>  <HBA2>
2

>  <HBD>
0

>  <logP>
2.7658

>  <TPSA>
41.13

>  <MW>
167.203

$$$$

 OpenBabel02121609142D

 16 18  0  0  0  0  0  0  0  0999 V2000
   -0.6083    0.1625    0.0000 C   0  0  0  0  0  0  0  0  0  0  0  0
    0.9292   -0.3375    0.0000 C   0  0  0  0  0  0  0  0  0  0  0  0
    0.3417    0.4750    0.0000 C   0  0  0  0  0  0  0  0  0  0  0  0
    0.3417   -1.1417    0.0000 C   0  0  0  0  0  0  0  0  0  0  0  0
   -0.6083   -0.8375    0.0000 C   0  0  0  0  0  0  0  0  0  0  0  0
    0.6542    1.4250    0.0000 C   0  0  0  0  0  0  0  0  0  0  0  0
   -0.0208    2.1708    0.0000 O   0  0  0  0  0  0  0  0  0  0  0  0
    1.6292    1.6333    0.0000 O   0  0  0  0  0  0  0  0  0  0  0  0
    1.9292   -0.4417    0.0000 C   0  0  0  0  0  0  0  0  0  0  0  0
   -1.4708    0.6625    0.0000 C   0  0  0  0  0  0  0  0  0  0  0  0
   -1.4708   -1.3375    0.0000 C   0  0  0  0  0  0  0  0  0  0  0  0
    0.7500   -2.0542    0.0000 C   0  0  0  0  0  0  0  0  0  0  0  0
   -2.3375    0.1625    0.0000 C   0  0  0  0  0  0  0  0  0  0  0  0
    2.3292   -1.3542    0.0000 C   0  0  0  0  0  0  0  0  0  0  0  0
    1.7417   -2.1625    0.0000 C   0  0  0  0  0  0  0  0  0  0  0  0
   -2.3375   -0.8375    0.0000 C   0  0  0  0  0  0  0  0  0  0  0  0
  2  3  1  0  0  0  0
  3  1  1  0  0  0  0
  4  5  1  0  0  0  0
  4  2  2  0  0  0  0
  5  1  2  0  0  0  0
  6  3  1  0  0  0  0
  7  6  2  0  0  0  0
  8  6  1  0  0  0  0
  9  2  1  0  0  0  0
 10  1  1  0  0  0  0
 11  5  1  0  0  0  0
 11 16  2  0  0  0  0
 12  4  1  0  0  0  0
 13 10  2  0  0  0  0
 14  9  2  0  0  0  0
 15 12  2  0  0  0  0
 15 14  1  0  0  0  0
 16 13  1  0  0  0  0
M  END
>  <idnumber>
T0507-9001

>  <LogP>
2.748000000000000e+000

>  <rotating_bonds>
1.000000000000000e+000

>  <hb_acceptors>
2.000000000000000e+000

>  <hb_donors>
1.000000000000000e+000

>  <PSA>
3.730000000000000e+001

>  <clusterid>
-216

>  <is_centroid>
@

>  <class1>
812

>  <population1>
999

>  <population>
999

>  <cansmi>
OC(=O)C1c2ccccc2c2c1cccc2

>  <HBA2>
2

>  <HBD>
1

>  <logP>
2.8835

>  <TPSA>
37.3

>  <MW>
210.228

$$$$

 OpenBabel02121609142D

 12 12  0  0  0  0  0  0  0  0999 V2000
    0.6375   -0.0292    0.0000 C   0  0  3  0  0  0  0  0  0  0  0  0
    1.1417   -0.8667    0.0000 C   0  0  0  0  0  0  0  0  0  0  0  0
    2.0917   -0.6375    0.0000 C   0  0  3  0  0  0  0  0  0  0  0  0
    0.7500    0.8083    0.0000 C   0  0  3  0  0  0  0  0  0  0  0  0
    1.4125    0.7625    0.0000 C   0  0  0  0  0  0  0  0  0  0  0  0
    1.7042    0.2625    0.0000 C   0  0  0  0  0  0  0  0  0  0  0  0
    2.3167    0.2958    0.0000 C   0  0  0  0  0  0  0  0  0  0  0  0
    0.5667    1.8083    0.0000 N   0  0  0  0  0  0  0  0  0  0  0  0
   -0.3750   -0.0542    0.0000 C   0  0  0  0  0  0  0  0  0  0  0  0
    1.4750   -1.8000    0.0000 C   0  0  0  0  0  0  0  0  0  0  0  0
    0.2750   -1.3750    0.0000 C   0  0  0  0  0  0  0  0  0  0  0  0
   -2.3333   -0.0792    0.0000 Cl  0  0  0  0  0  0  0  0  0  0  0  0
  2  1  1  0  0  0  0
  3  2  1  0  0  0  0
  3  7  1  0  0  0  0
  3  6  1  0  0  0  0
  4  1  1  0  0  0  0
  5  1  1  0  0  0  0
  6  4  1  0  0  0  0
  7  5  1  0  0  0  0
  8  4  1  0  0  0  0
  9  1  1  0  0  0  0
 10  2  1  0  0  0  0
 11  2  1  0  0  0  0
M  END
>  <idnumber>
T0507-9002

>  <saltdata>
HCl

>  <LogP>
2.679000000000000e+000

>  <rotating_bonds>
0.000000000000000e+000

>  <hb_acceptors>
1.000000000000000e+000

>  <hb_donors>
1.000000000000000e+000

>  <PSA>
2.602000000000000e+001

>  <clusterid>
153

>  <is_centroid>
@

>  <class1>
831

>  <population1>
1775

>  <population>
1775

>  <cansmi>
NC1CC2C(C1(C)CC2)(C)C.Cl

>  <HBA2>
1

>  <HBD>
2

>  <logP>
3.6622

>  <TPSA>
26.02

>  <MW>
189.725

$$$$

 OpenBabel02121609142D

 20 22  0  0  0  0  0  0  0  0999 V2000
   -1.3208    0.5208    0.0000 C   0  0  0  0  0  0  0  0  0  0  0  0
   -0.6458   -0.2292    0.0000 N   0  0  0  0  0  0  0  0  0  0  0  0
   -1.0083    1.4708    0.0000 C   0  0  0  0  0  0  0  0  0  0  0  0
   -0.9583   -1.1792    0.0000 C   0  0  0  0  0  0  0  0  0  0  0  0
   -1.5958    2.2750    0.0000 O   0  0  0  0  0  0  0  0  0  0  0  0
   -0.2875   -1.9167    0.0000 N   0  0  0  0  0  0  0  0  0  0  0  0
   -2.2958    0.3083    0.0000 O   0  0  0  0  0  0  0  0  0  0  0  0
   -0.0583    1.7750    0.0000 C   0  0  0  0  0  0  0  0  0  0  0  0
    0.3292   -0.0167    0.0000 C   0  0  0  0  0  0  0  0  0  0  0  0
   -1.0083    3.0833    0.0000 C   0  0  0  0  0  0  0  0  0  0  0  0
   -0.0583    2.7750    0.0000 C   0  0  0  0  0  0  0  0  0  0  0  0
   -1.9333   -1.3875    0.0000 C   0  0  0  0  0  0  0  0  0  0  0  0
   -0.5958   -2.8667    0.0000 C   0  0  0  0  0  0  0  0  0  0  0  0
    0.6417    0.9333    0.0000 C   0  0  0  0  0  0  0  0  0  0  0  0
    1.0000   -0.7625    0.0000 C   0  0  0  0  0  0  0  0  0  0  0  0
   -2.2458   -2.3375    0.0000 C   0  0  0  0  0  0  0  0  0  0  0  0
   -1.5708   -3.0792    0.0000 C   0  0  0  0  0  0  0  0  0  0  0  0
    1.9792   -0.5542    0.0000 C   0  0  0  0  0  0  0  0  0  0  0  0
    1.6167    1.1375    0.0000 C   0  0  0  0  0  0  0  0  0  0  0  0
    2.2875    0.3958    0.0000 C   0  0  0  0  0  0  0  0  0  0  0  0
  2  1  1  0  0  0  0
  3  1  1  0  0  0  0
  4  2  1  0  0  0  0
  5  3  1  0  0  0  0
  6  4  2  0  0  0  0
  7  1  2  0  0  0  0
  8  3  2  0  0  0  0
  9  2  1  0  0  0  0
 10  5  1  0  0  0  0
 11  8  1  0  0  0  0
 11 10  2  0  0  0  0
 12  4  1  0  0  0  0
 13  6  1  0  0  0  0
 13 17  2  0  0  0  0
 14  9  1  0  0  0  0
 15  9  1  0  0  0  0
 16 12  2  0  0  0  0
 17 16  1  0  0  0  0
 18 15  1  0  0  0  0
 19 14  1  0  0  0  0
 19 20  1  0  0  0  0
 20 18  1  0  0  0  0
M  END
>  <idnumber>
T0508-2070

>  <LogP>
2.536000000000000e+000

>  <rotating_bonds>
3.000000000000000e+000

>  <hb_acceptors>
2.000000000000000e+000

>  <hb_donors>
0.000000000000000e+000

>  <PSA>
4.634000000000000e+001

>  <clusterid>
-219

>  <is_centroid>
@

>  <class1>
704

>  <class2>
797

>  <class3>
632

>  <population1>
51112

>  <population2>
40410

>  <population3>
79489

>  <population>
56

>  <cansmi>
O=C(N(c1ccccn1)C1CCCCC1)c1ccco1

>  <HBA2>
4

>  <HBD>
0

>  <logP>
3.6541

>  <TPSA>
46.34

>  <MW>
270.326

$$$$

 OpenBabel02121609142D

 16 17  0  0  0  0  0  0  0  0999 V2000
   -0.6708   -0.4375    0.0000 C   0  0  0  0  0  0  0  0  0  0  0  0
   -0.3625    0.5208    0.0000 N   0  0  0  0  0  0  0  0  0  0  0  0
    0.0000   -1.1792    0.0000 C   0  0  0  0  0  0  0  0  0  0  0  0
   -1.6500   -0.6417    0.0000 O   0  0  0  0  0  0  0  0  0  0  0  0
   -0.3125   -2.1292    0.0000 C   0  0  0  0  0  0  0  0  0  0  0  0
   -1.3083    3.0208    0.0000 O   0  0  0  0  0  0  0  0  0  0  0  0
   -1.0333    1.2583    0.0000 C   0  0  0  0  0  0  0  0  0  0  0  0
    0.3542   -2.8667    0.0000 C   0  0  0  0  0  0  0  0  0  0  0  0
   -0.7208    2.2083    0.0000 C   0  0  3  0  0  0  0  0  0  0  0  0
    0.0500   -3.8250    0.0000 F   0  0  0  0  0  0  0  0  0  0  0  0
    0.9750   -0.9667    0.0000 C   0  0  0  0  0  0  0  0  0  0  0  0
    1.6417   -1.7125    0.0000 C   0  0  0  0  0  0  0  0  0  0  0  0
   -0.7208    3.8333    0.0000 C   0  0  0  0  0  0  0  0  0  0  0  0
    1.3375   -2.6667    0.0000 C   0  0  0  0  0  0  0  0  0  0  0  0
    0.2292    2.5208    0.0000 C   0  0  0  0  0  0  0  0  0  0  0  0
    0.2292    3.5208    0.0000 C   0  0  0  0  0  0  0  0  0  0  0  0
  2  1  1  0  0  0  0
  3  1  1  0  0  0  0
  4  1  2  0  0  0  0
  5  3  1  0  0  0  0
  6  9  1  0  0  0  0
  7  2  1  0  0  0  0
  8  5  2  0  0  0  0
  8 14  1  0  0  0  0
  9  7  1  0  0  0  0
 10  8  1  0  0  0  0
 11  3  2  0  0  0  0
 12 11  1  0  0  0  0
 13  6  1  0  0  0  0
 14 12  2  0  0  0  0
 15  9  1  0  0  0  0
 16 15  1  0  0  0  0
 16 13  1  0  0  0  0
M  END
>  <idnumber>
T0508-2834

>  <LogP>
1.846000000000000e+000

>  <rotating_bonds>
3.000000000000000e+000

>  <hb_acceptors>
3.000000000000000e+000

>  <hb_donors>
1.000000000000000e+000

>  <PSA>
3.833000000000000e+001

>  <clusterid>
160

>  <is_centroid>
@

>  <class1>
625

>  <class2>
723

>  <population1>
877209

>  <population2>
9592

>  <population>
8140

>  <cansmi>
Fc1cccc(c1)C(=O)NCC1CCCO1

>  <HBA2>
3

>  <HBD>
1

>  <logP>
2.1254

>  <TPSA>
38.33

>  <MW>
223.243

$$$$

 OpenBabel02121609142D

 18 19  0  0  0  0  0  0  0  0999 V2000
   -0.3958    1.5958    0.0000 N   0  0  0  0  0  0  0  0  0  0  0  0
    0.5542    1.9083    0.0000 N   0  0  0  0  0  0  0  0  0  0  0  0
   -0.7000    0.6458    0.0000 C   0  0  0  0  0  0  0  0  0  0  0  0
   -0.0333   -0.0917    0.0000 C   0  0  0  0  0  0  0  0  0  0  0  0
   -0.9833    2.4083    0.0000 C   0  0  0  0  0  0  0  0  0  0  0  0
   -0.3958    3.2125    0.0000 C   0  0  0  0  0  0  0  0  0  0  0  0
   -0.3458   -1.0500    0.0000 N   0  0  0  0  0  0  0  0  0  0  0  0
    0.5542    2.9083    0.0000 C   0  0  0  0  0  0  0  0  0  0  0  0
    0.9417    0.1083    0.0000 O   0  0  0  0  0  0  0  0  0  0  0  0
    0.3292   -1.7917    0.0000 C   0  0  0  0  0  0  0  0  0  0  0  0
   -1.9833    2.4083    0.0000 C   0  0  0  0  0  0  0  0  0  0  0  0
   -1.3208   -1.2542    0.0000 C   0  0  0  0  0  0  0  0  0  0  0  0
    1.3667    3.4958    0.0000 C   0  0  0  0  0  0  0  0  0  0  0  0
    0.0167   -2.7417    0.0000 C   0  0  0  0  0  0  0  0  0  0  0  0
    1.3042   -1.5875    0.0000 C   0  0  0  0  0  0  0  0  0  0  0  0
    1.9750   -2.3292    0.0000 C   0  0  0  0  0  0  0  0  0  0  0  0
    0.6875   -3.4875    0.0000 C   0  0  0  0  0  0  0  0  0  0  0  0
    1.6667   -3.2792    0.0000 C   0  0  0  0  0  0  0  0  0  0  0  0
  2  1  1  0  0  0  0
  3  1  1  0  0  0  0
  4  3  1  0  0  0  0
  5  1  1  0  0  0  0
  6  5  2  0  0  0  0
  7  4  1  0  0  0  0
  8  2  2  0  0  0  0
  8  6  1  0  0  0  0
  9  4  2  0  0  0  0
 10  7  1  0  0  0  0
 11  5  1  0  0  0  0
 12  7  1  0  0  0  0
 13  8  1  0  0  0  0
 14 10  1  0  0  0  0
 15 10  2  0  0  0  0
 16 15  1  0  0  0  0
 17 14  2  0  0  0  0
 17 18  1  0  0  0  0
 18 16  2  0  0  0  0
M  END
>  <idnumber>
T0508-5282

>  <LogP>
1.962000000000000e+000

>  <rotating_bonds>
3.000000000000000e+000

>  <hb_acceptors>
2.000000000000000e+000

>  <hb_donors>
0.000000000000000e+000

>  <PSA>
3.813000000000000e+001

>  <clusterid>
161

>  <is_centroid>
@

>  <class1>
625

>  <class2>
631

>  <population1>
877209

>  <population2>
41612

>  <population>
39300

>  <cansmi>
O=C(N(c1ccccc1)C)Cn1nc(cc1C)C

>  <HBA2>
4

>  <HBD>
0

>  <logP>
2.1629

>  <TPSA>
38.13

>  <MW>
243.304

$$$$

 OpenBabel02121609142D

 17 19  0  0  0  0  0  0  0  0999 V2000
   -0.3708    0.3833    0.0000 C   0  0  0  0  0  0  0  0  0  0  0  0
   -0.9583    1.1958    0.0000 N   0  0  0  0  0  0  0  0  0  0  0  0
   -0.9583   -0.4250    0.0000 N   0  0  0  0  0  0  0  0  0  0  0  0
   -1.9083   -0.1167    0.0000 C   0  0  0  0  0  0  0  0  0  0  0  0
   -1.9083    0.8833    0.0000 C   0  0  0  0  0  0  0  0  0  0  0  0
    0.6292    0.3833    0.0000 C   0  0  0  0  0  0  0  0  0  0  0  0
    1.1292   -0.4792    0.0000 C   0  0  0  0  0  0  0  0  0  0  0  0
    1.1292    1.2500    0.0000 C   0  0  0  0  0  0  0  0  0  0  0  0
   -0.6458   -1.3792    0.0000 C   0  0  0  0  0  0  0  0  0  0  0  0
    2.6292    0.3833    0.0000 C   0  0  0  0  0  0  0  0  0  0  0  0
    3.6292    0.3833    0.0000 N   0  0  0  0  0  0  0  0  0  0  0  0
    2.1292    1.2500    0.0000 C   0  0  0  0  0  0  0  0  0  0  0  0
    2.1292   -0.4792    0.0000 C   0  0  0  0  0  0  0  0  0  0  0  0
   -2.7708   -0.6167    0.0000 C   0  0  0  0  0  0  0  0  0  0  0  0
   -2.7708    1.3833    0.0000 C   0  0  0  0  0  0  0  0  0  0  0  0
   -3.6375   -0.1167    0.0000 C   0  0  0  0  0  0  0  0  0  0  0  0
   -3.6375    0.8833    0.0000 C   0  0  0  0  0  0  0  0  0  0  0  0
  2  1  2  0  0  0  0
  3  1  1  0  0  0  0
  4  3  1  0  0  0  0
  5  2  1  0  0  0  0
  5  4  2  0  0  0  0
  6  1  1  0  0  0  0
  7  6  1  0  0  0  0
  8  6  2  0  0  0  0
  9  3  1  0  0  0  0
 10 12  2  0  0  0  0
 11 10  1  0  0  0  0
 12  8  1  0  0  0  0
 13  7  2  0  0  0  0
 13 10  1  0  0  0  0
 14  4  1  0  0  0  0
 15  5  1  0  0  0  0
 16 14  2  0  0  0  0
 17 15  2  0  0  0  0
 17 16  1  0  0  0  0
M  END
>  <idnumber>
T0508-6615

>  <LogP>
2.638000000000000e+000

>  <rotating_bonds>
1.000000000000000e+000

>  <hb_acceptors>
2.000000000000000e+000

>  <hb_donors>
1.000000000000000e+000

>  <PSA>
4.384000000000000e+001

>  <clusterid>
-223

>  <is_centroid>
@

>  <class1>
685

>  <class2>
625

>  <population1>
28767

>  <population2>
877209

>  <population>
28767

>  <cansmi>
Nc1ccc(cc1)c1nc2c(n1C)cccc2

>  <HBA2>
3

>  <HBD>
1

>  <logP>
3.4037

>  <TPSA>
43.84

>  <MW>
223.273

$$$$

 OpenBabel02121609142D

 21 24  0  0  0  0  0  0  0  0999 V2000
   -0.9000    0.7958    0.0000 C   0  0  0  0  0  0  0  0  0  0  0  0
    1.6375    0.2958    0.0000 N   0  0  0  0  0  0  0  0  0  0  0  0
   -1.4958    1.6083    0.0000 N   0  0  0  0  0  0  0  0  0  0  0  0
    0.1000    0.7958    0.0000 C   0  0  3  0  0  0  0  0  0  0  0  0
    1.6375    1.2958    0.0000 C   0  0  0  0  0  0  0  0  0  0  0  0
   -1.4958   -0.0167    0.0000 N   0  0  0  0  0  0  0  0  0  0  0  0
    0.6875   -0.0167    0.0000 C   0  0  0  0  0  0  0  0  0  0  0  0
    0.6875    1.6083    0.0000 C   0  0  0  0  0  0  0  0  0  0  0  0
   -2.4458    1.2958    0.0000 C   0  0  0  0  0  0  0  0  0  0  0  0
   -2.4458    0.2958    0.0000 C   0  0  0  0  0  0  0  0  0  0  0  0
    2.4417   -0.2917    0.0000 C   0  0  0  0  0  0  0  0  0  0  0  0
    2.4417    1.8833    0.0000 O   0  0  0  0  0  0  0  0  0  0  0  0
   -3.3083    1.7958    0.0000 C   0  0  0  0  0  0  0  0  0  0  0  0
   -3.3083   -0.2042    0.0000 C   0  0  0  0  0  0  0  0  0  0  0  0
    3.3542    0.1125    0.0000 C   0  0  0  0  0  0  0  0  0  0  0  0
    2.3417   -1.2875    0.0000 C   0  0  0  0  0  0  0  0  0  0  0  0
   -4.1708    0.2958    0.0000 C   0  0  0  0  0  0  0  0  0  0  0  0
   -4.1708    1.2958    0.0000 C   0  0  0  0  0  0  0  0  0  0  0  0
    3.1500   -1.8750    0.0000 C   0  0  0  0  0  0  0  0  0  0  0  0
    4.1667   -0.4750    0.0000 C   0  0  0  0  0  0  0  0  0  0  0  0
    4.0625   -1.4667    0.0000 C   0  0  0  0  0  0  0  0  0  0  0  0
  2  7  1  0  0  0  0
  3  1  2  0  0  0  0
  4  1  1  0  0  0  0
  5  8  1  0  0  0  0
  5  2  1  0  0  0  0
  6  1  1  0  0  0  0
  7  4  1  0  0  0  0
  8  4  1  0  0  0  0
  9  3  1  0  0  0  0
  9 10  2  0  0  0  0
 10  6  1  0  0  0  0
 11  2  1  0  0  0  0
 12  5  2  0  0  0  0
 13  9  1  0  0  0  0
 14 10  1  0  0  0  0
 15 11  2  0  0  0  0
 16 11  1  0  0  0  0
 17 14  2  0  0  0  0
 18 13  2  0  0  0  0
 18 17  1  0  0  0  0
 19 16  2  0  0  0  0
 20 15  1  0  0  0  0
 20 21  2  0  0  0  0
 21 19  1  0  0  0  0
M  END
>  <idnumber>
T0508-6616

>  <LogP>
2.853000000000000e+000

>  <rotating_bonds>
2.000000000000000e+000

>  <hb_acceptors>
2.000000000000000e+000

>  <hb_donors>
1.000000000000000e+000

>  <PSA>
4.899000000000000e+001

>  <clusterid>
162

>  <is_centroid>
@

>  <class1>
673

>  <class2>
685

>  <class3>
625

>  <population1>
18691

>  <population2>
28767

>  <population3>
877209

>  <population>
1325

>  <cansmi>
O=C1CC(CN1c1ccccc1)c1nc2c([nH]1)cccc2

>  <HBA2>
3

>  <HBD>
1

>  <logP>
3.1484

>  <TPSA>
48.99

>  <MW>
277.32

$$$$

 OpenBabel02121609142D

 19 21  0  0  0  0  0  0  0  0999 V2000
    1.2000    0.2500    0.0000 C   0  0  0  0  0  0  0  0  0  0  0  0
    2.0667   -0.2500    0.0000 C   0  0  0  0  0  0  0  0  0  0  0  0
   -3.8083    0.7500    0.0000 N   0  0  0  0  0  0  0  0  0  0  0  0
    0.3292   -0.2500    0.0000 N   0  0  0  0  0  0  0  0  0  0  0  0
   -2.2625    0.2500    0.0000 C   0  0  0  0  0  0  0  0  0  0  0  0
   -3.2208   -0.0542    0.0000 N   0  0  0  0  0  0  0  0  0  0  0  0
   -2.2625    1.2500    0.0000 C   0  0  0  0  0  0  0  0  0  0  0  0
   -1.3958   -0.2500    0.0000 C   0  0  0  0  0  0  0  0  0  0  0  0
   -0.5333    0.2500    0.0000 C   0  0  0  0  0  0  0  0  0  0  0  0
    2.0667   -1.2500    0.0000 C   0  0  0  0  0  0  0  0  0  0  0  0
    1.2000    1.2500    0.0000 O   0  0  0  0  0  0  0  0  0  0  0  0
   -3.2208    1.5625    0.0000 C   0  0  0  0  0  0  0  0  0  0  0  0
   -1.3958    1.7500    0.0000 C   0  0  0  0  0  0  0  0  0  0  0  0
   -0.5333    1.2500    0.0000 C   0  0  0  0  0  0  0  0  0  0  0  0
    1.2000   -1.7500    0.0000 F   0  0  0  0  0  0  0  0  0  0  0  0
    2.9292    0.2500    0.0000 C   0  0  0  0  0  0  0  0  0  0  0  0
    2.9292   -1.7500    0.0000 C   0  0  0  0  0  0  0  0  0  0  0  0
    3.8000   -0.2500    0.0000 C   0  0  0  0  0  0  0  0  0  0  0  0
    3.8000   -1.2500    0.0000 C   0  0  0  0  0  0  0  0  0  0  0  0
  2  1  1  0  0  0  0
  3  6  1  0  0  0  0
  4  1  1  0  0  0  0
  5  8  1  0  0  0  0
  5  7  2  0  0  0  0
  6  5  1  0  0  0  0
  7 13  1  0  0  0  0
  8  9  2  0  0  0  0
  9  4  1  0  0  0  0
 10  2  2  0  0  0  0
 11  1  2  0  0  0  0
 12  7  1  0  0  0  0
 12  3  2  0  0  0  0
 13 14  2  0  0  0  0
 14  9  1  0  0  0  0
 15 10  1  0  0  0  0
 16  2  1  0  0  0  0
 17 10  1  0  0  0  0
 17 19  2  0  0  0  0
 18 16  2  0  0  0  0
 19 18  1  0  0  0  0
M  END
>  <idnumber>
T0508-7350

>  <LogP>
2.523000000000000e+000

>  <rotating_bonds>
2.000000000000000e+000

>  <hb_acceptors>
3.000000000000000e+000

>  <hb_donors>
2.000000000000000e+000

>  <PSA>
5.778000000000000e+001

>  <clusterid>
-224

>  <is_centroid>
@

>  <class1>
625

>  <class2>
829

>  <population1>
877209

>  <population2>
1541

>  <population>
1541

>  <cansmi>
O=C(c1ccccc1F)Nc1ccc2c(c1)[nH]nc2

>  <HBA2>
3

>  <HBD>
2

>  <logP>
3.0273

>  <TPSA>
57.78

>  <MW>
255.247

$$$$

 OpenBabel02121609142D

 18 20  0  0  0  0  0  0  0  0999 V2000
   -0.6208   -0.3625    0.0000 C   0  0  0  0  0  0  0  0  0  0  0  0
   -1.2083    0.4458    0.0000 N   0  0  0  0  0  0  0  0  0  0  0  0
   -1.2083   -1.1750    0.0000 N   0  0  0  0  0  0  0  0  0  0  0  0
    0.8792    0.5000    0.0000 C   0  0  0  0  0  0  0  0  0  0  0  0
    0.3792   -0.3625    0.0000 C   0  0  0  0  0  0  0  0  0  0  0  0
    1.8792    0.5000    0.0000 N   0  0  0  0  0  0  0  0  0  0  0  0
   -2.1583    0.1375    0.0000 C   0  0  0  0  0  0  0  0  0  0  0  0
   -2.1583   -0.8625    0.0000 C   0  0  0  0  0  0  0  0  0  0  0  0
    0.3792    1.3708    0.0000 O   0  0  0  0  0  0  0  0  0  0  0  0
    3.8792    0.5000    0.0000 O   0  0  0  0  0  0  0  0  0  0  0  0
    2.3792   -0.3625    0.0000 C   0  0  0  0  0  0  0  0  0  0  0  0
    2.3792    1.3708    0.0000 C   0  0  0  0  0  0  0  0  0  0  0  0
   -3.0208    0.6375    0.0000 C   0  0  0  0  0  0  0  0  0  0  0  0
   -3.0208   -1.3625    0.0000 C   0  0  0  0  0  0  0  0  0  0  0  0
    3.3792    1.3708    0.0000 C   0  0  0  0  0  0  0  0  0  0  0  0
    3.3792   -0.3625    0.0000 C   0  0  0  0  0  0  0  0  0  0  0  0
   -3.8958   -0.8625    0.0000 C   0  0  0  0  0  0  0  0  0  0  0  0
   -3.8958    0.1375    0.0000 C   0  0  0  0  0  0  0  0  0  0  0  0
  2  1  2  0  0  0  0
  3  1  1  0  0  0  0
  4  5  1  0  0  0  0
  5  1  1  0  0  0  0
  6  4  1  0  0  0  0
  7  2  1  0  0  0  0
  7  8  2  0  0  0  0
  8  3  1  0  0  0  0
  9  4  2  0  0  0  0
 10 15  1  0  0  0  0
 11  6  1  0  0  0  0
 12  6  1  0  0  0  0
 13  7  1  0  0  0  0
 14  8  1  0  0  0  0
 15 12  1  0  0  0  0
 16 11  1  0  0  0  0
 16 10  1  0  0  0  0
 17 14  2  0  0  0  0
 18 13  2  0  0  0  0
 18 17  1  0  0  0  0
M  END
>  <idnumber>
T0508-7678

>  <LogP>
1.697000000000000e+000

>  <rotating_bonds>
2.000000000000000e+000

>  <hb_acceptors>
3.000000000000000e+000

>  <hb_donors>
1.000000000000000e+000

>  <PSA>
5.821999999999999e+001

>  <clusterid>
-225

>  <is_centroid>
@

>  <class1>
685

>  <class2>
786

>  <population1>
28767

>  <population2>
48067

>  <population>
1248

>  <cansmi>
O=C(N1CCOCC1)Cc1nc2c([nH]1)cccc2

>  <HBA2>
4

>  <HBD>
1

>  <logP>
0.9021

>  <TPSA>
58.22

>  <MW>
245.277

$$$$

 OpenBabel02121609142D

 12 13  0  0  0  0  0  0  0  0999 V2000
    0.2875    0.0083    0.0000 C   0  0  0  0  0  0  0  0  0  0  0  0
   -0.3000   -0.8042    0.0000 S   0  0  0  0  0  0  0  0  0  0  0  0
   -0.3000    0.8125    0.0000 C   0  0  0  0  0  0  0  0  0  0  0  0
   -1.2500   -0.5000    0.0000 C   0  0  0  0  0  0  0  0  0  0  0  0
   -1.2500    0.5000    0.0000 C   0  0  0  0  0  0  0  0  0  0  0  0
    1.2875    0.0083    0.0000 C   0  0  0  0  0  0  0  0  0  0  0  0
    1.7875   -0.8625    0.0000 O   0  0  0  0  0  0  0  0  0  0  0  0
    1.7875    0.8708    0.0000 O   0  0  0  0  0  0  0  0  0  0  0  0
   -2.2083   -0.8042    0.0000 C   0  0  0  0  0  0  0  0  0  0  0  0
   -2.2083    0.8125    0.0000 C   0  0  0  0  0  0  0  0  0  0  0  0
   -2.7958    0.0083    0.0000 C   0  0  0  0  0  0  0  0  0  0  0  0
    2.7875    0.8708    0.0000 C   0  0  0  0  0  0  0  0  0  0  0  0
  2  1  1  0  0  0  0
  3  1  2  0  0  0  0
  4  2  1  0  0  0  0
  5  3  1  0  0  0  0
  5  4  2  0  0  0  0
  6  1  1  0  0  0  0
  7  6  2  0  0  0  0
  8  6  1  0  0  0  0
  9  4  1  0  0  0  0
  9 11  1  0  0  0  0
 10  5  1  0  0  0  0
 11 10  1  0  0  0  0
 12  8  1  0  0  0  0
M  END
>  <idnumber>
T0508-8279

>  <LogP>
2.846000000000000e+000

>  <rotating_bonds>
2.000000000000000e+000

>  <hb_acceptors>
2.000000000000000e+000

>  <hb_donors>
0.000000000000000e+000

>  <PSA>
5.454000000000000e+001

>  <clusterid>
-226

>  <is_centroid>
@

>  <class1>
793

>  <population1>
4572

>  <population>
4572

>  <cansmi>
COC(=O)c1sc2c(c1)CCC2

>  <HBA2>
3

>  <HBD>
0

>  <logP>
2.0234

>  <TPSA>
54.54

>  <MW>
182.24

$$$$

 OpenBabel02121609142D

 15 16  0  0  0  0  0  0  0  0999 V2000
   -0.5458    0.6458    0.0000 C   0  0  0  0  0  0  0  0  0  0  0  0
    0.4042    0.9500    0.0000 N   0  0  0  0  0  0  0  0  0  0  0  0
   -0.8500   -0.3042    0.0000 N   0  0  0  0  0  0  0  0  0  0  0  0
   -1.1333    1.4500    0.0000 S   0  0  0  0  0  0  0  0  0  0  0  0
    0.4042    1.9583    0.0000 C   0  0  0  0  0  0  0  0  0  0  0  0
   -0.1833   -1.0542    0.0000 C   0  0  0  0  0  0  0  0  0  0  0  0
   -0.4958   -2.0042    0.0000 C   0  0  0  0  0  0  0  0  0  0  0  0
   -0.5458    2.2583    0.0000 C   0  0  0  0  0  0  0  0  0  0  0  0
    0.7917   -0.8417    0.0000 C   0  0  0  0  0  0  0  0  0  0  0  0
    1.0042    2.7500    0.0000 C   0  0  0  0  0  0  0  0  0  0  0  0
    1.3542    2.2708    0.0000 C   0  0  0  0  0  0  0  0  0  0  0  0
   -1.4708   -2.2125    0.0000 C   0  0  0  0  0  0  0  0  0  0  0  0
    0.1792   -2.7417    0.0000 C   0  0  0  0  0  0  0  0  0  0  0  0
    1.4667   -1.5875    0.0000 C   0  0  0  0  0  0  0  0  0  0  0  0
    1.1542   -2.5375    0.0000 C   0  0  0  0  0  0  0  0  0  0  0  0
  2  1  2  0  0  0  0
  3  1  1  0  0  0  0
  4  1  1  0  0  0  0
  5  2  1  0  0  0  0
  5  8  1  0  0  0  0
  6  3  1  0  0  0  0
  7  6  2  0  0  0  0
  8  4  1  0  0  0  0
  9  6  1  0  0  0  0
 10  5  1  0  0  0  0
 11  5  1  0  0  0  0
 12  7  1  0  0  0  0
 13  7  1  0  0  0  0
 13 15  2  0  0  0  0
 14  9  2  0  0  0  0
 15 14  1  0  0  0  0
M  END
>  <idnumber>
T0508-8509

>  <LogP>
1.040000000000000e+000

>  <rotating_bonds>
1.000000000000000e+000

>  <hb_acceptors>
3.000000000000000e+000

>  <hb_donors>
1.000000000000000e+000

>  <PSA>
4.969000000000001e+001

>  <clusterid>
23

>  <is_centroid>
@

>  <class1>
625

>  <class2>
850

>  <population1>
877209

>  <population2>
2137

>  <population>
1938

>  <cansmi>
Cc1ccccc1NC1=NC(CS1)(C)C

>  <HBA2>
3

>  <HBD>
1

>  <logP>
2.7969

>  <TPSA>
49.69

>  <MW>
220.334

$$$$

 OpenBabel02121609142D

 17 19  0  0  0  0  0  0  0  0999 V2000
   -0.0083    0.5000    0.0000 C   0  0  0  0  0  0  0  0  0  0  0  0
   -0.8708    1.0000    0.0000 N   0  0  0  0  0  0  0  0  0  0  0  0
   -0.0083   -0.5000    0.0000 S   0  0  0  0  0  0  0  0  0  0  0  0
   -1.7333    0.5000    0.0000 C   0  0  0  0  0  0  0  0  0  0  0  0
    0.8625    1.0000    0.0000 N   0  0  0  0  0  0  0  0  0  0  0  0
   -1.7333   -0.5000    0.0000 C   0  0  0  0  0  0  0  0  0  0  0  0
   -0.8708   -1.0000    0.0000 C   0  0  0  0  0  0  0  0  0  0  0  0
    1.7292    0.5000    0.0000 C   0  0  0  0  0  0  0  0  0  0  0  0
   -2.6000    1.0000    0.0000 C   0  0  0  0  0  0  0  0  0  0  0  0
   -2.6000   -1.0000    0.0000 C   0  0  0  0  0  0  0  0  0  0  0  0
    1.7292   -0.5000    0.0000 C   0  0  0  0  0  0  0  0  0  0  0  0
    2.5917    1.0000    0.0000 C   0  0  0  0  0  0  0  0  0  0  0  0
   -3.4708   -0.5000    0.0000 C   0  0  0  0  0  0  0  0  0  0  0  0
   -3.4708    0.5000    0.0000 C   0  0  0  0  0  0  0  0  0  0  0  0
    3.4625    0.5000    0.0000 C   0  0  0  0  0  0  0  0  0  0  0  0
    2.5917   -1.0000    0.0000 C   0  0  0  0  0  0  0  0  0  0  0  0
    3.4625   -0.5000    0.0000 C   0  0  0  0  0  0  0  0  0  0  0  0
  2  1  2  0  0  0  0
  3  1  1  0  0  0  0
  4  2  1  0  0  0  0
  4  6  2  0  0  0  0
  5  1  1  0  0  0  0
  6  7  1  0  0  0  0
  7  3  1  0  0  0  0
  8  5  1  0  0  0  0
  9  4  1  0  0  0  0
 10  6  1  0  0  0  0
 11  8  1  0  0  0  0
 12  8  2  0  0  0  0
 13 10  2  0  0  0  0
 14  9  2  0  0  0  0
 14 13  1  0  0  0  0
 15 12  1  0  0  0  0
 16 11  2  0  0  0  0
 16 17  1  0  0  0  0
 17 15  2  0  0  0  0
M  END
>  <idnumber>
T0508-8516

>  <LogP>
2.767000000000000e+000

>  <rotating_bonds>
1.000000000000000e+000

>  <hb_acceptors>
3.000000000000000e+000

>  <hb_donors>
1.000000000000000e+000

>  <PSA>
4.969000000000001e+001

>  <clusterid>
164

>  <is_centroid>
@

>  <class1>
625

>  <class2>
961

>  <population1>
877209

>  <population2>
127

>  <population>
127

>  <cansmi>
c1ccc(cc1)NC1=Nc2c(CS1)cccc2

>  <HBA2>
3

>  <HBD>
1

>  <logP>
3.5416

>  <TPSA>
49.69

>  <MW>
240.323

$$$$

 OpenBabel02121609142D

 17 19  0  0  0  0  0  0  0  0999 V2000
    0.4292    0.2500    0.0000 C   0  0  0  0  0  0  0  0  0  0  0  0
    0.4292   -0.7500    0.0000 N   0  0  0  0  0  0  0  0  0  0  0  0
   -0.4333    0.7500    0.0000 N   0  0  0  0  0  0  0  0  0  0  0  0
   -0.4333   -1.2500    0.0000 C   0  0  0  0  0  0  0  0  0  0  0  0
   -1.3000   -0.7500    0.0000 C   0  0  0  0  0  0  0  0  0  0  0  0
   -1.3000    0.2500    0.0000 C   0  0  0  0  0  0  0  0  0  0  0  0
    1.2917    0.7500    0.0000 C   0  0  0  0  0  0  0  0  0  0  0  0
   -0.4333   -2.2500    0.0000 O   0  0  0  0  0  0  0  0  0  0  0  0
    2.1625    2.2500    0.0000 N   0  0  0  0  0  0  0  0  0  0  0  0
    1.2917    1.7583    0.0000 C   0  0  0  0  0  0  0  0  0  0  0  0
   -2.1708   -1.2500    0.0000 C   0  0  0  0  0  0  0  0  0  0  0  0
   -2.1708    0.7500    0.0000 C   0  0  0  0  0  0  0  0  0  0  0  0
    2.1625    0.2500    0.0000 C   0  0  0  0  0  0  0  0  0  0  0  0
    3.0292    1.7583    0.0000 C   0  0  0  0  0  0  0  0  0  0  0  0
    3.0292    0.7500    0.0000 C   0  0  0  0  0  0  0  0  0  0  0  0
   -3.0333   -0.7500    0.0000 C   0  0  0  0  0  0  0  0  0  0  0  0
   -3.0333    0.2500    0.0000 C   0  0  0  0  0  0  0  0  0  0  0  0
  2  1  1  0  0  0  0
  3  1  2  0  0  0  0
  4  2  1  0  0  0  0
  4  5  1  0  0  0  0
  5  6  2  0  0  0  0
  6  3  1  0  0  0  0
  7  1  1  0  0  0  0
  8  4  2  0  0  0  0
  9 10  1  0  0  0  0
  9 14  2  0  0  0  0
 10  7  2  0  0  0  0
 11  5  1  0  0  0  0
 11 16  2  0  0  0  0
 12  6  1  0  0  0  0
 13  7  1  0  0  0  0
 14 15  1  0  0  0  0
 15 13  2  0  0  0  0
 16 17  1  0  0  0  0
 17 12  2  0  0  0  0
M  END
>  <idnumber>
T0508-9170

>  <LogP>
1.034000000000000e+000

>  <rotating_bonds>
1.000000000000000e+000

>  <hb_acceptors>
3.000000000000000e+000

>  <hb_donors>
1.000000000000000e+000

>  <PSA>
5.434999999999999e+001

>  <clusterid>
-228

>  <is_centroid>
@

>  <class1>
648

>  <class2>
632

>  <population1>
19152

>  <population2>
79489

>  <population>
744

>  <cansmi>
O=c1[nH]c(nc2c1cccc2)c1cccnc1

>  <HBA2>
3

>  <HBD>
1

>  <logP>
1.9851

>  <TPSA>
58.64

>  <MW>
223.23

$$$$

 OpenBabel02121609142D

 21 24  0  0  0  0  0  0  0  0999 V2000
    0.9792   -1.9000    0.0000 C   0  0  3  0  0  0  0  0  0  0  0  0
   -0.0208   -0.1667    0.0000 C   0  0  0  0  0  0  0  0  0  0  0  0
    0.7042   -0.8667    0.0000 N   0  0  0  0  0  0  0  0  0  0  0  0
   -0.0583   -3.0667    0.0000 C   0  0  3  0  0  0  0  0  0  0  0  0
    1.6250   -3.4667    0.0000 C   0  0  3  0  0  0  0  0  0  0  0  0
    0.0667   -3.6042    0.0000 C   0  0  3  0  0  0  0  0  0  0  0  0
   -0.1333    0.8125    0.0000 N   0  0  0  0  0  0  0  0  0  0  0  0
    0.2542   -1.9792    0.0000 C   0  0  0  0  0  0  0  0  0  0  0  0
   -0.1500   -2.4500    0.0000 C   0  0  0  0  0  0  0  0  0  0  0  0
    1.7792   -2.5042    0.0000 C   0  0  0  0  0  0  0  0  0  0  0  0
   -0.9125   -0.4667    0.0000 O   0  0  0  0  0  0  0  0  0  0  0  0
   -1.7875    3.7583    0.0000 N   0  0  0  0  0  0  0  0  0  0  0  0
    0.9542   -3.0417    0.0000 C   0  0  0  0  0  0  0  0  0  0  0  0
    0.9500   -4.2292    0.0000 C   0  0  0  0  0  0  0  0  0  0  0  0
    0.7042   -3.6625    0.0000 C   0  0  0  0  0  0  0  0  0  0  0  0
   -0.9625    2.3333    0.0000 C   0  0  0  0  0  0  0  0  0  0  0  0
   -0.9375    1.3583    0.0000 C   0  0  0  0  0  0  0  0  0  0  0  0
   -1.7875    2.8083    0.0000 C   0  0  0  0  0  0  0  0  0  0  0  0
   -0.9708    4.2292    0.0000 C   0  0  0  0  0  0  0  0  0  0  0  0
   -0.1458    2.8083    0.0000 C   0  0  0  0  0  0  0  0  0  0  0  0
   -0.1458    3.7583    0.0000 C   0  0  0  0  0  0  0  0  0  0  0  0
  2  3  1  0  0  0  0
  3  1  1  0  0  0  0
  4  8  1  0  0  0  0
  4 15  1  0  0  0  0
  4 13  1  0  0  0  0
  5 10  1  0  0  0  0
  6  9  1  0  0  0  0
  7  2  1  0  0  0  0
  8  1  1  0  0  0  0
  9  1  1  0  0  0  0
 10  1  1  0  0  0  0
 11  2  2  0  0  0  0
 12 18  1  0  0  0  0
 12 19  2  0  0  0  0
 13  6  1  0  0  0  0
 14  5  1  0  0  0  0
 14  6  1  0  0  0  0
 15  5  1  0  0  0  0
 16 17  1  0  0  0  0
 17  7  1  0  0  0  0
 18 16  2  0  0  0  0
 19 21  1  0  0  0  0
 20 16  1  0  0  0  0
 21 20  2  0  0  0  0
M  END
>  <idnumber>
T0509-0539

>  <LogP>
2.382000000000000e+000

>  <rotating_bonds>
3.000000000000000e+000

>  <hb_acceptors>
2.000000000000000e+000

>  <hb_donors>
2.000000000000000e+000

>  <PSA>
5.402000000000000e+001

>  <clusterid>
-230

>  <is_centroid>
@

>  <class1>
809

>  <class2>
632

>  <population1>
8162

>  <population2>
79489

>  <population>
345

>  <cansmi>
O=C(NC12CC3CC(C2)CC(C1)C3)NCc1cccnc1

>  <HBA2>
4

>  <HBD>
2

>  <logP>
3.6314

>  <TPSA>
54.02

>  <MW>
285.384

$$$$

 OpenBabel02121609142D

 20 23  0  0  0  0  0  0  0  0999 V2000
    0.3000   -1.8167    0.0000 C   0  0  3  0  0  0  0  0  0  0  0  0
   -0.0833   -0.2292    0.0000 C   0  0  0  0  0  0  0  0  0  0  0  0
    0.6292   -0.8917    0.0000 N   0  0  0  0  0  0  0  0  0  0  0  0
   -0.8875   -2.9500    0.0000 C   0  0  3  0  0  0  0  0  0  0  0  0
    0.5917   -3.6250    0.0000 C   0  0  3  0  0  0  0  0  0  0  0  0
    0.7417   -3.1125    0.0000 C   0  0  3  0  0  0  0  0  0  0  0  0
    0.2667    0.6583    0.0000 N   0  0  0  0  0  0  0  0  0  0  0  0
   -0.6458   -1.9500    0.0000 C   0  0  0  0  0  0  0  0  0  0  0  0
   -0.4833   -2.5667    0.0000 C   0  0  0  0  0  0  0  0  0  0  0  0
    1.0167   -2.5167    0.0000 C   0  0  0  0  0  0  0  0  0  0  0  0
   -1.0250   -0.4292    0.0000 O   0  0  0  0  0  0  0  0  0  0  0  0
   -0.6500    3.0208    0.0000 O   0  0  0  0  0  0  0  0  0  0  0  0
    0.3292   -2.4917    0.0000 C   0  0  0  0  0  0  0  0  0  0  0  0
   -0.2333   -3.2500    0.0000 C   0  0  0  0  0  0  0  0  0  0  0  0
   -0.2833   -3.7792    0.0000 C   0  0  0  0  0  0  0  0  0  0  0  0
   -0.3958    1.3458    0.0000 C   0  0  0  0  0  0  0  0  0  0  0  0
   -0.0875    2.2458    0.0000 C   0  0  3  0  0  0  0  0  0  0  0  0
   -0.0875    3.7833    0.0000 C   0  0  0  0  0  0  0  0  0  0  0  0
    0.8167    2.5375    0.0000 C   0  0  0  0  0  0  0  0  0  0  0  0
    0.8167    3.4875    0.0000 C   0  0  0  0  0  0  0  0  0  0  0  0
  2  3  1  0  0  0  0
  3  1  1  0  0  0  0
  4  8  1  0  0  0  0
  4 15  1  0  0  0  0
  4 13  1  0  0  0  0
  5 10  1  0  0  0  0
  6  9  1  0  0  0  0
  7  2  1  0  0  0  0
  8  1  1  0  0  0  0
  9  1  1  0  0  0  0
 10  1  1  0  0  0  0
 11  2  2  0  0  0  0
 12 17  1  0  0  0  0
 13  6  1  0  0  0  0
 14  5  1  0  0  0  0
 14  6  1  0  0  0  0
 15  5  1  0  0  0  0
 16  7  1  0  0  0  0
 17 16  1  0  0  0  0
 18 12  1  0  0  0  0
 19 17  1  0  0  0  0
 20 19  1  0  0  0  0
 20 18  1  0  0  0  0
M  END
>  <idnumber>
T0509-0540

>  <LogP>
2.837000000000000e+000

>  <rotating_bonds>
3.000000000000000e+000

>  <hb_acceptors>
2.000000000000000e+000

>  <hb_donors>
2.000000000000000e+000

>  <PSA>
5.036000000000001e+001

>  <clusterid>
-231

>  <is_centroid>
@

>  <class1>
809

>  <class2>
723

>  <population1>
8162

>  <population2>
9592

>  <population>
40

>  <cansmi>
O=C(NC12CC3CC(C2)CC(C1)C3)NCC1CCCO1

>  <HBA2>
4

>  <HBD>
2

>  <logP>
3.2152

>  <TPSA>
50.36

>  <MW>
278.39

$$$$

 OpenBabel02121609142D

 18 20  0  0  0  0  0  0  0  0999 V2000
   -0.8708    0.2500    0.0000 N   0  0  0  0  0  0  0  0  0  0  0  0
    0.0000    0.7500    0.0000 C   0  0  0  0  0  0  0  0  0  0  0  0
   -0.8708    2.2500    0.0000 N   0  0  0  0  0  0  0  0  0  0  0  0
    0.8625    0.2500    0.0000 C   0  0  0  0  0  0  0  0  0  0  0  0
    1.7292   -1.2500    0.0000 C   0  0  0  0  0  0  0  0  0  0  0  0
    0.8625   -0.7500    0.0000 C   0  0  0  0  0  0  0  0  0  0  0  0
   -1.7333    0.7500    0.0000 C   0  0  0  0  0  0  0  0  0  0  0  0
    0.0000    1.7500    0.0000 C   0  0  0  0  0  0  0  0  0  0  0  0
   -1.7333    1.7500    0.0000 C   0  0  0  0  0  0  0  0  0  0  0  0
    2.5917   -0.7500    0.0000 C   0  0  0  0  0  0  0  0  0  0  0  0
    1.7292    0.7500    0.0000 C   0  0  0  0  0  0  0  0  0  0  0  0
    2.5917    0.2500    0.0000 C   0  0  0  0  0  0  0  0  0  0  0  0
    1.7292   -2.2500    0.0000 N   0  0  0  0  0  0  0  0  0  0  0  0
   -2.6000    0.2500    0.0000 C   0  0  0  0  0  0  0  0  0  0  0  0
    3.4625   -1.2500    0.0000 C   0  0  0  0  0  0  0  0  0  0  0  0
   -2.6000    2.2500    0.0000 C   0  0  0  0  0  0  0  0  0  0  0  0
   -3.4708    0.7500    0.0000 C   0  0  0  0  0  0  0  0  0  0  0  0
   -3.4708    1.7500    0.0000 C   0  0  0  0  0  0  0  0  0  0  0  0
  2  1  2  0  0  0  0
  3  9  1  0  0  0  0
  4  2  1  0  0  0  0
  5  6  1  0  0  0  0
  5 10  2  0  0  0  0
  6  4  2  0  0  0  0
  7  1  1  0  0  0  0
  8  2  1  0  0  0  0
  8  3  2  0  0  0  0
  9  7  2  0  0  0  0
 10 12  1  0  0  0  0
 11  4  1  0  0  0  0
 12 11  2  0  0  0  0
 13  5  1  0  0  0  0
 14  7  1  0  0  0  0
 15 10  1  0  0  0  0
 16  9  1  0  0  0  0
 16 18  2  0  0  0  0
 17 14  2  0  0  0  0
 18 17  1  0  0  0  0
M  END
>  <idnumber>
T0509-0964

>  <LogP>
2.845000000000000e+000

>  <rotating_bonds>
1.000000000000000e+000

>  <hb_acceptors>
3.000000000000000e+000

>  <hb_donors>
1.000000000000000e+000

>  <PSA>
5.180000000000000e+001

>  <clusterid>
-232

>  <is_centroid>
@

>  <class1>
625

>  <class2>
821

>  <population1>
877209

>  <population2>
4380

>  <population>
4380

>  <cansmi>
Cc1ccc(cc1N)c1cnc2c(n1)cccc2

>  <HBA2>
3

>  <HBD>
1

>  <logP>
3.7686

>  <TPSA>
51.8

>  <MW>
235.284

$$$$

 OpenBabel02121609142D

 14 15  0  0  0  0  0  0  0  0999 V2000
   -1.4583    1.0583    0.0000 N   0  0  0  0  0  0  0  0  0  0  0  0
   -0.5083    0.7458    0.0000 C   0  0  0  0  0  0  0  0  0  0  0  0
   -0.5083   -0.2542    0.0000 C   0  0  0  0  0  0  0  0  0  0  0  0
   -2.0458    0.2458    0.0000 N   0  0  0  0  0  0  0  0  0  0  0  0
   -1.4583   -0.5625    0.0000 C   0  0  0  0  0  0  0  0  0  0  0  0
    0.3000    1.3375    0.0000 N   0  0  0  0  0  0  0  0  0  0  0  0
    1.2167    0.9333    0.0000 C   0  0  0  0  0  0  0  0  0  0  0  0
   -3.0458    0.2458    0.0000 C   0  0  0  0  0  0  0  0  0  0  0  0
   -1.7708   -1.5125    0.0000 C   0  0  0  0  0  0  0  0  0  0  0  0
    2.0250    1.5208    0.0000 C   0  0  0  0  0  0  0  0  0  0  0  0
    1.3167   -0.0667    0.0000 C   0  0  0  0  0  0  0  0  0  0  0  0
    2.2292   -0.4667    0.0000 C   0  0  0  0  0  0  0  0  0  0  0  0
    2.9375    1.1083    0.0000 C   0  0  0  0  0  0  0  0  0  0  0  0
    3.0417    0.1208    0.0000 C   0  0  0  0  0  0  0  0  0  0  0  0
  2  1  2  0  0  0  0
  3  2  1  0  0  0  0
  4  1  1  0  0  0  0
  5  4  1  0  0  0  0
  5  3  2  0  0  0  0
  6  2  1  0  0  0  0
  7  6  1  0  0  0  0
  8  4  1  0  0  0  0
  9  5  1  0  0  0  0
 10  7  2  0  0  0  0
 11  7  1  0  0  0  0
 12 11  2  0  0  0  0
 13 10  1  0  0  0  0
 13 14  2  0  0  0  0
 14 12  1  0  0  0  0
M  END
>  <idnumber>
T0509-1271

>  <LogP>
2.481000000000000e+000

>  <rotating_bonds>
2.000000000000000e+000

>  <hb_acceptors>
2.000000000000000e+000

>  <hb_donors>
1.000000000000000e+000

>  <PSA>
2.985000000000000e+001

>  <clusterid>
165

>  <is_centroid>
@

>  <class1>
625

>  <class2>
631

>  <population1>
877209

>  <population2>
41612

>  <population>
39300

>  <cansmi>
Cn1nc(cc1C)Nc1ccccc1

>  <HBA2>
2

>  <HBD>
1

>  <logP>
2.5451

>  <TPSA>
29.85

>  <MW>
187.241

$$$$

 OpenBabel02121609142D

 14 15  0  0  0  0  0  0  0  0999 V2000
   -0.0583    1.4708    0.0000 C   0  0  0  0  0  0  0  0  0  0  0  0
    0.9000    1.7750    0.0000 N   0  0  0  0  0  0  0  0  0  0  0  0
   -0.3625    0.5208    0.0000 N   0  0  0  0  0  0  0  0  0  0  0  0
   -0.6458    2.2750    0.0000 S   0  0  0  0  0  0  0  0  0  0  0  0
    0.3042   -0.2292    0.0000 C   0  0  3  0  0  0  0  0  0  0  0  0
    0.0000   -1.1792    0.0000 C   0  0  0  0  0  0  0  0  0  0  0  0
    0.9000    2.7750    0.0000 C   0  0  0  0  0  0  0  0  0  0  0  0
   -0.0583    3.0833    0.0000 C   0  0  0  0  0  0  0  0  0  0  0  0
    1.2792   -0.0167    0.0000 C   0  0  0  0  0  0  0  0  0  0  0  0
   -0.9833   -1.3875    0.0000 C   0  0  0  0  0  0  0  0  0  0  0  0
    0.6667   -1.9167    0.0000 C   0  0  0  0  0  0  0  0  0  0  0  0
    0.3542   -2.8667    0.0000 C   0  0  0  0  0  0  0  0  0  0  0  0
   -1.2875   -2.3375    0.0000 C   0  0  0  0  0  0  0  0  0  0  0  0
   -0.6208   -3.0792    0.0000 C   0  0  0  0  0  0  0  0  0  0  0  0
  2  1  2  0  0  0  0
  3  1  1  0  0  0  0
  4  1  1  0  0  0  0
  5  3  1  0  0  0  0
  6  5  1  0  0  0  0
  7  2  1  0  0  0  0
  7  8  1  0  0  0  0
  8  4  1  0  0  0  0
  9  5  1  0  0  0  0
 10  6  1  0  0  0  0
 11  6  2  0  0  0  0
 12 11  1  0  0  0  0
 13 10  2  0  0  0  0
 13 14  1  0  0  0  0
 14 12  2  0  0  0  0
M  END
>  <idnumber>
T0509-1345

>  <LogP>
2.381000000000000e+000

>  <rotating_bonds>
2.000000000000000e+000

>  <hb_acceptors>
3.000000000000000e+000

>  <hb_donors>
1.000000000000000e+000

>  <PSA>
4.969000000000001e+001

>  <clusterid>
166

>  <is_centroid>
@

>  <class1>
625

>  <class2>
850

>  <population1>
877209

>  <population2>
2137

>  <population>
1938

>  <cansmi>
CC(c1ccccc1)NC1=NCCS1

>  <HBA2>
3

>  <HBD>
1

>  <logP>
2.2665

>  <TPSA>
49.69

>  <MW>
206.307

$$$$

 OpenBabel02121609142D

 20 22  0  0  0  0  0  0  0  0999 V2000
   -0.8250    1.8250    0.0000 N   0  0  0  0  0  0  0  0  0  0  0  0
    0.1292    1.5208    0.0000 C   0  0  0  0  0  0  0  0  0  0  0  0
    0.7167    2.3333    0.0000 N   0  0  0  0  0  0  0  0  0  0  0  0
    0.1292    3.1333    0.0000 N   0  0  0  0  0  0  0  0  0  0  0  0
   -0.8250    2.8333    0.0000 C   0  0  0  0  0  0  0  0  0  0  0  0
    1.3625   -2.2875    0.0000 C   0  0  0  0  0  0  0  0  0  0  0  0
    0.4375    0.5708    0.0000 C   0  0  0  0  0  0  0  0  0  0  0  0
    2.3417   -2.4917    0.0000 C   0  0  0  0  0  0  0  0  0  0  0  0
    1.0542   -1.3375    0.0000 C   0  0  0  0  0  0  0  0  0  0  0  0
    1.4125    0.3583    0.0000 O   0  0  0  0  0  0  0  0  0  0  0  0
    3.0125   -1.7500    0.0000 C   0  0  0  0  0  0  0  0  0  0  0  0
    1.7250   -0.5917    0.0000 C   0  0  0  0  0  0  0  0  0  0  0  0
   -1.6083    1.2083    0.0000 C   0  0  0  0  0  0  0  0  0  0  0  0
    2.7000   -0.8000    0.0000 C   0  0  0  0  0  0  0  0  0  0  0  0
   -1.6083    3.4583    0.0000 C   0  0  0  0  0  0  0  0  0  0  0  0
    0.6917   -3.0292    0.0000 C   0  0  0  0  0  0  0  0  0  0  0  0
    2.6500   -3.4417    0.0000 C   0  0  0  0  0  0  0  0  0  0  0  0
   -2.5833    1.4250    0.0000 C   0  0  0  0  0  0  0  0  0  0  0  0
   -2.5833    3.2333    0.0000 C   0  0  0  0  0  0  0  0  0  0  0  0
   -3.0208    2.3333    0.0000 C   0  0  0  0  0  0  0  0  0  0  0  0
  2  1  1  0  0  0  0
  3  2  2  0  0  0  0
  3  4  1  0  0  0  0
  4  5  2  0  0  0  0
  5  1  1  0  0  0  0
  6  9  1  0  0  0  0
  6  8  2  0  0  0  0
  7  2  1  0  0  0  0
  8 11  1  0  0  0  0
  9 12  2  0  0  0  0
 10  7  1  0  0  0  0
 11 14  2  0  0  0  0
 12 10  1  0  0  0  0
 13  1  1  0  0  0  0
 14 12  1  0  0  0  0
 15  5  1  0  0  0  0
 16  6  1  0  0  0  0
 17  8  1  0  0  0  0
 18 13  1  0  0  0  0
 19 15  1  0  0  0  0
 19 20  1  0  0  0  0
 20 18  1  0  0  0  0
M  END
>  <idnumber>
T0509-3503

>  <LogP>
2.806000000000000e+000

>  <rotating_bonds>
3.000000000000000e+000

>  <hb_acceptors>
3.000000000000000e+000

>  <hb_donors>
0.000000000000000e+000

>  <PSA>
3.994000000000000e+001

>  <clusterid>
167

>  <is_centroid>
@

>  <class1>
625

>  <class2>
757

>  <population1>
877209

>  <population2>
2963

>  <population>
2685

>  <cansmi>
Cc1cc(ccc1C)OCc1nnc2n1CCCCC2

>  <HBA2>
4

>  <HBD>
0

>  <logP>
3.2003

>  <TPSA>
39.94

>  <MW>
271.357

$$$$

 OpenBabel02121609142D

 22 24  0  0  0  0  0  0  0  0999 V2000
   -0.4583    0.5250    0.0000 C   0  0  0  0  0  0  0  0  0  0  0  0
   -0.1458   -0.4250    0.0000 C   0  0  0  0  0  0  0  0  0  0  0  0
    0.1292    1.3333    0.0000 C   0  0  0  0  0  0  0  0  0  0  0  0
   -1.4083    0.8333    0.0000 N   0  0  0  0  0  0  0  0  0  0  0  0
   -0.4583    2.1458    0.0000 C   0  0  0  0  0  0  0  0  0  0  0  0
   -1.4083    1.8333    0.0000 C   0  0  0  0  0  0  0  0  0  0  0  0
    0.8292   -0.6292    0.0000 C   0  0  0  0  0  0  0  0  0  0  0  0
   -0.8125   -1.1667    0.0000 O   0  0  0  0  0  0  0  0  0  0  0  0
   -2.2708    0.3333    0.0000 C   0  0  0  0  0  0  0  0  0  0  0  0
    1.1417   -1.5875    0.0000 N   0  0  0  0  0  0  0  0  0  0  0  0
    1.1292    1.3333    0.0000 C   0  0  0  0  0  0  0  0  0  0  0  0
   -2.2708    2.3333    0.0000 C   0  0  0  0  0  0  0  0  0  0  0  0
    1.5000    0.1083    0.0000 O   0  0  0  0  0  0  0  0  0  0  0  0
   -3.1375    0.8333    0.0000 C   0  0  0  0  0  0  0  0  0  0  0  0
   -3.1375    1.8333    0.0000 C   0  0  0  0  0  0  0  0  0  0  0  0
    0.4667   -2.3292    0.0000 C   0  0  0  0  0  0  0  0  0  0  0  0
    2.1167   -1.7917    0.0000 C   0  0  0  0  0  0  0  0  0  0  0  0
    1.6292    0.4708    0.0000 C   0  0  0  0  0  0  0  0  0  0  0  0
    1.6292    2.2083    0.0000 C   0  0  0  0  0  0  0  0  0  0  0  0
    2.6292    2.2083    0.0000 C   0  0  0  0  0  0  0  0  0  0  0  0
    2.6292    0.4708    0.0000 C   0  0  0  0  0  0  0  0  0  0  0  0
    3.1292    1.3333    0.0000 C   0  0  0  0  0  0  0  0  0  0  0  0
  2  1  1  0  0  0  0
  3  1  2  0  0  0  0
  4  1  1  0  0  0  0
  5  3  1  0  0  0  0
  5  6  2  0  0  0  0
  6  4  1  0  0  0  0
  7  2  1  0  0  0  0
  8  2  2  0  0  0  0
  9  4  1  0  0  0  0
 10  7  1  0  0  0  0
 11  3  1  0  0  0  0
 12  6  1  0  0  0  0
 12 15  2  0  0  0  0
 13  7  2  0  0  0  0
 14  9  2  0  0  0  0
 15 14  1  0  0  0  0
 16 10  1  0  0  0  0
 17 10  1  0  0  0  0
 18 11  1  0  0  0  0
 19 11  2  0  0  0  0
 20 19  1  0  0  0  0
 21 18  2  0  0  0  0
 21 22  1  0  0  0  0
 22 20  2  0  0  0  0
M  END
>  <idnumber>
T0509-3671

>  <LogP>
2.589000000000000e+000

>  <rotating_bonds>
3.000000000000000e+000

>  <hb_acceptors>
3.000000000000000e+000

>  <hb_donors>
0.000000000000000e+000

>  <PSA>
4.179000000000001e+001

>  <clusterid>
-234

>  <is_centroid>
@

>  <class1>
913

>  <class2>
625

>  <population1>
744

>  <population2>
877209

>  <population>
650

>  <cansmi>
CN(C(=O)C(=O)c1c(cc2n1cccc2)c1ccccc1)C

>  <HBA2>
4

>  <HBD>
0

>  <logP>
2.8772

>  <TPSA>
41.79

>  <MW>
292.332

$$$$

 OpenBabel02121609142D

 18 20  0  0  0  0  0  0  0  0999 V2000
    0.5417    0.7958    0.0000 C   0  0  0  0  0  0  0  0  0  0  0  0
    1.1292    1.6000    0.0000 C   0  0  0  0  0  0  0  0  0  0  0  0
    0.5417    2.4083    0.0000 N   0  0  0  0  0  0  0  0  0  0  0  0
   -0.4083    1.1000    0.0000 C   0  0  0  0  0  0  0  0  0  0  0  0
   -0.4083    2.1000    0.0000 C   0  0  0  0  0  0  0  0  0  0  0  0
    0.8542   -0.1542    0.0000 C   0  0  3  0  0  0  0  0  0  0  0  0
    0.1875   -0.9042    0.0000 C   0  0  0  0  0  0  0  0  0  0  0  0
    0.4917   -1.8542    0.0000 N   0  0  0  0  0  0  0  0  0  0  0  0
    1.8292   -0.3667    0.0000 O   0  0  0  0  0  0  0  0  0  0  0  0
    2.1292    1.6000    0.0000 C   0  0  0  0  0  0  0  0  0  0  0  0
   -1.2708    0.6000    0.0000 C   0  0  0  0  0  0  0  0  0  0  0  0
   -1.2708    2.6000    0.0000 C   0  0  0  0  0  0  0  0  0  0  0  0
   -0.1750   -2.5917    0.0000 C   0  0  0  0  0  0  0  0  0  0  0  0
   -0.7958   -0.6917    0.0000 C   0  0  0  0  0  0  0  0  0  0  0  0
   -2.1375    1.1000    0.0000 C   0  0  0  0  0  0  0  0  0  0  0  0
   -2.1375    2.1000    0.0000 C   0  0  0  0  0  0  0  0  0  0  0  0
   -1.1583   -2.3875    0.0000 C   0  0  0  0  0  0  0  0  0  0  0  0
   -1.4625   -1.4375    0.0000 C   0  0  0  0  0  0  0  0  0  0  0  0
  2  1  2  0  0  0  0
  3  2  1  0  0  0  0
  3  5  1  0  0  0  0
  4  1  1  0  0  0  0
  5  4  2  0  0  0  0
  6  1  1  0  0  0  0
  7  6  1  0  0  0  0
  8  7  2  0  0  0  0
  9  6  1  0  0  0  0
 10  2  1  0  0  0  0
 11  4  1  0  0  0  0
 12  5  1  0  0  0  0
 12 16  2  0  0  0  0
 13  8  1  0  0  0  0
 13 17  2  0  0  0  0
 14  7  1  0  0  0  0
 15 11  2  0  0  0  0
 16 15  1  0  0  0  0
 17 18  1  0  0  0  0
 18 14  2  0  0  0  0
M  END
>  <idnumber>
T0509-3986

>  <LogP>
1.394000000000000e+000

>  <rotating_bonds>
2.000000000000000e+000

>  <hb_acceptors>
2.000000000000000e+000

>  <hb_donors>
2.000000000000000e+000

>  <PSA>
4.891000000000000e+001

>  <clusterid>
169

>  <is_centroid>
@

>  <class1>
748

>  <class2>
632

>  <population1>
15713

>  <population2>
79489

>  <population>
785

>  <cansmi>
Cc1[nH]c2c(c1C(c1ccccn1)O)cccc2

>  <HBA2>
2

>  <HBD>
2

>  <logP>
2.953

>  <TPSA>
48.91

>  <MW>
238.284

$$$$

 OpenBabel02121609142D

 15 16  0  0  0  0  0  0  0  0999 V2000
    0.4292   -1.7500    0.0000 C   0  0  0  0  0  0  0  0  0  0  0  0
    0.4292   -2.7500    0.0000 N   0  0  0  0  0  0  0  0  0  0  0  0
    1.2917   -1.2500    0.0000 S   0  0  0  0  0  0  0  0  0  0  0  0
   -0.4333   -1.2500    0.0000 N   0  0  0  0  0  0  0  0  0  0  0  0
    1.2917   -3.2500    0.0000 C   0  0  0  0  0  0  0  0  0  0  0  0
   -0.4333   -0.2500    0.0000 C   0  0  0  0  0  0  0  0  0  0  0  0
    2.1625   -2.7500    0.0000 C   0  0  0  0  0  0  0  0  0  0  0  0
    2.1625   -1.7500    0.0000 C   0  0  0  0  0  0  0  0  0  0  0  0
   -1.3000    1.2500    0.0000 C   0  0  0  0  0  0  0  0  0  0  0  0
   -1.3000    0.2500    0.0000 C   0  0  0  0  0  0  0  0  0  0  0  0
   -2.1708    1.7500    0.0000 C   0  0  0  0  0  0  0  0  0  0  0  0
   -0.4333    1.7500    0.0000 C   0  0  0  0  0  0  0  0  0  0  0  0
   -0.4333    2.7500    0.0000 C   0  0  0  0  0  0  0  0  0  0  0  0
   -2.1708    2.7500    0.0000 C   0  0  0  0  0  0  0  0  0  0  0  0
   -1.3000    3.2500    0.0000 C   0  0  0  0  0  0  0  0  0  0  0  0
  2  1  2  0  0  0  0
  3  1  1  0  0  0  0
  4  1  1  0  0  0  0
  5  2  1  0  0  0  0
  5  7  1  0  0  0  0
  6  4  1  0  0  0  0
  7  8  1  0  0  0  0
  8  3  1  0  0  0  0
  9 10  1  0  0  0  0
 10  6  1  0  0  0  0
 11  9  2  0  0  0  0
 12  9  1  0  0  0  0
 13 12  2  0  0  0  0
 14 11  1  0  0  0  0
 14 15  2  0  0  0  0
 15 13  1  0  0  0  0
M  END
>  <idnumber>
T0509-6650

>  <LogP>
1.709000000000000e+000

>  <rotating_bonds>
3.000000000000000e+000

>  <hb_acceptors>
3.000000000000000e+000

>  <hb_donors>
1.000000000000000e+000

>  <PSA>
4.969000000000001e+001

>  <clusterid>
-236

>  <is_centroid>
@

>  <class1>
625

>  <class2>
849

>  <population1>
877209

>  <population2>
101

>  <population>
95

>  <cansmi>
c1ccc(cc1)CCNC1=NCCCS1

>  <HBA2>
3

>  <HBD>
1

>  <logP>
2.1381

>  <TPSA>
49.69

>  <MW>
220.334

$$$$

 OpenBabel02121609142D

 18 20  0  0  0  0  0  0  0  0999 V2000
    0.5417    0.7958    0.0000 C   0  0  0  0  0  0  0  0  0  0  0  0
   -0.4083    1.1000    0.0000 N   0  0  0  0  0  0  0  0  0  0  0  0
    0.5417    2.4083    0.0000 N   0  0  0  0  0  0  0  0  0  0  0  0
    1.1292    1.6000    0.0000 C   0  0  0  0  0  0  0  0  0  0  0  0
   -0.4083    2.1000    0.0000 C   0  0  0  0  0  0  0  0  0  0  0  0
    0.8542   -0.1542    0.0000 C   0  0  0  0  0  0  0  0  0  0  0  0
   -1.2708    0.6000    0.0000 C   0  0  0  0  0  0  0  0  0  0  0  0
   -1.2708    2.6000    0.0000 C   0  0  0  0  0  0  0  0  0  0  0  0
    1.8292   -0.3667    0.0000 O   0  0  0  0  0  0  0  0  0  0  0  0
    0.1875   -0.9042    0.0000 C   0  0  0  0  0  0  0  0  0  0  0  0
   -2.1375    1.1000    0.0000 C   0  0  0  0  0  0  0  0  0  0  0  0
   -2.1375    2.1000    0.0000 C   0  0  0  0  0  0  0  0  0  0  0  0
    2.1292    1.6000    0.0000 C   0  0  0  0  0  0  0  0  0  0  0  0
   -0.7958   -0.6917    0.0000 C   0  0  0  0  0  0  0  0  0  0  0  0
    0.4917   -1.8542    0.0000 C   0  0  0  0  0  0  0  0  0  0  0  0
   -0.1750   -2.5917    0.0000 C   0  0  0  0  0  0  0  0  0  0  0  0
   -1.4625   -1.4375    0.0000 C   0  0  0  0  0  0  0  0  0  0  0  0
   -1.1583   -2.3875    0.0000 C   0  0  0  0  0  0  0  0  0  0  0  0
  2  1  1  0  0  0  0
  3  4  1  0  0  0  0
  3  5  2  0  0  0  0
  4  1  2  0  0  0  0
  5  2  1  0  0  0  0
  6  1  1  0  0  0  0
  7  2  1  0  0  0  0
  8  5  1  0  0  0  0
  8 12  2  0  0  0  0
  9  6  2  0  0  0  0
 10  6  1  0  0  0  0
 11  7  2  0  0  0  0
 12 11  1  0  0  0  0
 13  4  1  0  0  0  0
 14 10  1  0  0  0  0
 15 10  2  0  0  0  0
 16 15  1  0  0  0  0
 17 14  2  0  0  0  0
 17 18  1  0  0  0  0
 18 16  2  0  0  0  0
M  END
>  <idnumber>
T0509-6713

>  <LogP>
2.857000000000000e+000

>  <rotating_bonds>
2.000000000000000e+000

>  <hb_acceptors>
3.000000000000000e+000

>  <hb_donors>
0.000000000000000e+000

>  <PSA>
3.437000000000000e+001

>  <clusterid>
-237

>  <is_centroid>
@

>  <class1>
625

>  <class2>
660

>  <population1>
877209

>  <population2>
3949

>  <population>
3187

>  <cansmi>
Cc1nc2n(c1C(=O)c1ccccc1)cccc2

>  <HBA2>
3

>  <HBD>
0

>  <logP>
2.8737

>  <TPSA>
34.37

>  <MW>
236.269

$$$$

 OpenBabel02121609142D

 15 16  0  0  0  0  0  0  0  0999 V2000
    0.4042    1.9583    0.0000 S   0  0  0  0  0  0  0  0  0  0  0  0
    0.4042    0.9500    0.0000 C   0  0  0  0  0  0  0  0  0  0  0  0
   -0.5458    2.2583    0.0000 C   0  0  0  0  0  0  0  0  0  0  0  0
   -1.1333    1.4500    0.0000 C   0  0  0  0  0  0  0  0  0  0  0  0
   -0.8500   -0.3042    0.0000 N   0  0  0  0  0  0  0  0  0  0  0  0
   -0.5458    0.6458    0.0000 C   0  0  3  0  0  0  0  0  0  0  0  0
    1.0042    2.7500    0.0000 O   0  0  0  0  0  0  0  0  0  0  0  0
    1.3542    2.2708    0.0000 O   0  0  0  0  0  0  0  0  0  0  0  0
   -0.1833   -1.0542    0.0000 C   0  0  0  0  0  0  0  0  0  0  0  0
   -0.4958   -2.0042    0.0000 C   0  0  0  0  0  0  0  0  0  0  0  0
    0.7917   -0.8417    0.0000 C   0  0  0  0  0  0  0  0  0  0  0  0
   -1.4708   -2.2125    0.0000 C   0  0  0  0  0  0  0  0  0  0  0  0
    0.1792   -2.7417    0.0000 C   0  0  0  0  0  0  0  0  0  0  0  0
    1.4667   -1.5875    0.0000 C   0  0  0  0  0  0  0  0  0  0  0  0
    1.1542   -2.5375    0.0000 C   0  0  0  0  0  0  0  0  0  0  0  0
  2  1  1  0  0  0  0
  3  1  1  0  0  0  0
  4  3  2  0  0  0  0
  5  6  1  0  0  0  0
  6  2  1  0  0  0  0
  6  4  1  0  0  0  0
  7  1  2  0  0  0  0
  8  1  2  0  0  0  0
  9  5  1  0  0  0  0
 10  9  2  0  0  0  0
 11  9  1  0  0  0  0
 12 10  1  0  0  0  0
 13 10  1  0  0  0  0
 13 15  2  0  0  0  0
 14 11  2  0  0  0  0
 15 14  1  0  0  0  0
M  END
>  <idnumber>
T0509-8993

>  <LogP>
8.140000000000001e-001

>  <rotating_bonds>
2.000000000000000e+000

>  <hb_acceptors>
3.000000000000000e+000

>  <hb_donors>
1.000000000000000e+000

>  <PSA>
5.455000000000000e+001

>  <clusterid>
174

>  <is_centroid>
@

>  <class1>
625

>  <class2>
872

>  <population1>
877209

>  <population2>
295

>  <population>
263

>  <cansmi>
Cc1ccccc1NC1C=CS(=O)(=O)C1

>  <HBA2>
3

>  <HBD>
1

>  <logP>
2.8714

>  <TPSA>
54.55

>  <MW>
223.291

$$$$

 OpenBabel02121609142D

 20 21  0  0  0  0  0  0  0  0999 V2000
   -2.9833   -0.1375    0.0000 N   0  0  0  0  0  0  0  0  0  0  0  0
   -2.9833    0.8625    0.0000 C   0  0  0  0  0  0  0  0  0  0  0  0
   -2.1125   -0.6375    0.0000 C   0  0  0  0  0  0  0  0  0  0  0  0
    0.4875    0.8625    0.0000 C   0  0  0  0  0  0  0  0  0  0  0  0
   -1.2458    0.8625    0.0000 C   0  0  0  0  0  0  0  0  0  0  0  0
   -0.3833    1.3625    0.0000 N   0  0  0  0  0  0  0  0  0  0  0  0
   -1.2458   -0.1375    0.0000 C   0  0  0  0  0  0  0  0  0  0  0  0
   -2.1125    1.3625    0.0000 C   0  0  0  0  0  0  0  0  0  0  0  0
    0.4875   -0.1375    0.0000 O   0  0  0  0  0  0  0  0  0  0  0  0
    1.3500    1.3625    0.0000 C   0  0  0  0  0  0  0  0  0  0  0  0
    2.2167    0.8625    0.0000 C   0  0  0  0  0  0  0  0  0  0  0  0
   -3.9583    1.0833    0.0000 C   0  0  0  0  0  0  0  0  0  0  0  0
   -3.6583    1.5958    0.0000 C   0  0  0  0  0  0  0  0  0  0  0  0
   -1.8208   -1.5917    0.0000 C   0  0  0  0  0  0  0  0  0  0  0  0
   -2.4083   -1.5917    0.0000 C   0  0  0  0  0  0  0  0  0  0  0  0
    2.2167   -0.1375    0.0000 C   0  0  0  0  0  0  0  0  0  0  0  0
    3.0792    1.3625    0.0000 C   0  0  0  0  0  0  0  0  0  0  0  0
    3.9500    0.8625    0.0000 C   0  0  0  0  0  0  0  0  0  0  0  0
    3.0792   -0.6375    0.0000 C   0  0  0  0  0  0  0  0  0  0  0  0
    3.9500   -0.1375    0.0000 C   0  0  0  0  0  0  0  0  0  0  0  0
  2  1  1  0  0  0  0
  3  1  1  0  0  0  0
  4  6  1  0  0  0  0
  5  7  1  0  0  0  0
  5  8  1  0  0  0  0
  6  5  1  0  0  0  0
  7  3  1  0  0  0  0
  8  2  1  0  0  0  0
  9  4  2  0  0  0  0
 10  4  1  0  0  0  0
 11 10  1  0  0  0  0
 12  2  1  0  0  0  0
 13  2  1  0  0  0  0
 14  3  1  0  0  0  0
 15  3  1  0  0  0  0
 16 11  1  0  0  0  0
 17 11  2  0  0  0  0
 18 17  1  0  0  0  0
 19 16  2  0  0  0  0
 19 20  1  0  0  0  0
 20 18  2  0  0  0  0
M  END
>  <idnumber>
T0510-0890

>  <LogP>
2.378000000000000e+000

>  <rotating_bonds>
3.000000000000000e+000

>  <hb_acceptors>
2.000000000000000e+000

>  <hb_donors>
2.000000000000000e+000

>  <PSA>
4.113000000000000e+001

>  <clusterid>
175

>  <is_centroid>
@

>  <class1>
625

>  <class2>
639

>  <population1>
877209

>  <population2>
59855

>  <population>
54917

>  <cansmi>
O=C(Cc1ccccc1)NC1CC(C)(C)NC(C1)(C)C

>  <HBA2>
3

>  <HBD>
2

>  <logP>
3.3742

>  <TPSA>
41.13

>  <MW>
274.401

$$$$

 OpenBabel02121609142D

 19 21  0  0  0  0  0  0  0  0999 V2000
   -1.6750    1.0500    0.0000 C   0  0  0  0  0  0  0  0  0  0  0  0
   -1.0083    0.3083    0.0000 N   0  0  0  0  0  0  0  0  0  0  0  0
    0.3292   -1.1792    0.0000 N   0  0  0  0  0  0  0  0  0  0  0  0
   -1.3708    2.0000    0.0000 C   0  0  0  0  0  0  0  0  0  0  0  0
   -1.9583    2.8125    0.0000 S   0  0  0  0  0  0  0  0  0  0  0  0
   -1.3208   -0.6417    0.0000 C   0  0  0  0  0  0  0  0  0  0  0  0
   -0.0333    0.5208    0.0000 C   0  0  0  0  0  0  0  0  0  0  0  0
    0.6417   -0.2292    0.0000 C   0  0  0  0  0  0  0  0  0  0  0  0
   -0.6458   -1.3875    0.0000 C   0  0  0  0  0  0  0  0  0  0  0  0
   -2.6583    0.8458    0.0000 O   0  0  0  0  0  0  0  0  0  0  0  0
   -0.4208    2.3125    0.0000 C   0  0  0  0  0  0  0  0  0  0  0  0
    1.0000   -1.9167    0.0000 C   0  0  0  0  0  0  0  0  0  0  0  0
   -1.3708    3.6208    0.0000 C   0  0  0  0  0  0  0  0  0  0  0  0
   -0.4208    3.3125    0.0000 C   0  0  0  0  0  0  0  0  0  0  0  0
    1.9792   -1.7125    0.0000 C   0  0  0  0  0  0  0  0  0  0  0  0
    0.6917   -2.8667    0.0000 C   0  0  0  0  0  0  0  0  0  0  0  0
    1.3625   -3.6167    0.0000 C   0  0  0  0  0  0  0  0  0  0  0  0
    2.6500   -2.4542    0.0000 C   0  0  0  0  0  0  0  0  0  0  0  0
    2.3417   -3.4042    0.0000 C   0  0  0  0  0  0  0  0  0  0  0  0
  2  1  1  0  0  0  0
  3  8  1  0  0  0  0
  4  1  1  0  0  0  0
  5  4  1  0  0  0  0
  6  2  1  0  0  0  0
  7  2  1  0  0  0  0
  8  7  1  0  0  0  0
  9  6  1  0  0  0  0
  9  3  1  0  0  0  0
 10  1  2  0  0  0  0
 11  4  2  0  0  0  0
 12  3  1  0  0  0  0
 13  5  1  0  0  0  0
 14 11  1  0  0  0  0
 14 13  2  0  0  0  0
 15 12  2  0  0  0  0
 16 12  1  0  0  0  0
 17 16  2  0  0  0  0
 18 15  1  0  0  0  0
 18 19  2  0  0  0  0
 19 17  1  0  0  0  0
M  END
>  <idnumber>
T0510-0893

>  <LogP>
1.722000000000000e+000

>  <rotating_bonds>
2.000000000000000e+000

>  <hb_acceptors>
3.000000000000000e+000

>  <hb_donors>
0.000000000000000e+000

>  <PSA>
5.179000000000001e+001

>  <clusterid>
176

>  <is_centroid>
@

>  <class1>
717

>  <class2>
625

>  <class3>
645

>  <population1>
74368

>  <population2>
877209

>  <population3>
105961

>  <population>
7108

>  <cansmi>
O=C(c1cccs1)N1CCN(CC1)c1ccccc1

>  <HBA2>
4

>  <HBD>
0

>  <logP>
2.7134

>  <TPSA>
51.79

>  <MW>
272.365

$$$$

 OpenBabel02121609142D

 19 21  0  0  0  0  0  0  0  0999 V2000
    2.1625   -1.4792    0.0000 N   0  0  0  0  0  0  0  0  0  0  0  0
    2.1625   -0.4792    0.0000 C   0  0  0  0  0  0  0  0  0  0  0  0
   -1.3000    1.5208    0.0000 C   0  0  0  0  0  0  0  0  0  0  0  0
    1.2917    0.0208    0.0000 C   0  0  0  0  0  0  0  0  0  0  0  0
    3.0292    0.0208    0.0000 O   0  0  0  0  0  0  0  0  0  0  0  0
   -0.4333    1.0208    0.0000 C   0  0  0  0  0  0  0  0  0  0  0  0
   -1.3000    2.5208    0.0000 C   0  0  0  0  0  0  0  0  0  0  0  0
    1.2917    1.0208    0.0000 O   0  0  0  0  0  0  0  0  0  0  0  0
   -0.4333    3.0208    0.0000 C   0  0  0  0  0  0  0  0  0  0  0  0
    0.4292    1.5208    0.0000 C   0  0  0  0  0  0  0  0  0  0  0  0
    0.4292    2.5208    0.0000 C   0  0  0  0  0  0  0  0  0  0  0  0
    1.3542   -2.0667    0.0000 C   0  0  0  0  0  0  0  0  0  0  0  0
    2.9667   -2.0667    0.0000 C   0  0  0  0  0  0  0  0  0  0  0  0
   -2.1708    1.0208    0.0000 C   0  0  0  0  0  0  0  0  0  0  0  0
   -2.1708    3.0208    0.0000 C   0  0  0  0  0  0  0  0  0  0  0  0
    2.6625   -3.0167    0.0000 C   0  0  0  0  0  0  0  0  0  0  0  0
    1.6625   -3.0167    0.0000 C   0  0  0  0  0  0  0  0  0  0  0  0
   -3.0333    1.5208    0.0000 C   0  0  0  0  0  0  0  0  0  0  0  0
   -3.0333    2.5208    0.0000 C   0  0  0  0  0  0  0  0  0  0  0  0
  2  1  1  0  0  0  0
  3  6  1  0  0  0  0
  3  7  2  0  0  0  0
  4  2  1  0  0  0  0
  5  2  2  0  0  0  0
  6 10  2  0  0  0  0
  7  9  1  0  0  0  0
  8  4  1  0  0  0  0
  9 11  2  0  0  0  0
 10  8  1  0  0  0  0
 11 10  1  0  0  0  0
 12  1  1  0  0  0  0
 13  1  1  0  0  0  0
 14  3  1  0  0  0  0
 15  7  1  0  0  0  0
 16 13  1  0  0  0  0
 17 12  1  0  0  0  0
 17 16  1  0  0  0  0
 18 14  2  0  0  0  0
 19 15  2  0  0  0  0
 19 18  1  0  0  0  0
M  END
>  <idnumber>
T0510-0942

>  <LogP>
2.781000000000000e+000

>  <rotating_bonds>
3.000000000000000e+000

>  <hb_acceptors>
2.000000000000000e+000

>  <hb_donors>
0.000000000000000e+000

>  <PSA>
2.954000000000000e+001

>  <clusterid>
-238

>  <is_centroid>
@

>  <class1>
796

>  <class2>
642

>  <population1>
21922

>  <population2>
51183

>  <population>
768

>  <cansmi>
O=C(N1CCCC1)COc1ccc2c(c1)cccc2

>  <HBA2>
3

>  <HBD>
0

>  <logP>
2.7789

>  <TPSA>
29.54

>  <MW>
255.312

$$$$

 OpenBabel02121609142D

 18 20  0  0  0  0  0  0  0  0999 V2000
    0.4292    0.2500    0.0000 N   0  0  0  0  0  0  0  0  0  0  0  0
   -0.4333   -0.2500    0.0000 C   0  0  0  0  0  0  0  0  0  0  0  0
    0.4292    1.2500    0.0000 C   0  0  0  0  0  0  0  0  0  0  0  0
   -0.4333    1.7500    0.0000 N   0  0  0  0  0  0  0  0  0  0  0  0
   -1.3000    0.2500    0.0000 C   0  0  0  0  0  0  0  0  0  0  0  0
   -1.3000    1.2500    0.0000 C   0  0  0  0  0  0  0  0  0  0  0  0
    1.2917   -0.2500    0.0000 C   0  0  0  0  0  0  0  0  0  0  0  0
   -0.4333   -1.2500    0.0000 O   0  0  0  0  0  0  0  0  0  0  0  0
    3.0292   -1.2500    0.0000 N   0  0  0  0  0  0  0  0  0  0  0  0
    1.2917    1.7500    0.0000 C   0  0  0  0  0  0  0  0  0  0  0  0
   -2.1708   -0.2500    0.0000 C   0  0  0  0  0  0  0  0  0  0  0  0
    1.2917   -1.2500    0.0000 C   0  0  0  0  0  0  0  0  0  0  0  0
    2.1625    0.2500    0.0000 C   0  0  0  0  0  0  0  0  0  0  0  0
   -2.1708    1.7500    0.0000 C   0  0  0  0  0  0  0  0  0  0  0  0
    3.0292   -0.2500    0.0000 C   0  0  0  0  0  0  0  0  0  0  0  0
    2.1625   -1.7500    0.0000 C   0  0  0  0  0  0  0  0  0  0  0  0
   -3.0333    0.2500    0.0000 C   0  0  0  0  0  0  0  0  0  0  0  0
   -3.0333    1.2500    0.0000 C   0  0  0  0  0  0  0  0  0  0  0  0
  2  1  1  0  0  0  0
  3  1  1  0  0  0  0
  4  3  2  0  0  0  0
  5  2  1  0  0  0  0
  6  4  1  0  0  0  0
  6  5  2  0  0  0  0
  7  1  1  0  0  0  0
  8  2  2  0  0  0  0
  9 15  2  0  0  0  0
 10  3  1  0  0  0  0
 11  5  1  0  0  0  0
 12  7  1  0  0  0  0
 13  7  2  0  0  0  0
 14  6  1  0  0  0  0
 15 13  1  0  0  0  0
 16 12  2  0  0  0  0
 16  9  1  0  0  0  0
 17 11  2  0  0  0  0
 18 14  2  0  0  0  0
 18 17  1  0  0  0  0
M  END
>  <idnumber>
T0510-0968

>  <LogP>
1.133000000000000e+000

>  <rotating_bonds>
1.000000000000000e+000

>  <hb_acceptors>
3.000000000000000e+000

>  <hb_donors>
0.000000000000000e+000

>  <PSA>
4.556000000000000e+001

>  <clusterid>
-239

>  <is_centroid>
@

>  <class1>
648

>  <class2>
632

>  <population1>
19152

>  <population2>
79489

>  <population>
744

>  <cansmi>
Cc1nc2ccccc2c(=O)n1c1ccncc1

>  <HBA2>
4

>  <HBD>
0

>  <logP>
2.0891

>  <TPSA>
47.78

>  <MW>
237.257

$$$$

 OpenBabel02121609142D

 17 17  0  0  0  0  0  0  0  0999 V2000
   -0.1083   -0.0667    0.0000 C   0  0  0  0  0  0  0  0  0  0  0  0
    0.7542   -0.5667    0.0000 N   0  0  0  0  0  0  0  0  0  0  0  0
    2.4042   -2.1000    0.0000 N   0  0  0  0  0  0  0  0  0  0  0  0
   -0.9750   -0.5667    0.0000 O   0  0  0  0  0  0  0  0  0  0  0  0
    0.6792   -1.5667    0.0000 C   0  0  0  0  0  0  0  0  0  0  0  0
   -0.1083    0.9333    0.0000 C   0  0  0  0  0  0  0  0  0  0  0  0
    1.4167   -2.2500    0.0000 C   0  0  0  0  0  0  0  0  0  0  0  0
    2.5417   -0.3042    0.0000 C   0  0  0  0  0  0  0  0  0  0  0  0
    1.5792   -0.0042    0.0000 C   0  0  0  0  0  0  0  0  0  0  0  0
    2.9042   -1.2292    0.0000 C   0  0  0  0  0  0  0  0  0  0  0  0
   -2.9750    0.0000    0.0000 Cl  0  0  0  0  0  0  0  0  0  0  0  0
    2.9667   -2.9250    0.0000 C   0  0  0  0  0  0  0  0  0  0  0  0
    0.7542    1.4333    0.0000 C   0  0  0  0  0  0  0  0  0  0  0  0
   -0.9750    1.4333    0.0000 C   0  0  0  0  0  0  0  0  0  0  0  0
   -0.9750    2.4333    0.0000 C   0  0  0  0  0  0  0  0  0  0  0  0
    0.7542    2.4333    0.0000 C   0  0  0  0  0  0  0  0  0  0  0  0
   -0.1083    2.9333    0.0000 C   0  0  0  0  0  0  0  0  0  0  0  0
  2  1  1  0  0  0  0
  3  7  1  0  0  0  0
  3 10  1  0  0  0  0
  4  1  2  0  0  0  0
  5  2  1  0  0  0  0
  6  1  1  0  0  0  0
  7  5  1  0  0  0  0
  8  9  1  0  0  0  0
  9  2  1  0  0  0  0
 10  8  1  0  0  0  0
 12  3  1  0  0  0  0
 13  6  1  0  0  0  0
 14  6  1  0  0  0  0
 15 14  1  0  0  0  0
 16 13  1  0  0  0  0
 16 17  1  0  0  0  0
 17 15  1  0  0  0  0
M  END
>  <idnumber>
T0510-1825

>  <saltdata>
HCI

>  <LogP>
1.468000000000000e+000

>  <rotating_bonds>
1.000000000000000e+000

>  <hb_acceptors>
2.000000000000000e+000

>  <hb_donors>
0.000000000000000e+000

>  <PSA>
2.355000000000000e+001

>  <clusterid>
-242

>  <is_centroid>
@

>  <class1>
834

>  <class2>
797

>  <population1>
2002

>  <population2>
40410

>  <population>
24

>  <cansmi>
CN1CCCN(CC1)C(=O)C1CCCCC1.Cl

>  <HBA2>
3

>  <HBD>
1

>  <logP>
2.4086

>  <TPSA>
23.55

>  <MW>
260.803

$$$$

 OpenBabel02121609142D

 19 21  0  0  0  0  0  0  0  0999 V2000
    0.7292   -0.9500    0.0000 N   0  0  0  0  0  0  0  0  0  0  0  0
    1.3167   -0.1417    0.0000 C   0  0  3  0  0  0  0  0  0  0  0  0
    2.2667   -0.4500    0.0000 S   0  0  0  0  0  0  0  0  0  0  0  0
    1.3167   -1.7542    0.0000 C   0  0  0  0  0  0  0  0  0  0  0  0
   -0.2708   -0.9500    0.0000 C   0  0  0  0  0  0  0  0  0  0  0  0
    2.2667   -1.4500    0.0000 C   0  0  0  0  0  0  0  0  0  0  0  0
    1.0042    0.8125    0.0000 C   0  0  0  0  0  0  0  0  0  0  0  0
    1.0042   -2.7042    0.0000 O   0  0  0  0  0  0  0  0  0  0  0  0
   -1.7708   -0.0792    0.0000 N   0  0  0  0  0  0  0  0  0  0  0  0
   -0.7708   -0.0792    0.0000 C   0  0  0  0  0  0  0  0  0  0  0  0
   -2.2708    0.7833    0.0000 C   0  0  0  0  0  0  0  0  0  0  0  0
    1.6750    1.5583    0.0000 C   0  0  0  0  0  0  0  0  0  0  0  0
    0.0292    1.0208    0.0000 C   0  0  0  0  0  0  0  0  0  0  0  0
   -0.2708    0.7833    0.0000 C   0  0  0  0  0  0  0  0  0  0  0  0
   -1.7708    1.6500    0.0000 C   0  0  0  0  0  0  0  0  0  0  0  0
   -0.2833    1.9708    0.0000 C   0  0  0  0  0  0  0  0  0  0  0  0
    1.3667    2.5083    0.0000 C   0  0  0  0  0  0  0  0  0  0  0  0
   -0.7708    1.6500    0.0000 C   0  0  0  0  0  0  0  0  0  0  0  0
    0.3875    2.7125    0.0000 C   0  0  0  0  0  0  0  0  0  0  0  0
  2  1  1  0  0  0  0
  3  2  1  0  0  0  0
  4  1  1  0  0  0  0
  5  1  1  0  0  0  0
  6  4  1  0  0  0  0
  6  3  1  0  0  0  0
  7  2  1  0  0  0  0
  8  4  2  0  0  0  0
  9 10  2  0  0  0  0
 10  5  1  0  0  0  0
 11  9  1  0  0  0  0
 11 15  2  0  0  0  0
 12  7  1  0  0  0  0
 13  7  2  0  0  0  0
 14 10  1  0  0  0  0
 15 18  1  0  0  0  0
 16 13  1  0  0  0  0
 17 12  2  0  0  0  0
 17 19  1  0  0  0  0
 18 14  2  0  0  0  0
 19 16  2  0  0  0  0
M  END
>  <idnumber>
T0510-2215

>  <LogP>
1.602000000000000e+000

>  <rotating_bonds>
3.000000000000000e+000

>  <hb_acceptors>
3.000000000000000e+000

>  <hb_donors>
0.000000000000000e+000

>  <PSA>
5.850000000000000e+001

>  <clusterid>
-243

>  <is_centroid>
@

>  <class1>
701

>  <class2>
625

>  <class3>
632

>  <population1>
10103

>  <population2>
877209

>  <population3>
79489

>  <population>
500

>  <cansmi>
O=C1CSC(N1Cc1ccccn1)c1ccccc1

>  <HBA2>
4

>  <HBD>
0

>  <logP>
2.7937

>  <TPSA>
58.5

>  <MW>
270.349

$$$$

 OpenBabel02121609142D

 19 19  0  0  0  0  0  0  0  0999 V2000
    0.3250   -0.5667    0.0000 C   0  0  0  0  0  0  0  0  0  0  0  0
    0.3250    0.4333    0.0000 C   0  0  0  0  0  0  0  0  0  0  0  0
    1.1917   -1.0667    0.0000 N   0  0  0  0  0  0  0  0  0  0  0  0
   -0.5458    0.9333    0.0000 C   0  0  0  0  0  0  0  0  0  0  0  0
    2.8375   -2.6000    0.0000 N   0  0  0  0  0  0  0  0  0  0  0  0
    1.1917    0.9333    0.0000 C   0  0  0  0  0  0  0  0  0  0  0  0
   -0.5458   -1.0667    0.0000 O   0  0  0  0  0  0  0  0  0  0  0  0
   -0.5458    1.9333    0.0000 C   0  0  0  0  0  0  0  0  0  0  0  0
    1.1167   -2.0667    0.0000 C   0  0  0  0  0  0  0  0  0  0  0  0
    1.8500   -2.7500    0.0000 C   0  0  0  0  0  0  0  0  0  0  0  0
    2.9750   -0.8042    0.0000 C   0  0  0  0  0  0  0  0  0  0  0  0
    1.1917    1.9333    0.0000 C   0  0  0  0  0  0  0  0  0  0  0  0
    0.3250    2.4333    0.0000 C   0  0  0  0  0  0  0  0  0  0  0  0
    2.0167   -0.5042    0.0000 C   0  0  0  0  0  0  0  0  0  0  0  0
    3.3375   -1.7292    0.0000 C   0  0  0  0  0  0  0  0  0  0  0  0
   -3.4083   -0.2292    0.0000 Cl  0  0  0  0  0  0  0  0  0  0  0  0
    3.4042   -3.4250    0.0000 C   0  0  0  0  0  0  0  0  0  0  0  0
   -1.4083    0.4333    0.0000 C   0  0  0  0  0  0  0  0  0  0  0  0
    0.3250    3.4333    0.0000 C   0  0  0  0  0  0  0  0  0  0  0  0
  2  1  1  0  0  0  0
  3  1  1  0  0  0  0
  4  2  2  0  0  0  0
  5 10  1  0  0  0  0
  5 15  1  0  0  0  0
  6  2  1  0  0  0  0
  7  1  2  0  0  0  0
  8  4  1  0  0  0  0
  8 13  2  0  0  0  0
  9  3  1  0  0  0  0
 10  9  1  0  0  0  0
 11 14  1  0  0  0  0
 12  6  2  0  0  0  0
 13 12  1  0  0  0  0
 14  3  1  0  0  0  0
 15 11  1  0  0  0  0
 17  5  1  0  0  0  0
 18  4  1  0  0  0  0
 19 13  1  0  0  0  0
M  END
>  <idnumber>
T0510-2903

>  <saltdata>
HCl

>  <LogP>
2.137000000000000e+000

>  <rotating_bonds>
1.000000000000000e+000

>  <hb_acceptors>
2.000000000000000e+000

>  <hb_donors>
0.000000000000000e+000

>  <PSA>
2.355000000000000e+001

>  <clusterid>
179

>  <is_centroid>
@

>  <class1>
625

>  <class2>
834

>  <population1>
877209

>  <population2>
2002

>  <population>
1844

>  <cansmi>
CN1CCCN(CC1)C(=O)c1ccc(cc1C)C.Cl

>  <HBA2>
3

>  <HBD>
1

>  <logP>
2.7589

>  <TPSA>
23.55

>  <MW>
282.809

$$$$

 OpenBabel02121609142D

 13 14  0  0  0  0  0  0  0  0999 V2000
   -0.5458    0.8875    0.0000 C   0  0  0  0  0  0  0  0  0  0  0  0
    0.4042    1.1958    0.0000 N   0  0  0  0  0  0  0  0  0  0  0  0
   -0.8500   -0.0625    0.0000 N   0  0  0  0  0  0  0  0  0  0  0  0
   -1.1333    1.6958    0.0000 S   0  0  0  0  0  0  0  0  0  0  0  0
   -0.1833   -0.8042    0.0000 C   0  0  3  0  0  0  0  0  0  0  0  0
   -0.4958   -1.7542    0.0000 C   0  0  3  0  0  0  0  0  0  0  0  0
    0.4042    2.1958    0.0000 C   0  0  0  0  0  0  0  0  0  0  0  0
   -0.5458    2.5083    0.0000 C   0  0  0  0  0  0  0  0  0  0  0  0
    0.7917   -0.6000    0.0000 C   0  0  0  0  0  0  0  0  0  0  0  0
   -1.4708   -1.9667    0.0000 C   0  0  0  0  0  0  0  0  0  0  0  0
    0.1792   -2.5000    0.0000 C   0  0  0  0  0  0  0  0  0  0  0  0
    1.4667   -1.3417    0.0000 C   0  0  0  0  0  0  0  0  0  0  0  0
    1.1542   -2.2917    0.0000 C   0  0  0  0  0  0  0  0  0  0  0  0
  2  1  2  0  0  0  0
  3  1  1  0  0  0  0
  4  1  1  0  0  0  0
  5  3  1  0  0  0  0
  6  5  1  0  0  0  0
  7  2  1  0  0  0  0
  7  8  1  0  0  0  0
  8  4  1  0  0  0  0
  9  5  1  0  0  0  0
 10  6  1  0  0  0  0
 11  6  1  0  0  0  0
 11 13  1  0  0  0  0
 12  9  1  0  0  0  0
 13 12  1  0  0  0  0
M  END
>  <idnumber>
T0510-3372

>  <LogP>
1.603000000000000e+000

>  <rotating_bonds>
1.000000000000000e+000

>  <hb_acceptors>
3.000000000000000e+000

>  <hb_donors>
1.000000000000000e+000

>  <PSA>
4.969000000000001e+001

>  <clusterid>
155

>  <is_centroid>
@

>  <class1>
850

>  <class2>
797

>  <population1>
2137

>  <population2>
40410

>  <population>
84

>  <cansmi>
CC1CCCCC1NC1=NCCS1

>  <HBA2>
3

>  <HBD>
1

>  <logP>
2.084

>  <TPSA>
49.69

>  <MW>
198.328

$$$$

 OpenBabel02121609142D

 12 13  0  0  0  0  0  0  0  0999 V2000
    0.4292   -1.5000    0.0000 N   0  0  0  0  0  0  0  0  0  0  0  0
    0.4292    0.5083    0.0000 C   0  0  0  0  0  0  0  0  0  0  0  0
   -0.4333    0.0083    0.0000 C   0  0  0  0  0  0  0  0  0  0  0  0
   -0.4333   -0.9917    0.0000 C   0  0  0  0  0  0  0  0  0  0  0  0
    1.2917    0.0083    0.0000 C   0  0  0  0  0  0  0  0  0  0  0  0
    1.2917   -1.0000    0.0000 C   0  0  0  0  0  0  0  0  0  0  0  0
    0.4292    1.5000    0.0000 N   0  0  0  0  0  0  0  0  0  0  0  0
   -1.3000    0.5083    0.0000 C   0  0  0  0  0  0  0  0  0  0  0  0
   -1.3000   -1.4917    0.0000 C   0  0  0  0  0  0  0  0  0  0  0  0
    2.1625   -1.5000    0.0000 C   0  0  0  0  0  0  0  0  0  0  0  0
   -2.1708    0.0083    0.0000 C   0  0  0  0  0  0  0  0  0  0  0  0
   -2.1708   -0.9917    0.0000 C   0  0  0  0  0  0  0  0  0  0  0  0
  2  5  2  0  0  0  0
  2  3  1  0  0  0  0
  3  4  2  0  0  0  0
  4  1  1  0  0  0  0
  5  6  1  0  0  0  0
  6  1  2  0  0  0  0
  7  2  1  0  0  0  0
  8  3  1  0  0  0  0
  8 11  2  0  0  0  0
  9  4  1  0  0  0  0
 10  6  1  0  0  0  0
 11 12  1  0  0  0  0
 12  9  2  0  0  0  0
M  END
>  <idnumber>
T0510-3382

>  <LogP>
2.201000000000000e+000

>  <rotating_bonds>
0.000000000000000e+000

>  <hb_acceptors>
2.000000000000000e+000

>  <hb_donors>
1.000000000000000e+000

>  <PSA>
3.891000000000000e+001

>  <clusterid>
-246

>  <is_centroid>
@

>  <class1>
682

>  <population1>
20351

>  <population>
20351

>  <cansmi>
Cc1cc(N)c2c(n1)cccc2

>  <HBA2>
2

>  <HBD>
1

>  <logP>
2.7066

>  <TPSA>
38.91

>  <MW>
158.2

$$$$

 OpenBabel02121609142D

 20 22  0  0  0  0  0  0  0  0999 V2000
   -0.5333   -0.9792    0.0000 N   0  0  0  0  0  0  0  0  0  0  0  0
    0.4167   -0.6667    0.0000 N   0  0  0  0  0  0  0  0  0  0  0  0
   -1.1208   -0.1667    0.0000 C   0  0  3  0  0  0  0  0  0  0  0  0
    0.4167    0.3333    0.0000 C   0  0  0  0  0  0  0  0  0  0  0  0
   -0.5333    0.6375    0.0000 C   0  0  0  0  0  0  0  0  0  0  0  0
   -0.8458   -1.9292    0.0000 C   0  0  0  0  0  0  0  0  0  0  0  0
   -2.1208   -0.1667    0.0000 C   0  0  0  0  0  0  0  0  0  0  0  0
    1.2292    0.9208    0.0000 C   0  0  0  0  0  0  0  0  0  0  0  0
   -2.7083   -0.9792    0.0000 O   0  0  0  0  0  0  0  0  0  0  0  0
   -2.7083    0.6375    0.0000 C   0  0  0  0  0  0  0  0  0  0  0  0
   -0.1708   -2.6750    0.0000 O   0  0  0  0  0  0  0  0  0  0  0  0
   -3.6583   -0.6667    0.0000 C   0  0  0  0  0  0  0  0  0  0  0  0
   -3.6583    0.3333    0.0000 C   0  0  0  0  0  0  0  0  0  0  0  0
    2.1417    0.5083    0.0000 C   0  0  0  0  0  0  0  0  0  0  0  0
    1.1250    1.9083    0.0000 C   0  0  0  0  0  0  0  0  0  0  0  0
    1.9292    2.5000    0.0000 C   0  0  0  0  0  0  0  0  0  0  0  0
    2.9500    1.0958    0.0000 C   0  0  0  0  0  0  0  0  0  0  0  0
    2.8417    2.0958    0.0000 C   0  0  0  0  0  0  0  0  0  0  0  0
   -1.8208   -2.1417    0.0000 C   0  0  0  0  0  0  0  0  0  0  0  0
    3.6542    2.6833    0.0000 C   0  0  0  0  0  0  0  0  0  0  0  0
  2  1  1  0  0  0  0
  3  1  1  0  0  0  0
  4  2  2  0  0  0  0
  4  5  1  0  0  0  0
  5  3  1  0  0  0  0
  6  1  1  0  0  0  0
  7  3  1  0  0  0  0
  8  4  1  0  0  0  0
  9  7  1  0  0  0  0
 10  7  2  0  0  0  0
 11  6  2  0  0  0  0
 12  9  1  0  0  0  0
 13 10  1  0  0  0  0
 13 12  2  0  0  0  0
 14  8  1  0  0  0  0
 15  8  2  0  0  0  0
 16 15  1  0  0  0  0
 17 14  2  0  0  0  0
 17 18  1  0  0  0  0
 18 16  2  0  0  0  0
 19  6  1  0  0  0  0
 20 18  1  0  0  0  0
M  END
>  <idnumber>
T0510-3729

>  <LogP>
2.831999999999999e+000

>  <rotating_bonds>
2.000000000000000e+000

>  <hb_acceptors>
2.000000000000000e+000

>  <hb_donors>
0.000000000000000e+000

>  <PSA>
4.581000000000000e+001

>  <clusterid>
182

>  <is_centroid>
@

>  <class1>
663

>  <class2>
704

>  <class3>
625

>  <population1>
5869

>  <population2>
51112

>  <population3>
877209

>  <population>
1508

>  <cansmi>
Cc1ccc(cc1)C1=NN(C(C1)c1ccco1)C(=O)C

>  <HBA2>
4

>  <HBD>
0

>  <logP>
2.6591

>  <TPSA>
45.81

>  <MW>
268.31

$$$$

 OpenBabel02121609142D

 12 14  0  0  0  0  0  0  0  0999 V2000
    0.7000   -1.0042    0.0000 C   0  0  0  0  0  0  0  0  0  0  0  0
   -0.2583   -1.3167    0.0000 N   0  0  0  0  0  0  0  0  0  0  0  0
    0.7000   -0.0042    0.0000 N   0  0  0  0  0  0  0  0  0  0  0  0
   -0.2583    0.3000    0.0000 C   0  0  0  0  0  0  0  0  0  0  0  0
   -0.8458   -0.5042    0.0000 C   0  0  0  0  0  0  0  0  0  0  0  0
    1.6500   -1.3167    0.0000 N   0  0  0  0  0  0  0  0  0  0  0  0
    1.6500    0.3000    0.0000 C   0  0  0  0  0  0  0  0  0  0  0  0
    2.2375   -0.5042    0.0000 C   0  0  0  0  0  0  0  0  0  0  0  0
   -0.6583    1.2208    0.0000 C   0  0  0  0  0  0  0  0  0  0  0  0
   -1.8333   -0.4042    0.0000 C   0  0  0  0  0  0  0  0  0  0  0  0
   -1.6583    1.3208    0.0000 C   0  0  0  0  0  0  0  0  0  0  0  0
   -2.2458    0.5125    0.0000 C   0  0  0  0  0  0  0  0  0  0  0  0
  2  1  2  0  0  0  0
  3  1  1  0  0  0  0
  4  3  1  0  0  0  0
  5  2  1  0  0  0  0
  5  4  2  0  0  0  0
  6  1  1  0  0  0  0
  7  3  1  0  0  0  0
  8  6  1  0  0  0  0
  8  7  1  0  0  0  0
  9  4  1  0  0  0  0
 10  5  1  0  0  0  0
 11  9  2  0  0  0  0
 12 10  2  0  0  0  0
 12 11  1  0  0  0  0
M  END
>  <idnumber>
T0510-6608

>  <LogP>
1.988000000000000e+000

>  <rotating_bonds>
0.000000000000000e+000

>  <hb_acceptors>
2.000000000000000e+000

>  <hb_donors>
1.000000000000000e+000

>  <PSA>
2.985000000000000e+001

>  <clusterid>
-252

>  <is_centroid>
@

>  <class1>
964

>  <population1>
28

>  <population>
28

>  <cansmi>
c1ccc2c(c1)n1CCNc1n2

>  <HBA2>
3

>  <HBD>
1

>  <logP>
1.5998

>  <TPSA>
29.85

>  <MW>
159.188

$$$$

 OpenBabel02121609142D

 18 20  0  0  0  0  0  0  0  0999 V2000
    1.4000   -0.7917    0.0000 C   0  0  0  0  0  0  0  0  0  0  0  0
    1.4000    0.2083    0.0000 N   0  0  0  0  0  0  0  0  0  0  0  0
    0.4500   -1.1042    0.0000 N   0  0  0  0  0  0  0  0  0  0  0  0
   -0.1375   -0.2917    0.0000 C   0  0  0  0  0  0  0  0  0  0  0  0
   -1.6375    0.5708    0.0000 N   0  0  0  0  0  0  0  0  0  0  0  0
    0.4500    0.5125    0.0000 C   0  0  0  0  0  0  0  0  0  0  0  0
   -2.6375    0.5708    0.0000 C   0  0  0  0  0  0  0  0  0  0  0  0
    2.2667   -1.2917    0.0000 C   0  0  0  0  0  0  0  0  0  0  0  0
   -1.1375   -0.2917    0.0000 C   0  0  0  0  0  0  0  0  0  0  0  0
    2.2667    0.7083    0.0000 C   0  0  0  0  0  0  0  0  0  0  0  0
   -1.1375    1.4333    0.0000 C   0  0  0  0  0  0  0  0  0  0  0  0
    3.1292    0.2083    0.0000 C   0  0  0  0  0  0  0  0  0  0  0  0
    3.1292   -0.7917    0.0000 C   0  0  0  0  0  0  0  0  0  0  0  0
   -3.1375    1.4333    0.0000 C   0  0  0  0  0  0  0  0  0  0  0  0
   -3.1375   -0.2917    0.0000 O   0  0  0  0  0  0  0  0  0  0  0  0
   -1.6375    2.3000    0.0000 C   0  0  0  0  0  0  0  0  0  0  0  0
   -2.6375    2.3000    0.0000 C   0  0  0  0  0  0  0  0  0  0  0  0
    2.2667   -2.2917    0.0000 C   0  0  0  0  0  0  0  0  0  0  0  0
  2  1  1  0  0  0  0
  3  1  2  0  0  0  0
  4  3  1  0  0  0  0
  5  9  1  0  0  0  0
  6  2  1  0  0  0  0
  6  4  2  0  0  0  0
  7  5  1  0  0  0  0
  8  1  1  0  0  0  0
  9  4  1  0  0  0  0
 10  2  1  0  0  0  0
 10 12  2  0  0  0  0
 11  5  1  0  0  0  0
 12 13  1  0  0  0  0
 13  8  2  0  0  0  0
 14  7  1  0  0  0  0
 14 17  2  0  0  0  0
 15  7  2  0  0  0  0
 16 11  2  0  0  0  0
 17 16  1  0  0  0  0
 18  8  1  0  0  0  0
M  END
>  <idnumber>
T0510-7103

>  <LogP>
1.245000000000000e+000

>  <rotating_bonds>
2.000000000000000e+000

>  <hb_acceptors>
3.000000000000000e+000

>  <hb_donors>
0.000000000000000e+000

>  <PSA>
3.761000000000000e+001

>  <clusterid>
-254

>  <is_centroid>
@

>  <class1>
660

>  <class2>
696

>  <population1>
3949

>  <population2>
4759

>  <population>
13

>  <cansmi>
Cc1cccn2c1nc(c2)Cn1ccccc1=O

>  <HBA2>
4

>  <HBD>
0

>  <logP>
1.8527

>  <TPSA>
39.3

>  <MW>
239.273

$$$$

 OpenBabel02121609142D

 19 21  0  0  0  0  0  0  0  0999 V2000
    0.8625    1.0083    0.0000 N   0  0  0  0  0  0  0  0  0  0  0  0
    0.0000    0.5000    0.0000 C   0  0  0  0  0  0  0  0  0  0  0  0
    0.8625    2.0083    0.0000 C   0  0  0  0  0  0  0  0  0  0  0  0
   -0.8708    1.0083    0.0000 C   0  0  0  0  0  0  0  0  0  0  0  0
   -0.8708    2.0083    0.0000 C   0  0  0  0  0  0  0  0  0  0  0  0
    0.0000    2.5000    0.0000 C   0  0  0  0  0  0  0  0  0  0  0  0
    1.7292    0.5000    0.0000 C   0  0  0  0  0  0  0  0  0  0  0  0
    0.0000   -0.5000    0.0000 O   0  0  0  0  0  0  0  0  0  0  0  0
    1.7292    2.5000    0.0000 O   0  0  0  0  0  0  0  0  0  0  0  0
    2.5917   -1.0000    0.0000 N   0  0  0  0  0  0  0  0  0  0  0  0
    1.7292   -0.5000    0.0000 C   0  0  0  0  0  0  0  0  0  0  0  0
   -1.7333    0.5000    0.0000 C   0  0  0  0  0  0  0  0  0  0  0  0
   -1.7333    2.5000    0.0000 C   0  0  0  0  0  0  0  0  0  0  0  0
    2.5917   -2.0000    0.0000 C   0  0  0  0  0  0  0  0  0  0  0  0
    0.8625   -1.0000    0.0000 C   0  0  0  0  0  0  0  0  0  0  0  0
   -2.6000    1.0083    0.0000 C   0  0  0  0  0  0  0  0  0  0  0  0
   -2.6000    2.0083    0.0000 C   0  0  0  0  0  0  0  0  0  0  0  0
    1.7292   -2.5000    0.0000 C   0  0  0  0  0  0  0  0  0  0  0  0
    0.8625   -2.0000    0.0000 C   0  0  0  0  0  0  0  0  0  0  0  0
  2  1  1  0  0  0  0
  3  1  1  0  0  0  0
  4  2  1  0  0  0  0
  5  6  1  0  0  0  0
  5  4  2  0  0  0  0
  6  3  1  0  0  0  0
  7  1  1  0  0  0  0
  8  2  2  0  0  0  0
  9  3  2  0  0  0  0
 10 11  2  0  0  0  0
 11  7  1  0  0  0  0
 12  4  1  0  0  0  0
 13  5  1  0  0  0  0
 14 10  1  0  0  0  0
 14 18  2  0  0  0  0
 15 11  1  0  0  0  0
 16 12  2  0  0  0  0
 17 13  2  0  0  0  0
 17 16  1  0  0  0  0
 18 19  1  0  0  0  0
 19 15  2  0  0  0  0
M  END
>  <idnumber>
T0510-7920

>  <LogP>
9.790000000000001e-001

>  <rotating_bonds>
2.000000000000000e+000

>  <hb_acceptors>
3.000000000000000e+000

>  <hb_donors>
0.000000000000000e+000

>  <PSA>
5.027000000000000e+001

>  <clusterid>
186

>  <is_centroid>
@

>  <class1>
915

>  <class2>
632

>  <population1>
2013

>  <population2>
79489

>  <population>
202

>  <cansmi>
O=C1Cc2ccccc2C(=O)N1Cc1ccccn1

>  <HBA2>
4

>  <HBD>
0

>  <logP>
1.7446

>  <TPSA>
50.27

>  <MW>
252.268

$$$$

 OpenBabel02121609142D

 15 17  0  0  0  0  0  0  0  0999 V2000
    0.1292    0.0000    0.0000 C   0  0  0  0  0  0  0  0  0  0  0  0
   -0.4583    0.8125    0.0000 N   0  0  0  0  0  0  0  0  0  0  0  0
   -0.4583   -0.8042    0.0000 N   0  0  0  0  0  0  0  0  0  0  0  0
    1.1292    0.0000    0.0000 N   0  0  0  0  0  0  0  0  0  0  0  0
   -1.4083    0.5000    0.0000 C   0  0  0  0  0  0  0  0  0  0  0  0
   -1.4083   -0.5000    0.0000 C   0  0  0  0  0  0  0  0  0  0  0  0
    3.1292    0.0000    0.0000 O   0  0  0  0  0  0  0  0  0  0  0  0
    1.6292    0.8708    0.0000 C   0  0  0  0  0  0  0  0  0  0  0  0
    1.6292   -0.8625    0.0000 C   0  0  0  0  0  0  0  0  0  0  0  0
   -2.2708    1.0000    0.0000 C   0  0  0  0  0  0  0  0  0  0  0  0
   -2.2708   -1.0000    0.0000 C   0  0  0  0  0  0  0  0  0  0  0  0
    2.6292    0.8708    0.0000 C   0  0  0  0  0  0  0  0  0  0  0  0
    2.6292   -0.8625    0.0000 C   0  0  0  0  0  0  0  0  0  0  0  0
   -3.1375   -0.5000    0.0000 C   0  0  0  0  0  0  0  0  0  0  0  0
   -3.1375    0.5000    0.0000 C   0  0  0  0  0  0  0  0  0  0  0  0
  2  1  2  0  0  0  0
  3  1  1  0  0  0  0
  4  1  1  0  0  0  0
  5  2  1  0  0  0  0
  5  6  2  0  0  0  0
  6  3  1  0  0  0  0
  7 13  1  0  0  0  0
  8  4  1  0  0  0  0
  9  4  1  0  0  0  0
 10  5  1  0  0  0  0
 11  6  1  0  0  0  0
 12  8  1  0  0  0  0
 12  7  1  0  0  0  0
 13  9  1  0  0  0  0
 14 11  2  0  0  0  0
 15 10  2  0  0  0  0
 15 14  1  0  0  0  0
M  END
>  <idnumber>
T0510-8231

>  <LogP>
1.934000000000000e+000

>  <rotating_bonds>
1.000000000000000e+000

>  <hb_acceptors>
3.000000000000000e+000

>  <hb_donors>
1.000000000000000e+000

>  <PSA>
4.114999999999996e+001

>  <clusterid>
-255

>  <is_centroid>
@

>  <class1>
786

>  <class2>
685

>  <population1>
48067

>  <population2>
28767

>  <population>
1248

>  <cansmi>
O1CCN(CC1)c1nc2c([nH]1)cccc2

>  <HBA2>
3

>  <HBD>
1

>  <logP>
1.4645

>  <TPSA>
41.15

>  <MW>
203.24

$$$$

 OpenBabel02121609142D

 14 15  0  0  0  0  0  0  0  0999 V2000
    0.5417    0.4375    0.0000 C   0  0  0  0  0  0  0  0  0  0  0  0
    1.1292   -0.3667    0.0000 C   0  0  0  0  0  0  0  0  0  0  0  0
    0.5417   -1.1792    0.0000 N   0  0  0  0  0  0  0  0  0  0  0  0
   -0.4083    0.1333    0.0000 C   0  0  0  0  0  0  0  0  0  0  0  0
   -0.4083   -0.8667    0.0000 C   0  0  0  0  0  0  0  0  0  0  0  0
    0.8542    1.3958    0.0000 C   0  0  0  0  0  0  0  0  0  0  0  0
    1.8292    1.6000    0.0000 O   0  0  0  0  0  0  0  0  0  0  0  0
    0.1875    2.1333    0.0000 N   0  0  0  0  0  0  0  0  0  0  0  0
    2.1292   -0.3667    0.0000 C   0  0  0  0  0  0  0  0  0  0  0  0
    0.8542   -2.1292    0.0000 C   0  0  0  0  0  0  0  0  0  0  0  0
   -1.2708    0.6333    0.0000 C   0  0  0  0  0  0  0  0  0  0  0  0
   -1.2708   -1.3667    0.0000 C   0  0  0  0  0  0  0  0  0  0  0  0
   -2.1375    0.1333    0.0000 C   0  0  0  0  0  0  0  0  0  0  0  0
   -2.1375   -0.8667    0.0000 C   0  0  0  0  0  0  0  0  0  0  0  0
  2  1  2  0  0  0  0
  3  2  1  0  0  0  0
  4  1  1  0  0  0  0
  5  4  2  0  0  0  0
  5  3  1  0  0  0  0
  6  1  1  0  0  0  0
  7  6  2  0  0  0  0
  8  6  1  0  0  0  0
  9  2  1  0  0  0  0
 10  3  1  0  0  0  0
 11  4  1  0  0  0  0
 12  5  1  0  0  0  0
 12 14  2  0  0  0  0
 13 11  2  0  0  0  0
 14 13  1  0  0  0  0
M  END
>  <idnumber>
T0511-0498

>  <LogP>
1.514000000000000e+000

>  <rotating_bonds>
1.000000000000000e+000

>  <hb_acceptors>
1.000000000000000e+000

>  <hb_donors>
1.000000000000000e+000

>  <PSA>
4.802000000000000e+001

>  <clusterid>
-256

>  <is_centroid>
@

>  <class1>
748

>  <population1>
15713

>  <population>
15713

>  <cansmi>
NC(=O)c1c(C)n(c2c1cccc2)C

>  <HBA2>
3

>  <HBD>
1

>  <logP>
2.2859

>  <TPSA>
48.02

>  <MW>
188.226

$$$$

 OpenBabel02121609142D

 16 17  0  0  0  0  0  0  0  0999 V2000
   -0.8500    0.7833    0.0000 C   0  0  0  0  0  0  0  0  0  0  0  0
   -0.5458    1.7333    0.0000 N   0  0  0  0  0  0  0  0  0  0  0  0
   -0.4958   -0.9125    0.0000 S   0  0  0  0  0  0  0  0  0  0  0  0
   -0.1833    0.0458    0.0000 C   0  0  0  0  0  0  0  0  0  0  0  0
    0.1792   -1.6542    0.0000 C   0  0  0  0  0  0  0  0  0  0  0  0
   -1.8333    0.5750    0.0000 O   0  0  0  0  0  0  0  0  0  0  0  0
   -0.1333   -2.6042    0.0000 C   0  0  0  0  0  0  0  0  0  0  0  0
   -1.1083   -2.8125    0.0000 Cl  0  0  0  0  0  0  0  0  0  0  0  0
    0.4042    2.0458    0.0000 C   0  0  0  0  0  0  0  0  0  0  0  0
   -1.1333    2.5458    0.0000 C   0  0  0  0  0  0  0  0  0  0  0  0
    1.1542   -1.4417    0.0000 C   0  0  0  0  0  0  0  0  0  0  0  0
    0.5375   -3.3500    0.0000 C   0  0  0  0  0  0  0  0  0  0  0  0
   -0.5458    3.3583    0.0000 C   0  0  0  0  0  0  0  0  0  0  0  0
    0.4042    3.0458    0.0000 C   0  0  0  0  0  0  0  0  0  0  0  0
    1.8250   -2.1875    0.0000 C   0  0  0  0  0  0  0  0  0  0  0  0
    1.5167   -3.1417    0.0000 C   0  0  0  0  0  0  0  0  0  0  0  0
  2  1  1  0  0  0  0
  3  4  1  0  0  0  0
  4  1  1  0  0  0  0
  5  3  1  0  0  0  0
  6  1  2  0  0  0  0
  7  5  2  0  0  0  0
  8  7  1  0  0  0  0
  9  2  1  0  0  0  0
 10  2  1  0  0  0  0
 11  5  1  0  0  0  0
 12  7  1  0  0  0  0
 12 16  2  0  0  0  0
 13 10  1  0  0  0  0
 14  9  1  0  0  0  0
 14 13  1  0  0  0  0
 15 11  2  0  0  0  0
 16 15  1  0  0  0  0
M  END
>  <idnumber>
T0511-3113

>  <LogP>
2.811000000000000e+000

>  <rotating_bonds>
3.000000000000000e+000

>  <hb_acceptors>
3.000000000000000e+000

>  <hb_donors>
0.000000000000000e+000

>  <PSA>
4.561000000000000e+001

>  <clusterid>
-257

>  <is_centroid>
@

>  <class1>
625

>  <class2>
642

>  <population1>
877209

>  <population2>
51183

>  <population>
48174

>  <cansmi>
O=C(N1CCCC1)CSc1ccccc1Cl

>  <HBA2>
3

>  <HBD>
0

>  <logP>
2.9924

>  <TPSA>
45.61

>  <MW>
255.764

$$$$

 OpenBabel02121609142D

 14 15  0  0  0  0  0  0  0  0999 V2000
   -2.5458    0.0000    0.0000 N   0  0  0  0  0  0  0  0  0  0  0  0
   -1.9583   -0.8042    0.0000 C   0  0  0  0  0  0  0  0  0  0  0  0
   -1.9583    0.8125    0.0000 C   0  0  0  0  0  0  0  0  0  0  0  0
   -1.0083   -0.5000    0.0000 N   0  0  0  0  0  0  0  0  0  0  0  0
   -1.0083    0.5000    0.0000 C   0  0  3  0  0  0  0  0  0  0  0  0
   -2.2708   -1.7542    0.0000 O   0  0  0  0  0  0  0  0  0  0  0  0
   -2.2708    1.7625    0.0000 O   0  0  0  0  0  0  0  0  0  0  0  0
   -0.2000    1.0958    0.0000 C   0  0  0  0  0  0  0  0  0  0  0  0
    0.7167    0.6833    0.0000 C   0  0  0  0  0  0  0  0  0  0  0  0
    1.5250    1.2708    0.0000 C   0  0  0  0  0  0  0  0  0  0  0  0
    0.8167   -0.3125    0.0000 C   0  0  0  0  0  0  0  0  0  0  0  0
    1.7292   -0.7167    0.0000 C   0  0  0  0  0  0  0  0  0  0  0  0
    2.4375    0.8625    0.0000 C   0  0  0  0  0  0  0  0  0  0  0  0
    2.5417   -0.1292    0.0000 C   0  0  0  0  0  0  0  0  0  0  0  0
  2  1  1  0  0  0  0
  3  1  1  0  0  0  0
  4  2  1  0  0  0  0
  4  5  1  0  0  0  0
  5  3  1  0  0  0  0
  6  2  2  0  0  0  0
  7  3  2  0  0  0  0
  8  5  1  0  0  0  0
  9  8  1  0  0  0  0
 10  9  2  0  0  0  0
 11  9  1  0  0  0  0
 12 11  2  0  0  0  0
 13 10  1  0  0  0  0
 13 14  2  0  0  0  0
 14 12  1  0  0  0  0
M  END
>  <idnumber>
T0511-4770

>  <LogP>
2.460000000000000e-001

>  <rotating_bonds>
2.000000000000000e+000

>  <hb_acceptors>
2.000000000000000e+000

>  <hb_donors>
2.000000000000000e+000

>  <PSA>
5.820000000000000e+001

>  <clusterid>
-259

>  <is_centroid>
@

>  <class1>
643

>  <class2>
625

>  <population1>
24294

>  <population2>
877209

>  <population>
21686

>  <cansmi>
O=C1NC(=O)NC1Cc1ccccc1

>  <HBA2>
4

>  <HBD>
2

>  <logP>
1.0947

>  <TPSA>
58.2

>  <MW>
190.199

$$$$

 OpenBabel02121609142D

 21 23  0  0  0  0  0  0  0  0999 V2000
    0.8625   -1.0167    0.0000 C   0  0  0  0  0  0  0  0  0  0  0  0
    1.7292   -2.5167    0.0000 C   0  0  0  0  0  0  0  0  0  0  0  0
    1.7292   -0.5167    0.0000 O   0  0  0  0  0  0  0  0  0  0  0  0
    2.5917   -1.0167    0.0000 C   0  0  0  0  0  0  0  0  0  0  0  0
    0.8625   -2.0167    0.0000 C   0  0  0  0  0  0  0  0  0  0  0  0
    2.5917   -2.0167    0.0000 C   0  0  0  0  0  0  0  0  0  0  0  0
   -2.6000    1.9833    0.0000 N   0  0  0  0  0  0  0  0  0  0  0  0
   -2.6000    0.9833    0.0000 C   0  0  0  0  0  0  0  0  0  0  0  0
    0.0000   -0.5167    0.0000 C   0  0  0  0  0  0  0  0  0  0  0  0
    0.0000   -2.5167    0.0000 C   0  0  0  0  0  0  0  0  0  0  0  0
    3.4625   -0.5167    0.0000 O   0  0  0  0  0  0  0  0  0  0  0  0
   -1.7333    0.4833    0.0000 C   0  0  0  0  0  0  0  0  0  0  0  0
   -3.4708    0.4833    0.0000 O   0  0  0  0  0  0  0  0  0  0  0  0
   -0.8708   -1.0167    0.0000 C   0  0  0  0  0  0  0  0  0  0  0  0
   -1.7333   -0.5167    0.0000 O   0  0  0  0  0  0  0  0  0  0  0  0
   -0.8708   -2.0167    0.0000 C   0  0  0  0  0  0  0  0  0  0  0  0
    1.7292   -3.5167    0.0000 C   0  0  0  0  0  0  0  0  0  0  0  0
   -3.4083    2.5708    0.0000 C   0  0  0  0  0  0  0  0  0  0  0  0
   -1.7958    2.5708    0.0000 C   0  0  0  0  0  0  0  0  0  0  0  0
   -2.1000    3.5208    0.0000 C   0  0  0  0  0  0  0  0  0  0  0  0
   -3.1000    3.5208    0.0000 C   0  0  0  0  0  0  0  0  0  0  0  0
  2  5  1  0  0  0  0
  3  1  1  0  0  0  0
  4  3  1  0  0  0  0
  5  1  2  0  0  0  0
  6  2  2  0  0  0  0
  6  4  1  0  0  0  0
  7  8  1  0  0  0  0
  8 12  1  0  0  0  0
  9  1  1  0  0  0  0
 10  5  1  0  0  0  0
 10 16  2  0  0  0  0
 11  4  2  0  0  0  0
 12 15  1  0  0  0  0
 13  8  2  0  0  0  0
 14  9  2  0  0  0  0
 15 14  1  0  0  0  0
 16 14  1  0  0  0  0
 17  2  1  0  0  0  0
 18  7  1  0  0  0  0
 19  7  1  0  0  0  0
 20 19  1  0  0  0  0
 20 21  1  0  0  0  0
 21 18  1  0  0  0  0
M  END
>  <idnumber>
T0511-5047

>  <LogP>
1.791000000000000e+000

>  <rotating_bonds>
3.000000000000000e+000

>  <hb_acceptors>
3.000000000000000e+000

>  <hb_donors>
0.000000000000000e+000

>  <PSA>
5.584000000000000e+001

>  <clusterid>
-260

>  <is_centroid>
@

>  <class1>
642

>  <class2>
799

>  <population1>
51183

>  <population2>
7929

>  <population>
211

>  <cansmi>
O=C(N1CCCC1)COc1ccc2c(c1)oc(=O)cc2C

>  <HBA2>
5

>  <HBD>
0

>  <logP>
2.0405

>  <TPSA>
59.75

>  <MW>
287.31

$$$$

 OpenBabel02121609142D

 13 14  0  0  0  0  0  0  0  0999 V2000
   -0.0583    1.6208    0.0000 N   0  0  0  0  0  0  0  0  0  0  0  0
   -0.6458    0.8125    0.0000 C   0  0  0  0  0  0  0  0  0  0  0  0
    0.8917    1.3125    0.0000 C   0  0  0  0  0  0  0  0  0  0  0  0
   -0.0583    0.0083    0.0000 C   0  0  3  0  0  0  0  0  0  0  0  0
    0.8917    0.3125    0.0000 N   0  0  0  0  0  0  0  0  0  0  0  0
   -1.6458    0.8125    0.0000 O   0  0  0  0  0  0  0  0  0  0  0  0
    1.7000    1.9000    0.0000 O   0  0  0  0  0  0  0  0  0  0  0  0
   -1.0375   -0.2042    0.0000 C   0  0  3  0  0  0  0  0  0  0  0  0
    0.6125   -0.7375    0.0000 C   0  0  0  0  0  0  0  0  0  0  0  0
   -1.7083    0.5458    0.0000 C   0  0  0  0  0  0  0  0  0  0  0  0
   -1.3458   -1.1542    0.0000 C   0  0  0  0  0  0  0  0  0  0  0  0
    0.3000   -1.6875    0.0000 C   0  0  0  0  0  0  0  0  0  0  0  0
   -0.6750   -1.8917    0.0000 C   0  0  0  0  0  0  0  0  0  0  0  0
  2  1  1  0  0  0  0
  3  1  1  0  0  0  0
  4  2  1  0  0  0  0
  4  5  1  0  0  0  0
  5  3  1  0  0  0  0
  6  2  2  0  0  0  0
  7  3  2  0  0  0  0
  8  4  1  0  0  0  0
  9  4  1  0  0  0  0
 10  8  1  0  0  0  0
 11  8  1  0  0  0  0
 11 13  1  0  0  0  0
 12  9  1  0  0  0  0
 13 12  1  0  0  0  0
M  END
>  <idnumber>
T0511-5173

>  <LogP>
8.190000000000002e-001

>  <rotating_bonds>
0.000000000000000e+000

>  <hb_acceptors>
2.000000000000000e+000

>  <hb_donors>
2.000000000000000e+000

>  <PSA>
5.820000000000000e+001

>  <clusterid>
41

>  <is_centroid>
@

>  <class1>
776

>  <population1>
4006

>  <population>
4006

>  <cansmi>
O=C1NC(=O)C2(N1)CCCCC2C

>  <HBA2>
4

>  <HBD>
2

>  <logP>
1.4323

>  <TPSA>
58.2

>  <MW>
182.22

$$$$

 OpenBabel02121609142D

 16 17  0  0  0  0  0  0  0  0999 V2000
   -0.6583    0.8750    0.0000 N   0  0  0  0  0  0  0  0  0  0  0  0
   -1.6083   -0.4292    0.0000 C   0  0  3  0  0  0  0  0  0  0  0  0
   -1.6083    1.1833    0.0000 C   0  0  0  0  0  0  0  0  0  0  0  0
   -0.6583   -0.1250    0.0000 C   0  0  0  0  0  0  0  0  0  0  0  0
   -1.9208   -1.3875    0.0000 C   0  0  0  0  0  0  0  0  0  0  0  0
   -2.1958    0.3750    0.0000 C   0  0  0  0  0  0  0  0  0  0  0  0
    0.1500    1.4625    0.0000 C   0  0  0  0  0  0  0  0  0  0  0  0
   -1.9208    2.1333    0.0000 O   0  0  0  0  0  0  0  0  0  0  0  0
   -1.2500   -2.1292    0.0000 O   0  0  0  0  0  0  0  0  0  0  0  0
   -2.8958   -1.5917    0.0000 O   0  0  0  0  0  0  0  0  0  0  0  0
    1.0667    1.0583    0.0000 C   0  0  0  0  0  0  0  0  0  0  0  0
    1.8750    1.6458    0.0000 C   0  0  0  0  0  0  0  0  0  0  0  0
    1.1667    0.0583    0.0000 C   0  0  0  0  0  0  0  0  0  0  0  0
    2.0792   -0.3417    0.0000 C   0  0  0  0  0  0  0  0  0  0  0  0
    2.7875    1.2375    0.0000 C   0  0  0  0  0  0  0  0  0  0  0  0
    2.8917    0.2458    0.0000 C   0  0  0  0  0  0  0  0  0  0  0  0
  2  4  1  0  0  0  0
  2  6  1  0  0  0  0
  3  1  1  0  0  0  0
  4  1  1  0  0  0  0
  5  2  1  0  0  0  0
  6  3  1  0  0  0  0
  7  1  1  0  0  0  0
  8  3  2  0  0  0  0
  9  5  2  0  0  0  0
 10  5  1  0  0  0  0
 11  7  1  0  0  0  0
 12 11  2  0  0  0  0
 13 11  1  0  0  0  0
 14 13  2  0  0  0  0
 15 12  1  0  0  0  0
 15 16  2  0  0  0  0
 16 14  1  0  0  0  0
M  END
>  <idnumber>
T0511-5221

>  <LogP>
1.392000000000000e+000

>  <rotating_bonds>
3.000000000000000e+000

>  <hb_acceptors>
3.000000000000000e+000

>  <hb_donors>
1.000000000000000e+000

>  <PSA>
5.761000000000000e+001

>  <clusterid>
191

>  <is_centroid>
@

>  <class1>
625

>  <class2>
673

>  <population1>
877209

>  <population2>
18691

>  <population>
17790

>  <cansmi>
OC(=O)C1CN(C(=O)C1)Cc1ccccc1

>  <HBA2>
4

>  <HBD>
1

>  <logP>
1.0576

>  <TPSA>
57.61

>  <MW>
219.237

$$$$

 OpenBabel02121609142D

 15 16  0  0  0  0  0  0  0  0999 V2000
   -0.5458    1.7333    0.0000 N   0  0  0  0  0  0  0  0  0  0  0  0
   -0.8500    0.7833    0.0000 C   0  0  0  0  0  0  0  0  0  0  0  0
   -0.1833    0.0458    0.0000 C   0  0  0  0  0  0  0  0  0  0  0  0
   -1.8333    0.5750    0.0000 O   0  0  0  0  0  0  0  0  0  0  0  0
   -0.4958   -0.9125    0.0000 S   0  0  0  0  0  0  0  0  0  0  0  0
    0.1792   -1.6542    0.0000 C   0  0  0  0  0  0  0  0  0  0  0  0
    0.4042    2.0458    0.0000 C   0  0  0  0  0  0  0  0  0  0  0  0
   -1.1333    2.5458    0.0000 C   0  0  0  0  0  0  0  0  0  0  0  0
    1.1542   -1.4417    0.0000 C   0  0  0  0  0  0  0  0  0  0  0  0
   -0.1333   -2.6042    0.0000 C   0  0  0  0  0  0  0  0  0  0  0  0
   -0.5458    3.3583    0.0000 C   0  0  0  0  0  0  0  0  0  0  0  0
    0.4042    3.0458    0.0000 C   0  0  0  0  0  0  0  0  0  0  0  0
    0.5375   -3.3500    0.0000 C   0  0  0  0  0  0  0  0  0  0  0  0
    1.8250   -2.1875    0.0000 C   0  0  0  0  0  0  0  0  0  0  0  0
    1.5167   -3.1417    0.0000 C   0  0  0  0  0  0  0  0  0  0  0  0
  2  1  1  0  0  0  0
  3  2  1  0  0  0  0
  4  2  2  0  0  0  0
  5  3  1  0  0  0  0
  6  5  1  0  0  0  0
  7  1  1  0  0  0  0
  8  1  1  0  0  0  0
  9  6  1  0  0  0  0
 10  6  1  0  0  0  0
 11  8  1  0  0  0  0
 12  7  1  0  0  0  0
 12 11  1  0  0  0  0
 13 10  1  0  0  0  0
 14  9  1  0  0  0  0
 14 15  1  0  0  0  0
 15 13  1  0  0  0  0
M  END
>  <idnumber>
T0511-6552

>  <LogP>
2.477000000000000e+000

>  <rotating_bonds>
3.000000000000000e+000

>  <hb_acceptors>
2.000000000000000e+000

>  <hb_donors>
0.000000000000000e+000

>  <PSA>
4.561000000000000e+001

>  <clusterid>
193

>  <is_centroid>
@

>  <class1>
642

>  <class2>
797

>  <population1>
51183

>  <population2>
40410

>  <population>
2730

>  <cansmi>
O=C(N1CCCC1)CSC1CCCCC1

>  <HBA2>
3

>  <HBD>
0

>  <logP>
2.6126

>  <TPSA>
45.61

>  <MW>
227.366

$$$$

 OpenBabel02121609142D

 16 17  0  0  0  0  0  0  0  0999 V2000
    0.4292   -1.7417    0.0000 N   0  0  0  0  0  0  0  0  0  0  0  0
   -0.4333   -1.2417    0.0000 C   0  0  0  0  0  0  0  0  0  0  0  0
   -1.3000    1.2500    0.0000 C   0  0  0  0  0  0  0  0  0  0  0  0
   -2.1708    1.7500    0.0000 N   0  0  0  0  0  0  0  0  0  0  0  0
   -1.3000    0.2500    0.0000 S   0  0  0  0  0  0  0  0  0  0  0  0
   -0.4333   -0.2500    0.0000 C   0  0  0  0  0  0  0  0  0  0  0  0
   -1.3000   -1.7417    0.0000 O   0  0  0  0  0  0  0  0  0  0  0  0
    0.4292   -2.7417    0.0000 C   0  0  0  0  0  0  0  0  0  0  0  0
    1.2917   -1.2417    0.0000 C   0  0  0  0  0  0  0  0  0  0  0  0
   -2.1708    2.7500    0.0000 C   0  0  0  0  0  0  0  0  0  0  0  0
   -0.4333    1.7500    0.0000 C   0  0  0  0  0  0  0  0  0  0  0  0
    2.1625   -1.7417    0.0000 C   0  0  0  0  0  0  0  0  0  0  0  0
    1.2917   -3.2417    0.0000 C   0  0  0  0  0  0  0  0  0  0  0  0
   -1.3000    3.2500    0.0000 C   0  0  0  0  0  0  0  0  0  0  0  0
   -0.4333    2.7500    0.0000 C   0  0  0  0  0  0  0  0  0  0  0  0
    2.1625   -2.7417    0.0000 C   0  0  0  0  0  0  0  0  0  0  0  0
  2  1  1  0  0  0  0
  3  5  1  0  0  0  0
  4  3  2  0  0  0  0
  5  6  1  0  0  0  0
  6  2  1  0  0  0  0
  7  2  2  0  0  0  0
  8  1  1  0  0  0  0
  9  1  1  0  0  0  0
 10  4  1  0  0  0  0
 10 14  2  0  0  0  0
 11  3  1  0  0  0  0
 12  9  1  0  0  0  0
 13  8  1  0  0  0  0
 13 16  1  0  0  0  0
 14 15  1  0  0  0  0
 15 11  2  0  0  0  0
 16 12  1  0  0  0  0
M  END
>  <idnumber>
T0511-6668

>  <LogP>
1.684000000000000e+000

>  <rotating_bonds>
3.000000000000000e+000

>  <hb_acceptors>
3.000000000000000e+000

>  <hb_donors>
0.000000000000000e+000

>  <PSA>
5.850000000000000e+001

>  <clusterid>
-261

>  <is_centroid>
@

>  <class1>
639

>  <class2>
632

>  <population1>
59855

>  <population2>
79489

>  <population>
3637

>  <cansmi>
O=C(N1CCCCC1)CSc1ccccn1

>  <HBA2>
4

>  <HBD>
0

>  <logP>
2.1241

>  <TPSA>
58.5

>  <MW>
236.333

$$$$

 OpenBabel02121609142D

 14 15  0  0  0  0  0  0  0  0999 V2000
   -0.1833   -0.0625    0.0000 C   0  0  3  0  0  0  0  0  0  0  0  0
    0.4875   -0.8042    0.0000 N   0  0  0  0  0  0  0  0  0  0  0  0
    0.1250    0.8875    0.0000 C   0  0  0  0  0  0  0  0  0  0  0  0
   -2.1375   -0.4792    0.0000 N   0  0  0  0  0  0  0  0  0  0  0  0
   -1.1583   -0.2667    0.0000 C   0  0  0  0  0  0  0  0  0  0  0  0
   -0.4625    1.6958    0.0000 O   0  0  0  0  0  0  0  0  0  0  0  0
    1.0792    1.1958    0.0000 C   0  0  0  0  0  0  0  0  0  0  0  0
    0.1250    2.5083    0.0000 C   0  0  0  0  0  0  0  0  0  0  0  0
    1.0792    2.1958    0.0000 C   0  0  0  0  0  0  0  0  0  0  0  0
    1.8250   -2.2917    0.0000 O   0  0  0  0  0  0  0  0  0  0  0  0
    1.4667   -0.6000    0.0000 C   0  0  0  0  0  0  0  0  0  0  0  0
    0.1792   -1.7542    0.0000 C   0  0  0  0  0  0  0  0  0  0  0  0
    0.8417   -2.5000    0.0000 C   0  0  0  0  0  0  0  0  0  0  0  0
    2.1292   -1.3417    0.0000 C   0  0  0  0  0  0  0  0  0  0  0  0
  2  1  1  0  0  0  0
  3  1  1  0  0  0  0
  4  5  3  0  0  0  0
  5  1  1  0  0  0  0
  6  3  1  0  0  0  0
  7  3  2  0  0  0  0
  8  6  1  0  0  0  0
  9  7  1  0  0  0  0
  9  8  2  0  0  0  0
 10 13  1  0  0  0  0
 11  2  1  0  0  0  0
 12  2  1  0  0  0  0
 13 12  1  0  0  0  0
 14 11  1  0  0  0  0
 14 10  1  0  0  0  0
M  END
>  <idnumber>
T0511-7508

>  <LogP>
5.330000000000000e-001

>  <rotating_bonds>
3.000000000000000e+000

>  <hb_acceptors>
3.000000000000000e+000

>  <hb_donors>
0.000000000000000e+000

>  <PSA>
4.940000000000001e+001

>  <clusterid>
-262

>  <is_centroid>
@

>  <class1>
704

>  <class2>
786

>  <population1>
51112

>  <population2>
48067

>  <population>
1574

>  <cansmi>
N#CC(c1ccco1)N1CCOCC1

>  <HBA2>
4

>  <HBD>
0

>  <logP>
1.11438

>  <TPSA>
49.4

>  <MW>
192.214

$$$$

 OpenBabel02121609142D

 15 16  0  0  0  0  0  0  0  0999 V2000
    1.4792    0.0083    0.0000 N   0  0  0  0  0  0  0  0  0  0  0  0
    2.0667    0.8125    0.0000 C   0  0  0  0  0  0  0  0  0  0  0  0
    2.0667   -0.8042    0.0000 C   0  0  0  0  0  0  0  0  0  0  0  0
    3.0167   -0.5000    0.0000 C   0  0  0  0  0  0  0  0  0  0  0  0
    3.0167    0.5083    0.0000 C   0  0  0  0  0  0  0  0  0  0  0  0
    0.4792    0.0083    0.0000 C   0  0  0  0  0  0  0  0  0  0  0  0
   -1.0208    0.8708    0.0000 N   0  0  0  0  0  0  0  0  0  0  0  0
   -3.0208    0.8708    0.0000 N   0  0  0  0  0  0  0  0  0  0  0  0
   -0.0208    0.8708    0.0000 C   0  0  0  0  0  0  0  0  0  0  0  0
    1.7542    1.7625    0.0000 C   0  0  0  0  0  0  0  0  0  0  0  0
    1.7542   -1.7542    0.0000 C   0  0  0  0  0  0  0  0  0  0  0  0
   -1.5208    1.7333    0.0000 C   0  0  0  0  0  0  0  0  0  0  0  0
   -1.5208    0.0083    0.0000 C   0  0  0  0  0  0  0  0  0  0  0  0
   -2.5208    0.0083    0.0000 C   0  0  0  0  0  0  0  0  0  0  0  0
   -2.5208    1.7333    0.0000 C   0  0  0  0  0  0  0  0  0  0  0  0
  2  1  1  0  0  0  0
  3  1  1  0  0  0  0
  4  3  2  0  0  0  0
  4  5  1  0  0  0  0
  5  2  2  0  0  0  0
  6  1  1  0  0  0  0
  7  9  1  0  0  0  0
  8 14  1  0  0  0  0
  9  6  1  0  0  0  0
 10  2  1  0  0  0  0
 11  3  1  0  0  0  0
 12  7  1  0  0  0  0
 13  7  1  0  0  0  0
 14 13  1  0  0  0  0
 15 12  1  0  0  0  0
 15  8  1  0  0  0  0
M  END
>  <idnumber>
T0511-7556

>  <LogP>
1.773000000000000e+000

>  <rotating_bonds>
3.000000000000000e+000

>  <hb_acceptors>
2.000000000000000e+000

>  <hb_donors>
1.000000000000000e+000

>  <PSA>
2.020000000000000e+001

>  <clusterid>
-264

>  <is_centroid>
@

>  <class1>
717

>  <class2>
635

>  <population1>
74368

>  <population2>
31512

>  <population>
1865

>  <cansmi>
Cc1ccc(n1CCN1CCNCC1)C

>  <HBA2>
3

>  <HBD>
1

>  <logP>
1.2768

>  <TPSA>
20.2

>  <MW>
207.315

$$$$

 OpenBabel02121609142D

 19 21  0  0  0  0  0  0  0  0999 V2000
   -0.4583   -0.4375    0.0000 N   0  0  0  0  0  0  0  0  0  0  0  0
    0.1292    0.3750    0.0000 C   0  0  3  0  0  0  0  0  0  0  0  0
   -0.4583    1.1833    0.0000 C   0  0  0  0  0  0  0  0  0  0  0  0
   -1.4083   -0.1250    0.0000 C   0  0  0  0  0  0  0  0  0  0  0  0
   -1.4083    0.8750    0.0000 C   0  0  0  0  0  0  0  0  0  0  0  0
   -0.1458   -1.3875    0.0000 C   0  0  0  0  0  0  0  0  0  0  0  0
    1.1292    0.3750    0.0000 N   0  0  0  0  0  0  0  0  0  0  0  0
   -0.1458    2.1333    0.0000 O   0  0  0  0  0  0  0  0  0  0  0  0
    0.8292   -1.5917    0.0000 O   0  0  0  0  0  0  0  0  0  0  0  0
   -2.2708   -0.6250    0.0000 C   0  0  0  0  0  0  0  0  0  0  0  0
   -2.2708    1.3750    0.0000 C   0  0  0  0  0  0  0  0  0  0  0  0
    1.6292   -0.4917    0.0000 C   0  0  0  0  0  0  0  0  0  0  0  0
    1.6292    1.2375    0.0000 C   0  0  0  0  0  0  0  0  0  0  0  0
   -0.8125   -2.1292    0.0000 C   0  0  0  0  0  0  0  0  0  0  0  0
   -3.1375   -0.1250    0.0000 C   0  0  0  0  0  0  0  0  0  0  0  0
   -3.1375    0.8750    0.0000 C   0  0  0  0  0  0  0  0  0  0  0  0
    2.6292    1.2375    0.0000 C   0  0  0  0  0  0  0  0  0  0  0  0
    2.6292   -0.4917    0.0000 C   0  0  0  0  0  0  0  0  0  0  0  0
    3.1292    0.3750    0.0000 C   0  0  0  0  0  0  0  0  0  0  0  0
  2  1  1  0  0  0  0
  3  2  1  0  0  0  0
  3  5  1  0  0  0  0
  4  1  1  0  0  0  0
  5  4  2  0  0  0  0
  6  1  1  0  0  0  0
  7  2  1  0  0  0  0
  8  3  2  0  0  0  0
  9  6  2  0  0  0  0
 10  4  1  0  0  0  0
 11  5  1  0  0  0  0
 11 16  2  0  0  0  0
 12  7  1  0  0  0  0
 13  7  1  0  0  0  0
 14  6  1  0  0  0  0
 15 10  2  0  0  0  0
 16 15  1  0  0  0  0
 17 13  1  0  0  0  0
 18 12  1  0  0  0  0
 18 19  1  0  0  0  0
 19 17  1  0  0  0  0
M  END
>  <idnumber>
T0511-8023

>  <LogP>
2.384000000000000e+000

>  <rotating_bonds>
1.000000000000000e+000

>  <hb_acceptors>
3.000000000000000e+000

>  <hb_donors>
0.000000000000000e+000

>  <PSA>
4.062000000000001e+001

>  <clusterid>
-265

>  <is_centroid>
@

>  <class1>
967

>  <class2>
639

>  <population1>
448

>  <population2>
59855

>  <population>
40

>  <cansmi>
CC(=O)N1C(N2CCCCC2)C(=O)c2c1cccc2

>  <HBA2>
4

>  <HBD>
0

>  <logP>
2.0507

>  <TPSA>
40.62

>  <MW>
258.316

$$$$

 OpenBabel02121609142D

 18 19  0  0  0  0  0  0  0  0999 V2000
    0.8625   -0.2500    0.0000 C   0  0  0  0  0  0  0  0  0  0  0  0
    1.7292    0.2500    0.0000 N   0  0  0  0  0  0  0  0  0  0  0  0
    0.0000    0.2583    0.0000 C   0  0  0  0  0  0  0  0  0  0  0  0
   -1.7333    0.2583    0.0000 C   0  0  0  0  0  0  0  0  0  0  0  0
   -0.8708   -0.2500    0.0000 C   0  0  0  0  0  0  0  0  0  0  0  0
   -1.7333    1.2583    0.0000 C   0  0  0  0  0  0  0  0  0  0  0  0
   -2.6000   -0.2500    0.0000 O   0  0  0  0  0  0  0  0  0  0  0  0
    0.8625   -1.2500    0.0000 O   0  0  0  0  0  0  0  0  0  0  0  0
   -2.6000    1.7500    0.0000 O   0  0  0  0  0  0  0  0  0  0  0  0
    2.5917   -0.2500    0.0000 C   0  0  0  0  0  0  0  0  0  0  0  0
    0.0000    1.2583    0.0000 C   0  0  0  0  0  0  0  0  0  0  0  0
   -0.8708    1.7500    0.0000 C   0  0  0  0  0  0  0  0  0  0  0  0
   -3.4708    0.2583    0.0000 C   0  0  0  0  0  0  0  0  0  0  0  0
   -3.4708    1.2583    0.0000 C   0  0  0  0  0  0  0  0  0  0  0  0
    3.4625   -0.7500    0.0000 C   0  0  0  0  0  0  0  0  0  0  0  0
    2.0917   -1.1125    0.0000 C   0  0  0  0  0  0  0  0  0  0  0  0
    3.0917    0.6208    0.0000 C   0  0  0  0  0  0  0  0  0  0  0  0
    3.4625   -1.7500    0.0000 C   0  0  0  0  0  0  0  0  0  0  0  0
  2  1  1  0  0  0  0
  3  1  1  0  0  0  0
  4  5  1  0  0  0  0
  4  6  2  0  0  0  0
  5  3  2  0  0  0  0
  6 12  1  0  0  0  0
  7  4  1  0  0  0  0
  8  1  2  0  0  0  0
  9  6  1  0  0  0  0
 10  2  1  0  0  0  0
 11  3  1  0  0  0  0
 12 11  2  0  0  0  0
 13  7  1  0  0  0  0
 14  9  1  0  0  0  0
 14 13  1  0  0  0  0
 15 10  1  0  0  0  0
 16 10  1  0  0  0  0
 17 10  1  0  0  0  0
 18 15  1  0  0  0  0
M  END
>  <idnumber>
T0511-9780

>  <LogP>
2.772000000000000e+000

>  <rotating_bonds>
3.000000000000000e+000

>  <hb_acceptors>
3.000000000000000e+000

>  <hb_donors>
1.000000000000000e+000

>  <PSA>
4.756000000000000e+001

>  <clusterid>
196

>  <is_centroid>
@

>  <class1>
730

>  <population1>
20896

>  <population>
20896

>  <cansmi>
CCC(NC(=O)c1ccc2c(c1)OCCO2)(C)C

>  <HBA2>
4

>  <HBD>
1

>  <logP>
2.7671

>  <TPSA>
47.56

>  <MW>
249.306

$$$$

 OpenBabel02121609142D

 19 21  0  0  0  0  0  0  0  0999 V2000
    0.4292   -0.2500    0.0000 C   0  0  0  0  0  0  0  0  0  0  0  0
    0.4292   -1.2500    0.0000 C   0  0  0  0  0  0  0  0  0  0  0  0
   -0.4333    0.2500    0.0000 C   0  0  0  0  0  0  0  0  0  0  0  0
   -0.4333   -1.7500    0.0000 O   0  0  0  0  0  0  0  0  0  0  0  0
    1.2917    0.2500    0.0000 C   0  0  0  0  0  0  0  0  0  0  0  0
   -1.3000   -0.2500    0.0000 C   0  0  0  0  0  0  0  0  0  0  0  0
   -1.3000   -1.2500    0.0000 C   0  0  0  0  0  0  0  0  0  0  0  0
    1.2917   -1.7500    0.0000 O   0  0  0  0  0  0  0  0  0  0  0  0
    2.1625   -0.2500    0.0000 C   0  0  0  0  0  0  0  0  0  0  0  0
    2.1625   -1.2500    0.0000 O   0  0  0  0  0  0  0  0  0  0  0  0
    1.2917    1.2500    0.0000 C   0  0  0  0  0  0  0  0  0  0  0  0
   -2.1708    0.2500    0.0000 C   0  0  0  0  0  0  0  0  0  0  0  0
   -2.1708   -1.7500    0.0000 C   0  0  0  0  0  0  0  0  0  0  0  0
    3.0292    0.2500    0.0000 C   0  0  0  0  0  0  0  0  0  0  0  0
    3.0292   -1.7500    0.0000 C   0  0  0  0  0  0  0  0  0  0  0  0
    2.1625    1.7500    0.0000 C   0  0  0  0  0  0  0  0  0  0  0  0
   -3.0333   -1.2500    0.0000 C   0  0  0  0  0  0  0  0  0  0  0  0
   -3.0333   -0.2500    0.0000 C   0  0  0  0  0  0  0  0  0  0  0  0
    3.0292    1.2500    0.0000 C   0  0  0  0  0  0  0  0  0  0  0  0
  2  1  1  0  0  0  0
  3  1  2  0  0  0  0
  4  2  1  0  0  0  0
  4  7  1  0  0  0  0
  5  1  1  0  0  0  0
  6  3  1  0  0  0  0
  7  6  2  0  0  0  0
  8  2  2  0  0  0  0
  9  5  2  0  0  0  0
 10  9  1  0  0  0  0
 11  5  1  0  0  0  0
 12  6  1  0  0  0  0
 13  7  1  0  0  0  0
 14  9  1  0  0  0  0
 14 19  2  0  0  0  0
 15 10  1  0  0  0  0
 16 11  2  0  0  0  0
 17 18  1  0  0  0  0
 17 13  2  0  0  0  0
 18 12  2  0  0  0  0
 19 16  1  0  0  0  0
M  END
>  <idnumber>
T0512-1096

>  <LogP>
2.980000000000000e+000

>  <rotating_bonds>
2.000000000000000e+000

>  <hb_acceptors>
2.000000000000000e+000

>  <hb_donors>
0.000000000000000e+000

>  <PSA>
3.553000000000000e+001

>  <clusterid>
-266

>  <is_centroid>
@

>  <class1>
799

>  <class2>
625

>  <population1>
7929

>  <population2>
877209

>  <population>
7929

>  <cansmi>
COc1ccccc1c1cc2ccccc2oc1=O

>  <HBA2>
3

>  <HBD>
0

>  <logP>
3.4686

>  <TPSA>
39.44

>  <MW>
252.265

$$$$

 OpenBabel02121609142D

 19 21  0  0  0  0  0  0  0  0999 V2000
    0.0000    0.5000    0.0000 N   0  0  0  0  0  0  0  0  0  0  0  0
    0.0000   -0.5000    0.0000 C   0  0  0  0  0  0  0  0  0  0  0  0
   -0.8708    1.0000    0.0000 C   0  0  0  0  0  0  0  0  0  0  0  0
    0.0000    2.5000    0.0000 N   0  0  0  0  0  0  0  0  0  0  0  0
    0.8625    2.0000    0.0000 C   0  0  0  0  0  0  0  0  0  0  0  0
   -0.8708    2.0000    0.0000 C   0  0  0  0  0  0  0  0  0  0  0  0
    0.8625    1.0000    0.0000 C   0  0  0  0  0  0  0  0  0  0  0  0
   -0.8708   -1.0000    0.0000 O   0  0  0  0  0  0  0  0  0  0  0  0
    0.8625   -1.0000    0.0000 C   0  0  0  0  0  0  0  0  0  0  0  0
    1.7292    2.5000    0.0000 O   0  0  0  0  0  0  0  0  0  0  0  0
   -1.7333    0.5000    0.0000 C   0  0  0  0  0  0  0  0  0  0  0  0
   -1.7333    2.5000    0.0000 C   0  0  0  0  0  0  0  0  0  0  0  0
    0.8625   -2.0000    0.0000 C   0  0  0  0  0  0  0  0  0  0  0  0
    1.7292   -0.5000    0.0000 C   0  0  0  0  0  0  0  0  0  0  0  0
   -2.6000    1.0000    0.0000 C   0  0  0  0  0  0  0  0  0  0  0  0
   -2.6000    2.0000    0.0000 C   0  0  0  0  0  0  0  0  0  0  0  0
    2.5917   -1.0000    0.0000 C   0  0  0  0  0  0  0  0  0  0  0  0
    1.7292   -2.5000    0.0000 C   0  0  0  0  0  0  0  0  0  0  0  0
    2.5917   -2.0000    0.0000 C   0  0  0  0  0  0  0  0  0  0  0  0
  2  1  1  0  0  0  0
  3  1  1  0  0  0  0
  4  5  1  0  0  0  0
  5  7  1  0  0  0  0
  6  3  2  0  0  0  0
  6  4  1  0  0  0  0
  7  1  1  0  0  0  0
  8  2  2  0  0  0  0
  9  2  1  0  0  0  0
 10  5  2  0  0  0  0
 11  3  1  0  0  0  0
 12  6  1  0  0  0  0
 12 16  2  0  0  0  0
 13  9  1  0  0  0  0
 14  9  2  0  0  0  0
 15 11  2  0  0  0  0
 16 15  1  0  0  0  0
 17 14  1  0  0  0  0
 18 13  2  0  0  0  0
 18 19  1  0  0  0  0
 19 17  2  0  0  0  0
M  END
>  <idnumber>
T0512-1296

>  <LogP>
1.624000000000000e+000

>  <rotating_bonds>
1.000000000000000e+000

>  <hb_acceptors>
2.000000000000000e+000

>  <hb_donors>
1.000000000000000e+000

>  <PSA>
4.941000000000003e+001

>  <clusterid>
197

>  <is_centroid>
@

>  <class1>
625

>  <class2>
835

>  <population1>
877209

>  <population2>
2727

>  <population>
2727

>  <cansmi>
O=C1Nc2ccccc2N(C1)C(=O)c1ccccc1

>  <HBA2>
4

>  <HBD>
1

>  <logP>
2.4885

>  <TPSA>
49.41

>  <MW>
252.268

$$$$

 OpenBabel02121609142D

 15 16  0  0  0  0  0  0  0  0999 V2000
    0.8667   -0.4500    0.0000 C   0  0  0  0  0  0  0  0  0  0  0  0
    0.8667   -1.4500    0.0000 C   0  0  0  0  0  0  0  0  0  0  0  0
   -0.6708   -0.9500    0.0000 N   0  0  0  0  0  0  0  0  0  0  0  0
   -0.0833   -0.1417    0.0000 N   0  0  0  0  0  0  0  0  0  0  0  0
   -0.0833   -1.7542    0.0000 C   0  0  0  0  0  0  0  0  0  0  0  0
    1.6750    0.1375    0.0000 O   0  0  0  0  0  0  0  0  0  0  0  0
   -0.3958    0.8125    0.0000 C   0  0  0  0  0  0  0  0  0  0  0  0
    1.6750   -2.0375    0.0000 N   0  0  0  0  0  0  0  0  0  0  0  0
   -1.6708   -0.9500    0.0000 C   0  0  0  0  0  0  0  0  0  0  0  0
   -0.3958   -2.7042    0.0000 C   0  0  0  0  0  0  0  0  0  0  0  0
    0.2750    1.5583    0.0000 C   0  0  0  0  0  0  0  0  0  0  0  0
   -1.3708    1.0208    0.0000 C   0  0  0  0  0  0  0  0  0  0  0  0
   -1.6833    1.9708    0.0000 C   0  0  0  0  0  0  0  0  0  0  0  0
   -0.0333    2.5083    0.0000 C   0  0  0  0  0  0  0  0  0  0  0  0
   -1.0125    2.7125    0.0000 C   0  0  0  0  0  0  0  0  0  0  0  0
  2  1  1  0  0  0  0
  3  4  1  0  0  0  0
  4  1  1  0  0  0  0
  5  2  2  0  0  0  0
  5  3  1  0  0  0  0
  6  1  2  0  0  0  0
  7  4  1  0  0  0  0
  8  2  1  0  0  0  0
  9  3  1  0  0  0  0
 10  5  1  0  0  0  0
 11  7  1  0  0  0  0
 12  7  2  0  0  0  0
 13 12  1  0  0  0  0
 14 11  2  0  0  0  0
 14 15  1  0  0  0  0
 15 13  2  0  0  0  0
M  END
>  <idnumber>
T0512-2268

>  <LogP>
-7.410000000000000e-001

>  <rotating_bonds>
1.000000000000000e+000

>  <hb_acceptors>
3.000000000000000e+000

>  <hb_donors>
1.000000000000000e+000

>  <PSA>
4.957000000000000e+001

>  <clusterid>
198

>  <is_centroid>
@

>  <class1>
813

>  <class2>
625

>  <population1>
2955

>  <population2>
877209

>  <population>
2946

>  <cansmi>
Nc1c(C)n(n(c1=O)c1ccccc1)C

>  <HBA2>
4

>  <HBD>
1

>  <logP>
1.6478

>  <TPSA>
52.95

>  <MW>
203.24

$$$$

 OpenBabel02121609142D

 12 13  0  0  0  0  0  0  0  0999 V2000
    1.7292   -0.5000    0.0000 N   0  0  0  0  0  0  0  0  0  0  0  0
    1.7292    0.5000    0.0000 N   0  0  0  0  0  0  0  0  0  0  0  0
    0.8625   -1.0000    0.0000 C   0  0  0  0  0  0  0  0  0  0  0  0
    0.8625    1.0000    0.0000 C   0  0  0  0  0  0  0  0  0  0  0  0
   -0.0083    0.5000    0.0000 C   0  0  0  0  0  0  0  0  0  0  0  0
   -0.0083   -0.5000    0.0000 C   0  0  0  0  0  0  0  0  0  0  0  0
    0.8625   -2.0000    0.0000 O   0  0  0  0  0  0  0  0  0  0  0  0
    0.8625    2.0000    0.0000 O   0  0  0  0  0  0  0  0  0  0  0  0
   -0.8708   -1.0000    0.0000 C   0  0  0  0  0  0  0  0  0  0  0  0
   -0.8708    1.0000    0.0000 C   0  0  0  0  0  0  0  0  0  0  0  0
   -1.7333    0.5000    0.0000 C   0  0  0  0  0  0  0  0  0  0  0  0
   -1.7333   -0.5000    0.0000 C   0  0  0  0  0  0  0  0  0  0  0  0
  2  1  1  0  0  0  0
  3  1  1  0  0  0  0
  4  2  1  0  0  0  0
  4  5  1  0  0  0  0
  5  6  2  0  0  0  0
  6  3  1  0  0  0  0
  7  3  2  0  0  0  0
  8  4  2  0  0  0  0
  9  6  1  0  0  0  0
 10  5  1  0  0  0  0
 11 12  1  0  0  0  0
 11 10  2  0  0  0  0
 12  9  2  0  0  0  0
M  END
>  <idnumber>
T0512-2288

>  <LogP>
7.580000000000000e-001

>  <rotating_bonds>
0.000000000000000e+000

>  <hb_acceptors>
2.000000000000000e+000

>  <hb_donors>
2.000000000000000e+000

>  <PSA>
5.820000000000000e+001

>  <clusterid>
-267

>  <is_centroid>
@

>  <class1>
862

>  <population1>
650

>  <population>
650

>  <cansmi>
O=c1[nH][nH]c(=O)c2c1cccc2

>  <HBA2>
2

>  <HBD>
2

>  <logP>
0.2164

>  <TPSA>
65.72

>  <MW>
162.145

$$$$

 OpenBabel02121609142D

 14 15  0  0  0  0  0  0  0  0999 V2000
   -0.4833   -0.1417    0.0000 N   0  0  0  0  0  0  0  0  0  0  0  0
   -0.7458    0.8208    0.0000 C   0  0  0  0  0  0  0  0  0  0  0  0
    0.0292   -2.0750    0.0000 O   0  0  0  0  0  0  0  0  0  0  0  0
    0.4792   -0.4042    0.0000 C   0  0  0  0  0  0  0  0  0  0  0  0
   -1.1958   -0.8500    0.0000 C   0  0  0  0  0  0  0  0  0  0  0  0
   -1.7083    1.0833    0.0000 O   0  0  0  0  0  0  0  0  0  0  0  0
   -0.9333   -1.8167    0.0000 C   0  0  3  0  0  0  0  0  0  0  0  0
    0.7417   -1.3667    0.0000 C   0  0  3  0  0  0  0  0  0  0  0  0
   -0.0375    1.5333    0.0000 C   0  0  0  0  0  0  0  0  0  0  0  0
    0.9625    2.5333    0.0000 C   0  0  0  0  0  0  0  0  0  0  0  0
    0.9625    1.5333    0.0000 C   0  0  0  0  0  0  0  0  0  0  0  0
   -0.0375    2.5333    0.0000 C   0  0  0  0  0  0  0  0  0  0  0  0
   -1.6458   -2.5250    0.0000 C   0  0  0  0  0  0  0  0  0  0  0  0
    1.7042   -1.6292    0.0000 C   0  0  0  0  0  0  0  0  0  0  0  0
  2  1  1  0  0  0  0
  3  7  1  0  0  0  0
  4  1  1  0  0  0  0
  5  1  1  0  0  0  0
  6  2  2  0  0  0  0
  7  5  1  0  0  0  0
  8  4  1  0  0  0  0
  8  3  1  0  0  0  0
  9  2  1  0  0  0  0
 10 12  1  0  0  0  0
 11  9  1  0  0  0  0
 11 10  1  0  0  0  0
 12  9  1  0  0  0  0
 13  7  1  0  0  0  0
 14  8  1  0  0  0  0
M  END
>  <idnumber>
T0512-3260

>  <LogP>
1.138000000000000e+000

>  <rotating_bonds>
1.000000000000000e+000

>  <hb_acceptors>
2.000000000000000e+000

>  <hb_donors>
0.000000000000000e+000

>  <PSA>
2.954000000000000e+001

>  <clusterid>
-268

>  <is_centroid>
@

>  <class1>
722

>  <class2>
786

>  <population1>
1463

>  <population2>
48067

>  <population>
76

>  <cansmi>
CC1OC(C)CN(C1)C(=O)C1CCC1

>  <HBA2>
3

>  <HBD>
0

>  <logP>
1.3602

>  <TPSA>
29.54

>  <MW>
197.274

$$$$

 OpenBabel02121609142D

 18 19  0  0  0  0  0  0  0  0999 V2000
    1.1292    0.2708    0.0000 C   0  0  0  0  0  0  0  0  0  0  0  0
    0.5417   -0.5375    0.0000 N   0  0  0  0  0  0  0  0  0  0  0  0
    0.5417    1.0833    0.0000 N   0  0  0  0  0  0  0  0  0  0  0  0
   -0.4083    0.7708    0.0000 C   0  0  0  0  0  0  0  0  0  0  0  0
   -0.4083   -0.2292    0.0000 C   0  0  0  0  0  0  0  0  0  0  0  0
    0.8500   -1.4917    0.0000 C   0  0  0  0  0  0  0  0  0  0  0  0
    0.8500    2.0333    0.0000 C   0  0  0  0  0  0  0  0  0  0  0  0
    2.1292    0.2708    0.0000 O   0  0  0  0  0  0  0  0  0  0  0  0
    1.8292   -1.7000    0.0000 O   0  0  0  0  0  0  0  0  0  0  0  0
    0.1792    2.7708    0.0000 O   0  0  0  0  0  0  0  0  0  0  0  0
   -1.2750   -0.7292    0.0000 C   0  0  0  0  0  0  0  0  0  0  0  0
   -1.2750    1.2708    0.0000 C   0  0  0  0  0  0  0  0  0  0  0  0
    0.1792   -2.2292    0.0000 C   0  0  0  0  0  0  0  0  0  0  0  0
    1.8292    2.2375    0.0000 C   0  0  0  0  0  0  0  0  0  0  0  0
   -2.1458    0.7708    0.0000 C   0  0  0  0  0  0  0  0  0  0  0  0
   -2.1458   -0.2292    0.0000 C   0  0  0  0  0  0  0  0  0  0  0  0
    0.4917   -3.1792    0.0000 C   0  0  0  0  0  0  0  0  0  0  0  0
    2.1292    3.1875    0.0000 C   0  0  0  0  0  0  0  0  0  0  0  0
  2  1  1  0  0  0  0
  3  1  1  0  0  0  0
  4  3  1  0  0  0  0
  4  5  2  0  0  0  0
  5  2  1  0  0  0  0
  6  2  1  0  0  0  0
  7  3  1  0  0  0  0
  8  1  2  0  0  0  0
  9  6  2  0  0  0  0
 10  7  2  0  0  0  0
 11  5  1  0  0  0  0
 12  4  1  0  0  0  0
 13  6  1  0  0  0  0
 14  7  1  0  0  0  0
 15 12  2  0  0  0  0
 15 16  1  0  0  0  0
 16 11  2  0  0  0  0
 17 13  1  0  0  0  0
 18 14  1  0  0  0  0
M  END
>  <idnumber>
T0512-4859

>  <LogP>
2.515000000000000e+000

>  <rotating_bonds>
2.000000000000000e+000

>  <hb_acceptors>
3.000000000000000e+000

>  <hb_donors>
0.000000000000000e+000

>  <PSA>
5.769000000000001e+001

>  <clusterid>
-271

>  <is_centroid>
@

>  <class1>
727

>  <population1>
3921

>  <population>
3921

>  <cansmi>
CCC(=O)n1c2ccccc2n(c1=O)C(=O)CC

>  <HBA2>
5

>  <HBD>
0

>  <logP>
1.9034

>  <TPSA>
61.07

>  <MW>
246.262

$$$$

 OpenBabel02121609142D

 15 16  0  0  0  0  0  0  0  0999 V2000
    0.7292   -0.4167    0.0000 C   0  0  0  0  0  0  0  0  0  0  0  0
   -0.2708   -0.4167    0.0000 C   0  0  0  0  0  0  0  0  0  0  0  0
    1.3167   -1.2250    0.0000 N   0  0  0  0  0  0  0  0  0  0  0  0
   -0.7708    0.4500    0.0000 C   0  0  0  0  0  0  0  0  0  0  0  0
    1.3167    0.3958    0.0000 N   0  0  0  0  0  0  0  0  0  0  0  0
    2.2667    0.0833    0.0000 C   0  0  0  0  0  0  0  0  0  0  0  0
    2.2667   -0.9167    0.0000 C   0  0  0  0  0  0  0  0  0  0  0  0
   -1.7708    0.4500    0.0000 C   0  0  0  0  0  0  0  0  0  0  0  0
   -0.7708   -1.2792    0.0000 O   0  0  0  0  0  0  0  0  0  0  0  0
   -2.2708   -0.4167    0.0000 Cl  0  0  0  0  0  0  0  0  0  0  0  0
   -0.2708    1.3208    0.0000 C   0  0  0  0  0  0  0  0  0  0  0  0
    1.0042   -2.1750    0.0000 C   0  0  0  0  0  0  0  0  0  0  0  0
   -2.2708    1.3208    0.0000 C   0  0  0  0  0  0  0  0  0  0  0  0
   -0.7708    2.1833    0.0000 C   0  0  0  0  0  0  0  0  0  0  0  0
   -1.7708    2.1833    0.0000 C   0  0  0  0  0  0  0  0  0  0  0  0
  2  1  1  0  0  0  0
  3  1  1  0  0  0  0
  4  2  1  0  0  0  0
  5  1  2  0  0  0  0
  6  5  1  0  0  0  0
  7  3  1  0  0  0  0
  7  6  2  0  0  0  0
  8  4  2  0  0  0  0
  9  2  2  0  0  0  0
 10  8  1  0  0  0  0
 11  4  1  0  0  0  0
 12  3  1  0  0  0  0
 13  8  1  0  0  0  0
 13 15  2  0  0  0  0
 14 11  2  0  0  0  0
 15 14  1  0  0  0  0
M  END
>  <idnumber>
T0512-6031

>  <LogP>
2.244000000000000e+000

>  <rotating_bonds>
2.000000000000000e+000

>  <hb_acceptors>
3.000000000000000e+000

>  <hb_donors>
0.000000000000000e+000

>  <PSA>
3.489000000000000e+001

>  <clusterid>
-275

>  <is_centroid>
@

>  <class1>
625

>  <class2>
686

>  <population1>
877209

>  <population2>
31113

>  <population>
26567

>  <cansmi>
Clc1ccccc1C(=O)c1nccn1C

>  <HBA2>
3

>  <HBD>
0

>  <logP>
2.3045

>  <TPSA>
34.89

>  <MW>
220.655

$$$$

 OpenBabel02121609142D

 16 17  0  0  0  0  0  0  0  0999 V2000
   -0.0083    1.7500    0.0000 C   0  0  0  0  0  0  0  0  0  0  0  0
    0.8625    1.2500    0.0000 N   0  0  0  0  0  0  0  0  0  0  0  0
   -0.0083    2.7500    0.0000 N   0  0  0  0  0  0  0  0  0  0  0  0
   -0.8708   -2.7500    0.0000 C   0  0  0  0  0  0  0  0  0  0  0  0
   -0.8708   -1.7500    0.0000 C   0  0  0  0  0  0  0  0  0  0  0  0
   -0.8708    1.2500    0.0000 O   0  0  0  0  0  0  0  0  0  0  0  0
   -0.0083   -3.2500    0.0000 O   0  0  0  0  0  0  0  0  0  0  0  0
   -0.0083   -1.2500    0.0000 C   0  0  0  0  0  0  0  0  0  0  0  0
   -1.7333   -1.2500    0.0000 C   0  0  0  0  0  0  0  0  0  0  0  0
   -0.8708    0.2500    0.0000 C   0  0  0  0  0  0  0  0  0  0  0  0
   -1.7333   -0.2500    0.0000 C   0  0  0  0  0  0  0  0  0  0  0  0
   -0.0083   -0.2500    0.0000 C   0  0  0  0  0  0  0  0  0  0  0  0
    1.7292    2.7500    0.0000 C   0  0  0  0  0  0  0  0  0  0  0  0
    0.8625    3.2500    0.0000 C   0  0  0  0  0  0  0  0  0  0  0  0
    1.7292    1.7500    0.0000 C   0  0  0  0  0  0  0  0  0  0  0  0
   -1.7333   -3.2500    0.0000 C   0  0  0  0  0  0  0  0  0  0  0  0
  2  1  1  0  0  0  0
  3  1  2  0  0  0  0
  4  5  1  0  0  0  0
  5  8  1  0  0  0  0
  6  1  1  0  0  0  0
  7  4  2  0  0  0  0
  8 12  2  0  0  0  0
  9 11  1  0  0  0  0
  9  5  2  0  0  0  0
 10  6  1  0  0  0  0
 11 10  2  0  0  0  0
 12 10  1  0  0  0  0
 13 14  2  0  0  0  0
 14  3  1  0  0  0  0
 15  2  2  0  0  0  0
 15 13  1  0  0  0  0
 16  4  1  0  0  0  0
M  END
>  <idnumber>
T0512-6748

>  <LogP>
1.225000000000000e+000

>  <rotating_bonds>
3.000000000000000e+000

>  <hb_acceptors>
3.000000000000000e+000

>  <hb_donors>
0.000000000000000e+000

>  <PSA>
5.208000000000000e+001

>  <clusterid>
-276

>  <is_centroid>
@

>  <class1>
625

>  <class2>
737

>  <population1>
877209

>  <population2>
30296

>  <population>
23887

>  <cansmi>
CC(=O)c1ccc(cc1)Oc1ncccn1

>  <HBA2>
4

>  <HBD>
0

>  <logP>
2.4715

>  <TPSA>
52.08

>  <MW>
214.22

$$$$

 OpenBabel02121609142D

 20 22  0  0  0  0  0  0  0  0999 V2000
    0.1417    0.6875    0.0000 C   0  0  3  0  0  0  0  0  0  0  0  0
    0.7167    1.4833    0.0000 C   0  0  0  0  0  0  0  0  0  0  0  0
    0.1500    2.2875    0.0000 N   0  0  0  0  0  0  0  0  0  0  0  0
    0.9167    0.0250    0.0000 C   0  0  0  0  0  0  0  0  0  0  0  0
   -0.7833    1.0208    0.0000 C   0  0  0  0  0  0  0  0  0  0  0  0
   -0.7833    1.9958    0.0000 C   0  0  0  0  0  0  0  0  0  0  0  0
   -0.2083   -0.2667    0.0000 C   0  0  0  0  0  0  0  0  0  0  0  0
    0.4625   -0.8542    0.0000 C   0  0  0  0  0  0  0  0  0  0  0  0
   -0.2250   -1.4000    0.0000 N   0  0  0  0  0  0  0  0  0  0  0  0
    1.8917    0.0708    0.0000 C   0  0  0  0  0  0  0  0  0  0  0  0
    1.7000    1.5458    0.0000 O   0  0  0  0  0  0  0  0  0  0  0  0
    1.0250   -1.6792    0.0000 C   0  0  0  0  0  0  0  0  0  0  0  0
    2.4292   -0.7542    0.0000 C   0  0  0  0  0  0  0  0  0  0  0  0
    1.9875   -1.6292    0.0000 C   0  0  0  0  0  0  0  0  0  0  0  0
   -1.6250    0.5250    0.0000 C   0  0  0  0  0  0  0  0  0  0  0  0
   -1.6333    2.4875    0.0000 C   0  0  0  0  0  0  0  0  0  0  0  0
   -0.6958   -0.8500    0.0000 C   0  0  0  0  0  0  0  0  0  0  0  0
    2.4792   -2.4792    0.0000 C   0  0  0  0  0  0  0  0  0  0  0  0
   -2.4750    1.0083    0.0000 C   0  0  0  0  0  0  0  0  0  0  0  0
   -2.4833    1.9958    0.0000 C   0  0  0  0  0  0  0  0  0  0  0  0
  2  1  1  0  0  0  0
  3  2  1  0  0  0  0
  3  6  1  0  0  0  0
  4  1  1  0  0  0  0
  5  1  1  0  0  0  0
  6  5  2  0  0  0  0
  7  1  1  0  0  0  0
  8  4  2  0  0  0  0
  9  7  3  0  0  0  0
 10  4  1  0  0  0  0
 11  2  2  0  0  0  0
 12  8  1  0  0  0  0
 12 14  2  0  0  0  0
 13 10  2  0  0  0  0
 14 13  1  0  0  0  0
 15  5  1  0  0  0  0
 16  6  1  0  0  0  0
 16 20  2  0  0  0  0
 17  8  1  0  0  0  0
 18 14  1  0  0  0  0
 19 15  2  0  0  0  0
 20 19  1  0  0  0  0
M  END
>  <idnumber>
T0512-7354

>  <LogP>
2.660000000000000e+000

>  <rotating_bonds>
2.000000000000000e+000

>  <hb_acceptors>
2.000000000000000e+000

>  <hb_donors>
1.000000000000000e+000

>  <PSA>
5.289000000000002e+001

>  <clusterid>
-277

>  <is_centroid>
@

>  <class1>
968

>  <class2>
625

>  <population1>
3974

>  <population2>
877209

>  <population>
3974

>  <cansmi>
N#CC1(C(=O)Nc2c1cccc2)c1ccc(cc1C)C

>  <HBA2>
3

>  <HBD>
1

>  <logP>
3.20318

>  <TPSA>
52.89

>  <MW>
262.306

$$$$

 OpenBabel02121609142D

 18 20  0  0  0  0  0  0  0  0999 V2000
    1.0917    0.1833    0.0000 C   0  0  0  0  0  0  0  0  0  0  0  0
    0.1417    0.4958    0.0000 C   0  0  0  0  0  0  0  0  0  0  0  0
   -0.4458   -0.3167    0.0000 N   0  0  0  0  0  0  0  0  0  0  0  0
    1.0917   -0.8167    0.0000 C   0  0  0  0  0  0  0  0  0  0  0  0
    0.1417   -1.1250    0.0000 C   0  0  0  0  0  0  0  0  0  0  0  0
    1.9042    0.7708    0.0000 C   0  0  0  0  0  0  0  0  0  0  0  0
    2.8542    0.4625    0.0000 N   0  0  0  0  0  0  0  0  0  0  0  0
    3.4417    1.2708    0.0000 N   0  0  0  0  0  0  0  0  0  0  0  0
    1.9042    1.7708    0.0000 O   0  0  0  0  0  0  0  0  0  0  0  0
    2.8542    2.0833    0.0000 C   0  0  0  0  0  0  0  0  0  0  0  0
   -1.4458   -0.3167    0.0000 C   0  0  0  0  0  0  0  0  0  0  0  0
   -0.1708    1.4458    0.0000 C   0  0  0  0  0  0  0  0  0  0  0  0
   -0.1708   -2.0750    0.0000 C   0  0  0  0  0  0  0  0  0  0  0  0
   -1.9458   -1.1792    0.0000 C   0  0  0  0  0  0  0  0  0  0  0  0
   -1.9458    0.5500    0.0000 C   0  0  0  0  0  0  0  0  0  0  0  0
   -2.9458    0.5500    0.0000 C   0  0  0  0  0  0  0  0  0  0  0  0
   -2.9458   -1.1792    0.0000 C   0  0  0  0  0  0  0  0  0  0  0  0
   -3.4458   -0.3167    0.0000 C   0  0  0  0  0  0  0  0  0  0  0  0
  2  1  2  0  0  0  0
  3  2  1  0  0  0  0
  4  1  1  0  0  0  0
  5  4  2  0  0  0  0
  5  3  1  0  0  0  0
  6  1  1  0  0  0  0
  7  6  2  0  0  0  0
  8  7  1  0  0  0  0
  8 10  2  0  0  0  0
  9  6  1  0  0  0  0
 10  9  1  0  0  0  0
 11  3  1  0  0  0  0
 12  2  1  0  0  0  0
 13  5  1  0  0  0  0
 14 11  2  0  0  0  0
 15 11  1  0  0  0  0
 16 15  2  0  0  0  0
 17 14  1  0  0  0  0
 17 18  2  0  0  0  0
 18 16  1  0  0  0  0
M  END
>  <idnumber>
T0512-8791

>  <LogP>
2.277000000000000e+000

>  <rotating_bonds>
2.000000000000000e+000

>  <hb_acceptors>
2.000000000000000e+000

>  <hb_donors>
0.000000000000000e+000

>  <PSA>
4.384999999999997e+001

>  <clusterid>
-279

>  <is_centroid>
@

>  <class1>
635

>  <class2>
689

>  <class3>
625

>  <population1>
31512

>  <population2>
17264

>  <population3>
877209

>  <population>
636

>  <cansmi>
Cc1cc(c(n1c1ccccc1)C)c1ocnn1

>  <HBA2>
4

>  <HBD>
0

>  <logP>
3.1441

>  <TPSA>
43.85

>  <MW>
239.273

$$$$

 OpenBabel02121609142D

 13 14  0  0  0  0  0  0  0  0999 V2000
    0.5792   -0.3417    0.0000 N   0  0  0  0  0  0  0  0  0  0  0  0
    1.1667    0.4708    0.0000 C   0  0  0  0  0  0  0  0  0  0  0  0
    1.1667   -1.1500    0.0000 C   0  0  0  0  0  0  0  0  0  0  0  0
    2.1167   -0.8417    0.0000 C   0  0  0  0  0  0  0  0  0  0  0  0
    2.1167    0.1583    0.0000 C   0  0  0  0  0  0  0  0  0  0  0  0
   -0.4208   -0.3417    0.0000 C   0  0  0  0  0  0  0  0  0  0  0  0
   -1.9208    0.6333    0.0000 O   0  0  0  0  0  0  0  0  0  0  0  0
   -0.9208    0.5250    0.0000 C   0  0  3  0  0  0  0  0  0  0  0  0
    0.8542   -2.1042    0.0000 C   0  0  0  0  0  0  0  0  0  0  0  0
    0.8542    1.4208    0.0000 C   0  0  0  0  0  0  0  0  0  0  0  0
   -2.1208    1.6083    0.0000 C   0  0  0  0  0  0  0  0  0  0  0  0
   -0.5125    1.4375    0.0000 C   0  0  0  0  0  0  0  0  0  0  0  0
   -1.2583    2.1083    0.0000 C   0  0  0  0  0  0  0  0  0  0  0  0
  2  1  1  0  0  0  0
  3  1  1  0  0  0  0
  4  3  2  0  0  0  0
  4  5  1  0  0  0  0
  5  2  2  0  0  0  0
  6  1  1  0  0  0  0
  7  8  1  0  0  0  0
  8  6  1  0  0  0  0
  9  3  1  0  0  0  0
 10  2  1  0  0  0  0
 11  7  1  0  0  0  0
 12  8  1  0  0  0  0
 13 12  1  0  0  0  0
 13 11  1  0  0  0  0
M  END
>  <idnumber>
T0513-0396

>  <LogP>
2.460000000000000e+000

>  <rotating_bonds>
2.000000000000000e+000

>  <hb_acceptors>
1.000000000000000e+000

>  <hb_donors>
0.000000000000000e+000

>  <PSA>
1.416000000000000e+001

>  <clusterid>
-280

>  <is_centroid>
@

>  <class1>
635

>  <class2>
723

>  <population1>
31512

>  <population2>
9592

>  <population>
1028

>  <cansmi>
Cc1ccc(n1CC1CCCO1)C

>  <HBA2>
2

>  <HBD>
0

>  <logP>
2.2839

>  <TPSA>
14.16

>  <MW>
179.259

$$$$

 OpenBabel02121609142D

 12 13  0  0  0  0  0  0  0  0999 V2000
    1.7292   -0.5000    0.0000 N   0  0  0  0  0  0  0  0  0  0  0  0
    1.7292    0.5000    0.0000 N   0  0  0  0  0  0  0  0  0  0  0  0
    0.8625    1.0000    0.0000 C   0  0  0  0  0  0  0  0  0  0  0  0
   -0.0083    0.5000    0.0000 C   0  0  0  0  0  0  0  0  0  0  0  0
   -0.0083   -0.5000    0.0000 C   0  0  0  0  0  0  0  0  0  0  0  0
    0.8625   -1.0000    0.0000 C   0  0  0  0  0  0  0  0  0  0  0  0
    0.8625    2.0000    0.0000 O   0  0  0  0  0  0  0  0  0  0  0  0
   -0.8708    1.0000    0.0000 C   0  0  0  0  0  0  0  0  0  0  0  0
   -0.8708   -1.0000    0.0000 C   0  0  0  0  0  0  0  0  0  0  0  0
    0.8625   -2.0000    0.0000 C   0  0  0  0  0  0  0  0  0  0  0  0
   -1.7333    0.5000    0.0000 C   0  0  0  0  0  0  0  0  0  0  0  0
   -1.7333   -0.5000    0.0000 C   0  0  0  0  0  0  0  0  0  0  0  0
  2  1  1  0  0  0  0
  3  2  1  0  0  0  0
  3  4  1  0  0  0  0
  4  5  2  0  0  0  0
  5  6  1  0  0  0  0
  6  1  2  0  0  0  0
  7  3  2  0  0  0  0
  8  4  1  0  0  0  0
  9  5  1  0  0  0  0
 10  6  1  0  0  0  0
 11 12  1  0  0  0  0
 11  8  2  0  0  0  0
 12  9  2  0  0  0  0
M  END
>  <idnumber>
T0513-0516

>  <LogP>
1.244000000000000e+000

>  <rotating_bonds>
0.000000000000000e+000

>  <hb_acceptors>
2.000000000000000e+000

>  <hb_donors>
1.000000000000000e+000

>  <PSA>
4.146000000000000e+001

>  <clusterid>
-281

>  <is_centroid>
@

>  <class1>
792

>  <population1>
7197

>  <population>
7197

>  <cansmi>
O=c1[nH]nc(c2c1cccc2)C

>  <HBA2>
2

>  <HBD>
1

>  <logP>
1.2315

>  <TPSA>
45.75

>  <MW>
160.173

$$$$

 OpenBabel02121609142D

 14 15  0  0  0  0  0  0  0  0999 V2000
    0.4292    0.0000    0.0000 C   0  0  3  0  0  0  0  0  0  0  0  0
   -0.4333   -0.5000    0.0000 O   0  0  0  0  0  0  0  0  0  0  0  0
    1.2917   -0.5000    0.0000 C   0  0  0  0  0  0  0  0  0  0  0  0
   -0.4333    1.5000    0.0000 O   0  0  0  0  0  0  0  0  0  0  0  0
   -1.3000    0.0000    0.0000 C   0  0  0  0  0  0  0  0  0  0  0  0
    0.4292    1.0000    0.0000 C   0  0  0  0  0  0  0  0  0  0  0  0
   -1.3000    1.0000    0.0000 C   0  0  0  0  0  0  0  0  0  0  0  0
    1.2917   -1.5000    0.0000 O   0  0  0  0  0  0  0  0  0  0  0  0
    2.1625    0.0000    0.0000 O   0  0  0  0  0  0  0  0  0  0  0  0
   -2.1708   -0.5000    0.0000 C   0  0  0  0  0  0  0  0  0  0  0  0
   -2.1708    1.5000    0.0000 C   0  0  0  0  0  0  0  0  0  0  0  0
    3.0292   -0.5000    0.0000 C   0  0  0  0  0  0  0  0  0  0  0  0
   -3.0333    0.0000    0.0000 C   0  0  0  0  0  0  0  0  0  0  0  0
   -3.0333    1.0000    0.0000 C   0  0  0  0  0  0  0  0  0  0  0  0
  2  1  1  0  0  0  0
  3  1  1  0  0  0  0
  4  6  1  0  0  0  0
  5  2  1  0  0  0  0
  5  7  2  0  0  0  0
  6  1  1  0  0  0  0
  7  4  1  0  0  0  0
  8  3  2  0  0  0  0
  9  3  1  0  0  0  0
 10  5  1  0  0  0  0
 11  7  1  0  0  0  0
 12  9  1  0  0  0  0
 13 10  2  0  0  0  0
 14 11  2  0  0  0  0
 14 13  1  0  0  0  0
M  END
>  <idnumber>
T0513-0544

>  <LogP>
1.584000000000000e+000

>  <rotating_bonds>
2.000000000000000e+000

>  <hb_acceptors>
3.000000000000000e+000

>  <hb_donors>
0.000000000000000e+000

>  <PSA>
4.476000000000003e+001

>  <clusterid>
201

>  <is_centroid>
@

>  <class1>
730

>  <population1>
20896

>  <population>
20896

>  <cansmi>
COC(=O)C1COc2c(O1)cccc2

>  <HBA2>
4

>  <HBD>
0

>  <logP>
0.9994

>  <TPSA>
44.76

>  <MW>
194.184

$$$$

 OpenBabel02121609142D

 15 16  0  0  0  0  0  0  0  0999 V2000
   -0.1458    0.9958    0.0000 C   0  0  0  0  0  0  0  0  0  0  0  0
    0.1667    1.9458    0.0000 C   0  0  0  0  0  0  0  0  0  0  0  0
    0.2167   -0.7042    0.0000 N   0  0  0  0  0  0  0  0  0  0  0  0
   -0.4208    2.7500    0.0000 S   0  0  0  0  0  0  0  0  0  0  0  0
    0.5250    0.2500    0.0000 C   0  0  0  0  0  0  0  0  0  0  0  0
    1.1167    2.2500    0.0000 C   0  0  0  0  0  0  0  0  0  0  0  0
   -1.1208    0.7833    0.0000 O   0  0  0  0  0  0  0  0  0  0  0  0
    0.1667    3.5583    0.0000 C   0  0  0  0  0  0  0  0  0  0  0  0
    1.1167    3.2500    0.0000 C   0  0  0  0  0  0  0  0  0  0  0  0
    0.8875   -1.4417    0.0000 C   0  0  0  0  0  0  0  0  0  0  0  0
   -0.7625   -0.9125    0.0000 C   0  0  0  0  0  0  0  0  0  0  0  0
    0.5792   -2.3917    0.0000 C   0  0  0  0  0  0  0  0  0  0  0  0
   -1.0708   -1.8625    0.0000 C   0  0  0  0  0  0  0  0  0  0  0  0
   -0.4000   -2.6042    0.0000 C   0  0  0  0  0  0  0  0  0  0  0  0
   -0.7083   -3.5542    0.0000 C   0  0  0  0  0  0  0  0  0  0  0  0
  2  1  1  0  0  0  0
  3  5  1  0  0  0  0
  4  2  1  0  0  0  0
  5  1  1  0  0  0  0
  6  2  2  0  0  0  0
  7  1  2  0  0  0  0
  8  4  1  0  0  0  0
  9  6  1  0  0  0  0
  9  8  2  0  0  0  0
 10  3  1  0  0  0  0
 11  3  1  0  0  0  0
 12 10  1  0  0  0  0
 13 11  1  0  0  0  0
 14 13  1  0  0  0  0
 14 12  1  0  0  0  0
 15 14  1  0  0  0  0
M  END
>  <idnumber>
T0513-2140

>  <LogP>
2.972000000000000e+000

>  <rotating_bonds>
3.000000000000000e+000

>  <hb_acceptors>
3.000000000000000e+000

>  <hb_donors>
0.000000000000000e+000

>  <PSA>
4.855000000000000e+001

>  <clusterid>
-282

>  <is_centroid>
@

>  <class1>
645

>  <class2>
639

>  <population1>
105961

>  <population2>
59855

>  <population>
5372

>  <cansmi>
CC1CCN(CC1)CC(=O)c1cccs1

>  <HBA2>
3

>  <HBD>
0

>  <logP>
2.6006

>  <TPSA>
48.55

>  <MW>
223.334

$$$$

 OpenBabel02121609142D

 18 20  0  0  0  0  0  0  0  0999 V2000
   -2.8458    0.6833    0.0000 C   0  0  0  0  0  0  0  0  0  0  0  0
   -2.2833    1.5208    0.0000 N   0  0  0  0  0  0  0  0  0  0  0  0
   -1.3125    1.2333    0.0000 C   0  0  0  0  0  0  0  0  0  0  0  0
   -1.3125    0.2583    0.0000 C   0  0  0  0  0  0  0  0  0  0  0  0
   -2.2250   -0.1125    0.0000 C   0  0  0  0  0  0  0  0  0  0  0  0
   -0.4958   -0.2917    0.0000 C   0  0  0  0  0  0  0  0  0  0  0  0
    2.9375   -0.4500    0.0000 C   0  0  0  0  0  0  0  0  0  0  0  0
    0.3917    0.1833    0.0000 C   0  0  0  0  0  0  0  0  0  0  0  0
   -3.8333    0.8250    0.0000 O   0  0  0  0  0  0  0  0  0  0  0  0
    2.0917    0.0875    0.0000 N   0  0  0  0  0  0  0  0  0  0  0  0
   -0.4250    1.7083    0.0000 C   0  0  0  0  0  0  0  0  0  0  0  0
    1.2167   -0.3875    0.0000 C   0  0  0  0  0  0  0  0  0  0  0  0
    3.8250    0.0125    0.0000 O   0  0  0  0  0  0  0  0  0  0  0  0
    0.4292    1.1833    0.0000 C   0  0  0  0  0  0  0  0  0  0  0  0
   -2.3333   -1.1125    0.0000 C   0  0  0  0  0  0  0  0  0  0  0  0
   -0.6083   -1.2917    0.0000 C   0  0  0  0  0  0  0  0  0  0  0  0
   -1.5208   -1.7042    0.0000 C   0  0  0  0  0  0  0  0  0  0  0  0
    2.8917   -1.4500    0.0000 C   0  0  0  0  0  0  0  0  0  0  0  0
  2  1  1  0  0  0  0
  3  2  1  0  0  0  0
  3  4  2  0  0  0  0
  4  5  1  0  0  0  0
  5  1  1  0  0  0  0
  6  4  1  0  0  0  0
  6 16  1  0  0  0  0
  7 10  1  0  0  0  0
  8  6  2  0  0  0  0
  8 14  1  0  0  0  0
  9  1  2  0  0  0  0
 10 12  1  0  0  0  0
 11  3  1  0  0  0  0
 12  8  1  0  0  0  0
 13  7  2  0  0  0  0
 14 11  2  0  0  0  0
 15  5  2  0  0  0  0
 16 17  2  0  0  0  0
 17 15  1  0  0  0  0
 18  7  1  0  0  0  0
M  END
>  <idnumber>
T0513-3187

>  <LogP>
6.100000000000000e-001

>  <rotating_bonds>
2.000000000000000e+000

>  <hb_acceptors>
2.000000000000000e+000

>  <hb_donors>
2.000000000000000e+000

>  <PSA>
5.820000000000000e+001

>  <clusterid>
96

>  <is_centroid>
@

>  <class1>
805

>  <population1>
335

>  <population>
335

>  <cansmi>
CC(=O)NCc1ccc2c3c1cccc3c(=O)[nH]2

>  <HBA2>
3

>  <HBD>
2

>  <logP>
2.1461

>  <TPSA>
61.96

>  <MW>
240.257

$$$$

 OpenBabel02121609142D

 18 19  0  0  0  0  0  0  0  0999 V2000
   -1.3000    1.0000    0.0000 N   0  0  0  0  0  0  0  0  0  0  0  0
    0.4292    1.0000    0.0000 C   0  0  0  0  0  0  0  0  0  0  0  0
   -3.0333    0.0000    0.0000 O   0  0  0  0  0  0  0  0  0  0  0  0
    1.2917    1.5000    0.0000 N   0  0  0  0  0  0  0  0  0  0  0  0
   -0.4333    1.5000    0.0000 C   0  0  0  0  0  0  0  0  0  0  0  0
   -2.1708    1.5000    0.0000 C   0  0  0  0  0  0  0  0  0  0  0  0
   -1.3000    0.0000    0.0000 C   0  0  0  0  0  0  0  0  0  0  0  0
    0.4292    0.0000    0.0000 O   0  0  0  0  0  0  0  0  0  0  0  0
   -3.0333    1.0000    0.0000 C   0  0  3  0  0  0  0  0  0  0  0  0
   -2.1708   -0.5000    0.0000 C   0  0  3  0  0  0  0  0  0  0  0  0
    2.1625    1.0000    0.0000 C   0  0  0  0  0  0  0  0  0  0  0  0
   -3.9000    1.5000    0.0000 C   0  0  0  0  0  0  0  0  0  0  0  0
   -2.1708   -1.5000    0.0000 C   0  0  0  0  0  0  0  0  0  0  0  0
    2.1625    0.0000    0.0000 C   0  0  0  0  0  0  0  0  0  0  0  0
    3.0292    1.5000    0.0000 C   0  0  0  0  0  0  0  0  0  0  0  0
    3.8917    1.0000    0.0000 C   0  0  0  0  0  0  0  0  0  0  0  0
    3.0292   -0.5000    0.0000 C   0  0  0  0  0  0  0  0  0  0  0  0
    3.8917    0.0000    0.0000 C   0  0  0  0  0  0  0  0  0  0  0  0
  2  5  1  0  0  0  0
  3 10  1  0  0  0  0
  4  2  1  0  0  0  0
  5  1  1  0  0  0  0
  6  1  1  0  0  0  0
  7  1  1  0  0  0  0
  8  2  2  0  0  0  0
  9  6  1  0  0  0  0
  9  3  1  0  0  0  0
 10  7  1  0  0  0  0
 11  4  1  0  0  0  0
 12  9  1  0  0  0  0
 13 10  1  0  0  0  0
 14 11  1  0  0  0  0
 15 11  1  0  0  0  0
 16 15  1  0  0  0  0
 17 14  1  0  0  0  0
 17 18  1  0  0  0  0
 18 16  1  0  0  0  0
M  END
>  <idnumber>
T0513-4747

>  <LogP>
2.442000000000000e+000

>  <rotating_bonds>
3.000000000000000e+000

>  <hb_acceptors>
3.000000000000000e+000

>  <hb_donors>
1.000000000000000e+000

>  <PSA>
4.156999999999997e+001

>  <clusterid>
-285

>  <is_centroid>
@

>  <class1>
797

>  <class2>
786

>  <population1>
40410

>  <population2>
48067

>  <population>
1726

>  <cansmi>
O=C(NC1CCCCC1)CN1CC(C)OC(C1)C

>  <HBA2>
4

>  <HBD>
1

>  <logP>
1.8733

>  <TPSA>
41.57

>  <MW>
254.368

$$$$

 OpenBabel02121609142D

 18 20  0  0  0  0  0  0  0  0999 V2000
    1.7292   -1.0167    0.0000 N   0  0  0  0  0  0  0  0  0  0  0  0
    1.7292   -2.0167    0.0000 N   0  0  0  0  0  0  0  0  0  0  0  0
    0.8625   -0.5167    0.0000 C   0  0  0  0  0  0  0  0  0  0  0  0
    0.0000   -1.0167    0.0000 C   0  0  0  0  0  0  0  0  0  0  0  0
    0.0000   -2.0167    0.0000 C   0  0  0  0  0  0  0  0  0  0  0  0
    0.8625    0.4833    0.0000 N   0  0  0  0  0  0  0  0  0  0  0  0
    0.8625   -2.5167    0.0000 C   0  0  0  0  0  0  0  0  0  0  0  0
    0.0000    1.9833    0.0000 C   0  0  0  0  0  0  0  0  0  0  0  0
   -0.8125    2.5708    0.0000 O   0  0  0  0  0  0  0  0  0  0  0  0
    0.8042    2.5708    0.0000 C   0  0  0  0  0  0  0  0  0  0  0  0
   -0.5083    3.5208    0.0000 C   0  0  0  0  0  0  0  0  0  0  0  0
    0.5000    3.5208    0.0000 C   0  0  0  0  0  0  0  0  0  0  0  0
    0.0000    0.9833    0.0000 C   0  0  0  0  0  0  0  0  0  0  0  0
   -0.8708   -0.5167    0.0000 C   0  0  0  0  0  0  0  0  0  0  0  0
   -0.8708   -2.5167    0.0000 C   0  0  0  0  0  0  0  0  0  0  0  0
    0.8625   -3.5167    0.0000 C   0  0  0  0  0  0  0  0  0  0  0  0
   -1.7333   -1.0167    0.0000 C   0  0  0  0  0  0  0  0  0  0  0  0
   -1.7333   -2.0167    0.0000 C   0  0  0  0  0  0  0  0  0  0  0  0
  2  1  2  0  0  0  0
  3  1  1  0  0  0  0
  4  3  2  0  0  0  0
  5  4  1  0  0  0  0
  6  3  1  0  0  0  0
  7  2  1  0  0  0  0
  7  5  2  0  0  0  0
  8 13  1  0  0  0  0
  9  8  1  0  0  0  0
 10  8  2  0  0  0  0
 11  9  1  0  0  0  0
 12 10  1  0  0  0  0
 12 11  2  0  0  0  0
 13  6  1  0  0  0  0
 14  4  1  0  0  0  0
 15  5  1  0  0  0  0
 15 18  2  0  0  0  0
 16  7  1  0  0  0  0
 17 14  2  0  0  0  0
 18 17  1  0  0  0  0
M  END
>  <idnumber>
T0513-6887

>  <LogP>
2.522000000000000e+000

>  <rotating_bonds>
3.000000000000000e+000

>  <hb_acceptors>
3.000000000000000e+000

>  <hb_donors>
1.000000000000000e+000

>  <PSA>
5.095000000000000e+001

>  <clusterid>
-286

>  <is_centroid>
@

>  <class1>
854

>  <class2>
704

>  <population1>
923

>  <population2>
51112

>  <population>
32

>  <cansmi>
Cc1nnc(c2c1cccc2)NCc1ccco1

>  <HBA2>
4

>  <HBD>
1

>  <logP>
3.2163

>  <TPSA>
50.95

>  <MW>
239.273

$$$$

 OpenBabel02121609142D

 12 12  0  0  0  0  0  0  0  0999 V2000
    1.4292   -1.0000    0.0000 N   0  0  0  0  0  0  0  0  0  0  0  0
    2.2917   -0.5000    0.0000 N   0  0  0  0  0  0  0  0  0  0  0  0
    0.5667    0.5000    0.0000 C   0  0  0  0  0  0  0  0  0  0  0  0
    1.4292    1.0000    0.0000 C   0  0  0  0  0  0  0  0  0  0  0  0
    2.2917    0.5000    0.0000 C   0  0  0  0  0  0  0  0  0  0  0  0
    0.5667   -0.5000    0.0000 C   0  0  0  0  0  0  0  0  0  0  0  0
    3.1625    1.0000    0.0000 O   0  0  0  0  0  0  0  0  0  0  0  0
   -3.1708    0.0958    0.0000 Br  0  0  0  0  0  0  0  0  0  0  0  0
   -0.3000    1.0000    0.0000 C   0  0  0  0  0  0  0  0  0  0  0  0
   -0.3000   -1.0000    0.0000 C   0  0  0  0  0  0  0  0  0  0  0  0
   -1.1708    0.5000    0.0000 C   0  0  0  0  0  0  0  0  0  0  0  0
   -1.1708   -0.5000    0.0000 C   0  0  0  0  0  0  0  0  0  0  0  0
  2  1  1  0  0  0  0
  3  6  1  0  0  0  0
  4  3  2  0  0  0  0
  5  2  1  0  0  0  0
  5  4  1  0  0  0  0
  6  1  2  0  0  0  0
  7  5  2  0  0  0  0
  9  3  1  0  0  0  0
  9 11  1  0  0  0  0
 10  6  1  0  0  0  0
 11 12  1  0  0  0  0
 12 10  1  0  0  0  0
M  END
>  <idnumber>
T0514-0422

>  <saltdata>
HBr

>  <LogP>
9.330000000000001e-001

>  <rotating_bonds>
0.000000000000000e+000

>  <hb_acceptors>
2.000000000000000e+000

>  <hb_donors>
1.000000000000000e+000

>  <PSA>
4.146000000000000e+001

>  <clusterid>
-290

>  <is_centroid>
@

>  <class1>
970

>  <population1>
33

>  <population>
33

>  <cansmi>
O=c1[nH]nc2c(c1)CCCC2.Br

>  <HBA2>
2

>  <HBD>
2

>  <logP>
1.6068

>  <TPSA>
45.75

>  <MW>
231.09

$$$$

 OpenBabel02121609142D

 15 16  0  0  0  0  0  0  0  0999 V2000
   -0.4208   -1.1417    0.0000 C   0  0  0  0  0  0  0  0  0  0  0  0
   -1.0083   -1.9542    0.0000 O   0  0  0  0  0  0  0  0  0  0  0  0
   -0.4208   -2.7667    0.0000 C   0  0  0  0  0  0  0  0  0  0  0  0
   -0.7333   -0.1917    0.0000 C   0  0  0  0  0  0  0  0  0  0  0  0
    0.5292   -1.4542    0.0000 C   0  0  0  0  0  0  0  0  0  0  0  0
    0.5292   -2.4542    0.0000 C   0  0  0  0  0  0  0  0  0  0  0  0
   -0.0583    0.5458    0.0000 N   0  0  0  0  0  0  0  0  0  0  0  0
   -1.7083    0.0125    0.0000 O   0  0  0  0  0  0  0  0  0  0  0  0
    0.0917    3.2208    0.0000 O   0  0  0  0  0  0  0  0  0  0  0  0
   -0.7333   -3.7167    0.0000 Br  0  0  0  0  0  0  0  0  0  0  0  0
   -0.3708    1.5000    0.0000 C   0  0  0  0  0  0  0  0  0  0  0  0
    0.3000    2.2458    0.0000 C   0  0  3  0  0  0  0  0  0  0  0  0
    0.9542    3.7208    0.0000 C   0  0  0  0  0  0  0  0  0  0  0  0
    1.2917    2.1458    0.0000 C   0  0  0  0  0  0  0  0  0  0  0  0
    1.7042    3.0500    0.0000 C   0  0  0  0  0  0  0  0  0  0  0  0
  2  1  1  0  0  0  0
  3  2  1  0  0  0  0
  3  6  2  0  0  0  0
  4  1  1  0  0  0  0
  5  1  2  0  0  0  0
  6  5  1  0  0  0  0
  7  4  1  0  0  0  0
  8  4  2  0  0  0  0
  9 12  1  0  0  0  0
 10  3  1  0  0  0  0
 11  7  1  0  0  0  0
 12 11  1  0  0  0  0
 13  9  1  0  0  0  0
 14 12  1  0  0  0  0
 15 14  1  0  0  0  0
 15 13  1  0  0  0  0
M  END
>  <idnumber>
T0514-1646

>  <LogP>
1.742000000000000e+000

>  <rotating_bonds>
3.000000000000000e+000

>  <hb_acceptors>
2.000000000000000e+000

>  <hb_donors>
1.000000000000000e+000

>  <PSA>
5.146999999999999e+001

>  <clusterid>
-292

>  <is_centroid>
@

>  <class1>
704

>  <class2>
723

>  <population1>
51112

>  <population2>
9592

>  <population>
288

>  <cansmi>
Brc1ccc(o1)C(=O)NCC1CCCO1

>  <HBA2>
4

>  <HBD>
1

>  <logP>
2.3418

>  <TPSA>
51.47

>  <MW>
274.111

$$$$

 OpenBabel02121609142D

 18 20  0  0  0  0  0  0  0  0999 V2000
    1.2000    0.2500    0.0000 C   0  0  0  0  0  0  0  0  0  0  0  0
   -3.8083    0.7500    0.0000 N   0  0  0  0  0  0  0  0  0  0  0  0
   -2.2625    0.2500    0.0000 C   0  0  0  0  0  0  0  0  0  0  0  0
    0.3292   -0.2500    0.0000 N   0  0  0  0  0  0  0  0  0  0  0  0
   -3.2208    1.5625    0.0000 N   0  0  0  0  0  0  0  0  0  0  0  0
   -2.2625    1.2500    0.0000 C   0  0  0  0  0  0  0  0  0  0  0  0
   -0.5333    0.2500    0.0000 C   0  0  0  0  0  0  0  0  0  0  0  0
   -1.3958   -0.2500    0.0000 C   0  0  0  0  0  0  0  0  0  0  0  0
   -3.2208   -0.0542    0.0000 C   0  0  0  0  0  0  0  0  0  0  0  0
    1.2000    1.2500    0.0000 O   0  0  0  0  0  0  0  0  0  0  0  0
    2.0667   -0.2500    0.0000 C   0  0  0  0  0  0  0  0  0  0  0  0
   -1.3958    1.7500    0.0000 C   0  0  0  0  0  0  0  0  0  0  0  0
   -0.5333    1.2500    0.0000 C   0  0  0  0  0  0  0  0  0  0  0  0
    2.0667   -1.2500    0.0000 C   0  0  0  0  0  0  0  0  0  0  0  0
    2.9292    0.2500    0.0000 C   0  0  0  0  0  0  0  0  0  0  0  0
    3.8000   -0.2500    0.0000 C   0  0  0  0  0  0  0  0  0  0  0  0
    2.9292   -1.7500    0.0000 C   0  0  0  0  0  0  0  0  0  0  0  0
    3.8000   -1.2500    0.0000 C   0  0  0  0  0  0  0  0  0  0  0  0
  2  9  2  0  0  0  0
  3  8  1  0  0  0  0
  3  6  2  0  0  0  0
  4  1  1  0  0  0  0
  5  6  1  0  0  0  0
  5  2  1  0  0  0  0
  6 12  1  0  0  0  0
  7  4  1  0  0  0  0
  8  7  2  0  0  0  0
  9  3  1  0  0  0  0
 10  1  2  0  0  0  0
 11  1  1  0  0  0  0
 12 13  2  0  0  0  0
 13  7  1  0  0  0  0
 14 11  1  0  0  0  0
 15 11  2  0  0  0  0
 16 15  1  0  0  0  0
 17 14  2  0  0  0  0
 17 18  1  0  0  0  0
 18 16  2  0  0  0  0
M  END
>  <idnumber>
T0514-3144

>  <LogP>
2.719000000000000e+000

>  <rotating_bonds>
2.000000000000000e+000

>  <hb_acceptors>
2.000000000000000e+000

>  <hb_donors>
2.000000000000000e+000

>  <PSA>
5.778000000000000e+001

>  <clusterid>
-294

>  <is_centroid>
@

>  <class1>
625

>  <class2>
829

>  <population1>
877209

>  <population2>
1541

>  <population>
1541

>  <cansmi>
O=C(c1ccccc1)Nc1ccc2c(c1)cn[nH]2

>  <HBA2>
3

>  <HBD>
2

>  <logP>
2.8882

>  <TPSA>
57.78

>  <MW>
237.257

$$$$

 OpenBabel02121609142D

 12 12  0  0  0  0  0  0  0  0999 V2000
   -0.8708    0.2500    0.0000 C   0  0  0  0  0  0  0  0  0  0  0  0
   -0.8708    1.2500    0.0000 N   0  0  0  0  0  0  0  0  0  0  0  0
    0.0000   -0.2500    0.0000 N   0  0  0  0  0  0  0  0  0  0  0  0
    0.8625    1.2500    0.0000 C   0  0  0  0  0  0  0  0  0  0  0  0
    0.8625    0.2500    0.0000 C   0  0  0  0  0  0  0  0  0  0  0  0
    0.0000    1.7500    0.0000 C   0  0  0  0  0  0  0  0  0  0  0  0
   -1.7333   -0.2500    0.0000 O   0  0  0  0  0  0  0  0  0  0  0  0
    0.0000    2.7500    0.0000 O   0  0  0  0  0  0  0  0  0  0  0  0
    0.0000   -1.2500    0.0000 C   0  0  0  0  0  0  0  0  0  0  0  0
    1.7292   -0.2500    0.0000 C   0  0  0  0  0  0  0  0  0  0  0  0
   -0.8708   -1.7500    0.0000 C   0  0  0  0  0  0  0  0  0  0  0  0
   -0.8708   -2.7500    0.0000 C   0  0  0  0  0  0  0  0  0  0  0  0
  2  1  1  0  0  0  0
  3  1  1  0  0  0  0
  4  5  2  0  0  0  0
  4  6  1  0  0  0  0
  5  3  1  0  0  0  0
  6  2  1  0  0  0  0
  7  1  2  0  0  0  0
  8  6  2  0  0  0  0
  9  3  1  0  0  0  0
 10  5  1  0  0  0  0
 11  9  1  0  0  0  0
 12 11  1  0  0  0  0
M  END
>  <idnumber>
T0514-3335

>  <LogP>
3.570000000000000e-001

>  <rotating_bonds>
2.000000000000000e+000

>  <hb_acceptors>
2.000000000000000e+000

>  <hb_donors>
1.000000000000000e+000

>  <PSA>
4.941000000000003e+001

>  <clusterid>
-295

>  <is_centroid>
@

>  <class1>
886

>  <population1>
22353

>  <population>
22353

>  <cansmi>
Cc1cc(=O)[nH]c(=O)n1CCC

>  <HBA2>
3

>  <HBD>
1

>  <logP>
0.255

>  <TPSA>
54.86

>  <MW>
168.193

$$$$

 OpenBabel02121609142D

 18 20  0  0  0  0  0  0  0  0999 V2000
   -0.8708   -0.2500    0.0000 C   0  0  0  0  0  0  0  0  0  0  0  0
   -0.0083    0.2500    0.0000 C   0  0  0  0  0  0  0  0  0  0  0  0
    0.8625   -0.2500    0.0000 C   0  0  0  0  0  0  0  0  0  0  0  0
   -0.8708   -1.2500    0.0000 C   0  0  0  0  0  0  0  0  0  0  0  0
    0.8625   -1.2500    0.0000 C   0  0  0  0  0  0  0  0  0  0  0  0
   -0.0083   -1.7500    0.0000 O   0  0  0  0  0  0  0  0  0  0  0  0
    1.7292    0.2500    0.0000 C   0  0  0  0  0  0  0  0  0  0  0  0
    1.7292   -1.7500    0.0000 C   0  0  0  0  0  0  0  0  0  0  0  0
   -1.7333    0.2500    0.0000 C   0  0  0  0  0  0  0  0  0  0  0  0
   -0.0083    1.2500    0.0000 O   0  0  0  0  0  0  0  0  0  0  0  0
    2.5917   -1.2500    0.0000 C   0  0  0  0  0  0  0  0  0  0  0  0
    2.5917   -0.2500    0.0000 C   0  0  0  0  0  0  0  0  0  0  0  0
    3.4625   -1.7500    0.0000 O   0  0  0  0  0  0  0  0  0  0  0  0
   -1.7333    1.2500    0.0000 C   0  0  0  0  0  0  0  0  0  0  0  0
   -2.6000   -0.2500    0.0000 C   0  0  0  0  0  0  0  0  0  0  0  0
   -3.4708    0.2500    0.0000 C   0  0  0  0  0  0  0  0  0  0  0  0
   -2.6000    1.7500    0.0000 C   0  0  0  0  0  0  0  0  0  0  0  0
   -3.4708    1.2500    0.0000 C   0  0  0  0  0  0  0  0  0  0  0  0
  2  1  1  0  0  0  0
  3  2  1  0  0  0  0
  3  5  2  0  0  0  0
  4  1  2  0  0  0  0
  5  6  1  0  0  0  0
  6  4  1  0  0  0  0
  7  3  1  0  0  0  0
  8  5  1  0  0  0  0
  9  1  1  0  0  0  0
 10  2  2  0  0  0  0
 11  8  2  0  0  0  0
 11 12  1  0  0  0  0
 12  7  2  0  0  0  0
 13 11  1  0  0  0  0
 14  9  1  0  0  0  0
 15  9  2  0  0  0  0
 16 15  1  0  0  0  0
 17 14  2  0  0  0  0
 17 18  1  0  0  0  0
 18 16  2  0  0  0  0
M  END
>  <idnumber>
T0514-5225

>  <LogP>
2.711000000000000e+000

>  <rotating_bonds>
1.000000000000000e+000

>  <hb_acceptors>
3.000000000000000e+000

>  <hb_donors>
1.000000000000000e+000

>  <PSA>
4.652999999999997e+001

>  <clusterid>
209

>  <is_centroid>
@

>  <class1>
819

>  <class2>
625

>  <population1>
2257

>  <population2>
877209

>  <population>
2257

>  <cansmi>
Oc1ccc2c(c1)occ(c2=O)c1ccccc1

>  <HBA2>
3

>  <HBD>
1

>  <logP>
3.1656

>  <TPSA>
50.44

>  <MW>
238.238

$$$$

 OpenBabel02121609142D

 20 22  0  0  0  0  0  0  0  0999 V2000
   -0.2833    1.0000    0.0000 N   0  0  0  0  0  0  0  0  0  0  0  0
    0.0250    0.0500    0.0000 C   0  0  0  0  0  0  0  0  0  0  0  0
    1.0042   -0.1542    0.0000 C   0  0  3  0  0  0  0  0  0  0  0  0
   -1.2333    1.3083    0.0000 C   0  0  0  0  0  0  0  0  0  0  0  0
    1.3125   -1.1042    0.0000 C   0  0  3  0  0  0  0  0  0  0  0  0
    0.6417   -1.8542    0.0000 C   0  0  0  0  0  0  0  0  0  0  0  0
    0.3042    1.8083    0.0000 C   0  0  0  0  0  0  0  0  0  0  0  0
   -0.6458   -0.6917    0.0000 O   0  0  0  0  0  0  0  0  0  0  0  0
   -1.2333    2.3083    0.0000 C   0  0  0  0  0  0  0  0  0  0  0  0
   -0.2833    2.6208    0.0000 C   0  0  0  0  0  0  0  0  0  0  0  0
    0.9542   -2.8042    0.0000 O   0  0  0  0  0  0  0  0  0  0  0  0
   -0.3333   -1.6417    0.0000 O   0  0  0  0  0  0  0  0  0  0  0  0
    1.6750    0.5833    0.0000 C   0  0  0  0  0  0  0  0  0  0  0  0
   -2.1000    0.8083    0.0000 C   0  0  0  0  0  0  0  0  0  0  0  0
    2.2917   -1.3167    0.0000 C   0  0  0  0  0  0  0  0  0  0  0  0
   -2.1000    2.8083    0.0000 C   0  0  0  0  0  0  0  0  0  0  0  0
    2.6542    0.3750    0.0000 C   0  0  0  0  0  0  0  0  0  0  0  0
   -2.9708    1.3083    0.0000 C   0  0  0  0  0  0  0  0  0  0  0  0
    2.9625   -0.5750    0.0000 C   0  0  0  0  0  0  0  0  0  0  0  0
   -2.9708    2.3083    0.0000 C   0  0  0  0  0  0  0  0  0  0  0  0
  2  1  1  0  0  0  0
  3  2  1  0  0  0  0
  4  1  1  0  0  0  0
  5  3  1  0  0  0  0
  6  5  1  0  0  0  0
  7  1  1  0  0  0  0
  8  2  2  0  0  0  0
  9  4  2  0  0  0  0
 10  7  1  0  0  0  0
 10  9  1  0  0  0  0
 11  6  2  0  0  0  0
 12  6  1  0  0  0  0
 13  3  1  0  0  0  0
 14  4  1  0  0  0  0
 15  5  1  0  0  0  0
 15 19  1  0  0  0  0
 16  9  1  0  0  0  0
 16 20  2  0  0  0  0
 17 13  1  0  0  0  0
 18 14  2  0  0  0  0
 19 17  1  0  0  0  0
 20 18  1  0  0  0  0
M  END
>  <idnumber>
T0514-6290

>  <LogP>
2.757000000000000e+000

>  <rotating_bonds>
2.000000000000000e+000

>  <hb_acceptors>
3.000000000000000e+000

>  <hb_donors>
1.000000000000000e+000

>  <PSA>
5.761000000000000e+001

>  <clusterid>
211

>  <is_centroid>
@

>  <class1>
732

>  <class2>
797

>  <population1>
13534

>  <population2>
40410

>  <population>
255

>  <cansmi>
OC(=O)C1CCCCC1C(=O)N1CCc2c1cccc2

>  <HBA2>
4

>  <HBD>
1

>  <logP>
2.5317

>  <TPSA>
57.61

>  <MW>
273.327

$$$$

 OpenBabel02121609142D

 12 12  0  0  0  0  0  0  0  0999 V2000
    0.5667   -0.5000    0.0000 C   0  0  0  0  0  0  0  0  0  0  0  0
    1.4292   -1.0000    0.0000 C   0  0  0  0  0  0  0  0  0  0  0  0
    0.5667    0.5000    0.0000 C   0  0  0  0  0  0  0  0  0  0  0  0
   -0.3000   -1.0000    0.0000 O   0  0  0  0  0  0  0  0  0  0  0  0
   -0.3000    1.0000    0.0000 O   0  0  0  0  0  0  0  0  0  0  0  0
    1.4292    1.0000    0.0000 C   0  0  0  0  0  0  0  0  0  0  0  0
    2.2917   -0.5000    0.0000 C   0  0  0  0  0  0  0  0  0  0  0  0
    3.1625   -1.0000    0.0000 N   0  0  0  0  0  0  0  0  0  0  0  0
    2.2917    0.5000    0.0000 C   0  0  0  0  0  0  0  0  0  0  0  0
   -3.1708   -0.0875    0.0000 Cl  0  0  0  0  0  0  0  0  0  0  0  0
   -1.1708   -0.5000    0.0000 C   0  0  0  0  0  0  0  0  0  0  0  0
   -1.1708    0.5000    0.0000 C   0  0  0  0  0  0  0  0  0  0  0  0
  2  1  1  0  0  0  0
  3  1  2  0  0  0  0
  4  1  1  0  0  0  0
  5  3  1  0  0  0  0
  5 12  1  0  0  0  0
  6  3  1  0  0  0  0
  7  2  2  0  0  0  0
  7  9  1  0  0  0  0
  8  7  1  0  0  0  0
  9  6  2  0  0  0  0
 11  4  1  0  0  0  0
 12 11  1  0  0  0  0
M  END
>  <idnumber>
T0514-6999

>  <saltdata>
HCl

>  <LogP>
9.500000000000000e-001

>  <rotating_bonds>
0.000000000000000e+000

>  <hb_acceptors>
3.000000000000000e+000

>  <hb_donors>
1.000000000000000e+000

>  <PSA>
4.448000000000000e+001

>  <clusterid>
-299

>  <is_centroid>
@

>  <class1>
730

>  <population1>
20896

>  <population>
20896

>  <cansmi>
Nc1ccc2c(c1)OCCO2.Cl

>  <HBA2>
3

>  <HBD>
2

>  <logP>
2.4232

>  <TPSA>
44.48

>  <MW>
187.624

$$$$

 OpenBabel02121609142D

 15 17  0  0  0  0  0  0  0  0999 V2000
    1.2917    0.7500    0.0000 N   0  0  0  0  0  0  0  0  0  0  0  0
    1.2917   -0.2500    0.0000 C   0  0  0  0  0  0  0  0  0  0  0  0
    0.4292    1.2500    0.0000 C   0  0  0  0  0  0  0  0  0  0  0  0
   -0.4333   -0.2500    0.0000 C   0  0  0  0  0  0  0  0  0  0  0  0
    0.4292   -0.7500    0.0000 C   0  0  0  0  0  0  0  0  0  0  0  0
   -0.4333    0.7500    0.0000 C   0  0  0  0  0  0  0  0  0  0  0  0
    0.4292    2.2500    0.0000 O   0  0  0  0  0  0  0  0  0  0  0  0
    2.1625   -0.7500    0.0000 O   0  0  0  0  0  0  0  0  0  0  0  0
   -1.3000   -0.7500    0.0000 C   0  0  0  0  0  0  0  0  0  0  0  0
   -1.3000    1.2500    0.0000 C   0  0  0  0  0  0  0  0  0  0  0  0
    0.4292   -1.7500    0.0000 C   0  0  0  0  0  0  0  0  0  0  0  0
   -0.4333   -2.2500    0.0000 C   0  0  0  0  0  0  0  0  0  0  0  0
   -2.1708    0.7500    0.0000 C   0  0  0  0  0  0  0  0  0  0  0  0
   -2.1708   -0.2500    0.0000 C   0  0  0  0  0  0  0  0  0  0  0  0
   -1.3000   -1.7500    0.0000 C   0  0  0  0  0  0  0  0  0  0  0  0
  2  1  1  0  0  0  0
  3  1  1  0  0  0  0
  4  6  2  0  0  0  0
  5  2  1  0  0  0  0
  5  4  1  0  0  0  0
  6  3  1  0  0  0  0
  7  3  2  0  0  0  0
  8  2  2  0  0  0  0
  9  4  1  0  0  0  0
  9 14  2  0  0  0  0
 10  6  1  0  0  0  0
 11  5  2  0  0  0  0
 12 11  1  0  0  0  0
 13 10  2  0  0  0  0
 14 13  1  0  0  0  0
 15  9  1  0  0  0  0
 15 12  2  0  0  0  0
M  END
>  <idnumber>
T0514-7018

>  <LogP>
2.322000000000000e+000

>  <rotating_bonds>
0.000000000000000e+000

>  <hb_acceptors>
2.000000000000000e+000

>  <hb_donors>
1.000000000000000e+000

>  <PSA>
4.616999999999997e+001

>  <clusterid>
-300

>  <is_centroid>
@

>  <class1>
858

>  <population1>
661

>  <population>
661

>  <cansmi>
O=c1[nH]c(=O)c2c3c1cccc3ccc2

>  <HBA2>
2

>  <HBD>
1

>  <logP>
1.4793

>  <TPSA>
49.93

>  <MW>
197.189

$$$$

 OpenBabel02121609142D

 16 17  0  0  0  0  0  0  0  0999 V2000
   -0.0083    0.0000    0.0000 N   0  0  0  0  0  0  0  0  0  0  0  0
   -0.8708   -0.5000    0.0000 C   0  0  0  0  0  0  0  0  0  0  0  0
   -1.7333    0.0000    0.0000 C   0  0  0  0  0  0  0  0  0  0  0  0
   -0.8708    1.5000    0.0000 N   0  0  0  0  0  0  0  0  0  0  0  0
   -0.0083    1.0000    0.0000 C   0  0  0  0  0  0  0  0  0  0  0  0
   -1.7333    1.0000    0.0000 C   0  0  0  0  0  0  0  0  0  0  0  0
    0.8625   -0.5000    0.0000 C   0  0  0  0  0  0  0  0  0  0  0  0
    1.7292    0.0000    0.0000 C   0  0  0  0  0  0  0  0  0  0  0  0
   -0.8708   -1.5000    0.0000 O   0  0  0  0  0  0  0  0  0  0  0  0
    1.7292    1.0000    0.0000 O   0  0  0  0  0  0  0  0  0  0  0  0
   -2.6000   -0.5000    0.0000 C   0  0  0  0  0  0  0  0  0  0  0  0
    2.5917   -0.5000    0.0000 O   0  0  0  0  0  0  0  0  0  0  0  0
   -2.6000    1.5000    0.0000 C   0  0  0  0  0  0  0  0  0  0  0  0
    3.4625    0.0000    0.0000 C   0  0  0  0  0  0  0  0  0  0  0  0
   -3.4708    0.0000    0.0000 C   0  0  0  0  0  0  0  0  0  0  0  0
   -3.4708    1.0000    0.0000 C   0  0  0  0  0  0  0  0  0  0  0  0
  2  1  1  0  0  0  0
  3  2  1  0  0  0  0
  3  6  2  0  0  0  0
  4  5  2  0  0  0  0
  5  1  1  0  0  0  0
  6  4  1  0  0  0  0
  7  1  1  0  0  0  0
  8  7  1  0  0  0  0
  9  2  2  0  0  0  0
 10  8  2  0  0  0  0
 11  3  1  0  0  0  0
 12  8  1  0  0  0  0
 13  6  1  0  0  0  0
 14 12  1  0  0  0  0
 15 11  2  0  0  0  0
 16 13  2  0  0  0  0
 16 15  1  0  0  0  0
M  END
>  <idnumber>
T0514-7024

>  <LogP>
7.090000000000000e-001

>  <rotating_bonds>
3.000000000000000e+000

>  <hb_acceptors>
3.000000000000000e+000

>  <hb_donors>
0.000000000000000e+000

>  <PSA>
5.896999999999999e+001

>  <clusterid>
-301

>  <is_centroid>
@

>  <class1>
648

>  <population1>
19152

>  <population>
19152

>  <cansmi>
COC(=O)Cn1cnc2c(c1=O)cccc2

>  <HBA2>
5

>  <HBD>
0

>  <logP>
0.5695

>  <TPSA>
61.19

>  <MW>
218.209

$$$$

 OpenBabel02121609142D

 12 13  0  0  0  0  0  0  0  0999 V2000
   -0.4333    0.0000    0.0000 C   0  0  0  0  0  0  0  0  0  0  0  0
   -1.3000   -0.5000    0.0000 C   0  0  0  0  0  0  0  0  0  0  0  0
   -2.1708    0.0000    0.0000 N   0  0  0  0  0  0  0  0  0  0  0  0
   -1.3000    1.5000    0.0000 N   0  0  0  0  0  0  0  0  0  0  0  0
   -2.1708    1.0000    0.0000 C   0  0  0  0  0  0  0  0  0  0  0  0
   -0.4333    1.0000    0.0000 C   0  0  0  0  0  0  0  0  0  0  0  0
    0.4292   -0.5000    0.0000 C   0  0  0  0  0  0  0  0  0  0  0  0
   -1.3000   -1.5000    0.0000 O   0  0  0  0  0  0  0  0  0  0  0  0
    0.4292    1.5000    0.0000 C   0  0  0  0  0  0  0  0  0  0  0  0
    1.2917    0.0000    0.0000 C   0  0  0  0  0  0  0  0  0  0  0  0
    1.2917    1.0000    0.0000 C   0  0  0  0  0  0  0  0  0  0  0  0
    2.1625   -0.5000    0.0000 Br  0  0  0  0  0  0  0  0  0  0  0  0
  2  1  1  0  0  0  0
  3  2  1  0  0  0  0
  4  6  1  0  0  0  0
  5  4  2  0  0  0  0
  5  3  1  0  0  0  0
  6  1  2  0  0  0  0
  7  1  1  0  0  0  0
  8  2  2  0  0  0  0
  9  6  1  0  0  0  0
 10  7  2  0  0  0  0
 11 10  1  0  0  0  0
 11  9  2  0  0  0  0
 12 10  1  0  0  0  0
M  END
>  <idnumber>
T0514-7036

>  <LogP>
1.226000000000000e+000

>  <rotating_bonds>
0.000000000000000e+000

>  <hb_acceptors>
2.000000000000000e+000

>  <hb_donors>
1.000000000000000e+000

>  <PSA>
4.146000000000000e+001

>  <clusterid>
215

>  <is_centroid>
@

>  <class1>
648

>  <population1>
19152

>  <population>
19152

>  <cansmi>
Brc1ccc2c(c1)c(=O)[nH]cn2

>  <HBA2>
2

>  <HBD>
1

>  <logP>
1.6856

>  <TPSA>
45.75

>  <MW>
225.042

$$$$

 OpenBabel02121609142D

 12 13  0  0  0  0  0  0  0  0999 V2000
    0.4292    1.5000    0.0000 N   0  0  0  0  0  0  0  0  0  0  0  0
    0.4292   -0.5000    0.0000 C   0  0  0  0  0  0  0  0  0  0  0  0
    1.2917    1.0000    0.0000 C   0  0  0  0  0  0  0  0  0  0  0  0
    1.2917    0.0000    0.0000 C   0  0  0  0  0  0  0  0  0  0  0  0
   -0.4333    1.0083    0.0000 C   0  0  0  0  0  0  0  0  0  0  0  0
   -0.4333    0.0000    0.0000 C   0  0  0  0  0  0  0  0  0  0  0  0
    2.1625    1.5000    0.0000 O   0  0  0  0  0  0  0  0  0  0  0  0
    0.4292   -1.5000    0.0000 C   0  0  0  0  0  0  0  0  0  0  0  0
   -1.3000    1.5083    0.0000 C   0  0  0  0  0  0  0  0  0  0  0  0
   -1.3000   -0.5000    0.0000 C   0  0  0  0  0  0  0  0  0  0  0  0
   -2.1708    1.0083    0.0000 C   0  0  0  0  0  0  0  0  0  0  0  0
   -2.1708    0.0000    0.0000 C   0  0  0  0  0  0  0  0  0  0  0  0
  2  6  1  0  0  0  0
  2  4  2  0  0  0  0
  3  1  1  0  0  0  0
  4  3  1  0  0  0  0
  5  1  1  0  0  0  0
  6  5  2  0  0  0  0
  7  3  2  0  0  0  0
  8  2  1  0  0  0  0
  9  5  1  0  0  0  0
 10  6  1  0  0  0  0
 10 12  2  0  0  0  0
 11  9  2  0  0  0  0
 12 11  1  0  0  0  0
M  END
>  <idnumber>
T0514-7070

>  <LogP>
2.815000000000000e+000

>  <rotating_bonds>
0.000000000000000e+000

>  <hb_acceptors>
1.000000000000000e+000

>  <hb_donors>
1.000000000000000e+000

>  <PSA>
2.910000000000000e+001

>  <clusterid>
217

>  <is_centroid>
@

>  <class1>
801

>  <population1>
1387

>  <population>
1387

>  <cansmi>
O=c1cc(C)c2c([nH]1)cccc2

>  <HBA2>
1

>  <HBD>
1

>  <logP>
1.8365

>  <TPSA>
32.86

>  <MW>
159.185

$$$$

 OpenBabel02121609142D

 14 15  0  0  0  0  0  0  0  0999 V2000
   -0.8958    1.7333    0.0000 C   0  0  0  0  0  0  0  0  0  0  0  0
    0.0542    2.0458    0.0000 N   0  0  0  0  0  0  0  0  0  0  0  0
   -1.4833    2.5458    0.0000 S   0  0  0  0  0  0  0  0  0  0  0  0
   -1.2000    0.7833    0.0000 N   0  0  0  0  0  0  0  0  0  0  0  0
   -0.5333    0.0458    0.0000 C   0  0  0  0  0  0  0  0  0  0  0  0
    0.0542    3.0458    0.0000 C   0  0  0  0  0  0  0  0  0  0  0  0
   -0.1708   -1.6542    0.0000 C   0  0  0  0  0  0  0  0  0  0  0  0
   -0.8958    3.3583    0.0000 C   0  0  0  0  0  0  0  0  0  0  0  0
   -0.8458   -0.9125    0.0000 C   0  0  0  0  0  0  0  0  0  0  0  0
   -0.4833   -2.6042    0.0000 C   0  0  0  0  0  0  0  0  0  0  0  0
    0.8042   -1.4417    0.0000 C   0  0  0  0  0  0  0  0  0  0  0  0
    1.4750   -2.1875    0.0000 C   0  0  0  0  0  0  0  0  0  0  0  0
    0.1875   -3.3500    0.0000 C   0  0  0  0  0  0  0  0  0  0  0  0
    1.1667   -3.1417    0.0000 C   0  0  0  0  0  0  0  0  0  0  0  0
  2  1  2  0  0  0  0
  3  1  1  0  0  0  0
  4  1  1  0  0  0  0
  5  4  1  0  0  0  0
  6  2  1  0  0  0  0
  6  8  1  0  0  0  0
  7  9  1  0  0  0  0
  8  3  1  0  0  0  0
  9  5  1  0  0  0  0
 10  7  1  0  0  0  0
 11  7  2  0  0  0  0
 12 11  1  0  0  0  0
 13 10  2  0  0  0  0
 13 14  1  0  0  0  0
 14 12  2  0  0  0  0
M  END
>  <idnumber>
T0515-0112

>  <LogP>
1.150000000000000e+000

>  <rotating_bonds>
3.000000000000000e+000

>  <hb_acceptors>
3.000000000000000e+000

>  <hb_donors>
1.000000000000000e+000

>  <PSA>
4.969000000000001e+001

>  <clusterid>
172

>  <is_centroid>
@

>  <class1>
625

>  <class2>
850

>  <population1>
877209

>  <population2>
2137

>  <population>
1938

>  <cansmi>
c1ccc(cc1)CCNC1=NCCS1

>  <HBA2>
3

>  <HBD>
1

>  <logP>
1.748

>  <TPSA>
49.69

>  <MW>
206.307

$$$$

 OpenBabel02121609142D

 15 16  0  0  0  0  0  0  0  0999 V2000
   -2.9000   -0.5417    0.0000 N   0  0  0  0  0  0  0  0  0  0  0  0
   -2.3125   -1.3542    0.0000 C   0  0  0  0  0  0  0  0  0  0  0  0
   -2.3125    0.2708    0.0000 C   0  0  0  0  0  0  0  0  0  0  0  0
   -1.3583   -1.0417    0.0000 N   0  0  0  0  0  0  0  0  0  0  0  0
   -1.3583   -0.0417    0.0000 C   0  0  3  0  0  0  0  0  0  0  0  0
   -2.6208   -2.3042    0.0000 O   0  0  0  0  0  0  0  0  0  0  0  0
   -2.6208    1.2208    0.0000 O   0  0  0  0  0  0  0  0  0  0  0  0
   -0.5500    0.5458    0.0000 C   0  0  0  0  0  0  0  0  0  0  0  0
    0.3625    0.1375    0.0000 C   0  0  0  0  0  0  0  0  0  0  0  0
    1.1667    0.7250    0.0000 C   0  0  0  0  0  0  0  0  0  0  0  0
    1.0667    1.7208    0.0000 C   0  0  0  0  0  0  0  0  0  0  0  0
    2.0875    0.3208    0.0000 C   0  0  0  0  0  0  0  0  0  0  0  0
    2.8917    0.9083    0.0000 C   0  0  0  0  0  0  0  0  0  0  0  0
    1.8750    2.3083    0.0000 C   0  0  0  0  0  0  0  0  0  0  0  0
    2.7917    1.9000    0.0000 C   0  0  0  0  0  0  0  0  0  0  0  0
  2  1  1  0  0  0  0
  3  1  1  0  0  0  0
  4  2  1  0  0  0  0
  4  5  1  0  0  0  0
  5  3  1  0  0  0  0
  6  2  2  0  0  0  0
  7  3  2  0  0  0  0
  8  5  1  0  0  0  0
  9  8  1  0  0  0  0
 10  9  1  0  0  0  0
 11 10  2  0  0  0  0
 12 10  1  0  0  0  0
 13 12  2  0  0  0  0
 14 11  1  0  0  0  0
 14 15  2  0  0  0  0
 15 13  1  0  0  0  0
M  END
>  <idnumber>
T0515-0691

>  <LogP>
7.750000000000000e-001

>  <rotating_bonds>
3.000000000000000e+000

>  <hb_acceptors>
2.000000000000000e+000

>  <hb_donors>
2.000000000000000e+000

>  <PSA>
5.820000000000000e+001

>  <clusterid>
-304

>  <is_centroid>
@

>  <class1>
643

>  <class2>
625

>  <population1>
24294

>  <population2>
877209

>  <population>
21686

>  <cansmi>
O=C1NC(=O)C(N1)CCc1ccccc1

>  <HBA2>
4

>  <HBD>
2

>  <logP>
1.4848

>  <TPSA>
58.2

>  <MW>
204.225

$$$$

 OpenBabel02121609142D

 18 20  0  0  0  0  0  0  0  0999 V2000
    2.0000    0.0000    0.0000 N   0  0  0  0  0  0  0  0  0  0  0  0
   -2.0000    0.0000    0.0000 C   0  0  0  0  0  0  0  0  0  0  0  0
   -2.5958    0.8125    0.0000 N   0  0  0  0  0  0  0  0  0  0  0  0
   -3.5458    0.5000    0.0000 N   0  0  0  0  0  0  0  0  0  0  0  0
    2.5875   -0.8042    0.0000 C   0  0  0  0  0  0  0  0  0  0  0  0
    2.5875    0.8125    0.0000 C   0  0  0  0  0  0  0  0  0  0  0  0
    3.5375    0.5000    0.0000 C   0  0  0  0  0  0  0  0  0  0  0  0
    3.5375   -0.4917    0.0000 C   0  0  0  0  0  0  0  0  0  0  0  0
   -2.5958   -0.8042    0.0000 O   0  0  0  0  0  0  0  0  0  0  0  0
   -3.5458   -0.4917    0.0000 C   0  0  0  0  0  0  0  0  0  0  0  0
    1.0000    0.0000    0.0000 C   0  0  0  0  0  0  0  0  0  0  0  0
   -1.0083    0.0000    0.0000 C   0  0  0  0  0  0  0  0  0  0  0  0
    0.5000   -0.8625    0.0000 C   0  0  0  0  0  0  0  0  0  0  0  0
    0.5000    0.8708    0.0000 C   0  0  0  0  0  0  0  0  0  0  0  0
   -0.5000    0.8708    0.0000 C   0  0  0  0  0  0  0  0  0  0  0  0
   -0.5000   -0.8625    0.0000 C   0  0  0  0  0  0  0  0  0  0  0  0
    2.2750   -1.7542    0.0000 C   0  0  0  0  0  0  0  0  0  0  0  0
    2.2750    1.7625    0.0000 C   0  0  0  0  0  0  0  0  0  0  0  0
  2 12  1  0  0  0  0
  3  2  2  0  0  0  0
  4  3  1  0  0  0  0
  4 10  2  0  0  0  0
  5  1  1  0  0  0  0
  6  1  1  0  0  0  0
  7  6  2  0  0  0  0
  8  5  2  0  0  0  0
  8  7  1  0  0  0  0
  9  2  1  0  0  0  0
 10  9  1  0  0  0  0
 11  1  1  0  0  0  0
 12 15  1  0  0  0  0
 13 11  2  0  0  0  0
 14 11  1  0  0  0  0
 15 14  2  0  0  0  0
 16 13  1  0  0  0  0
 16 12  2  0  0  0  0
 17  5  1  0  0  0  0
 18  6  1  0  0  0  0
M  END
>  <idnumber>
T0515-1847

>  <LogP>
2.577000000000000e+000

>  <rotating_bonds>
2.000000000000000e+000

>  <hb_acceptors>
2.000000000000000e+000

>  <hb_donors>
0.000000000000000e+000

>  <PSA>
4.384999999999997e+001

>  <clusterid>
-306

>  <is_centroid>
@

>  <class1>
635

>  <class2>
689

>  <class3>
625

>  <population1>
31512

>  <population2>
17264

>  <population3>
877209

>  <population>
636

>  <cansmi>
Cc1ccc(n1c1ccc(cc1)c1ocnn1)C

>  <HBA2>
4

>  <HBD>
0

>  <logP>
3.1441

>  <TPSA>
43.85

>  <MW>
239.273

$$$$

 OpenBabel02121609142D

 13 14  0  0  0  0  0  0  0  0999 V2000
   -2.0083    0.3833    0.0000 C   0  0  0  0  0  0  0  0  0  0  0  0
   -0.4708   -0.1167    0.0000 C   0  0  0  0  0  0  0  0  0  0  0  0
   -1.4208    1.1958    0.0000 N   0  0  0  0  0  0  0  0  0  0  0  0
   -1.4208   -0.4250    0.0000 C   0  0  0  0  0  0  0  0  0  0  0  0
   -0.4708    0.8833    0.0000 C   0  0  0  0  0  0  0  0  0  0  0  0
    0.4000   -0.6167    0.0000 C   0  0  0  0  0  0  0  0  0  0  0  0
   -3.0083    0.3833    0.0000 O   0  0  0  0  0  0  0  0  0  0  0  0
   -1.7250   -1.3792    0.0000 O   0  0  0  0  0  0  0  0  0  0  0  0
    0.4000    1.3833    0.0000 C   0  0  0  0  0  0  0  0  0  0  0  0
    1.2667   -0.1167    0.0000 C   0  0  0  0  0  0  0  0  0  0  0  0
    1.2667    0.8833    0.0000 C   0  0  0  0  0  0  0  0  0  0  0  0
    2.1292   -0.6167    0.0000 O   0  0  0  0  0  0  0  0  0  0  0  0
    3.0000   -0.1167    0.0000 C   0  0  0  0  0  0  0  0  0  0  0  0
  2  4  1  0  0  0  0
  3  1  1  0  0  0  0
  4  1  1  0  0  0  0
  5  3  1  0  0  0  0
  5  2  2  0  0  0  0
  6  2  1  0  0  0  0
  7  1  2  0  0  0  0
  8  4  2  0  0  0  0
  9  5  1  0  0  0  0
 10  6  2  0  0  0  0
 10 11  1  0  0  0  0
 11  9  2  0  0  0  0
 12 10  1  0  0  0  0
 13 12  1  0  0  0  0
M  END
>  <idnumber>
T0515-2954

>  <LogP>
7.470000000000001e-001

>  <rotating_bonds>
1.000000000000000e+000

>  <hb_acceptors>
3.000000000000000e+000

>  <hb_donors>
1.000000000000000e+000

>  <PSA>
5.540000000000000e+001

>  <clusterid>
219

>  <is_centroid>
@

>  <class1>
935

>  <population1>
446

>  <population>
446

>  <cansmi>
COc1ccc2c(c1)C(=O)C(=O)N2

>  <HBA2>
4

>  <HBD>
1

>  <logP>
0.968

>  <TPSA>
55.4

>  <MW>
177.157

$$$$

 OpenBabel02121609142D

 15 16  0  0  0  0  0  0  0  0999 V2000
    0.0000    1.2500    0.0000 N   0  0  0  0  0  0  0  0  0  0  0  0
    0.0000    0.2500    0.0000 C   0  0  0  0  0  0  0  0  0  0  0  0
    0.0000   -1.7500    0.0000 C   0  0  0  0  0  0  0  0  0  0  0  0
    0.0000   -2.7500    0.0000 C   0  0  0  0  0  0  0  0  0  0  0  0
    0.8625   -3.2417    0.0000 O   0  0  0  0  0  0  0  0  0  0  0  0
   -0.8708   -0.2500    0.0000 C   0  0  0  0  0  0  0  0  0  0  0  0
    0.8625   -0.2500    0.0000 C   0  0  0  0  0  0  0  0  0  0  0  0
   -0.8708   -1.2500    0.0000 C   0  0  0  0  0  0  0  0  0  0  0  0
    0.8625   -1.2500    0.0000 C   0  0  0  0  0  0  0  0  0  0  0  0
    0.0000    3.2500    0.0000 O   0  0  0  0  0  0  0  0  0  0  0  0
    0.8625    1.7500    0.0000 C   0  0  0  0  0  0  0  0  0  0  0  0
   -0.8708    1.7500    0.0000 C   0  0  0  0  0  0  0  0  0  0  0  0
   -0.8708    2.7500    0.0000 C   0  0  0  0  0  0  0  0  0  0  0  0
    0.8625    2.7500    0.0000 C   0  0  0  0  0  0  0  0  0  0  0  0
   -0.8708   -3.2417    0.0000 C   0  0  0  0  0  0  0  0  0  0  0  0
  2  1  1  0  0  0  0
  3  9  1  0  0  0  0
  4  3  1  0  0  0  0
  5  4  2  0  0  0  0
  6  2  2  0  0  0  0
  7  2  1  0  0  0  0
  8  6  1  0  0  0  0
  8  3  2  0  0  0  0
  9  7  2  0  0  0  0
 10 13  1  0  0  0  0
 11  1  1  0  0  0  0
 12  1  1  0  0  0  0
 13 12  1  0  0  0  0
 14 11  1  0  0  0  0
 14 10  1  0  0  0  0
 15  4  1  0  0  0  0
M  END
>  <idnumber>
T0515-3000

>  <LogP>
1.712000000000000e+000

>  <rotating_bonds>
2.000000000000000e+000

>  <hb_acceptors>
3.000000000000000e+000

>  <hb_donors>
0.000000000000000e+000

>  <PSA>
2.954000000000000e+001

>  <clusterid>
-307

>  <is_centroid>
@

>  <class1>
786

>  <class2>
625

>  <population1>
48067

>  <population2>
877209

>  <population>
45066

>  <cansmi>
CC(=O)c1ccc(cc1)N1CCOCC1

>  <HBA2>
3

>  <HBD>
0

>  <logP>
1.7908

>  <TPSA>
29.54

>  <MW>
205.253

$$$$

 OpenBabel02121609142D

 13 14  0  0  0  0  0  0  0  0999 V2000
    0.8625   -0.2500    0.0000 C   0  0  0  0  0  0  0  0  0  0  0  0
    0.8625   -1.2500    0.0000 C   0  0  0  0  0  0  0  0  0  0  0  0
   -0.0083    0.2500    0.0000 C   0  0  0  0  0  0  0  0  0  0  0  0
    1.7292   -1.7500    0.0000 O   0  0  0  0  0  0  0  0  0  0  0  0
   -0.0083    1.2500    0.0000 C   0  0  0  0  0  0  0  0  0  0  0  0
   -0.0083   -1.7500    0.0000 N   0  0  0  0  0  0  0  0  0  0  0  0
    1.7292    0.2500    0.0000 C   0  0  0  0  0  0  0  0  0  0  0  0
   -0.8708   -0.2500    0.0000 C   0  0  0  0  0  0  0  0  0  0  0  0
    1.7292    1.2500    0.0000 C   0  0  0  0  0  0  0  0  0  0  0  0
    0.8625    1.7500    0.0000 C   0  0  0  0  0  0  0  0  0  0  0  0
   -0.8708    1.7500    0.0000 C   0  0  0  0  0  0  0  0  0  0  0  0
   -1.7333    0.2500    0.0000 C   0  0  0  0  0  0  0  0  0  0  0  0
   -1.7333    1.2500    0.0000 C   0  0  0  0  0  0  0  0  0  0  0  0
  2  1  1  0  0  0  0
  3  1  2  0  0  0  0
  4  2  2  0  0  0  0
  5  3  1  0  0  0  0
  5 10  2  0  0  0  0
  6  2  1  0  0  0  0
  7  1  1  0  0  0  0
  8  3  1  0  0  0  0
  9  7  2  0  0  0  0
 10  9  1  0  0  0  0
 11  5  1  0  0  0  0
 11 13  2  0  0  0  0
 12  8  2  0  0  0  0
 13 12  1  0  0  0  0
M  END
>  <idnumber>
T0515-3004

>  <LogP>
1.829000000000000e+000

>  <rotating_bonds>
1.000000000000000e+000

>  <hb_acceptors>
1.000000000000000e+000

>  <hb_donors>
1.000000000000000e+000

>  <PSA>
4.309000000000000e+001

>  <clusterid>
-308

>  <is_centroid>
@

>  <class1>
796

>  <population1>
21922

>  <population>
21922

>  <cansmi>
NC(=O)c1cccc2c1cccc2

>  <HBA2>
2

>  <HBD>
1

>  <logP>
2.639

>  <TPSA>
43.09

>  <MW>
171.195

$$$$

 OpenBabel02121609142D

 14 15  0  0  0  0  0  0  0  0999 V2000
    0.1917    1.9458    0.0000 N   0  0  0  0  0  0  0  0  0  0  0  0
   -0.3958    1.1333    0.0000 C   0  0  0  0  0  0  0  0  0  0  0  0
    1.1417    1.6333    0.0000 C   0  0  0  0  0  0  0  0  0  0  0  0
    0.1917    0.3250    0.0000 C   0  0  3  0  0  0  0  0  0  0  0  0
    1.1417    0.6333    0.0000 N   0  0  0  0  0  0  0  0  0  0  0  0
   -1.3958    1.1333    0.0000 O   0  0  0  0  0  0  0  0  0  0  0  0
    1.9542    2.2208    0.0000 O   0  0  0  0  0  0  0  0  0  0  0  0
   -0.3833   -0.4917    0.0000 C   0  0  0  0  0  0  0  0  0  0  0  0
    0.1792   -0.6750    0.0000 C   0  0  0  0  0  0  0  0  0  0  0  0
   -1.3833   -0.4000    0.0000 C   0  0  0  0  0  0  0  0  0  0  0  0
    0.0375   -1.4000    0.0000 C   0  0  0  0  0  0  0  0  0  0  0  0
   -0.5458   -2.2167    0.0000 C   0  0  0  0  0  0  0  0  0  0  0  0
   -1.9583   -1.2167    0.0000 C   0  0  0  0  0  0  0  0  0  0  0  0
   -1.5375   -2.1250    0.0000 C   0  0  0  0  0  0  0  0  0  0  0  0
  2  1  1  0  0  0  0
  3  1  1  0  0  0  0
  4  2  1  0  0  0  0
  4  5  1  0  0  0  0
  5  3  1  0  0  0  0
  6  2  2  0  0  0  0
  7  3  2  0  0  0  0
  8  4  1  0  0  0  0
  9  4  1  0  0  0  0
 10  8  1  0  0  0  0
 11  8  2  0  0  0  0
 12 11  1  0  0  0  0
 13 10  2  0  0  0  0
 13 14  1  0  0  0  0
 14 12  2  0  0  0  0
M  END
>  <idnumber>
T0515-3012

>  <LogP>
1.046000000000000e+000

>  <rotating_bonds>
1.000000000000000e+000

>  <hb_acceptors>
2.000000000000000e+000

>  <hb_donors>
2.000000000000000e+000

>  <PSA>
5.820000000000000e+001

>  <clusterid>
40

>  <is_centroid>
@

>  <class1>
643

>  <class2>
625

>  <population1>
24294

>  <population2>
877209

>  <population>
21686

>  <cansmi>
O=C1NC(=O)NC1(C)c1ccccc1

>  <HBA2>
4

>  <HBD>
2

>  <logP>
1.3988

>  <TPSA>
58.2

>  <MW>
190.199

$$$$

 OpenBabel02121609142D

 13 14  0  0  0  0  0  0  0  0999 V2000
    0.0000    1.0000    0.0000 N   0  0  0  0  0  0  0  0  0  0  0  0
    0.0000    0.0000    0.0000 C   0  0  0  0  0  0  0  0  0  0  0  0
    0.0000    3.0000    0.0000 N   0  0  0  0  0  0  0  0  0  0  0  0
    0.8625   -0.5000    0.0000 C   0  0  0  0  0  0  0  0  0  0  0  0
   -0.8708   -0.5000    0.0000 C   0  0  0  0  0  0  0  0  0  0  0  0
    0.0000   -1.9917    0.0000 C   0  0  0  0  0  0  0  0  0  0  0  0
    0.8625   -1.5000    0.0000 C   0  0  0  0  0  0  0  0  0  0  0  0
   -0.8708   -1.5000    0.0000 C   0  0  0  0  0  0  0  0  0  0  0  0
    0.8625    1.5000    0.0000 C   0  0  0  0  0  0  0  0  0  0  0  0
   -0.8708    1.5000    0.0000 C   0  0  0  0  0  0  0  0  0  0  0  0
    0.0000   -2.9917    0.0000 O   0  0  0  0  0  0  0  0  0  0  0  0
   -0.8708    2.5000    0.0000 C   0  0  0  0  0  0  0  0  0  0  0  0
    0.8625    2.5000    0.0000 C   0  0  0  0  0  0  0  0  0  0  0  0
  2  1  1  0  0  0  0
  3 12  1  0  0  0  0
  4  2  1  0  0  0  0
  5  2  2  0  0  0  0
  6  8  2  0  0  0  0
  6  7  1  0  0  0  0
  7  4  2  0  0  0  0
  8  5  1  0  0  0  0
  9  1  1  0  0  0  0
 10  1  1  0  0  0  0
 11  6  1  0  0  0  0
 12 10  1  0  0  0  0
 13  9  1  0  0  0  0
 13  3  1  0  0  0  0
M  END
>  <idnumber>
T0515-3065

>  <LogP>
4.140000000000000e-001

>  <rotating_bonds>
1.000000000000000e+000

>  <hb_acceptors>
3.000000000000000e+000

>  <hb_donors>
2.000000000000000e+000

>  <PSA>
3.550000000000000e+001

>  <clusterid>
-309

>  <is_centroid>
@

>  <class1>
717

>  <class2>
625

>  <population1>
74368

>  <population2>
877209

>  <population>
68762

>  <cansmi>
Oc1ccc(cc1)N1CCNCC1

>  <HBA2>
3

>  <HBD>
2

>  <logP>
1.1956

>  <TPSA>
35.5

>  <MW>
178.231

$$$$

 OpenBabel02121609142D

 14 15  0  0  0  0  0  0  0  0999 V2000
    0.6292    1.4708    0.0000 N   0  0  0  0  0  0  0  0  0  0  0  0
    0.6292    3.0833    0.0000 N   0  0  0  0  0  0  0  0  0  0  0  0
    0.0417    2.2750    0.0000 C   0  0  0  0  0  0  0  0  0  0  0  0
    0.3167    0.5208    0.0000 C   0  0  0  0  0  0  0  0  0  0  0  0
    1.5792    1.7750    0.0000 C   0  0  0  0  0  0  0  0  0  0  0  0
    1.5792    2.7750    0.0000 C   0  0  0  0  0  0  0  0  0  0  0  0
   -0.2958   -1.3875    0.0000 C   0  0  0  0  0  0  0  0  0  0  0  0
   -0.6083   -2.3375    0.0000 C   0  0  0  0  0  0  0  0  0  0  0  0
    0.0625   -3.0792    0.0000 O   0  0  0  0  0  0  0  0  0  0  0  0
   -0.6583    0.3083    0.0000 C   0  0  0  0  0  0  0  0  0  0  0  0
    0.9917   -0.2292    0.0000 C   0  0  0  0  0  0  0  0  0  0  0  0
   -0.9708   -0.6417    0.0000 C   0  0  0  0  0  0  0  0  0  0  0  0
    0.6792   -1.1792    0.0000 C   0  0  0  0  0  0  0  0  0  0  0  0
   -1.5833   -2.5417    0.0000 C   0  0  0  0  0  0  0  0  0  0  0  0
  2  3  2  0  0  0  0
  3  1  1  0  0  0  0
  4  1  1  0  0  0  0
  5  1  1  0  0  0  0
  6  5  2  0  0  0  0
  6  2  1  0  0  0  0
  7 13  1  0  0  0  0
  8  7  1  0  0  0  0
  9  8  2  0  0  0  0
 10  4  2  0  0  0  0
 11  4  1  0  0  0  0
 12 10  1  0  0  0  0
 12  7  2  0  0  0  0
 13 11  2  0  0  0  0
 14  8  1  0  0  0  0
M  END
>  <idnumber>
T0515-3123

>  <LogP>
1.390000000000000e+000

>  <rotating_bonds>
2.000000000000000e+000

>  <hb_acceptors>
2.000000000000000e+000

>  <hb_donors>
0.000000000000000e+000

>  <PSA>
3.489000000000000e+001

>  <clusterid>
-310

>  <is_centroid>
@

>  <class1>
686

>  <class2>
625

>  <population1>
31113

>  <population2>
877209

>  <population>
26567

>  <cansmi>
CC(=O)c1ccc(cc1)n1cncc1

>  <HBA2>
3

>  <HBD>
0

>  <logP>
2.0749

>  <TPSA>
34.89

>  <MW>
186.21

$$$$

 OpenBabel02121609142D

 14 15  0  0  0  0  0  0  0  0999 V2000
   -1.8333    0.0000    0.0000 C   0  0  0  0  0  0  0  0  0  0  0  0
    2.5000   -0.5000    0.0000 C   0  0  0  0  0  0  0  0  0  0  0  0
   -1.8333    1.0000    0.0000 C   0  0  0  0  0  0  0  0  0  0  0  0
   -0.9708   -0.5000    0.0000 C   0  0  0  0  0  0  0  0  0  0  0  0
    3.3667    0.0000    0.0000 O   0  0  0  0  0  0  0  0  0  0  0  0
   -0.9708    1.5000    0.0000 C   0  0  0  0  0  0  0  0  0  0  0  0
   -0.1000    0.0000    0.0000 C   0  0  0  0  0  0  0  0  0  0  0  0
    0.7667   -0.5000    0.0000 O   0  0  0  0  0  0  0  0  0  0  0  0
    1.6292    0.0000    0.0000 C   0  0  0  0  0  0  0  0  0  0  0  0
    2.5000   -1.5000    0.0000 O   0  0  0  0  0  0  0  0  0  0  0  0
   -0.1000    1.0000    0.0000 C   0  0  0  0  0  0  0  0  0  0  0  0
   -2.7833   -0.3042    0.0000 C   0  0  0  0  0  0  0  0  0  0  0  0
   -3.3708    0.5000    0.0000 C   0  0  0  0  0  0  0  0  0  0  0  0
   -2.7833    1.3125    0.0000 C   0  0  0  0  0  0  0  0  0  0  0  0
  2  9  1  0  0  0  0
  3  1  2  0  0  0  0
  4  1  1  0  0  0  0
  5  2  2  0  0  0  0
  6  3  1  0  0  0  0
  7  4  2  0  0  0  0
  8  7  1  0  0  0  0
  9  8  1  0  0  0  0
 10  2  1  0  0  0  0
 11  7  1  0  0  0  0
 11  6  2  0  0  0  0
 12  1  1  0  0  0  0
 13 12  1  0  0  0  0
 14  3  1  0  0  0  0
 14 13  1  0  0  0  0
M  END
>  <idnumber>
T0515-4777

>  <LogP>
2.363000000000000e+000

>  <rotating_bonds>
3.000000000000000e+000

>  <hb_acceptors>
3.000000000000000e+000

>  <hb_donors>
1.000000000000000e+000

>  <PSA>
4.652999999999997e+001

>  <clusterid>
-311

>  <is_centroid>
@

>  <class1>
644

>  <population1>
7036

>  <population>
7036

>  <cansmi>
OC(=O)COc1ccc2c(c1)CCC2

>  <HBA2>
3

>  <HBD>
1

>  <logP>
1.6387

>  <TPSA>
46.53

>  <MW>
192.211

$$$$

 OpenBabel02121609142D

 19 22  0  0  0  0  0  0  0  0999 V2000
    0.2542   -0.5292    0.0000 C   0  0  0  0  0  0  0  0  0  0  0  0
   -1.2375    0.7958    0.0000 C   0  0  3  0  0  0  0  0  0  0  0  0
    0.8042   -1.4042    0.0000 N   0  0  0  0  0  0  0  0  0  0  0  0
   -0.7250   -0.1292    0.0000 C   0  0  0  0  0  0  0  0  0  0  0  0
   -1.2458    2.3125    0.0000 C   0  0  3  0  0  0  0  0  0  0  0  0
   -1.8958    2.6208    0.0000 C   0  0  3  0  0  0  0  0  0  0  0  0
    0.1292    1.8208    0.0000 C   0  0  3  0  0  0  0  0  0  0  0  0
    0.9875    0.1208    0.0000 O   0  0  0  0  0  0  0  0  0  0  0  0
   -2.2208    1.6000    0.0000 C   0  0  0  0  0  0  0  0  0  0  0  0
   -1.6708    1.2583    0.0000 C   0  0  0  0  0  0  0  0  0  0  0  0
   -0.2125    0.8750    0.0000 C   0  0  0  0  0  0  0  0  0  0  0  0
   -1.2833    3.1833    0.0000 C   0  0  0  0  0  0  0  0  0  0  0  0
   -0.2458    2.4583    0.0000 C   0  0  0  0  0  0  0  0  0  0  0  0
   -0.7458    2.7208    0.0000 C   0  0  0  0  0  0  0  0  0  0  0  0
    1.6750   -3.1750    0.0000 O   0  0  0  0  0  0  0  0  0  0  0  0
    0.2667   -2.2375    0.0000 C   0  0  0  0  0  0  0  0  0  0  0  0
    1.7917   -1.4917    0.0000 C   0  0  0  0  0  0  0  0  0  0  0  0
    2.2167   -2.3667    0.0000 C   0  0  0  0  0  0  0  0  0  0  0  0
    0.7042   -3.1042    0.0000 C   0  0  0  0  0  0  0  0  0  0  0  0
  2  4  1  0  0  0  0
  3  1  1  0  0  0  0
  4  1  1  0  0  0  0
  5 10  1  0  0  0  0
  5 13  1  0  0  0  0
  6  9  1  0  0  0  0
  6 14  1  0  0  0  0
  7 11  1  0  0  0  0
  8  1  2  0  0  0  0
  9  2  1  0  0  0  0
 10  2  1  0  0  0  0
 11  2  1  0  0  0  0
 12  5  1  0  0  0  0
 12  6  1  0  0  0  0
 13  7  1  0  0  0  0
 14  7  1  0  0  0  0
 15 18  1  0  0  0  0
 16  3  1  0  0  0  0
 17  3  1  0  0  0  0
 18 17  1  0  0  0  0
 19 16  1  0  0  0  0
 19 15  1  0  0  0  0
M  END
>  <idnumber>
T0515-7338

>  <LogP>
2.465000000000000e+000

>  <rotating_bonds>
2.000000000000000e+000

>  <hb_acceptors>
2.000000000000000e+000

>  <hb_donors>
0.000000000000000e+000

>  <PSA>
2.954000000000000e+001

>  <clusterid>
88

>  <is_centroid>
@

>  <class1>
809

>  <class2>
786

>  <population1>
8162

>  <population2>
48067

>  <population>
234

>  <cansmi>
O=C(N1CCOCC1)CC12CC3CC(C2)CC(C1)C3

>  <HBA2>
3

>  <HBD>
0

>  <logP>
2.3896

>  <TPSA>
29.54

>  <MW>
263.375

$$$$

 OpenBabel02121609142D

 18 18  0  0  0  0  0  0  0  0999 V2000
   -0.7333    0.7583    0.0000 C   0  0  0  0  0  0  0  0  0  0  0  0
   -0.7333   -0.2500    0.0000 N   0  0  0  0  0  0  0  0  0  0  0  0
    3.5917    3.2583    0.0000 N   0  0  0  0  0  0  0  0  0  0  0  0
   -0.7333   -2.2500    0.0000 N   0  0  0  0  0  0  0  0  0  0  0  0
    2.7292    2.7500    0.0000 C   0  0  0  0  0  0  0  0  0  0  0  0
    0.1292    1.2500    0.0000 C   0  0  0  0  0  0  0  0  0  0  0  0
   -1.6000    1.2500    0.0000 O   0  0  0  0  0  0  0  0  0  0  0  0
   -1.6000   -0.7500    0.0000 C   0  0  0  0  0  0  0  0  0  0  0  0
    0.1292   -0.7500    0.0000 C   0  0  0  0  0  0  0  0  0  0  0  0
    1.0000    0.7583    0.0000 C   0  0  0  0  0  0  0  0  0  0  0  0
    0.1292    2.2583    0.0000 C   0  0  0  0  0  0  0  0  0  0  0  0
   -1.6000   -1.7417    0.0000 C   0  0  0  0  0  0  0  0  0  0  0  0
    0.1292   -1.7417    0.0000 C   0  0  0  0  0  0  0  0  0  0  0  0
    1.8625    2.2583    0.0000 C   0  0  0  0  0  0  0  0  0  0  0  0
    1.0000    2.7500    0.0000 C   0  0  0  0  0  0  0  0  0  0  0  0
    1.8625    1.2500    0.0000 C   0  0  0  0  0  0  0  0  0  0  0  0
   -3.6000    0.4583    0.0000 Cl  0  0  0  0  0  0  0  0  0  0  0  0
   -0.7333   -3.2500    0.0000 C   0  0  0  0  0  0  0  0  0  0  0  0
  2  1  1  0  0  0  0
  3  5  3  0  0  0  0
  4 13  1  0  0  0  0
  5 14  1  0  0  0  0
  6  1  1  0  0  0  0
  7  1  2  0  0  0  0
  8  2  1  0  0  0  0
  9  2  1  0  0  0  0
 10  6  1  0  0  0  0
 11  6  2  0  0  0  0
 12  8  1  0  0  0  0
 12  4  1  0  0  0  0
 13  9  1  0  0  0  0
 14 15  2  0  0  0  0
 15 11  1  0  0  0  0
 16 10  2  0  0  0  0
 16 14  1  0  0  0  0
 18  4  1  0  0  0  0
M  END
>  <idnumber>
T0515-7855

>  <saltdata>
HCI

>  <LogP>
9.410000000000000e-001

>  <rotating_bonds>
2.000000000000000e+000

>  <hb_acceptors>
3.000000000000000e+000

>  <hb_donors>
0.000000000000000e+000

>  <PSA>
4.734000000000000e+001

>  <clusterid>
178

>  <is_centroid>
@

>  <class1>
717

>  <class2>
625

>  <population1>
74368

>  <population2>
877209

>  <population>
68762

>  <cansmi>
CN1CCN(CC1)C(=O)c1ccc(cc1)C#N.Cl

>  <HBA2>
4

>  <HBD>
1

>  <logP>
1.62368

>  <TPSA>
47.34

>  <MW>
265.739

$$$$

 OpenBabel02121609142D

 17 19  0  0  0  0  0  0  0  0999 V2000
   -0.7208   -0.7167    0.0000 C   0  0  0  0  0  0  0  0  0  0  0  0
   -0.1333    0.0875    0.0000 C   0  0  0  0  0  0  0  0  0  0  0  0
    0.8167   -0.2167    0.0000 C   0  0  0  0  0  0  0  0  0  0  0  0
    0.8167   -1.2167    0.0000 C   0  0  0  0  0  0  0  0  0  0  0  0
   -1.7208   -0.7167    0.0000 C   0  0  0  0  0  0  0  0  0  0  0  0
   -0.1333   -1.5292    0.0000 C   0  0  0  0  0  0  0  0  0  0  0  0
   -2.2208    0.1458    0.0000 C   0  0  0  0  0  0  0  0  0  0  0  0
    1.6875    0.2833    0.0000 C   0  0  0  0  0  0  0  0  0  0  0  0
   -3.2125    0.2500    0.0000 O   0  0  0  0  0  0  0  0  0  0  0  0
    1.6875   -1.7167    0.0000 C   0  0  0  0  0  0  0  0  0  0  0  0
   -0.4458    1.0375    0.0000 O   0  0  0  0  0  0  0  0  0  0  0  0
   -1.8125    1.0583    0.0000 C   0  0  0  0  0  0  0  0  0  0  0  0
   -3.4208    1.2250    0.0000 C   0  0  0  0  0  0  0  0  0  0  0  0
   -2.5583    1.7250    0.0000 C   0  0  0  0  0  0  0  0  0  0  0  0
    2.5500   -1.2167    0.0000 C   0  0  0  0  0  0  0  0  0  0  0  0
    2.5500   -0.2167    0.0000 C   0  0  0  0  0  0  0  0  0  0  0  0
    3.4167   -1.7167    0.0000 N   0  0  0  0  0  0  0  0  0  0  0  0
  2  1  1  0  0  0  0
  3  2  1  0  0  0  0
  3  4  2  0  0  0  0
  4  6  1  0  0  0  0
  5  1  2  0  0  0  0
  6  1  1  0  0  0  0
  7  5  1  0  0  0  0
  8  3  1  0  0  0  0
  9  7  1  0  0  0  0
 10  4  1  0  0  0  0
 11  2  2  0  0  0  0
 12  7  2  0  0  0  0
 13  9  1  0  0  0  0
 14 12  1  0  0  0  0
 14 13  2  0  0  0  0
 15 10  2  0  0  0  0
 15 16  1  0  0  0  0
 16  8  2  0  0  0  0
 17 15  1  0  0  0  0
M  END
>  <idnumber>
T0515-8020

>  <LogP>
2.298000000000000e+000

>  <rotating_bonds>
1.000000000000000e+000

>  <hb_acceptors>
2.000000000000000e+000

>  <hb_donors>
1.000000000000000e+000

>  <PSA>
5.622999999999997e+001

>  <clusterid>
-312

>  <is_centroid>
@

>  <class1>
704

>  <class2>
840

>  <population1>
51112

>  <population2>
683

>  <population>
14

>  <cansmi>
Nc1ccc2c(c1)C/C(=C/c1ccco1)/C2=O

>  <HBA2>
3

>  <HBD>
1

>  <logP>
3.2654

>  <TPSA>
56.23

>  <MW>
225.243

$$$$

 OpenBabel02121609142D

 14 15  0  0  0  0  0  0  0  0999 V2000
    0.2042    0.8208    0.0000 C   0  0  0  0  0  0  0  0  0  0  0  0
    0.4625   -0.1417    0.0000 N   0  0  0  0  0  0  0  0  0  0  0  0
   -0.2458   -0.8500    0.0000 C   0  0  0  0  0  0  0  0  0  0  0  0
   -0.7625    1.0833    0.0000 O   0  0  0  0  0  0  0  0  0  0  0  0
   -1.2083   -0.5917    0.0000 C   0  0  0  0  0  0  0  0  0  0  0  0
    0.9125    1.5333    0.0000 C   0  0  0  0  0  0  0  0  0  0  0  0
   -1.4708    0.3750    0.0000 Cl  0  0  0  0  0  0  0  0  0  0  0  0
    1.9125    2.5333    0.0000 C   0  0  0  0  0  0  0  0  0  0  0  0
    0.0167   -1.8167    0.0000 C   0  0  0  0  0  0  0  0  0  0  0  0
    1.9125    1.5333    0.0000 C   0  0  0  0  0  0  0  0  0  0  0  0
    0.9125    2.5333    0.0000 C   0  0  0  0  0  0  0  0  0  0  0  0
   -1.9208   -1.3000    0.0000 C   0  0  0  0  0  0  0  0  0  0  0  0
   -0.6958   -2.5250    0.0000 C   0  0  0  0  0  0  0  0  0  0  0  0
   -1.6583   -2.2667    0.0000 C   0  0  0  0  0  0  0  0  0  0  0  0
  2  1  1  0  0  0  0
  3  2  1  0  0  0  0
  4  1  2  0  0  0  0
  5  3  2  0  0  0  0
  6  1  1  0  0  0  0
  7  5  1  0  0  0  0
  8 11  1  0  0  0  0
  9  3  1  0  0  0  0
 10  6  1  0  0  0  0
 10  8  1  0  0  0  0
 11  6  1  0  0  0  0
 12  5  1  0  0  0  0
 12 14  2  0  0  0  0
 13  9  2  0  0  0  0
 14 13  1  0  0  0  0
M  END
>  <idnumber>
T0515-8149

>  <LogP>
2.195000000000000e+000

>  <rotating_bonds>
2.000000000000000e+000

>  <hb_acceptors>
2.000000000000000e+000

>  <hb_donors>
1.000000000000000e+000

>  <PSA>
2.910000000000000e+001

>  <clusterid>
-313

>  <is_centroid>
@

>  <class1>
722

>  <class2>
625

>  <population1>
1463

>  <population2>
877209

>  <population>
1259

>  <cansmi>
O=C(C1CCC1)Nc1ccccc1Cl

>  <HBA2>
2

>  <HBD>
1

>  <logP>
3.1516

>  <TPSA>
29.1

>  <MW>
209.672

$$$$

 OpenBabel02121609142D

 16 17  0  0  0  0  0  0  0  0999 V2000
    0.4292   -1.7417    0.0000 N   0  0  0  0  0  0  0  0  0  0  0  0
   -0.4333   -1.2417    0.0000 C   0  0  0  0  0  0  0  0  0  0  0  0
   -0.4333   -0.2500    0.0000 C   0  0  0  0  0  0  0  0  0  0  0  0
   -1.3000   -1.7417    0.0000 O   0  0  0  0  0  0  0  0  0  0  0  0
   -1.3000    0.2500    0.0000 S   0  0  0  0  0  0  0  0  0  0  0  0
    2.1625   -2.7417    0.0000 O   0  0  0  0  0  0  0  0  0  0  0  0
    0.4292   -2.7417    0.0000 C   0  0  0  0  0  0  0  0  0  0  0  0
    1.2917   -1.2417    0.0000 C   0  0  0  0  0  0  0  0  0  0  0  0
   -1.3000    1.2500    0.0000 C   0  0  0  0  0  0  0  0  0  0  0  0
    2.1625   -1.7417    0.0000 C   0  0  0  0  0  0  0  0  0  0  0  0
    1.2917   -3.2417    0.0000 C   0  0  0  0  0  0  0  0  0  0  0  0
   -0.4333    1.7500    0.0000 C   0  0  0  0  0  0  0  0  0  0  0  0
   -2.1708    1.7500    0.0000 C   0  0  0  0  0  0  0  0  0  0  0  0
   -2.1708    2.7500    0.0000 C   0  0  0  0  0  0  0  0  0  0  0  0
   -0.4333    2.7500    0.0000 C   0  0  0  0  0  0  0  0  0  0  0  0
   -1.3000    3.2500    0.0000 C   0  0  0  0  0  0  0  0  0  0  0  0
  2  1  1  0  0  0  0
  3  2  1  0  0  0  0
  4  2  2  0  0  0  0
  5  3  1  0  0  0  0
  6 10  1  0  0  0  0
  7  1  1  0  0  0  0
  8  1  1  0  0  0  0
  9  5  1  0  0  0  0
 10  8  1  0  0  0  0
 11  7  1  0  0  0  0
 11  6  1  0  0  0  0
 12  9  1  0  0  0  0
 13  9  1  0  0  0  0
 14 13  1  0  0  0  0
 15 12  1  0  0  0  0
 15 16  1  0  0  0  0
 16 14  1  0  0  0  0
M  END
>  <idnumber>
T0515-9070

>  <LogP>
2.242000000000000e+000

>  <rotating_bonds>
3.000000000000000e+000

>  <hb_acceptors>
3.000000000000000e+000

>  <hb_donors>
0.000000000000000e+000

>  <PSA>
5.484000000000000e+001

>  <clusterid>
-316

>  <is_centroid>
@

>  <class1>
797

>  <class2>
786

>  <population1>
40410

>  <population2>
48067

>  <population>
1726

>  <cansmi>
O=C(N1CCOCC1)CSC1CCCCC1

>  <HBA2>
4

>  <HBD>
0

>  <logP>
1.849

>  <TPSA>
54.84

>  <MW>
243.366

$$$$

 OpenBabel02121609142D

 19 21  0  0  0  0  0  0  0  0999 V2000
   -1.2083   -2.0375    0.0000 N   0  0  0  0  0  0  0  0  0  0  0  0
   -2.1583   -0.7292    0.0000 N   0  0  0  0  0  0  0  0  0  0  0  0
   -2.1583   -1.7292    0.0000 C   0  0  0  0  0  0  0  0  0  0  0  0
   -0.6208   -1.2292    0.0000 C   0  0  0  0  0  0  0  0  0  0  0  0
   -1.2083   -0.4167    0.0000 C   0  0  0  0  0  0  0  0  0  0  0  0
    1.8792   -0.3625    0.0000 C   0  0  0  0  0  0  0  0  0  0  0  0
    0.8792   -0.3625    0.0000 N   0  0  0  0  0  0  0  0  0  0  0  0
   -3.0208   -0.2292    0.0000 C   0  0  0  0  0  0  0  0  0  0  0  0
   -3.0208   -2.2292    0.0000 C   0  0  0  0  0  0  0  0  0  0  0  0
    2.3792   -1.2292    0.0000 O   0  0  0  0  0  0  0  0  0  0  0  0
    0.3792   -1.2292    0.0000 C   0  0  0  0  0  0  0  0  0  0  0  0
    2.3792    0.5083    0.0000 C   0  0  0  0  0  0  0  0  0  0  0  0
   -3.8958   -0.7292    0.0000 C   0  0  0  0  0  0  0  0  0  0  0  0
   -3.8958   -1.7292    0.0000 C   0  0  0  0  0  0  0  0  0  0  0  0
    3.3792    0.5083    0.0000 C   0  0  0  0  0  0  0  0  0  0  0  0
    1.8792    1.3708    0.0000 C   0  0  0  0  0  0  0  0  0  0  0  0
    2.3792    2.2333    0.0000 C   0  0  0  0  0  0  0  0  0  0  0  0
    3.8792    1.3708    0.0000 C   0  0  0  0  0  0  0  0  0  0  0  0
    3.3792    2.2333    0.0000 C   0  0  0  0  0  0  0  0  0  0  0  0
  2  3  1  0  0  0  0
  3  1  2  0  0  0  0
  4  1  1  0  0  0  0
  5  4  2  0  0  0  0
  5  2  1  0  0  0  0
  6  7  1  0  0  0  0
  7 11  1  0  0  0  0
  8  2  1  0  0  0  0
  8 13  2  0  0  0  0
  9  3  1  0  0  0  0
 10  6  2  0  0  0  0
 11  4  1  0  0  0  0
 12  6  1  0  0  0  0
 13 14  1  0  0  0  0
 14  9  2  0  0  0  0
 15 12  1  0  0  0  0
 16 12  2  0  0  0  0
 17 16  1  0  0  0  0
 18 15  2  0  0  0  0
 18 19  1  0  0  0  0
 19 17  2  0  0  0  0
M  END
>  <idnumber>
T0515-9115

>  <LogP>
1.893000000000000e+000

>  <rotating_bonds>
3.000000000000000e+000

>  <hb_acceptors>
3.000000000000000e+000

>  <hb_donors>
1.000000000000000e+000

>  <PSA>
4.640000000000000e+001

>  <clusterid>
-317

>  <is_centroid>
@

>  <class1>
625

>  <class2>
660

>  <population1>
877209

>  <population2>
3949

>  <population>
3187

>  <cansmi>
O=C(c1ccccc1)NCc1nc2n(c1)cccc2

>  <HBA2>
4

>  <HBD>
1

>  <logP>
2.6552

>  <TPSA>
46.4

>  <MW>
251.283

$$$$

 OpenBabel02121609142D

 14 15  0  0  0  0  0  0  0  0999 V2000
   -0.2125    0.8875    0.0000 N   0  0  0  0  0  0  0  0  0  0  0  0
   -0.8000    1.6958    0.0000 C   0  0  0  0  0  0  0  0  0  0  0  0
   -0.5208   -0.0625    0.0000 C   0  0  0  0  0  0  0  0  0  0  0  0
   -0.2125    2.5083    0.0000 N   0  0  0  0  0  0  0  0  0  0  0  0
   -1.5000   -0.2667    0.0000 O   0  0  0  0  0  0  0  0  0  0  0  0
   -1.8000    1.6958    0.0000 O   0  0  0  0  0  0  0  0  0  0  0  0
    0.1500   -0.8042    0.0000 C   0  0  0  0  0  0  0  0  0  0  0  0
    0.7375    1.1958    0.0000 C   0  0  0  0  0  0  0  0  0  0  0  0
    0.7375    2.1958    0.0000 C   0  0  0  0  0  0  0  0  0  0  0  0
   -0.1625   -1.7542    0.0000 C   0  0  0  0  0  0  0  0  0  0  0  0
    1.1250   -0.6000    0.0000 C   0  0  0  0  0  0  0  0  0  0  0  0
    1.7917   -1.3417    0.0000 C   0  0  0  0  0  0  0  0  0  0  0  0
    0.5042   -2.5000    0.0000 C   0  0  0  0  0  0  0  0  0  0  0  0
    1.4875   -2.2917    0.0000 C   0  0  0  0  0  0  0  0  0  0  0  0
  2  1  1  0  0  0  0
  3  1  1  0  0  0  0
  4  2  1  0  0  0  0
  5  3  2  0  0  0  0
  6  2  2  0  0  0  0
  7  3  1  0  0  0  0
  8  1  1  0  0  0  0
  9  8  1  0  0  0  0
  9  4  1  0  0  0  0
 10  7  1  0  0  0  0
 11  7  2  0  0  0  0
 12 11  1  0  0  0  0
 13 10  2  0  0  0  0
 13 14  1  0  0  0  0
 14 12  2  0  0  0  0
M  END
>  <idnumber>
T0516-0888

>  <LogP>
9.810000000000002e-001

>  <rotating_bonds>
1.000000000000000e+000

>  <hb_acceptors>
2.000000000000000e+000

>  <hb_donors>
1.000000000000000e+000

>  <PSA>
4.941000000000003e+001

>  <clusterid>
-319

>  <is_centroid>
@

>  <class1>
625

>  <class2>
798

>  <population1>
877209

>  <population2>
25583

>  <population>
22713

>  <cansmi>
O=C(N1CCNC1=O)c1ccccc1

>  <HBA2>
4

>  <HBD>
1

>  <logP>
1.1187

>  <TPSA>
49.41

>  <MW>
190.199

$$$$

 OpenBabel02121609142D

 22 24  0  0  0  0  0  0  0  0999 V2000
    0.0000   -1.0000    0.0000 C   0  0  0  0  0  0  0  0  0  0  0  0
    0.0000   -2.0000    0.0000 C   0  0  0  0  0  0  0  0  0  0  0  0
   -0.8708   -2.4917    0.0000 N   0  0  0  0  0  0  0  0  0  0  0  0
   -0.8708   -0.5000    0.0000 C   0  0  0  0  0  0  0  0  0  0  0  0
    0.8625   -0.5000    0.0000 C   0  0  0  0  0  0  0  0  0  0  0  0
    0.8625    0.5000    0.0000 N   0  0  0  0  0  0  0  0  0  0  0  0
    0.0000    1.0000    0.0000 C   0  0  0  0  0  0  0  0  0  0  0  0
   -1.7333   -2.0000    0.0000 C   0  0  0  0  0  0  0  0  0  0  0  0
   -1.7333   -1.0000    0.0000 C   0  0  0  0  0  0  0  0  0  0  0  0
    0.8625   -2.4917    0.0000 O   0  0  0  0  0  0  0  0  0  0  0  0
    1.7292    1.0000    0.0000 C   0  0  0  0  0  0  0  0  0  0  0  0
   -0.8708    0.5000    0.0000 O   0  0  0  0  0  0  0  0  0  0  0  0
    0.0000    2.0000    0.0000 C   0  0  0  0  0  0  0  0  0  0  0  0
   -2.6000   -2.4917    0.0000 C   0  0  0  0  0  0  0  0  0  0  0  0
   -2.6000   -0.5000    0.0000 C   0  0  0  0  0  0  0  0  0  0  0  0
    2.5917    0.5000    0.0000 C   0  0  0  0  0  0  0  0  0  0  0  0
    1.7292    2.0000    0.0000 C   0  0  0  0  0  0  0  0  0  0  0  0
   -3.4708   -1.0000    0.0000 C   0  0  0  0  0  0  0  0  0  0  0  0
   -3.4708   -2.0000    0.0000 C   0  0  0  0  0  0  0  0  0  0  0  0
    2.5917    2.5000    0.0000 C   0  0  0  0  0  0  0  0  0  0  0  0
    3.4625    1.0000    0.0000 C   0  0  0  0  0  0  0  0  0  0  0  0
    3.4625    2.0000    0.0000 C   0  0  0  0  0  0  0  0  0  0  0  0
  2  1  1  0  0  0  0
  3  2  1  0  0  0  0
  3  8  1  0  0  0  0
  4  1  2  0  0  0  0
  5  1  1  0  0  0  0
  6  5  1  0  0  0  0
  7  6  1  0  0  0  0
  8  9  2  0  0  0  0
  9  4  1  0  0  0  0
 10  2  2  0  0  0  0
 11  6  1  0  0  0  0
 12  7  2  0  0  0  0
 13  7  1  0  0  0  0
 14  8  1  0  0  0  0
 15  9  1  0  0  0  0
 16 11  1  0  0  0  0
 17 11  2  0  0  0  0
 18 15  2  0  0  0  0
 19 18  1  0  0  0  0
 19 14  2  0  0  0  0
 20 17  1  0  0  0  0
 21 16  2  0  0  0  0
 21 22  1  0  0  0  0
 22 20  2  0  0  0  0
M  END
>  <idnumber>
T0516-1017

>  <LogP>
2.999000000000000e+000

>  <rotating_bonds>
3.000000000000000e+000

>  <hb_acceptors>
2.000000000000000e+000

>  <hb_donors>
1.000000000000000e+000

>  <PSA>
4.941000000000003e+001

>  <clusterid>
-320

>  <is_centroid>
@

>  <class1>
625

>  <class2>
801

>  <population1>
877209

>  <population2>
1387

>  <population>
1387

>  <cansmi>
CC(=O)N(c1ccccc1)Cc1cc2ccccc2[nH]c1=O

>  <HBA2>
3

>  <HBD>
1

>  <logP>
3.0812

>  <TPSA>
53.17

>  <MW>
292.332

$$$$

 OpenBabel02121609142D

 20 22  0  0  0  0  0  0  0  0999 V2000
    0.8625    0.5000    0.0000 N   0  0  0  0  0  0  0  0  0  0  0  0
    1.7292    1.0000    0.0000 C   0  0  0  0  0  0  0  0  0  0  0  0
    0.8625    2.5000    0.0000 N   0  0  0  0  0  0  0  0  0  0  0  0
    1.7292    2.0000    0.0000 C   0  0  0  0  0  0  0  0  0  0  0  0
   -0.0083    1.0000    0.0000 C   0  0  0  0  0  0  0  0  0  0  0  0
   -0.0083    2.0000    0.0000 C   0  0  0  0  0  0  0  0  0  0  0  0
    0.8625   -0.5000    0.0000 C   0  0  0  0  0  0  0  0  0  0  0  0
    2.5917    0.5000    0.0000 O   0  0  0  0  0  0  0  0  0  0  0  0
   -0.0083   -1.0000    0.0000 C   0  0  0  0  0  0  0  0  0  0  0  0
   -1.7333   -2.0000    0.0000 C   0  0  0  0  0  0  0  0  0  0  0  0
   -2.6000   -2.5000    0.0000 F   0  0  0  0  0  0  0  0  0  0  0  0
   -0.8708   -0.5000    0.0000 C   0  0  0  0  0  0  0  0  0  0  0  0
   -0.0083   -2.0000    0.0000 C   0  0  0  0  0  0  0  0  0  0  0  0
   -0.8708   -2.5000    0.0000 C   0  0  0  0  0  0  0  0  0  0  0  0
   -1.7333   -1.0000    0.0000 C   0  0  0  0  0  0  0  0  0  0  0  0
    2.5917    2.5000    0.0000 C   0  0  0  0  0  0  0  0  0  0  0  0
   -0.8708    0.5000    0.0000 C   0  0  0  0  0  0  0  0  0  0  0  0
   -0.8708    2.5000    0.0000 C   0  0  0  0  0  0  0  0  0  0  0  0
   -1.7333    1.0000    0.0000 C   0  0  0  0  0  0  0  0  0  0  0  0
   -1.7333    2.0000    0.0000 C   0  0  0  0  0  0  0  0  0  0  0  0
  2  1  1  0  0  0  0
  3  6  1  0  0  0  0
  4  2  1  0  0  0  0
  4  3  2  0  0  0  0
  5  1  1  0  0  0  0
  6  5  2  0  0  0  0
  7  1  1  0  0  0  0
  8  2  2  0  0  0  0
  9  7  1  0  0  0  0
 10 14  2  0  0  0  0
 11 10  1  0  0  0  0
 12  9  1  0  0  0  0
 13  9  2  0  0  0  0
 14 13  1  0  0  0  0
 15 12  2  0  0  0  0
 15 10  1  0  0  0  0
 16  4  1  0  0  0  0
 17  5  1  0  0  0  0
 18  6  1  0  0  0  0
 18 20  2  0  0  0  0
 19 17  2  0  0  0  0
 20 19  1  0  0  0  0
M  END
>  <idnumber>
T0516-2311

>  <LogP>
2.931000000000000e+000

>  <rotating_bonds>
2.000000000000000e+000

>  <hb_acceptors>
3.000000000000000e+000

>  <hb_donors>
0.000000000000000e+000

>  <PSA>
3.267000000000000e+001

>  <clusterid>
-323

>  <is_centroid>
@

>  <class1>
625

>  <class2>
802

>  <population1>
877209

>  <population2>
1299

>  <population>
1299

>  <cansmi>
Fc1ccc(cc1)Cn1c(=O)c(C)nc2c1cccc2

>  <HBA2>
3

>  <HBD>
0

>  <logP>
2.8923

>  <TPSA>
34.89

>  <MW>
268.286

$$$$

 OpenBabel02121609142D

 18 19  0  0  0  0  0  0  0  0999 V2000
   -0.8708    1.2500    0.0000 C   0  0  0  0  0  0  0  0  0  0  0  0
   -0.0083    1.7500    0.0000 C   0  0  0  0  0  0  0  0  0  0  0  0
   -0.8708    0.2500    0.0000 N   0  0  0  0  0  0  0  0  0  0  0  0
   -0.8708   -1.7500    0.0000 N   0  0  0  0  0  0  0  0  0  0  0  0
   -0.8708   -2.7500    0.0000 C   0  0  0  0  0  0  0  0  0  0  0  0
   -0.0083    2.7583    0.0000 C   0  0  0  0  0  0  0  0  0  0  0  0
   -1.7333    1.7500    0.0000 O   0  0  0  0  0  0  0  0  0  0  0  0
   -0.0083   -0.2500    0.0000 C   0  0  0  0  0  0  0  0  0  0  0  0
   -1.7333   -0.2500    0.0000 C   0  0  0  0  0  0  0  0  0  0  0  0
   -0.0083   -1.2500    0.0000 C   0  0  0  0  0  0  0  0  0  0  0  0
   -1.7333   -1.2500    0.0000 C   0  0  0  0  0  0  0  0  0  0  0  0
   -0.0083   -3.2500    0.0000 O   0  0  0  0  0  0  0  0  0  0  0  0
   -0.8708    3.2583    0.0000 Cl  0  0  0  0  0  0  0  0  0  0  0  0
    0.8625    1.2500    0.0000 C   0  0  0  0  0  0  0  0  0  0  0  0
   -1.7333   -3.2500    0.0000 C   0  0  0  0  0  0  0  0  0  0  0  0
    0.8625    3.2583    0.0000 C   0  0  0  0  0  0  0  0  0  0  0  0
    1.7292    1.7500    0.0000 C   0  0  0  0  0  0  0  0  0  0  0  0
    1.7292    2.7500    0.0000 C   0  0  0  0  0  0  0  0  0  0  0  0
  2  1  1  0  0  0  0
  3  1  1  0  0  0  0
  4 11  1  0  0  0  0
  4 10  1  0  0  0  0
  5  4  1  0  0  0  0
  6  2  2  0  0  0  0
  7  1  2  0  0  0  0
  8  3  1  0  0  0  0
  9  3  1  0  0  0  0
 10  8  1  0  0  0  0
 11  9  1  0  0  0  0
 12  5  2  0  0  0  0
 13  6  1  0  0  0  0
 14  2  1  0  0  0  0
 15  5  1  0  0  0  0
 16  6  1  0  0  0  0
 16 18  2  0  0  0  0
 17 14  2  0  0  0  0
 18 17  1  0  0  0  0
M  END
>  <idnumber>
T0516-3782

>  <LogP>
1.142000000000000e+000

>  <rotating_bonds>
1.000000000000000e+000

>  <hb_acceptors>
3.000000000000000e+000

>  <hb_donors>
0.000000000000000e+000

>  <PSA>
4.062000000000001e+001

>  <clusterid>
227

>  <is_centroid>
@

>  <class1>
717

>  <class2>
625

>  <population1>
74368

>  <population2>
877209

>  <population>
68762

>  <cansmi>
CC(=O)N1CCN(CC1)C(=O)c1ccccc1Cl

>  <HBA2>
4

>  <HBD>
0

>  <logP>
1.5201

>  <TPSA>
40.62

>  <MW>
266.723

$$$$

 OpenBabel02121609142D

 15 16  0  0  0  0  0  0  0  0999 V2000
   -1.0083    0.2500    0.0000 N   0  0  0  0  0  0  0  0  0  0  0  0
   -1.0083   -0.7500    0.0000 N   0  0  0  0  0  0  0  0  0  0  0  0
   -1.9583    0.5583    0.0000 C   0  0  0  0  0  0  0  0  0  0  0  0
   -2.5458   -0.2500    0.0000 C   0  0  0  0  0  0  0  0  0  0  0  0
   -0.2000    0.8375    0.0000 C   0  0  0  0  0  0  0  0  0  0  0  0
   -1.9583   -1.0542    0.0000 C   0  0  0  0  0  0  0  0  0  0  0  0
    0.7167    0.4333    0.0000 C   0  0  0  0  0  0  0  0  0  0  0  0
   -2.2708    1.5125    0.0000 O   0  0  0  0  0  0  0  0  0  0  0  0
    1.5250    1.0208    0.0000 C   0  0  0  0  0  0  0  0  0  0  0  0
    1.4167    2.0208    0.0000 Cl  0  0  0  0  0  0  0  0  0  0  0  0
    0.8167   -0.5625    0.0000 C   0  0  0  0  0  0  0  0  0  0  0  0
   -2.2708   -2.0042    0.0000 C   0  0  0  0  0  0  0  0  0  0  0  0
    2.4375    0.6125    0.0000 C   0  0  0  0  0  0  0  0  0  0  0  0
    1.7292   -0.9667    0.0000 C   0  0  0  0  0  0  0  0  0  0  0  0
    2.5417   -0.3792    0.0000 C   0  0  0  0  0  0  0  0  0  0  0  0
  2  1  1  0  0  0  0
  3  1  1  0  0  0  0
  4  3  1  0  0  0  0
  5  1  1  0  0  0  0
  6  2  2  0  0  0  0
  6  4  1  0  0  0  0
  7  5  1  0  0  0  0
  8  3  2  0  0  0  0
  9  7  2  0  0  0  0
 10  9  1  0  0  0  0
 11  7  1  0  0  0  0
 12  6  1  0  0  0  0
 13  9  1  0  0  0  0
 13 15  2  0  0  0  0
 14 11  2  0  0  0  0
 15 14  1  0  0  0  0
M  END
>  <idnumber>
T0516-4460

>  <LogP>
1.902000000000000e+000

>  <rotating_bonds>
2.000000000000000e+000

>  <hb_acceptors>
3.000000000000000e+000

>  <hb_donors>
0.000000000000000e+000

>  <PSA>
3.267000000000000e+001

>  <clusterid>
228

>  <is_centroid>
@

>  <class1>
625

>  <class2>
861

>  <population1>
877209

>  <population2>
529

>  <population>
512

>  <cansmi>
CC1=NN(C(=O)C1)Cc1ccccc1Cl

>  <HBA2>
3

>  <HBD>
0

>  <logP>
1.8217

>  <TPSA>
32.67

>  <MW>
222.671

$$$$

 OpenBabel02121609142D

 21 23  0  0  0  0  0  0  0  0999 V2000
   -2.3833    0.4333    0.0000 C   0  0  0  0  0  0  0  0  0  0  0  0
   -1.5708    1.0208    0.0000 C   0  0  0  0  0  0  0  0  0  0  0  0
   -3.3333    0.7458    0.0000 C   0  0  0  0  0  0  0  0  0  0  0  0
   -0.6583    0.6125    0.0000 N   0  0  0  0  0  0  0  0  0  0  0  0
   -2.3833   -0.5667    0.0000 C   0  0  0  0  0  0  0  0  0  0  0  0
   -3.9208   -0.0667    0.0000 O   0  0  0  0  0  0  0  0  0  0  0  0
    1.1667   -0.2000    0.0000 N   0  0  0  0  0  0  0  0  0  0  0  0
   -3.3333   -0.8792    0.0000 C   0  0  0  0  0  0  0  0  0  0  0  0
   -1.6750    2.0208    0.0000 O   0  0  0  0  0  0  0  0  0  0  0  0
   -0.5500   -0.3792    0.0000 C   0  0  0  0  0  0  0  0  0  0  0  0
    0.1542    1.2000    0.0000 C   0  0  0  0  0  0  0  0  0  0  0  0
    1.0667    0.7958    0.0000 C   0  0  0  0  0  0  0  0  0  0  0  0
    0.3625   -0.7875    0.0000 C   0  0  0  0  0  0  0  0  0  0  0  0
    2.0875   -0.6042    0.0000 C   0  0  0  0  0  0  0  0  0  0  0  0
   -3.6375    1.6958    0.0000 C   0  0  0  0  0  0  0  0  0  0  0  0
   -3.6375   -1.8292    0.0000 C   0  0  0  0  0  0  0  0  0  0  0  0
    2.8917   -0.0167    0.0000 C   0  0  0  0  0  0  0  0  0  0  0  0
    2.1917   -1.6042    0.0000 C   0  0  0  0  0  0  0  0  0  0  0  0
    3.1042   -2.0042    0.0000 C   0  0  0  0  0  0  0  0  0  0  0  0
    3.8042   -0.4250    0.0000 C   0  0  0  0  0  0  0  0  0  0  0  0
    3.9125   -1.4167    0.0000 C   0  0  0  0  0  0  0  0  0  0  0  0
  2  1  1  0  0  0  0
  3  1  2  0  0  0  0
  4  2  1  0  0  0  0
  5  1  1  0  0  0  0
  6  3  1  0  0  0  0
  7 12  1  0  0  0  0
  8  5  2  0  0  0  0
  8  6  1  0  0  0  0
  9  2  2  0  0  0  0
 10  4  1  0  0  0  0
 11  4  1  0  0  0  0
 12 11  1  0  0  0  0
 13 10  1  0  0  0  0
 13  7  1  0  0  0  0
 14  7  1  0  0  0  0
 15  3  1  0  0  0  0
 16  8  1  0  0  0  0
 17 14  2  0  0  0  0
 18 14  1  0  0  0  0
 19 18  2  0  0  0  0
 20 17  1  0  0  0  0
 20 21  2  0  0  0  0
 21 19  1  0  0  0  0
M  END
>  <idnumber>
T0516-5712

>  <LogP>
2.120000000000000e+000

>  <rotating_bonds>
2.000000000000000e+000

>  <hb_acceptors>
2.000000000000000e+000

>  <hb_donors>
0.000000000000000e+000

>  <PSA>
3.669000000000001e+001

>  <clusterid>
229

>  <is_centroid>
@

>  <class1>
704

>  <class2>
717

>  <class3>
625

>  <population1>
51112

>  <population2>
74368

>  <population3>
877209

>  <population>
3504

>  <cansmi>
Cc1oc(c(c1)C(=O)N1CCN(CC1)c1ccccc1)C

>  <HBA2>
4

>  <HBD>
0

>  <logP>
2.8617

>  <TPSA>
36.69

>  <MW>
284.353

$$$$

 OpenBabel02121609142D

 17 18  0  0  0  0  0  0  0  0999 V2000
    0.0000    0.2500    0.0000 C   0  0  0  0  0  0  0  0  0  0  0  0
    0.8625   -0.2500    0.0000 N   0  0  0  0  0  0  0  0  0  0  0  0
    0.8625   -1.2500    0.0000 N   0  0  0  0  0  0  0  0  0  0  0  0
    0.0000   -1.7500    0.0000 C   0  0  0  0  0  0  0  0  0  0  0  0
   -0.8708   -0.2500    0.0000 C   0  0  0  0  0  0  0  0  0  0  0  0
   -0.8708   -1.2500    0.0000 C   0  0  0  0  0  0  0  0  0  0  0  0
    0.0000    1.2500    0.0000 C   0  0  0  0  0  0  0  0  0  0  0  0
    0.0000   -2.7500    0.0000 O   0  0  0  0  0  0  0  0  0  0  0  0
   -0.8708    1.7500    0.0000 O   0  0  0  0  0  0  0  0  0  0  0  0
    1.7292   -1.7500    0.0000 C   0  0  0  0  0  0  0  0  0  0  0  0
    0.8625    1.7500    0.0000 O   0  0  0  0  0  0  0  0  0  0  0  0
   -1.7333    0.2500    0.0000 C   0  0  0  0  0  0  0  0  0  0  0  0
   -1.7333   -1.7500    0.0000 C   0  0  0  0  0  0  0  0  0  0  0  0
    0.8625    2.7500    0.0000 C   0  0  0  0  0  0  0  0  0  0  0  0
    2.5917   -1.2500    0.0000 C   0  0  0  0  0  0  0  0  0  0  0  0
   -2.6000   -0.2500    0.0000 C   0  0  0  0  0  0  0  0  0  0  0  0
   -2.6000   -1.2500    0.0000 C   0  0  0  0  0  0  0  0  0  0  0  0
  2  1  2  0  0  0  0
  3  2  1  0  0  0  0
  3  4  1  0  0  0  0
  4  6  1  0  0  0  0
  5  1  1  0  0  0  0
  6  5  2  0  0  0  0
  7  1  1  0  0  0  0
  8  4  2  0  0  0  0
  9  7  2  0  0  0  0
 10  3  1  0  0  0  0
 11  7  1  0  0  0  0
 12  5  1  0  0  0  0
 13  6  1  0  0  0  0
 13 17  2  0  0  0  0
 14 11  1  0  0  0  0
 15 10  1  0  0  0  0
 16 12  2  0  0  0  0
 17 16  1  0  0  0  0
M  END
>  <idnumber>
T0516-5950

>  <LogP>
1.109000000000000e+000

>  <rotating_bonds>
3.000000000000000e+000

>  <hb_acceptors>
3.000000000000000e+000

>  <hb_donors>
0.000000000000000e+000

>  <PSA>
5.896999999999999e+001

>  <clusterid>
230

>  <is_centroid>
@

>  <class1>
792

>  <population1>
7197

>  <population>
7197

>  <cansmi>
COC(=O)c1nn(CC)c(=O)c2c1cccc2

>  <HBA2>
5

>  <HBD>
0

>  <logP>
1.203

>  <TPSA>
61.19

>  <MW>
232.235

$$$$

 OpenBabel02121609142D

 11 12  0  0  0  0  0  0  0  0999 V2000
   -0.0083    0.0000    0.0000 C   0  0  0  0  0  0  0  0  0  0  0  0
    0.8625   -0.5000    0.0000 C   0  0  0  0  0  0  0  0  0  0  0  0
   -0.0083    1.0000    0.0000 C   0  0  0  0  0  0  0  0  0  0  0  0
    0.8625    1.5000    0.0000 S   0  0  0  0  0  0  0  0  0  0  0  0
    0.8625   -1.5000    0.0000 O   0  0  0  0  0  0  0  0  0  0  0  0
    1.7292    0.0000    0.0000 C   0  0  0  0  0  0  0  0  0  0  0  0
    1.7292    1.0000    0.0000 C   0  0  0  0  0  0  0  0  0  0  0  0
   -0.8708   -0.5000    0.0000 C   0  0  0  0  0  0  0  0  0  0  0  0
   -0.8708    1.5000    0.0000 C   0  0  0  0  0  0  0  0  0  0  0  0
   -1.7333    0.0000    0.0000 C   0  0  0  0  0  0  0  0  0  0  0  0
   -1.7333    1.0000    0.0000 C   0  0  0  0  0  0  0  0  0  0  0  0
  2  1  1  0  0  0  0
  3  1  2  0  0  0  0
  4  3  1  0  0  0  0
  5  2  2  0  0  0  0
  6  2  1  0  0  0  0
  6  7  1  0  0  0  0
  7  4  1  0  0  0  0
  8  1  1  0  0  0  0
  9  3  1  0  0  0  0
  9 11  2  0  0  0  0
 10  8  2  0  0  0  0
 11 10  1  0  0  0  0
M  END
>  <idnumber>
T0516-8857

>  <LogP>
2.158000000000000e+000

>  <rotating_bonds>
0.000000000000000e+000

>  <hb_acceptors>
2.000000000000000e+000

>  <hb_donors>
0.000000000000000e+000

>  <PSA>
4.237000000000001e+001

>  <clusterid>
234

>  <is_centroid>
@

>  <class1>
974

>  <population1>
95

>  <population>
95

>  <cansmi>
O=C1CCSc2c1cccc2

>  <HBA2>
2

>  <HBD>
0

>  <logP>
2.3651

>  <TPSA>
42.37

>  <MW>
164.224

$$$$

 OpenBabel02121609142D

 18 20  0  0  0  0  0  0  0  0999 V2000
    0.8625    0.5083    0.0000 C   0  0  0  0  0  0  0  0  0  0  0  0
    0.8625   -0.4917    0.0000 C   0  0  3  0  0  0  0  0  0  0  0  0
    0.0000    1.0083    0.0000 C   0  0  0  0  0  0  0  0  0  0  0  0
    1.7292    1.0083    0.0000 N   0  0  0  0  0  0  0  0  0  0  0  0
    0.0000   -0.9917    0.0000 C   0  0  0  0  0  0  0  0  0  0  0  0
    0.0000    2.0083    0.0000 C   0  0  0  0  0  0  0  0  0  0  0  0
    1.7292   -0.9917    0.0000 O   0  0  0  0  0  0  0  0  0  0  0  0
    1.7292    2.0083    0.0000 C   0  0  0  0  0  0  0  0  0  0  0  0
   -0.8708    0.5083    0.0000 C   0  0  0  0  0  0  0  0  0  0  0  0
    0.8625    2.5083    0.0000 C   0  0  0  0  0  0  0  0  0  0  0  0
    0.0000   -2.0000    0.0000 C   0  0  0  0  0  0  0  0  0  0  0  0
   -0.8708   -0.5000    0.0000 C   0  0  0  0  0  0  0  0  0  0  0  0
   -0.8708    2.5083    0.0000 C   0  0  0  0  0  0  0  0  0  0  0  0
   -1.7333    1.0083    0.0000 C   0  0  0  0  0  0  0  0  0  0  0  0
   -1.7333   -1.0000    0.0000 C   0  0  0  0  0  0  0  0  0  0  0  0
   -0.8708   -2.5000    0.0000 C   0  0  0  0  0  0  0  0  0  0  0  0
   -1.7333    2.0083    0.0000 C   0  0  0  0  0  0  0  0  0  0  0  0
   -1.7333   -2.0000    0.0000 C   0  0  0  0  0  0  0  0  0  0  0  0
  2  1  1  0  0  0  0
  3  1  2  0  0  0  0
  4  1  1  0  0  0  0
  5  2  1  0  0  0  0
  6  3  1  0  0  0  0
  6 10  2  0  0  0  0
  7  2  1  0  0  0  0
  8  4  2  0  0  0  0
  9  3  1  0  0  0  0
 10  8  1  0  0  0  0
 11  5  2  0  0  0  0
 12  5  1  0  0  0  0
 13  6  1  0  0  0  0
 13 17  2  0  0  0  0
 14  9  2  0  0  0  0
 15 12  2  0  0  0  0
 16 11  1  0  0  0  0
 16 18  2  0  0  0  0
 17 14  1  0  0  0  0
 18 15  1  0  0  0  0
M  END
>  <idnumber>
T0516-9505

>  <LogP>
2.129000000000000e+000

>  <rotating_bonds>
2.000000000000000e+000

>  <hb_acceptors>
2.000000000000000e+000

>  <hb_donors>
1.000000000000000e+000

>  <PSA>
3.312000000000001e+001

>  <clusterid>
235

>  <is_centroid>
@

>  <class1>
625

>  <class2>
873

>  <population1>
877209

>  <population2>
672

>  <population>
672

>  <cansmi>
OC(c1nccc2c1cccc2)c1ccccc1

>  <HBA2>
2

>  <HBD>
1

>  <logP>
3.3165

>  <TPSA>
33.12

>  <MW>
235.281

$$$$

 OpenBabel02121609142D

 18 20  0  0  0  0  0  0  0  0999 V2000
    2.2042   -2.1542    0.0000 N   0  0  0  0  0  0  0  0  0  0  0  0
   -1.3458    0.6500    0.0000 C   0  0  0  0  0  0  0  0  0  0  0  0
    1.2500   -0.8500    0.0000 C   0  0  0  0  0  0  0  0  0  0  0  0
   -2.2125    1.1500    0.0000 C   0  0  0  0  0  0  0  0  0  0  0  0
    2.7917   -1.3500    0.0000 C   0  0  0  0  0  0  0  0  0  0  0  0
    2.2042   -0.5417    0.0000 C   0  0  0  0  0  0  0  0  0  0  0  0
    1.2500   -1.8500    0.0000 C   0  0  0  0  0  0  0  0  0  0  0  0
   -1.3458   -0.3500    0.0000 N   0  0  0  0  0  0  0  0  0  0  0  0
   -3.1250    0.7458    0.0000 O   0  0  0  0  0  0  0  0  0  0  0  0
    0.3875   -0.3500    0.0000 C   0  0  0  0  0  0  0  0  0  0  0  0
   -0.4833   -0.8500    0.0000 C   0  0  0  0  0  0  0  0  0  0  0  0
   -2.3208    2.1458    0.0000 C   0  0  0  0  0  0  0  0  0  0  0  0
   -0.4833    1.1500    0.0000 O   0  0  0  0  0  0  0  0  0  0  0  0
   -3.7958    1.4875    0.0000 C   0  0  0  0  0  0  0  0  0  0  0  0
   -3.2958    2.3583    0.0000 C   0  0  0  0  0  0  0  0  0  0  0  0
    0.3875   -2.3500    0.0000 C   0  0  0  0  0  0  0  0  0  0  0  0
   -0.4833   -1.8500    0.0000 C   0  0  0  0  0  0  0  0  0  0  0  0
    3.7917   -1.3500    0.0000 C   0  0  0  0  0  0  0  0  0  0  0  0
  2  8  1  0  0  0  0
  3  7  2  0  0  0  0
  4  2  1  0  0  0  0
  5  1  1  0  0  0  0
  6  5  2  0  0  0  0
  6  3  1  0  0  0  0
  7  1  1  0  0  0  0
  8 11  1  0  0  0  0
  9  4  1  0  0  0  0
 10  3  1  0  0  0  0
 10 11  2  0  0  0  0
 11 17  1  0  0  0  0
 12  4  2  0  0  0  0
 13  2  2  0  0  0  0
 14  9  1  0  0  0  0
 15 12  1  0  0  0  0
 15 14  2  0  0  0  0
 16  7  1  0  0  0  0
 17 16  2  0  0  0  0
 18  5  1  0  0  0  0
M  END
>  <idnumber>
T0516-9628

>  <LogP>
2.315000000000000e+000

>  <rotating_bonds>
2.000000000000000e+000

>  <hb_acceptors>
1.000000000000000e+000

>  <hb_donors>
2.000000000000000e+000

>  <PSA>
5.803000000000000e+001

>  <clusterid>
-334

>  <is_centroid>
@

>  <class1>
704

>  <class2>
748

>  <population1>
51112

>  <population2>
15713

>  <population>
452

>  <cansmi>
O=C(c1ccco1)Nc1ccc2c(c1)cc([nH]2)C

>  <HBA2>
3

>  <HBD>
2

>  <logP>
3.3946

>  <TPSA>
58.03

>  <MW>
240.257

$$$$

 OpenBabel02121609142D

 19 22  0  0  0  0  0  0  0  0999 V2000
    0.2542   -0.5292    0.0000 C   0  0  0  0  0  0  0  0  0  0  0  0
   -1.2375    0.7958    0.0000 C   0  0  3  0  0  0  0  0  0  0  0  0
   -0.7250   -0.1292    0.0000 N   0  0  0  0  0  0  0  0  0  0  0  0
    0.8042   -1.4042    0.0000 N   0  0  0  0  0  0  0  0  0  0  0  0
   -1.2458    2.3125    0.0000 C   0  0  3  0  0  0  0  0  0  0  0  0
   -1.8958    2.6208    0.0000 C   0  0  3  0  0  0  0  0  0  0  0  0
    0.1292    1.8208    0.0000 C   0  0  3  0  0  0  0  0  0  0  0  0
    0.9875    0.1208    0.0000 O   0  0  0  0  0  0  0  0  0  0  0  0
   -2.2208    1.6000    0.0000 C   0  0  0  0  0  0  0  0  0  0  0  0
   -1.6708    1.2583    0.0000 C   0  0  0  0  0  0  0  0  0  0  0  0
   -0.2125    0.8750    0.0000 C   0  0  0  0  0  0  0  0  0  0  0  0
   -1.2833    3.1833    0.0000 C   0  0  0  0  0  0  0  0  0  0  0  0
   -0.2458    2.4583    0.0000 C   0  0  0  0  0  0  0  0  0  0  0  0
   -0.7458    2.7208    0.0000 C   0  0  0  0  0  0  0  0  0  0  0  0
    1.6750   -3.1750    0.0000 O   0  0  0  0  0  0  0  0  0  0  0  0
    0.2667   -2.2375    0.0000 C   0  0  0  0  0  0  0  0  0  0  0  0
    1.7917   -1.4917    0.0000 C   0  0  0  0  0  0  0  0  0  0  0  0
    2.2167   -2.3667    0.0000 C   0  0  0  0  0  0  0  0  0  0  0  0
    0.7042   -3.1042    0.0000 C   0  0  0  0  0  0  0  0  0  0  0  0
  2  3  1  0  0  0  0
  3  1  1  0  0  0  0
  4  1  1  0  0  0  0
  5 10  1  0  0  0  0
  5 13  1  0  0  0  0
  6  9  1  0  0  0  0
  6 14  1  0  0  0  0
  7 11  1  0  0  0  0
  8  1  2  0  0  0  0
  9  2  1  0  0  0  0
 10  2  1  0  0  0  0
 11  2  1  0  0  0  0
 12  5  1  0  0  0  0
 12  6  1  0  0  0  0
 13  7  1  0  0  0  0
 14  7  1  0  0  0  0
 15 18  1  0  0  0  0
 16  4  1  0  0  0  0
 17  4  1  0  0  0  0
 18 17  1  0  0  0  0
 19 16  1  0  0  0  0
 19 15  1  0  0  0  0
M  END
>  <idnumber>
T0516-9654

>  <LogP>
2.406000000000000e+000

>  <rotating_bonds>
1.000000000000000e+000

>  <hb_acceptors>
2.000000000000000e+000

>  <hb_donors>
1.000000000000000e+000

>  <PSA>
4.156999999999997e+001

>  <clusterid>
-335

>  <is_centroid>
@

>  <class1>
809

>  <class2>
786

>  <population1>
8162

>  <population2>
48067

>  <population>
234

>  <cansmi>
O=C(N1CCOCC1)NC12CC3CC(C2)CC(C1)C3

>  <HBA2>
4

>  <HBD>
1

>  <logP>
2.3258

>  <TPSA>
41.57

>  <MW>
264.363

$$$$

 OpenBabel02121609142D

 21 23  0  0  0  0  0  0  0  0999 V2000
    0.7625    0.4583    0.0000 C   0  0  0  0  0  0  0  0  0  0  0  0
    0.1750   -0.3500    0.0000 C   0  0  0  0  0  0  0  0  0  0  0  0
    0.1750    1.2708    0.0000 C   0  0  0  0  0  0  0  0  0  0  0  0
   -0.7750    0.9583    0.0000 N   0  0  0  0  0  0  0  0  0  0  0  0
   -0.7750   -0.0417    0.0000 N   0  0  0  0  0  0  0  0  0  0  0  0
    1.7625    0.4583    0.0000 N   0  0  0  0  0  0  0  0  0  0  0  0
    2.3500   -0.3500    0.0000 C   0  0  0  0  0  0  0  0  0  0  0  0
    2.3500    1.2708    0.0000 C   0  0  0  0  0  0  0  0  0  0  0  0
    3.3042    0.9583    0.0000 C   0  0  0  0  0  0  0  0  0  0  0  0
    3.3042   -0.0417    0.0000 C   0  0  0  0  0  0  0  0  0  0  0  0
    0.4792   -1.3042    0.0000 O   0  0  0  0  0  0  0  0  0  0  0  0
   -1.5833   -0.6292    0.0000 C   0  0  0  0  0  0  0  0  0  0  0  0
   -1.5833    1.5458    0.0000 C   0  0  0  0  0  0  0  0  0  0  0  0
    0.4792    2.2208    0.0000 C   0  0  0  0  0  0  0  0  0  0  0  0
    2.0417   -1.3042    0.0000 C   0  0  0  0  0  0  0  0  0  0  0  0
    2.0417    2.2208    0.0000 C   0  0  0  0  0  0  0  0  0  0  0  0
   -2.4958   -0.2167    0.0000 C   0  0  0  0  0  0  0  0  0  0  0  0
   -1.4833   -1.6250    0.0000 C   0  0  0  0  0  0  0  0  0  0  0  0
   -2.2875   -2.2125    0.0000 C   0  0  0  0  0  0  0  0  0  0  0  0
   -3.3083   -0.8125    0.0000 C   0  0  0  0  0  0  0  0  0  0  0  0
   -3.2083   -1.8042    0.0000 C   0  0  0  0  0  0  0  0  0  0  0  0
  2  1  1  0  0  0  0
  3  1  2  0  0  0  0
  4  3  1  0  0  0  0
  4  5  1  0  0  0  0
  5  2  1  0  0  0  0
  6  1  1  0  0  0  0
  7  6  1  0  0  0  0
  8  6  1  0  0  0  0
  9  8  2  0  0  0  0
 10  7  2  0  0  0  0
 10  9  1  0  0  0  0
 11  2  2  0  0  0  0
 12  5  1  0  0  0  0
 13  4  1  0  0  0  0
 14  3  1  0  0  0  0
 15  7  1  0  0  0  0
 16  8  1  0  0  0  0
 17 12  1  0  0  0  0
 18 12  2  0  0  0  0
 19 18  1  0  0  0  0
 20 17  2  0  0  0  0
 20 21  1  0  0  0  0
 21 19  2  0  0  0  0
M  END
>  <idnumber>
T0517-0168

>  <LogP>
2.465000000000000e+000

>  <rotating_bonds>
1.000000000000000e+000

>  <hb_acceptors>
2.000000000000000e+000

>  <hb_donors>
0.000000000000000e+000

>  <PSA>
2.848000000000000e+001

>  <clusterid>
-336

>  <is_centroid>
@

>  <class1>
813

>  <class2>
635

>  <class3>
625

>  <population1>
2955

>  <population2>
31512

>  <population3>
877209

>  <population>
208

>  <cansmi>
Cn1n(c2ccccc2)c(=O)c(c1C)n1c(C)ccc1C

>  <HBA2>
4

>  <HBD>
0

>  <logP>
2.8919

>  <TPSA>
31.86

>  <MW>
281.352

$$$$

 OpenBabel02121609142D

 14 15  0  0  0  0  0  0  0  0999 V2000
   -0.4333    1.2583    0.0000 C   0  0  0  0  0  0  0  0  0  0  0  0
    0.4292    1.7583    0.0000 N   0  0  0  0  0  0  0  0  0  0  0  0
   -1.3000    1.7583    0.0000 S   0  0  0  0  0  0  0  0  0  0  0  0
   -0.4333    0.2583    0.0000 N   0  0  0  0  0  0  0  0  0  0  0  0
    0.4292   -0.2500    0.0000 C   0  0  0  0  0  0  0  0  0  0  0  0
    0.4292    2.7583    0.0000 C   0  0  0  0  0  0  0  0  0  0  0  0
    0.4292   -1.2500    0.0000 C   0  0  0  0  0  0  0  0  0  0  0  0
   -0.4333    3.2583    0.0000 C   0  0  0  0  0  0  0  0  0  0  0  0
   -1.3000    2.7583    0.0000 C   0  0  0  0  0  0  0  0  0  0  0  0
   -0.4333   -1.7500    0.0000 C   0  0  0  0  0  0  0  0  0  0  0  0
    1.2917   -1.7500    0.0000 C   0  0  0  0  0  0  0  0  0  0  0  0
    1.2917   -2.7500    0.0000 C   0  0  0  0  0  0  0  0  0  0  0  0
   -0.4333   -2.7500    0.0000 C   0  0  0  0  0  0  0  0  0  0  0  0
    0.4292   -3.2500    0.0000 C   0  0  0  0  0  0  0  0  0  0  0  0
  2  1  2  0  0  0  0
  3  1  1  0  0  0  0
  4  1  1  0  0  0  0
  5  4  1  0  0  0  0
  6  2  1  0  0  0  0
  6  8  1  0  0  0  0
  7  5  1  0  0  0  0
  8  9  1  0  0  0  0
  9  3  1  0  0  0  0
 10  7  1  0  0  0  0
 11  7  2  0  0  0  0
 12 11  1  0  0  0  0
 13 10  2  0  0  0  0
 13 14  1  0  0  0  0
 14 12  2  0  0  0  0
M  END
>  <idnumber>
T0517-1186

>  <LogP>
2.631000000000000e+000

>  <rotating_bonds>
2.000000000000000e+000

>  <hb_acceptors>
3.000000000000000e+000

>  <hb_donors>
1.000000000000000e+000

>  <PSA>
4.969000000000001e+001

>  <clusterid>
-339

>  <is_centroid>
@

>  <class1>
625

>  <class2>
849

>  <population1>
877209

>  <population2>
101

>  <population>
95

>  <cansmi>
c1ccc(cc1)CNC1=NCCCS1

>  <HBA2>
3

>  <HBD>
1

>  <logP>
2.0956

>  <TPSA>
49.69

>  <MW>
206.307

$$$$

 OpenBabel02121609142D

 16 17  0  0  0  0  0  0  0  0999 V2000
   -0.4333   -0.7500    0.0000 S   0  0  0  0  0  0  0  0  0  0  0  0
   -1.3000   -0.2500    0.0000 N   0  0  0  0  0  0  0  0  0  0  0  0
   -0.9333   -1.6125    0.0000 O   0  0  0  0  0  0  0  0  0  0  0  0
    0.0667    0.1208    0.0000 O   0  0  0  0  0  0  0  0  0  0  0  0
    0.4292   -1.2500    0.0000 C   0  0  0  0  0  0  0  0  0  0  0  0
   -1.3000    0.7500    0.0000 C   0  0  0  0  0  0  0  0  0  0  0  0
    0.4292   -2.2500    0.0000 C   0  0  0  0  0  0  0  0  0  0  0  0
    1.2917   -0.7500    0.0000 C   0  0  0  0  0  0  0  0  0  0  0  0
   -2.1708    1.2500    0.0000 C   0  0  0  0  0  0  0  0  0  0  0  0
   -0.4333    1.2500    0.0000 C   0  0  0  0  0  0  0  0  0  0  0  0
    2.1625   -1.2500    0.0000 C   0  0  0  0  0  0  0  0  0  0  0  0
    1.2917   -2.7500    0.0000 C   0  0  0  0  0  0  0  0  0  0  0  0
   -0.4333    2.2500    0.0000 C   0  0  0  0  0  0  0  0  0  0  0  0
   -2.1708    2.2500    0.0000 C   0  0  0  0  0  0  0  0  0  0  0  0
   -1.3000    2.7500    0.0000 C   0  0  0  0  0  0  0  0  0  0  0  0
    2.1625   -2.2500    0.0000 C   0  0  0  0  0  0  0  0  0  0  0  0
  2  1  1  0  0  0  0
  3  1  2  0  0  0  0
  4  1  2  0  0  0  0
  5  1  1  0  0  0  0
  6  2  1  0  0  0  0
  7  5  1  0  0  0  0
  8  5  2  0  0  0  0
  9  6  1  0  0  0  0
 10  6  1  0  0  0  0
 11  8  1  0  0  0  0
 12  7  2  0  0  0  0
 12 16  1  0  0  0  0
 13 10  1  0  0  0  0
 14  9  1  0  0  0  0
 14 15  1  0  0  0  0
 15 13  1  0  0  0  0
 16 11  2  0  0  0  0
M  END
>  <idnumber>
T0517-1419

>  <LogP>
2.952000000000000e+000

>  <rotating_bonds>
2.000000000000000e+000

>  <hb_acceptors>
3.000000000000000e+000

>  <hb_donors>
1.000000000000000e+000

>  <PSA>
5.455000000000000e+001

>  <clusterid>
-341

>  <is_centroid>
@

>  <class1>
625

>  <class2>
797

>  <population1>
877209

>  <population2>
40410

>  <population>
31549

>  <cansmi>
O=S(=O)(c1ccccc1)NC1CCCCC1

>  <HBA2>
3

>  <HBD>
1

>  <logP>
3.7693

>  <TPSA>
54.55

>  <MW>
239.334

$$$$

 OpenBabel02121609142D

 15 16  0  0  0  0  0  0  0  0999 V2000
   -0.3625    0.8875    0.0000 C   0  0  0  0  0  0  0  0  0  0  0  0
   -0.6708   -0.0625    0.0000 C   0  0  0  0  0  0  0  0  0  0  0  0
    0.0000   -0.8042    0.0000 N   0  0  0  0  0  0  0  0  0  0  0  0
   -0.9500    1.6958    0.0000 O   0  0  0  0  0  0  0  0  0  0  0  0
   -0.3625    2.5083    0.0000 C   0  0  0  0  0  0  0  0  0  0  0  0
    0.5875    1.1958    0.0000 C   0  0  0  0  0  0  0  0  0  0  0  0
    0.5875    2.1958    0.0000 C   0  0  0  0  0  0  0  0  0  0  0  0
   -0.3125   -1.7542    0.0000 C   0  0  0  0  0  0  0  0  0  0  0  0
   -1.6500   -0.2667    0.0000 O   0  0  0  0  0  0  0  0  0  0  0  0
   -0.6708    3.4583    0.0000 Br  0  0  0  0  0  0  0  0  0  0  0  0
    0.9750   -0.6000    0.0000 C   0  0  0  0  0  0  0  0  0  0  0  0
    0.3542   -2.5000    0.0000 C   0  0  3  0  0  0  0  0  0  0  0  0
    1.6417   -1.3417    0.0000 C   0  0  0  0  0  0  0  0  0  0  0  0
    1.3375   -2.2917    0.0000 C   0  0  0  0  0  0  0  0  0  0  0  0
    0.0500   -3.4542    0.0000 C   0  0  0  0  0  0  0  0  0  0  0  0
  2  1  1  0  0  0  0
  3  2  1  0  0  0  0
  4  1  1  0  0  0  0
  5  4  1  0  0  0  0
  6  1  2  0  0  0  0
  7  6  1  0  0  0  0
  7  5  2  0  0  0  0
  8  3  1  0  0  0  0
  9  2  2  0  0  0  0
 10  5  1  0  0  0  0
 11  3  1  0  0  0  0
 12  8  1  0  0  0  0
 12 14  1  0  0  0  0
 13 11  1  0  0  0  0
 14 13  1  0  0  0  0
 15 12  1  0  0  0  0
M  END
>  <idnumber>
T0517-3781

>  <LogP>
2.434000000000000e+000

>  <rotating_bonds>
1.000000000000000e+000

>  <hb_acceptors>
1.000000000000000e+000

>  <hb_donors>
0.000000000000000e+000

>  <PSA>
3.345000000000000e+001

>  <clusterid>
207

>  <is_centroid>
@

>  <class1>
704

>  <class2>
639

>  <population1>
51112

>  <population2>
59855

>  <population>
2157

>  <cansmi>
CC1CCCN(C1)C(=O)c1ccc(o1)Br

>  <HBA2>
3

>  <HBD>
0

>  <logP>
2.8521

>  <TPSA>
33.45

>  <MW>
272.138

$$$$

 OpenBabel02121609142D

 18 19  0  0  0  0  0  0  0  0999 V2000
    1.7292    0.0000    0.0000 N   0  0  0  0  0  0  0  0  0  0  0  0
    0.8625   -0.5000    0.0000 C   0  0  0  0  0  0  0  0  0  0  0  0
   -0.8708   -0.5000    0.0000 O   0  0  0  0  0  0  0  0  0  0  0  0
    0.0000    0.0000    0.0000 C   0  0  0  0  0  0  0  0  0  0  0  0
    2.5917   -0.5000    0.0000 C   0  0  3  0  0  0  0  0  0  0  0  0
    0.8625   -1.5000    0.0000 O   0  0  0  0  0  0  0  0  0  0  0  0
   -1.7333    0.0000    0.0000 C   0  0  0  0  0  0  0  0  0  0  0  0
   -2.6000   -0.5000    0.0000 C   0  0  0  0  0  0  0  0  0  0  0  0
   -2.6000   -1.5000    0.0000 F   0  0  0  0  0  0  0  0  0  0  0  0
    1.7292    1.0000    0.0000 C   0  0  0  0  0  0  0  0  0  0  0  0
   -1.7333    1.0000    0.0000 C   0  0  0  0  0  0  0  0  0  0  0  0
   -3.4708    0.0000    0.0000 C   0  0  0  0  0  0  0  0  0  0  0  0
    2.5917   -1.5000    0.0000 C   0  0  0  0  0  0  0  0  0  0  0  0
    3.4625    0.0000    0.0000 C   0  0  0  0  0  0  0  0  0  0  0  0
    2.5917    1.5000    0.0000 C   0  0  0  0  0  0  0  0  0  0  0  0
   -3.4708    1.0000    0.0000 C   0  0  0  0  0  0  0  0  0  0  0  0
   -2.6000    1.5000    0.0000 C   0  0  0  0  0  0  0  0  0  0  0  0
    3.4625    1.0000    0.0000 C   0  0  0  0  0  0  0  0  0  0  0  0
  2  1  1  0  0  0  0
  3  4  1  0  0  0  0
  4  2  1  0  0  0  0
  5  1  1  0  0  0  0
  6  2  2  0  0  0  0
  7  3  1  0  0  0  0
  8  7  2  0  0  0  0
  9  8  1  0  0  0  0
 10  1  1  0  0  0  0
 11  7  1  0  0  0  0
 12  8  1  0  0  0  0
 12 16  2  0  0  0  0
 13  5  1  0  0  0  0
 14  5  1  0  0  0  0
 14 18  1  0  0  0  0
 15 10  1  0  0  0  0
 16 17  1  0  0  0  0
 17 11  2  0  0  0  0
 18 15  1  0  0  0  0
M  END
>  <idnumber>
T0517-3794

>  <LogP>
2.768000000000000e+000

>  <rotating_bonds>
3.000000000000000e+000

>  <hb_acceptors>
3.000000000000000e+000

>  <hb_donors>
0.000000000000000e+000

>  <PSA>
2.954000000000000e+001

>  <clusterid>
121

>  <is_centroid>
@

>  <class1>
625

>  <class2>
639

>  <population1>
877209

>  <population2>
59855

>  <population>
54917

>  <cansmi>
CC1CCCCN1C(=O)COc1ccccc1F

>  <HBA2>
3

>  <HBD>
0

>  <logP>
2.5434

>  <TPSA>
29.54

>  <MW>
251.297

$$$$

 OpenBabel02121609142D

 17 18  0  0  0  0  0  0  0  0999 V2000
    1.2917    0.2500    0.0000 N   0  0  0  0  0  0  0  0  0  0  0  0
   -0.4333    0.2500    0.0000 C   0  0  0  0  0  0  0  0  0  0  0  0
   -1.3000   -0.2500    0.0000 C   0  0  0  0  0  0  0  0  0  0  0  0
    0.4292   -0.2500    0.0000 C   0  0  0  0  0  0  0  0  0  0  0  0
   -1.3000   -1.2500    0.0000 C   0  0  0  0  0  0  0  0  0  0  0  0
   -0.4333    1.2500    0.0000 O   0  0  0  0  0  0  0  0  0  0  0  0
    2.1625   -0.2500    0.0000 C   0  0  3  0  0  0  0  0  0  0  0  0
   -0.4333   -1.7500    0.0000 F   0  0  0  0  0  0  0  0  0  0  0  0
    1.2917    1.2500    0.0000 C   0  0  0  0  0  0  0  0  0  0  0  0
   -2.1708    0.2500    0.0000 C   0  0  0  0  0  0  0  0  0  0  0  0
   -2.1708   -1.7500    0.0000 C   0  0  0  0  0  0  0  0  0  0  0  0
    2.1625   -1.2500    0.0000 C   0  0  0  0  0  0  0  0  0  0  0  0
    3.0292    0.2500    0.0000 C   0  0  0  0  0  0  0  0  0  0  0  0
    2.1625    1.7500    0.0000 C   0  0  0  0  0  0  0  0  0  0  0  0
   -3.0333   -0.2500    0.0000 C   0  0  0  0  0  0  0  0  0  0  0  0
   -3.0333   -1.2500    0.0000 C   0  0  0  0  0  0  0  0  0  0  0  0
    3.0292    1.2500    0.0000 C   0  0  0  0  0  0  0  0  0  0  0  0
  2  4  1  0  0  0  0
  3  2  1  0  0  0  0
  4  1  1  0  0  0  0
  5  3  2  0  0  0  0
  6  2  2  0  0  0  0
  7  1  1  0  0  0  0
  8  5  1  0  0  0  0
  9  1  1  0  0  0  0
 10  3  1  0  0  0  0
 11  5  1  0  0  0  0
 11 16  2  0  0  0  0
 12  7  1  0  0  0  0
 13  7  1  0  0  0  0
 13 17  1  0  0  0  0
 14  9  1  0  0  0  0
 15 10  2  0  0  0  0
 16 15  1  0  0  0  0
 17 14  1  0  0  0  0
M  END
>  <idnumber>
T0517-4218

>  <LogP>
2.964000000000000e+000

>  <rotating_bonds>
3.000000000000000e+000

>  <hb_acceptors>
3.000000000000000e+000

>  <hb_donors>
0.000000000000000e+000

>  <PSA>
2.031000000000000e+001

>  <clusterid>
241

>  <is_centroid>
@

>  <class1>
625

>  <class2>
639

>  <population1>
877209

>  <population2>
59855

>  <population>
54917

>  <cansmi>
CC1CCCCN1CC(=O)c1ccccc1F

>  <HBA2>
2

>  <HBD>
0

>  <logP>
2.8207

>  <TPSA>
20.31

>  <MW>
235.297

$$$$

 OpenBabel02121609142D

 16 17  0  0  0  0  0  0  0  0999 V2000
    0.8625    0.5000    0.0000 N   0  0  0  0  0  0  0  0  0  0  0  0
    0.8625   -0.5000    0.0000 C   0  0  3  0  0  0  0  0  0  0  0  0
    0.0000    1.0000    0.0000 C   0  0  0  0  0  0  0  0  0  0  0  0
    1.7292    1.0000    0.0000 C   0  0  0  0  0  0  0  0  0  0  0  0
    0.0000   -1.0000    0.0000 C   0  0  0  0  0  0  0  0  0  0  0  0
    1.7292   -1.0000    0.0000 C   0  0  0  0  0  0  0  0  0  0  0  0
   -0.8708    0.5000    0.0000 C   0  0  0  0  0  0  0  0  0  0  0  0
   -0.8708   -0.5000    0.0000 C   0  0  0  0  0  0  0  0  0  0  0  0
    1.7292    2.0000    0.0000 O   0  0  0  0  0  0  0  0  0  0  0  0
    2.5917   -0.5000    0.0000 O   0  0  0  0  0  0  0  0  0  0  0  0
    1.7292   -2.0000    0.0000 O   0  0  0  0  0  0  0  0  0  0  0  0
    2.5917    0.5000    0.0000 C   0  0  0  0  0  0  0  0  0  0  0  0
   -1.7333    1.0000    0.0000 C   0  0  0  0  0  0  0  0  0  0  0  0
   -1.7333   -1.0000    0.0000 C   0  0  0  0  0  0  0  0  0  0  0  0
   -2.6000   -0.5000    0.0000 C   0  0  0  0  0  0  0  0  0  0  0  0
   -2.6000    0.5000    0.0000 C   0  0  0  0  0  0  0  0  0  0  0  0
  2  1  1  0  0  0  0
  3  1  1  0  0  0  0
  4  1  1  0  0  0  0
  5  2  1  0  0  0  0
  5  8  1  0  0  0  0
  6  2  1  0  0  0  0
  7  3  1  0  0  0  0
  8  7  2  0  0  0  0
  9  4  2  0  0  0  0
 10  6  2  0  0  0  0
 11  6  1  0  0  0  0
 12  4  1  0  0  0  0
 13  7  1  0  0  0  0
 14  8  1  0  0  0  0
 15 16  1  0  0  0  0
 15 14  2  0  0  0  0
 16 13  2  0  0  0  0
M  END
>  <idnumber>
T0517-5839

>  <LogP>
7.020000000000000e-001

>  <rotating_bonds>
1.000000000000000e+000

>  <hb_acceptors>
3.000000000000000e+000

>  <hb_donors>
1.000000000000000e+000

>  <PSA>
5.761000000000000e+001

>  <clusterid>
145

>  <is_centroid>
@

>  <class1>
750

>  <population1>
7929

>  <population>
7929

>  <cansmi>
CC(=O)N1Cc2ccccc2CC1C(=O)O

>  <HBA2>
4

>  <HBD>
1

>  <logP>
0.9823

>  <TPSA>
57.61

>  <MW>
219.237

$$$$

 OpenBabel02121609142D

 11 12  0  0  0  0  0  0  0  0999 V2000
   -0.9833   -0.8042    0.0000 N   0  0  0  0  0  0  0  0  0  0  0  0
   -0.0333   -0.5000    0.0000 C   0  0  0  0  0  0  0  0  0  0  0  0
   -1.5708    0.0000    0.0000 C   0  0  0  0  0  0  0  0  0  0  0  0
   -0.0333    0.5000    0.0000 C   0  0  0  0  0  0  0  0  0  0  0  0
    0.8292   -1.0000    0.0000 C   0  0  0  0  0  0  0  0  0  0  0  0
   -0.9833    0.8125    0.0000 C   0  0  0  0  0  0  0  0  0  0  0  0
   -2.5708    0.0000    0.0000 O   0  0  0  0  0  0  0  0  0  0  0  0
    0.8292    1.0000    0.0000 C   0  0  0  0  0  0  0  0  0  0  0  0
    1.7000   -0.5000    0.0000 C   0  0  0  0  0  0  0  0  0  0  0  0
    1.7000    0.5000    0.0000 C   0  0  0  0  0  0  0  0  0  0  0  0
    2.5667   -1.0000    0.0000 Cl  0  0  0  0  0  0  0  0  0  0  0  0
  2  1  1  0  0  0  0
  3  1  1  0  0  0  0
  4  2  2  0  0  0  0
  4  6  1  0  0  0  0
  5  2  1  0  0  0  0
  6  3  1  0  0  0  0
  7  3  2  0  0  0  0
  8  4  1  0  0  0  0
  9  5  2  0  0  0  0
 10  9  1  0  0  0  0
 10  8  2  0  0  0  0
 11  9  1  0  0  0  0
M  END
>  <idnumber>
T0517-6147

>  <LogP>
1.678000000000000e+000

>  <rotating_bonds>
0.000000000000000e+000

>  <hb_acceptors>
2.000000000000000e+000

>  <hb_donors>
1.000000000000000e+000

>  <PSA>
2.910000000000000e+001

>  <clusterid>
-345

>  <is_centroid>
@

>  <class1>
968

>  <population1>
3974

>  <population>
3974

>  <cansmi>
O=C1Cc2c(N1)cc(cc2)Cl

>  <HBA2>
2

>  <HBD>
1

>  <logP>
1.9726

>  <TPSA>
29.1

>  <MW>
167.592

$$$$

 OpenBabel02121609142D

 17 19  0  0  0  0  0  0  0  0999 V2000
    0.1667    0.0000    0.0000 C   0  0  0  0  0  0  0  0  0  0  0  0
    0.1667    1.0000    0.0000 N   0  0  0  0  0  0  0  0  0  0  0  0
    1.0292   -0.5000    0.0000 C   0  0  0  0  0  0  0  0  0  0  0  0
    1.0292    1.5000    0.0000 C   0  0  0  0  0  0  0  0  0  0  0  0
   -0.7833   -0.3042    0.0000 N   0  0  0  0  0  0  0  0  0  0  0  0
    1.9000    0.0000    0.0000 C   0  0  0  0  0  0  0  0  0  0  0  0
    1.9000    1.0000    0.0000 C   0  0  0  0  0  0  0  0  0  0  0  0
   -0.7833    1.3125    0.0000 C   0  0  0  0  0  0  0  0  0  0  0  0
   -1.3708    0.5000    0.0000 C   0  0  0  0  0  0  0  0  0  0  0  0
    1.0292   -1.5000    0.0000 C   0  0  0  0  0  0  0  0  0  0  0  0
    1.0292   -2.5000    0.0000 N   0  0  0  0  0  0  0  0  0  0  0  0
    1.0292    2.5000    0.0000 O   0  0  0  0  0  0  0  0  0  0  0  0
    2.7667   -0.5000    0.0000 C   0  0  0  0  0  0  0  0  0  0  0  0
   -1.1875    2.2250    0.0000 C   0  0  0  0  0  0  0  0  0  0  0  0
   -2.3625    0.6083    0.0000 C   0  0  0  0  0  0  0  0  0  0  0  0
   -2.1833    2.3333    0.0000 C   0  0  0  0  0  0  0  0  0  0  0  0
   -2.7708    1.5208    0.0000 C   0  0  0  0  0  0  0  0  0  0  0  0
  2  1  1  0  0  0  0
  3  1  2  0  0  0  0
  4  2  1  0  0  0  0
  5  1  1  0  0  0  0
  6  3  1  0  0  0  0
  7  6  2  0  0  0  0
  7  4  1  0  0  0  0
  8  2  1  0  0  0  0
  8  9  2  0  0  0  0
  9  5  1  0  0  0  0
 10  3  1  0  0  0  0
 11 10  3  0  0  0  0
 12  4  2  0  0  0  0
 13  6  1  0  0  0  0
 14  8  1  0  0  0  0
 15  9  1  0  0  0  0
 16 14  2  0  0  0  0
 16 17  1  0  0  0  0
 17 15  2  0  0  0  0
M  END
>  <idnumber>
T0517-6202

>  <LogP>
1.493000000000000e+000

>  <rotating_bonds>
1.000000000000000e+000

>  <hb_acceptors>
3.000000000000000e+000

>  <hb_donors>
1.000000000000000e+000

>  <PSA>
5.613000000000000e+001

>  <clusterid>
246

>  <is_centroid>
@

>  <class1>
979

>  <population1>
62

>  <population>
62

>  <cansmi>
N#Cc1c(C)cc(=O)n2c1[nH]c1c2cccc1

>  <HBA2>
3

>  <HBD>
1

>  <logP>
1.96088

>  <TPSA>
61.06

>  <MW>
223.23

$$$$

 OpenBabel02121609142D

 14 16  0  0  0  0  0  0  0  0999 V2000
   -0.1750   -0.9125    0.0000 C   0  0  0  0  0  0  0  0  0  0  0  0
   -0.1750    0.0875    0.0000 C   0  0  0  0  0  0  0  0  0  0  0  0
    0.7792    0.3958    0.0000 C   0  0  0  0  0  0  0  0  0  0  0  0
    1.3667   -0.4125    0.0000 C   0  0  0  0  0  0  0  0  0  0  0  0
    0.7792   -1.2167    0.0000 C   0  0  0  0  0  0  0  0  0  0  0  0
   -1.0375    0.5875    0.0000 C   0  0  0  0  0  0  0  0  0  0  0  0
   -1.0375   -1.4125    0.0000 C   0  0  0  0  0  0  0  0  0  0  0  0
   -1.9083   -0.9125    0.0000 C   0  0  0  0  0  0  0  0  0  0  0  0
   -1.9083    0.0875    0.0000 C   0  0  0  0  0  0  0  0  0  0  0  0
   -2.7708   -1.4125    0.0000 N   0  0  0  0  0  0  0  0  0  0  0  0
    1.1792    1.3125    0.0000 C   0  0  0  0  0  0  0  0  0  0  0  0
    2.3542   -0.3042    0.0000 C   0  0  0  0  0  0  0  0  0  0  0  0
    2.1792    1.4208    0.0000 C   0  0  0  0  0  0  0  0  0  0  0  0
    2.7667    0.6083    0.0000 C   0  0  0  0  0  0  0  0  0  0  0  0
  2  1  2  0  0  0  0
  3  2  1  0  0  0  0
  4  5  1  0  0  0  0
  4  3  2  0  0  0  0
  5  1  1  0  0  0  0
  6  2  1  0  0  0  0
  7  1  1  0  0  0  0
  8  7  2  0  0  0  0
  9  8  1  0  0  0  0
  9  6  2  0  0  0  0
 10  8  1  0  0  0  0
 11  3  1  0  0  0  0
 12  4  1  0  0  0  0
 13 11  2  0  0  0  0
 14 12  2  0  0  0  0
 14 13  1  0  0  0  0
M  END
>  <idnumber>
T0517-8573

>  <LogP>
2.848000000000000e+000

>  <rotating_bonds>
0.000000000000000e+000

>  <hb_acceptors>
1.000000000000000e+000

>  <hb_donors>
1.000000000000000e+000

>  <PSA>
2.602000000000000e+001

>  <clusterid>
249

>  <is_centroid>
@

>  <class1>
812

>  <population1>
999

>  <population>
999

>  <cansmi>
Nc1ccc2c(c1)Cc1c2cccc1

>  <HBA2>
1

>  <HBD>
1

>  <logP>
3.4212

>  <TPSA>
26.02

>  <MW>
181.233

$$$$

 OpenBabel02121609142D

 21 23  0  0  0  0  0  0  0  0999 V2000
    0.8625    1.0000    0.0000 C   0  0  0  0  0  0  0  0  0  0  0  0
    0.8625    0.0000    0.0000 N   0  0  0  0  0  0  0  0  0  0  0  0
   -0.0083    1.5083    0.0000 C   0  0  0  0  0  0  0  0  0  0  0  0
   -1.7333    1.5083    0.0000 C   0  0  0  0  0  0  0  0  0  0  0  0
   -0.8708    1.0000    0.0000 C   0  0  0  0  0  0  0  0  0  0  0  0
    1.7292   -0.5000    0.0000 C   0  0  0  0  0  0  0  0  0  0  0  0
   -1.7333    2.5000    0.0000 C   0  0  0  0  0  0  0  0  0  0  0  0
   -2.6000    1.0000    0.0000 O   0  0  0  0  0  0  0  0  0  0  0  0
    1.7292    1.5083    0.0000 O   0  0  0  0  0  0  0  0  0  0  0  0
   -2.6000    3.0000    0.0000 O   0  0  0  0  0  0  0  0  0  0  0  0
   -0.0083    2.5000    0.0000 C   0  0  0  0  0  0  0  0  0  0  0  0
   -0.8708    3.0000    0.0000 C   0  0  0  0  0  0  0  0  0  0  0  0
    1.7292   -1.4917    0.0000 C   0  0  0  0  0  0  0  0  0  0  0  0
    2.5917    0.0000    0.0000 C   0  0  0  0  0  0  0  0  0  0  0  0
   -3.4708    1.5083    0.0000 C   0  0  0  0  0  0  0  0  0  0  0  0
   -3.4708    2.5000    0.0000 C   0  0  0  0  0  0  0  0  0  0  0  0
    0.8625   -2.0000    0.0000 C   0  0  0  0  0  0  0  0  0  0  0  0
    2.5917   -2.0000    0.0000 C   0  0  0  0  0  0  0  0  0  0  0  0
    0.8625   -3.0000    0.0000 C   0  0  0  0  0  0  0  0  0  0  0  0
    3.4625   -0.5000    0.0000 C   0  0  0  0  0  0  0  0  0  0  0  0
    3.4625   -1.4917    0.0000 C   0  0  0  0  0  0  0  0  0  0  0  0
  2  1  1  0  0  0  0
  3  1  1  0  0  0  0
  4  5  1  0  0  0  0
  4  7  2  0  0  0  0
  5  3  2  0  0  0  0
  6  2  1  0  0  0  0
  7 12  1  0  0  0  0
  8  4  1  0  0  0  0
  9  1  2  0  0  0  0
 10  7  1  0  0  0  0
 11  3  1  0  0  0  0
 12 11  2  0  0  0  0
 13  6  2  0  0  0  0
 14  6  1  0  0  0  0
 15  8  1  0  0  0  0
 16 10  1  0  0  0  0
 16 15  1  0  0  0  0
 17 13  1  0  0  0  0
 18 13  1  0  0  0  0
 18 21  2  0  0  0  0
 19 17  1  0  0  0  0
 20 14  2  0  0  0  0
 21 20  1  0  0  0  0
M  END
>  <idnumber>
T0517-9955

>  <LogP>
2.953000000000000e+000

>  <rotating_bonds>
3.000000000000000e+000

>  <hb_acceptors>
3.000000000000000e+000

>  <hb_donors>
1.000000000000000e+000

>  <PSA>
4.756000000000000e+001

>  <clusterid>
-352

>  <is_centroid>
@

>  <class1>
625

>  <class2>
730

>  <population1>
877209

>  <population2>
20896

>  <population>
20896

>  <cansmi>
CCc1ccccc1NC(=O)c1ccc2c(c1)OCCO2

>  <HBA2>
4

>  <HBD>
1

>  <logP>
3.3455

>  <TPSA>
47.56

>  <MW>
283.322

$$$$

 OpenBabel02121609142D

 22 24  0  0  0  0  0  0  0  0999 V2000
    0.4417   -0.2875    0.0000 C   0  0  0  0  0  0  0  0  0  0  0  0
    0.5417   -1.2792    0.0000 C   0  0  0  0  0  0  0  0  0  0  0  0
   -0.4250    0.2125    0.0000 C   0  0  0  0  0  0  0  0  0  0  0  0
    1.3542    0.1208    0.0000 N   0  0  0  0  0  0  0  0  0  0  0  0
    1.5250   -1.4875    0.0000 C   0  0  0  0  0  0  0  0  0  0  0  0
   -0.4250    1.2125    0.0000 N   0  0  0  0  0  0  0  0  0  0  0  0
    2.0250   -0.6167    0.0000 C   0  0  0  0  0  0  0  0  0  0  0  0
   -1.2958    1.7125    0.0000 C   0  0  0  0  0  0  0  0  0  0  0  0
    1.9292   -2.4000    0.0000 C   0  0  0  0  0  0  0  0  0  0  0  0
   -1.2958   -0.2875    0.0000 O   0  0  0  0  0  0  0  0  0  0  0  0
   -1.2958    2.7125    0.0000 C   0  0  0  0  0  0  0  0  0  0  0  0
    1.3417   -3.2125    0.0000 O   0  0  0  0  0  0  0  0  0  0  0  0
    0.4417    1.7125    0.0000 C   0  0  0  0  0  0  0  0  0  0  0  0
   -0.1958   -1.9500    0.0000 C   0  0  0  0  0  0  0  0  0  0  0  0
    3.0167   -0.5167    0.0000 C   0  0  0  0  0  0  0  0  0  0  0  0
   -2.1583    1.2125    0.0000 C   0  0  0  0  0  0  0  0  0  0  0  0
    0.4417    2.7125    0.0000 C   0  0  0  0  0  0  0  0  0  0  0  0
   -0.4250    3.2125    0.0000 C   0  0  0  0  0  0  0  0  0  0  0  0
    2.9250   -2.5042    0.0000 C   0  0  0  0  0  0  0  0  0  0  0  0
   -2.1583    3.2125    0.0000 C   0  0  0  0  0  0  0  0  0  0  0  0
   -3.0208    1.7125    0.0000 C   0  0  0  0  0  0  0  0  0  0  0  0
   -3.0208    2.7125    0.0000 C   0  0  0  0  0  0  0  0  0  0  0  0
  2  1  2  0  0  0  0
  3  1  1  0  0  0  0
  4  1  1  0  0  0  0
  5  2  1  0  0  0  0
  5  7  2  0  0  0  0
  6  3  1  0  0  0  0
  7  4  1  0  0  0  0
  8  6  1  0  0  0  0
  9  5  1  0  0  0  0
 10  3  2  0  0  0  0
 11  8  2  0  0  0  0
 11 18  1  0  0  0  0
 12  9  2  0  0  0  0
 13  6  1  0  0  0  0
 14  2  1  0  0  0  0
 15  7  1  0  0  0  0
 16  8  1  0  0  0  0
 17 13  1  0  0  0  0
 18 17  1  0  0  0  0
 19  9  1  0  0  0  0
 20 11  1  0  0  0  0
 20 22  2  0  0  0  0
 21 16  2  0  0  0  0
 22 21  1  0  0  0  0
M  END
>  <idnumber>
T0518-0147

>  <LogP>
2.716000000000000e+000

>  <rotating_bonds>
2.000000000000000e+000

>  <hb_acceptors>
2.000000000000000e+000

>  <hb_donors>
1.000000000000000e+000

>  <PSA>
5.317000000000000e+001

>  <clusterid>
251

>  <is_centroid>
@

>  <class1>
814

>  <class2>
635

>  <population1>
5317

>  <population2>
31512

>  <population>
46

>  <cansmi>
O=C(c1[nH]c(c(c1C)C(=O)C)C)N1CCCc2c1cccc2

>  <HBA2>
3

>  <HBD>
1

>  <logP>
3.4921

>  <TPSA>
53.17

>  <MW>
296.364

$$$$

 OpenBabel02121609142D

 17 19  0  0  0  0  0  0  0  0999 V2000
    1.4500   -0.1167    0.0000 C   0  0  0  0  0  0  0  0  0  0  0  0
    1.4500    0.8833    0.0000 C   0  0  0  0  0  0  0  0  0  0  0  0
   -0.2833   -0.1167    0.0000 C   0  0  0  0  0  0  0  0  0  0  0  0
   -0.2833    0.8833    0.0000 C   0  0  0  0  0  0  0  0  0  0  0  0
    0.5792    1.3833    0.0000 N   0  0  0  0  0  0  0  0  0  0  0  0
    2.4000    1.1958    0.0000 N   0  0  0  0  0  0  0  0  0  0  0  0
    2.9875    0.3833    0.0000 N   0  0  0  0  0  0  0  0  0  0  0  0
    0.5792   -0.6167    0.0000 C   0  0  0  0  0  0  0  0  0  0  0  0
   -1.1500   -0.6167    0.0000 C   0  0  0  0  0  0  0  0  0  0  0  0
    2.4000   -0.4250    0.0000 C   0  0  0  0  0  0  0  0  0  0  0  0
   -1.1500    1.3833    0.0000 C   0  0  0  0  0  0  0  0  0  0  0  0
   -2.0208    0.8833    0.0000 C   0  0  0  0  0  0  0  0  0  0  0  0
   -2.0208   -0.1167    0.0000 C   0  0  0  0  0  0  0  0  0  0  0  0
   -1.1500   -1.6167    0.0000 O   0  0  0  0  0  0  0  0  0  0  0  0
    2.7042   -1.3750    0.0000 C   0  0  0  0  0  0  0  0  0  0  0  0
   -2.6958    1.6208    0.0000 C   0  0  0  0  0  0  0  0  0  0  0  0
   -2.9958    1.1083    0.0000 C   0  0  0  0  0  0  0  0  0  0  0  0
  2  1  2  0  0  0  0
  3  8  1  0  0  0  0
  4  3  2  0  0  0  0
  5  2  1  0  0  0  0
  5  4  1  0  0  0  0
  6  2  1  0  0  0  0
  7 10  2  0  0  0  0
  7  6  1  0  0  0  0
  8  1  1  0  0  0  0
  9  3  1  0  0  0  0
 10  1  1  0  0  0  0
 11  4  1  0  0  0  0
 12 13  1  0  0  0  0
 12 11  1  0  0  0  0
 13  9  1  0  0  0  0
 14  9  2  0  0  0  0
 15 10  1  0  0  0  0
 16 12  1  0  0  0  0
 17 12  1  0  0  0  0
M  END
>  <idnumber>
T0518-0689

>  <LogP>
2.568000000000000e+000

>  <rotating_bonds>
0.000000000000000e+000

>  <hb_acceptors>
3.000000000000000e+000

>  <hb_donors>
2.000000000000000e+000

>  <PSA>
5.778000000000000e+001

>  <clusterid>
-355

>  <is_centroid>
@

>  <class1>
982

>  <population1>
159

>  <population>
159

>  <cansmi>
O=C1CC(C)(C)CC2=C1Cc1c(C)n[nH]c1N2

>  <HBA2>
3

>  <HBD>
2

>  <logP>
2.4673

>  <TPSA>
57.78

>  <MW>
231.294

$$$$

 OpenBabel02121609142D

 17 18  0  0  0  0  0  0  0  0999 V2000
    1.4125   -0.0292    0.0000 N   0  0  0  0  0  0  0  0  0  0  0  0
    2.3625   -0.3417    0.0000 C   0  0  0  0  0  0  0  0  0  0  0  0
    1.4125   -1.6542    0.0000 C   0  0  0  0  0  0  0  0  0  0  0  0
    2.3625   -1.3417    0.0000 C   0  0  0  0  0  0  0  0  0  0  0  0
    0.8250   -0.8417    0.0000 C   0  0  3  0  0  0  0  0  0  0  0  0
   -0.1750   -0.8417    0.0000 C   0  0  0  0  0  0  0  0  0  0  0  0
    3.1667    0.2458    0.0000 O   0  0  0  0  0  0  0  0  0  0  0  0
   -0.6750    0.0208    0.0000 C   0  0  0  0  0  0  0  0  0  0  0  0
   -0.6750   -1.7125    0.0000 C   0  0  0  0  0  0  0  0  0  0  0  0
    1.1042    0.9208    0.0000 C   0  0  0  0  0  0  0  0  0  0  0  0
   -2.1750   -0.8417    0.0000 C   0  0  0  0  0  0  0  0  0  0  0  0
    1.1042   -2.6042    0.0000 C   0  0  0  0  0  0  0  0  0  0  0  0
   -1.6750   -1.7125    0.0000 C   0  0  0  0  0  0  0  0  0  0  0  0
   -1.6750    0.0208    0.0000 C   0  0  0  0  0  0  0  0  0  0  0  0
   -3.1750   -0.8417    0.0000 Cl  0  0  0  0  0  0  0  0  0  0  0  0
    1.4625    2.6083    0.0000 O   0  0  0  0  0  0  0  0  0  0  0  0
    1.7667    1.6583    0.0000 C   0  0  0  0  0  0  0  0  0  0  0  0
  2  1  1  0  0  0  0
  3  5  1  0  0  0  0
  3  4  2  0  0  0  0
  4  2  1  0  0  0  0
  5  1  1  0  0  0  0
  6  5  1  0  0  0  0
  7  2  2  0  0  0  0
  8  6  1  0  0  0  0
  9  6  2  0  0  0  0
 10  1  1  0  0  0  0
 11 13  2  0  0  0  0
 12  3  1  0  0  0  0
 13  9  1  0  0  0  0
 14  8  2  0  0  0  0
 14 11  1  0  0  0  0
 15 11  1  0  0  0  0
 16 17  1  0  0  0  0
 17 10  1  0  0  0  0
M  END
>  <idnumber>
T0518-0702

>  <LogP>
1.655000000000000e+000

>  <rotating_bonds>
3.000000000000000e+000

>  <hb_acceptors>
3.000000000000000e+000

>  <hb_donors>
1.000000000000000e+000

>  <PSA>
4.053999999999999e+001

>  <clusterid>
-356

>  <is_centroid>
@

>  <class1>
983

>  <class2>
625

>  <population1>
3241

>  <population2>
877209

>  <population>
3132

>  <cansmi>
OCCN1C(=O)C=C(C1c1ccc(cc1)Cl)C

>  <HBA2>
3

>  <HBD>
1

>  <logP>
2.0998

>  <TPSA>
40.54

>  <MW>
251.709

$$$$

 OpenBabel02121609142D

 15 16  0  0  0  0  0  0  0  0999 V2000
    1.7292   -0.5000    0.0000 C   0  0  0  0  0  0  0  0  0  0  0  0
    0.8625   -1.0000    0.0000 C   0  0  0  0  0  0  0  0  0  0  0  0
    1.7292    0.5000    0.0000 C   0  0  0  0  0  0  0  0  0  0  0  0
    0.0000    0.5000    0.0000 C   0  0  3  0  0  0  0  0  0  0  0  0
    0.0000   -0.5000    0.0000 C   0  0  0  0  0  0  0  0  0  0  0  0
    0.8625    1.0000    0.0000 C   0  0  0  0  0  0  0  0  0  0  0  0
    2.5917    1.0000    0.0000 O   0  0  0  0  0  0  0  0  0  0  0  0
   -0.8708    1.0000    0.0000 C   0  0  0  0  0  0  0  0  0  0  0  0
    0.8625   -2.0000    0.0000 N   0  0  0  0  0  0  0  0  0  0  0  0
   -0.8708    2.0000    0.0000 C   0  0  0  0  0  0  0  0  0  0  0  0
   -1.7333    0.5000    0.0000 C   0  0  0  0  0  0  0  0  0  0  0  0
    1.7292   -2.5000    0.0000 C   0  0  0  0  0  0  0  0  0  0  0  0
   -2.6000    1.0000    0.0000 C   0  0  0  0  0  0  0  0  0  0  0  0
   -1.7333    2.5000    0.0000 C   0  0  0  0  0  0  0  0  0  0  0  0
   -2.6000    2.0000    0.0000 C   0  0  0  0  0  0  0  0  0  0  0  0
  2  1  2  0  0  0  0
  3  1  1  0  0  0  0
  4  6  1  0  0  0  0
  4  5  1  0  0  0  0
  5  2  1  0  0  0  0
  6  3  1  0  0  0  0
  7  3  2  0  0  0  0
  8  4  1  0  0  0  0
  9  2  1  0  0  0  0
 10  8  1  0  0  0  0
 11  8  2  0  0  0  0
 12  9  1  0  0  0  0
 13 11  1  0  0  0  0
 14 10  2  0  0  0  0
 14 15  1  0  0  0  0
 15 13  2  0  0  0  0
M  END
>  <idnumber>
T0518-0923

>  <LogP>
2.155000000000000e+000

>  <rotating_bonds>
2.000000000000000e+000

>  <hb_acceptors>
2.000000000000000e+000

>  <hb_donors>
1.000000000000000e+000

>  <PSA>
2.910000000000000e+001

>  <clusterid>
-358

>  <is_centroid>
@

>  <class1>
906

>  <class2>
625

>  <population1>
1170

>  <population2>
877209

>  <population>
992

>  <cansmi>
CNC1=CC(=O)CC(C1)c1ccccc1

>  <HBA2>
2

>  <HBD>
1

>  <logP>
2.6273

>  <TPSA>
29.1

>  <MW>
201.264

$$$$

 OpenBabel02121609142D

 14 16  0  0  0  0  0  0  0  0999 V2000
   -0.4333    0.2500    0.0000 C   0  0  0  0  0  0  0  0  0  0  0  0
    0.4292   -0.2500    0.0000 C   0  0  0  0  0  0  0  0  0  0  0  0
   -1.3000   -0.2500    0.0000 N   0  0  0  0  0  0  0  0  0  0  0  0
    1.2917    0.2500    0.0000 C   0  0  0  0  0  0  0  0  0  0  0  0
   -0.4333    1.2500    0.0000 C   0  0  0  0  0  0  0  0  0  0  0  0
    1.2917    1.2500    0.0000 C   0  0  0  0  0  0  0  0  0  0  0  0
    0.4292    1.7500    0.0000 C   0  0  0  0  0  0  0  0  0  0  0  0
    0.4292   -1.2500    0.0000 C   0  0  0  0  0  0  0  0  0  0  0  0
    2.1625   -0.2500    0.0000 O   0  0  0  0  0  0  0  0  0  0  0  0
   -1.3000   -1.2500    0.0000 C   0  0  0  0  0  0  0  0  0  0  0  0
   -2.1708    0.2500    0.0000 C   0  0  0  0  0  0  0  0  0  0  0  0
   -0.4333   -1.7500    0.0000 C   0  0  0  0  0  0  0  0  0  0  0  0
   -2.1708    1.2500    0.0000 C   0  0  0  0  0  0  0  0  0  0  0  0
   -1.3000    1.7500    0.0000 C   0  0  0  0  0  0  0  0  0  0  0  0
  2  1  1  0  0  0  0
  3  1  1  0  0  0  0
  4  2  2  0  0  0  0
  4  6  1  0  0  0  0
  5  1  2  0  0  0  0
  6  7  2  0  0  0  0
  7  5  1  0  0  0  0
  8  2  1  0  0  0  0
  9  4  1  0  0  0  0
 10  3  1  0  0  0  0
 11  3  1  0  0  0  0
 12 10  1  0  0  0  0
 12  8  1  0  0  0  0
 13 14  1  0  0  0  0
 13 11  1  0  0  0  0
 14  5  1  0  0  0  0
M  END
>  <idnumber>
T0518-3067

>  <LogP>
2.728000000000000e+000

>  <rotating_bonds>
0.000000000000000e+000

>  <hb_acceptors>
2.000000000000000e+000

>  <hb_donors>
1.000000000000000e+000

>  <PSA>
2.347000000000000e+001

>  <clusterid>
-360

>  <is_centroid>
@

>  <class1>
985

>  <population1>
27

>  <population>
27

>  <cansmi>
Oc1ccc2c3c1CCCN3CCC2

>  <HBA2>
2

>  <HBD>
1

>  <logP>
2.156

>  <TPSA>
23.47

>  <MW>
189.254

$$$$

 OpenBabel02121609142D

 17 19  0  0  0  0  0  0  0  0999 V2000
    0.4292   -0.5000    0.0000 C   0  0  0  0  0  0  0  0  0  0  0  0
    0.4292   -2.5000    0.0000 N   0  0  0  0  0  0  0  0  0  0  0  0
    1.2917   -2.0000    0.0000 C   0  0  0  0  0  0  0  0  0  0  0  0
   -0.4333   -1.0000    0.0000 C   0  0  0  0  0  0  0  0  0  0  0  0
    1.2917   -1.0000    0.0000 C   0  0  0  0  0  0  0  0  0  0  0  0
   -0.4333   -2.0000    0.0000 C   0  0  0  0  0  0  0  0  0  0  0  0
    0.4292    0.5000    0.0000 C   0  0  0  0  0  0  0  0  0  0  0  0
    2.1625   -2.5000    0.0000 O   0  0  0  0  0  0  0  0  0  0  0  0
   -1.3000   -0.5000    0.0000 C   0  0  0  0  0  0  0  0  0  0  0  0
   -1.3000   -2.5000    0.0000 C   0  0  0  0  0  0  0  0  0  0  0  0
   -0.4333    1.0000    0.0000 C   0  0  0  0  0  0  0  0  0  0  0  0
    1.2917    1.0000    0.0000 C   0  0  0  0  0  0  0  0  0  0  0  0
   -2.1708   -1.0000    0.0000 C   0  0  0  0  0  0  0  0  0  0  0  0
   -2.1708   -2.0000    0.0000 C   0  0  0  0  0  0  0  0  0  0  0  0
    1.2917    2.0000    0.0000 C   0  0  0  0  0  0  0  0  0  0  0  0
   -0.4333    2.0000    0.0000 C   0  0  0  0  0  0  0  0  0  0  0  0
    0.4292    2.5000    0.0000 C   0  0  0  0  0  0  0  0  0  0  0  0
  2  3  1  0  0  0  0
  3  5  1  0  0  0  0
  4  1  1  0  0  0  0
  5  1  2  0  0  0  0
  6  4  2  0  0  0  0
  6  2  1  0  0  0  0
  7  1  1  0  0  0  0
  8  3  2  0  0  0  0
  9  4  1  0  0  0  0
 10  6  1  0  0  0  0
 10 14  2  0  0  0  0
 11  7  2  0  0  0  0
 12  7  1  0  0  0  0
 13  9  2  0  0  0  0
 14 13  1  0  0  0  0
 15 12  2  0  0  0  0
 16 11  1  0  0  0  0
 16 17  2  0  0  0  0
 17 15  1  0  0  0  0
M  END
>  <idnumber>
T0518-4941

>  <LogP>
2.700000000000000e+000

>  <rotating_bonds>
1.000000000000000e+000

>  <hb_acceptors>
1.000000000000000e+000

>  <hb_donors>
1.000000000000000e+000

>  <PSA>
2.910000000000000e+001

>  <clusterid>
-362

>  <is_centroid>
@

>  <class1>
801

>  <class2>
625

>  <population1>
1387

>  <population2>
877209

>  <population>
1387

>  <cansmi>
O=c1[nH]c2ccccc2c(c1)c1ccccc1

>  <HBA2>
1

>  <HBD>
1

>  <logP>
3.1951

>  <TPSA>
32.86

>  <MW>
221.254

$$$$

 OpenBabel02121609142D

 20 22  0  0  0  0  0  0  0  0999 V2000
   -0.8708   -0.0167    0.0000 C   0  0  0  0  0  0  0  0  0  0  0  0
   -0.8708   -1.0167    0.0000 C   0  0  0  0  0  0  0  0  0  0  0  0
   -1.7333    0.4833    0.0000 C   0  0  0  0  0  0  0  0  0  0  0  0
    0.0000   -1.5167    0.0000 O   0  0  0  0  0  0  0  0  0  0  0  0
    0.0000    0.4833    0.0000 C   0  0  0  0  0  0  0  0  0  0  0  0
    0.8625   -1.0167    0.0000 C   0  0  0  0  0  0  0  0  0  0  0  0
    0.8625   -0.0167    0.0000 C   0  0  0  0  0  0  0  0  0  0  0  0
   -1.7333    1.4833    0.0000 N   0  0  0  0  0  0  0  0  0  0  0  0
   -1.7333   -1.5167    0.0000 O   0  0  0  0  0  0  0  0  0  0  0  0
   -2.6000   -0.0167    0.0000 O   0  0  0  0  0  0  0  0  0  0  0  0
    1.7292   -1.5167    0.0000 C   0  0  0  0  0  0  0  0  0  0  0  0
    1.7292   -2.5167    0.0000 O   0  0  0  0  0  0  0  0  0  0  0  0
   -0.9250    2.0708    0.0000 C   0  0  0  0  0  0  0  0  0  0  0  0
   -2.5458    2.0708    0.0000 C   0  0  0  0  0  0  0  0  0  0  0  0
    1.7292    0.4833    0.0000 C   0  0  0  0  0  0  0  0  0  0  0  0
    2.5917   -0.0167    0.0000 C   0  0  0  0  0  0  0  0  0  0  0  0
    2.5917   -1.0167    0.0000 C   0  0  0  0  0  0  0  0  0  0  0  0
    2.5917   -3.0167    0.0000 C   0  0  0  0  0  0  0  0  0  0  0  0
   -2.2333    3.0208    0.0000 C   0  0  0  0  0  0  0  0  0  0  0  0
   -1.2333    3.0208    0.0000 C   0  0  0  0  0  0  0  0  0  0  0  0
  2  1  1  0  0  0  0
  3  1  1  0  0  0  0
  4  2  1  0  0  0  0
  4  6  1  0  0  0  0
  5  1  2  0  0  0  0
  6  7  1  0  0  0  0
  7  5  1  0  0  0  0
  8  3  1  0  0  0  0
  9  2  2  0  0  0  0
 10  3  2  0  0  0  0
 11  6  2  0  0  0  0
 12 11  1  0  0  0  0
 13  8  1  0  0  0  0
 14  8  1  0  0  0  0
 15  7  2  0  0  0  0
 16 15  1  0  0  0  0
 17 16  2  0  0  0  0
 17 11  1  0  0  0  0
 18 12  1  0  0  0  0
 19 14  1  0  0  0  0
 20 13  1  0  0  0  0
 20 19  1  0  0  0  0
M  END
>  <idnumber>
T0518-5682

>  <LogP>
8.990000000000000e-001

>  <rotating_bonds>
2.000000000000000e+000

>  <hb_acceptors>
3.000000000000000e+000

>  <hb_donors>
0.000000000000000e+000

>  <PSA>
5.584000000000000e+001

>  <clusterid>
259

>  <is_centroid>
@

>  <class1>
642

>  <class2>
799

>  <population1>
51183

>  <population2>
7929

>  <population>
211

>  <cansmi>
COc1cccc2c1oc(=O)c(c2)C(=O)N1CCCC1

>  <HBA2>
5

>  <HBD>
0

>  <logP>
1.9755

>  <TPSA>
59.75

>  <MW>
273.284

$$$$

 OpenBabel02121609142D

 14 16  0  0  0  0  0  0  0  0999 V2000
    1.4125    0.8125    0.0000 N   0  0  0  0  0  0  0  0  0  0  0  0
    0.4625    0.5000    0.0000 C   0  0  0  0  0  0  0  0  0  0  0  0
    1.4125   -0.8042    0.0000 N   0  0  0  0  0  0  0  0  0  0  0  0
    0.4625   -0.5000    0.0000 C   0  0  0  0  0  0  0  0  0  0  0  0
    2.0000    0.0000    0.0000 C   0  0  0  0  0  0  0  0  0  0  0  0
   -0.4083    1.0000    0.0000 C   0  0  0  0  0  0  0  0  0  0  0  0
   -0.4083   -1.0000    0.0000 C   0  0  0  0  0  0  0  0  0  0  0  0
   -1.2708   -0.5000    0.0000 C   0  0  0  0  0  0  0  0  0  0  0  0
   -1.2708    0.5000    0.0000 C   0  0  0  0  0  0  0  0  0  0  0  0
   -2.1375    1.0000    0.0000 O   0  0  0  0  0  0  0  0  0  0  0  0
   -2.1375   -1.0000    0.0000 O   0  0  0  0  0  0  0  0  0  0  0  0
    3.0000    0.0000    0.0000 C   0  0  0  0  0  0  0  0  0  0  0  0
   -3.0083   -0.5000    0.0000 C   0  0  0  0  0  0  0  0  0  0  0  0
   -3.0083    0.5000    0.0000 C   0  0  0  0  0  0  0  0  0  0  0  0
  2  1  1  0  0  0  0
  3  5  1  0  0  0  0
  4  2  2  0  0  0  0
  4  3  1  0  0  0  0
  5  1  2  0  0  0  0
  6  2  1  0  0  0  0
  7  4  1  0  0  0  0
  7  8  2  0  0  0  0
  8  9  1  0  0  0  0
  9  6  2  0  0  0  0
 10  9  1  0  0  0  0
 11  8  1  0  0  0  0
 12  5  1  0  0  0  0
 13 14  1  0  0  0  0
 13 11  1  0  0  0  0
 14 10  1  0  0  0  0
M  END
>  <idnumber>
T0518-5860

>  <LogP>
2.334000000000000e+000

>  <rotating_bonds>
0.000000000000000e+000

>  <hb_acceptors>
3.000000000000000e+000

>  <hb_donors>
1.000000000000000e+000

>  <PSA>
4.713999999999999e+001

>  <clusterid>
-363

>  <is_centroid>
@

>  <class1>
622

>  <population1>
31

>  <population>
31

>  <cansmi>
Cc1nc2c([nH]1)cc1c(c2)OCCO1

>  <HBA2>
3

>  <HBD>
1

>  <logP>
1.6425

>  <TPSA>
47.14

>  <MW>
190.199

$$$$

 OpenBabel02121609142D

 11 10  0  0  0  0  0  0  0  0999 V2000
    2.0875    0.8500    0.0000 N   0  0  0  0  0  0  0  0  0  0  0  0
    1.3167    0.2208    0.0000 C   0  0  3  0  0  0  0  0  0  0  0  0
    0.3500    0.4708    0.0000 C   0  0  0  0  0  0  0  0  0  0  0  0
    1.6792   -0.7167    0.0000 C   0  0  0  0  0  0  0  0  0  0  0  0
    0.0792    1.4333    0.0000 O   0  0  0  0  0  0  0  0  0  0  0  0
    2.9292    0.3125    0.0000 C   0  0  0  0  0  0  0  0  0  0  0  0
    2.6792   -0.6542    0.0000 C   0  0  3  0  0  0  0  0  0  0  0  0
   -0.3583   -0.2417    0.0000 O   0  0  0  0  0  0  0  0  0  0  0  0
   -3.3208    0.0250    0.0000 Cl  0  0  0  0  0  0  0  0  0  0  0  0
    3.3167   -1.4250    0.0000 O   0  0  0  0  0  0  0  0  0  0  0  0
   -1.3208    0.0083    0.0000 C   0  0  0  0  0  0  0  0  0  0  0  0
  2  1  1  0  0  0  0
  3  2  1  0  0  0  0
  4  2  1  0  0  0  0
  4  7  1  0  0  0  0
  5  3  2  0  0  0  0
  6  1  1  0  0  0  0
  7  6  1  0  0  0  0
  8  3  1  0  0  0  0
 10  7  1  0  0  0  0
 11  8  1  0  0  0  0
M  END
>  <idnumber>
T0518-7922

>  <saltdata>
HCl

>  <LogP>
-1.037000000000000e+000

>  <rotating_bonds>
2.000000000000000e+000

>  <hb_acceptors>
3.000000000000000e+000

>  <hb_donors>
2.000000000000000e+000

>  <PSA>
5.856000000000000e+001

>  <clusterid>
-366

>  <is_centroid>
@

>  <class1>
642

>  <population1>
51183

>  <population>
51183

>  <cansmi>
COC(=O)C1CC(CN1)O.Cl

>  <HBA2>
4

>  <HBD>
3

>  <logP>
0.013

>  <TPSA>
58.56

>  <MW>
181.617

$$$$

 OpenBabel02121609142D

 17 19  0  0  0  0  0  0  0  0999 V2000
    0.4292    0.2583    0.0000 C   0  0  3  0  0  0  0  0  0  0  0  0
   -0.4333   -0.2500    0.0000 S   0  0  0  0  0  0  0  0  0  0  0  0
    0.4292    1.2500    0.0000 C   0  0  0  0  0  0  0  0  0  0  0  0
   -0.4333    1.7500    0.0000 N   0  0  0  0  0  0  0  0  0  0  0  0
    1.2917   -0.2500    0.0000 N   0  0  0  0  0  0  0  0  0  0  0  0
   -1.3000    0.2583    0.0000 C   0  0  0  0  0  0  0  0  0  0  0  0
   -1.3000    1.2500    0.0000 C   0  0  0  0  0  0  0  0  0  0  0  0
    1.2917    1.7500    0.0000 O   0  0  0  0  0  0  0  0  0  0  0  0
    1.2917   -1.2500    0.0000 C   0  0  0  0  0  0  0  0  0  0  0  0
    2.1625    0.2583    0.0000 C   0  0  0  0  0  0  0  0  0  0  0  0
   -2.1708   -0.2500    0.0000 C   0  0  0  0  0  0  0  0  0  0  0  0
   -2.1708    1.7500    0.0000 C   0  0  0  0  0  0  0  0  0  0  0  0
    3.0292   -0.2500    0.0000 C   0  0  0  0  0  0  0  0  0  0  0  0
    2.1625   -1.7500    0.0000 C   0  0  0  0  0  0  0  0  0  0  0  0
   -3.0333    0.2583    0.0000 C   0  0  0  0  0  0  0  0  0  0  0  0
   -3.0333    1.2500    0.0000 C   0  0  0  0  0  0  0  0  0  0  0  0
    3.0292   -1.2500    0.0000 C   0  0  0  0  0  0  0  0  0  0  0  0
  2  1  1  0  0  0  0
  3  1  1  0  0  0  0
  4  3  1  0  0  0  0
  5  1  1  0  0  0  0
  6  2  1  0  0  0  0
  7  4  1  0  0  0  0
  7  6  2  0  0  0  0
  8  3  2  0  0  0  0
  9  5  1  0  0  0  0
 10  5  1  0  0  0  0
 11  6  1  0  0  0  0
 12  7  1  0  0  0  0
 13 10  1  0  0  0  0
 14  9  1  0  0  0  0
 14 17  1  0  0  0  0
 15 11  2  0  0  0  0
 16 12  2  0  0  0  0
 16 15  1  0  0  0  0
 17 13  1  0  0  0  0
M  END
>  <idnumber>
T0518-9034

>  <LogP>
2.527000000000000e+000

>  <rotating_bonds>
1.000000000000000e+000

>  <hb_acceptors>
3.000000000000000e+000

>  <hb_donors>
1.000000000000000e+000

>  <PSA>
5.763999999999999e+001

>  <clusterid>
-367

>  <is_centroid>
@

>  <class1>
867

>  <class2>
639

>  <population1>
1652

>  <population2>
59855

>  <population>
87

>  <cansmi>
O=C1Nc2ccccc2SC1N1CCCCC1

>  <HBA2>
4

>  <HBD>
1

>  <logP>
2.6187

>  <TPSA>
57.64

>  <MW>
248.344

$$$$

 OpenBabel02121609142D

 19 22  0  0  0  0  0  0  0  0999 V2000
    1.1042    0.5833    0.0000 C   0  0  3  0  0  0  0  0  0  0  0  0
    0.2917    0.0333    0.0000 C   0  0  0  0  0  0  0  0  0  0  0  0
   -1.2750   -0.0667    0.0000 C   0  0  0  0  0  0  0  0  0  0  0  0
   -2.1833    0.2250    0.0000 N   0  0  0  0  0  0  0  0  0  0  0  0
   -1.2708   -1.0167    0.0000 C   0  0  0  0  0  0  0  0  0  0  0  0
   -0.5333    0.5208    0.0000 N   0  0  0  0  0  0  0  0  0  0  0  0
   -2.7375   -0.5417    0.0000 N   0  0  0  0  0  0  0  0  0  0  0  0
   -2.1833   -1.3125    0.0000 C   0  0  0  0  0  0  0  0  0  0  0  0
    0.9292    1.5958    0.0000 C   0  0  0  0  0  0  0  0  0  0  0  0
    1.9375    0.1458    0.0000 C   0  0  0  0  0  0  0  0  0  0  0  0
    2.1667    0.7375    0.0000 C   0  0  0  0  0  0  0  0  0  0  0  0
    1.9167    2.2208    0.0000 C   0  0  3  0  0  0  0  0  0  0  0  0
    1.5125    1.8958    0.0000 C   0  0  3  0  0  0  0  0  0  0  0  0
    2.7292    0.8083    0.0000 C   0  0  3  0  0  0  0  0  0  0  0  0
    0.4792   -0.9125    0.0000 O   0  0  0  0  0  0  0  0  0  0  0  0
    2.7292    1.8333    0.0000 C   0  0  0  0  0  0  0  0  0  0  0  0
    1.4625    1.1458    0.0000 C   0  0  0  0  0  0  0  0  0  0  0  0
    2.3750    1.4333    0.0000 C   0  0  0  0  0  0  0  0  0  0  0  0
   -2.4708   -2.2167    0.0000 C   0  0  0  0  0  0  0  0  0  0  0  0
  2  1  1  0  0  0  0
  3  6  1  0  0  0  0
  4  3  2  0  0  0  0
  5  3  1  0  0  0  0
  6  2  1  0  0  0  0
  7  4  1  0  0  0  0
  8  5  2  0  0  0  0
  8  7  1  0  0  0  0
  9  1  1  0  0  0  0
 10  1  1  0  0  0  0
 11  1  1  0  0  0  0
 12  9  1  0  0  0  0
 12 18  1  0  0  0  0
 12 16  1  0  0  0  0
 13 11  1  0  0  0  0
 14 10  1  0  0  0  0
 14 17  1  0  0  0  0
 15  2  2  0  0  0  0
 16 14  1  0  0  0  0
 17 13  1  0  0  0  0
 18 13  1  0  0  0  0
 19  8  1  0  0  0  0
M  END
>  <idnumber>
T0518-9651

>  <LogP>
2.970000000000000e+000

>  <rotating_bonds>
2.000000000000000e+000

>  <hb_acceptors>
2.000000000000000e+000

>  <hb_donors>
2.000000000000000e+000

>  <PSA>
5.778000000000000e+001

>  <clusterid>
-369

>  <is_centroid>
@

>  <class1>
809

>  <class2>
631

>  <population1>
8162

>  <population2>
41612

>  <population>
137

>  <cansmi>
O=C(C12CC3CC(C2)CC(C1)C3)Nc1cc([nH]n1)C

>  <HBA2>
3

>  <HBD>
2

>  <logP>
2.946

>  <TPSA>
57.78

>  <MW>
259.347

$$$$

 OpenBabel02121609142D

 18 20  0  0  0  0  0  0  0  0999 V2000
    0.4292    0.5000    0.0000 C   0  0  0  0  0  0  0  0  0  0  0  0
   -0.4333    1.0000    0.0000 C   0  0  0  0  0  0  0  0  0  0  0  0
    0.4292   -0.5000    0.0000 C   0  0  0  0  0  0  0  0  0  0  0  0
   -0.4333   -1.0000    0.0000 N   0  0  0  0  0  0  0  0  0  0  0  0
    1.2917    1.0000    0.0000 C   0  0  0  0  0  0  0  0  0  0  0  0
   -0.4333    2.0000    0.0000 C   0  0  0  0  0  0  0  0  0  0  0  0
    1.2917    2.0000    0.0000 C   0  0  0  0  0  0  0  0  0  0  0  0
   -2.1708   -2.0000    0.0000 O   0  0  0  0  0  0  0  0  0  0  0  0
    0.4292    2.5000    0.0000 C   0  0  0  0  0  0  0  0  0  0  0  0
    2.1625    0.5000    0.0000 O   0  0  0  0  0  0  0  0  0  0  0  0
   -1.3000   -0.5000    0.0000 C   0  0  0  0  0  0  0  0  0  0  0  0
   -0.4333   -2.0000    0.0000 C   0  0  0  0  0  0  0  0  0  0  0  0
   -1.3000    0.5000    0.0000 C   0  0  0  0  0  0  0  0  0  0  0  0
   -1.3000   -2.5000    0.0000 C   0  0  0  0  0  0  0  0  0  0  0  0
   -2.1708   -1.0000    0.0000 C   0  0  0  0  0  0  0  0  0  0  0  0
   -1.3000    2.5000    0.0000 C   0  0  0  0  0  0  0  0  0  0  0  0
   -2.1708    1.0000    0.0000 C   0  0  0  0  0  0  0  0  0  0  0  0
   -2.1708    2.0000    0.0000 C   0  0  0  0  0  0  0  0  0  0  0  0
  2  1  1  0  0  0  0
  3  1  1  0  0  0  0
  4  3  1  0  0  0  0
  5  1  2  0  0  0  0
  6  2  2  0  0  0  0
  7  5  1  0  0  0  0
  8 14  1  0  0  0  0
  9  7  2  0  0  0  0
  9  6  1  0  0  0  0
 10  5  1  0  0  0  0
 11  4  1  0  0  0  0
 12  4  1  0  0  0  0
 13  2  1  0  0  0  0
 14 12  1  0  0  0  0
 15 11  1  0  0  0  0
 15  8  1  0  0  0  0
 16  6  1  0  0  0  0
 16 18  2  0  0  0  0
 17 13  2  0  0  0  0
 18 17  1  0  0  0  0
M  END
>  <idnumber>
T0519-3469

>  <LogP>
2.346000000000000e+000

>  <rotating_bonds>
2.000000000000000e+000

>  <hb_acceptors>
3.000000000000000e+000

>  <hb_donors>
1.000000000000000e+000

>  <PSA>
3.270000000000000e+001

>  <clusterid>
-371

>  <is_centroid>
@

>  <class1>
796

>  <class2>
786

>  <population1>
21922

>  <population2>
48067

>  <population>
803

>  <cansmi>
Oc1ccc2c(c1CN1CCOCC1)cccc2

>  <HBA2>
3

>  <HBD>
1

>  <logP>
2.3155

>  <TPSA>
32.7

>  <MW>
243.301

$$$$

 OpenBabel02121609142D

 10 11  0  0  0  0  0  0  0  0999 V2000
    0.8625   -1.0000    0.0000 N   0  0  0  0  0  0  0  0  0  0  0  0
    0.8625    1.0000    0.0000 S   0  0  0  0  0  0  0  0  0  0  0  0
    0.0000   -0.5000    0.0000 C   0  0  0  0  0  0  0  0  0  0  0  0
    0.0000    0.5000    0.0000 C   0  0  0  0  0  0  0  0  0  0  0  0
    1.7292   -0.5000    0.0000 C   0  0  0  0  0  0  0  0  0  0  0  0
    1.7292    0.5000    0.0000 C   0  0  0  0  0  0  0  0  0  0  0  0
   -0.8708   -1.0000    0.0000 C   0  0  0  0  0  0  0  0  0  0  0  0
   -0.8708    1.0000    0.0000 C   0  0  0  0  0  0  0  0  0  0  0  0
   -1.7333   -0.5000    0.0000 C   0  0  0  0  0  0  0  0  0  0  0  0
   -1.7333    0.5000    0.0000 C   0  0  0  0  0  0  0  0  0  0  0  0
  2  6  1  0  0  0  0
  2  4  1  0  0  0  0
  3  1  1  0  0  0  0
  4  3  2  0  0  0  0
  5  1  1  0  0  0  0
  6  5  1  0  0  0  0
  7  3  1  0  0  0  0
  8  4  1  0  0  0  0
  8 10  2  0  0  0  0
  9  7  2  0  0  0  0
 10  9  1  0  0  0  0
M  END
>  <idnumber>
T0519-7911

>  <LogP>
2.116000000000000e+000

>  <rotating_bonds>
0.000000000000000e+000

>  <hb_acceptors>
2.000000000000000e+000

>  <hb_donors>
1.000000000000000e+000

>  <PSA>
3.733000000000000e+001

>  <clusterid>
-377

>  <is_centroid>
@

>  <class1>
690

>  <population1>
2083

>  <population>
2083

>  <cansmi>
C1CNc2c(S1)cccc2

>  <HBA2>
2

>  <HBD>
1

>  <logP>
2.3422

>  <TPSA>
37.33

>  <MW>
151.229

$$$$

 OpenBabel02121609142D

 15 17  0  0  0  0  0  0  0  0999 V2000
   -1.3958    0.0000    0.0000 N   0  0  0  0  0  0  0  0  0  0  0  0
   -0.5333    0.5000    0.0000 C   0  0  0  0  0  0  0  0  0  0  0  0
    0.3292    0.0000    0.0000 C   0  0  0  0  0  0  0  0  0  0  0  0
   -0.5333   -1.5000    0.0000 N   0  0  0  0  0  0  0  0  0  0  0  0
   -1.3958   -1.0000    0.0000 C   0  0  0  0  0  0  0  0  0  0  0  0
    0.3292   -1.0000    0.0000 C   0  0  0  0  0  0  0  0  0  0  0  0
    1.2000    0.5000    0.0000 C   0  0  0  0  0  0  0  0  0  0  0  0
    1.2000   -1.5000    0.0000 C   0  0  0  0  0  0  0  0  0  0  0  0
   -0.5333    1.5000    0.0000 O   0  0  0  0  0  0  0  0  0  0  0  0
    2.0667   -1.0000    0.0000 C   0  0  0  0  0  0  0  0  0  0  0  0
   -2.3500    0.3125    0.0000 C   0  0  0  0  0  0  0  0  0  0  0  0
    2.0667    0.0000    0.0000 C   0  0  0  0  0  0  0  0  0  0  0  0
   -2.3500   -1.3042    0.0000 C   0  0  0  0  0  0  0  0  0  0  0  0
    2.9292   -1.5000    0.0000 Cl  0  0  0  0  0  0  0  0  0  0  0  0
   -2.9375   -0.5000    0.0000 C   0  0  0  0  0  0  0  0  0  0  0  0
  2  1  1  0  0  0  0
  3  2  1  0  0  0  0
  3  6  2  0  0  0  0
  4  5  2  0  0  0  0
  5  1  1  0  0  0  0
  6  4  1  0  0  0  0
  7  3  1  0  0  0  0
  8  6  1  0  0  0  0
  9  2  2  0  0  0  0
 10  8  2  0  0  0  0
 10 12  1  0  0  0  0
 11  1  1  0  0  0  0
 12  7  2  0  0  0  0
 13  5  1  0  0  0  0
 14 10  1  0  0  0  0
 15 11  1  0  0  0  0
 15 13  1  0  0  0  0
M  END
>  <idnumber>
T0519-7940

>  <LogP>
1.784000000000000e+000

>  <rotating_bonds>
0.000000000000000e+000

>  <hb_acceptors>
3.000000000000000e+000

>  <hb_donors>
0.000000000000000e+000

>  <PSA>
3.267000000000000e+001

>  <clusterid>
265

>  <is_centroid>
@

>  <class1>
627

>  <population1>
598

>  <population>
598

>  <cansmi>
Clc1ccc2c(c1)nc1n(c2=O)CCC1

>  <HBA2>
3

>  <HBD>
0

>  <logP>
1.9961

>  <TPSA>
34.89

>  <MW>
220.655

$$$$

 OpenBabel02121609142D

 12 13  0  0  0  0  0  0  0  0999 V2000
    0.3167    1.0958    0.0000 C   0  0  0  0  0  0  0  0  0  0  0  0
    1.2667    1.4083    0.0000 N   0  0  0  0  0  0  0  0  0  0  0  0
    1.2667    2.4083    0.0000 N   0  0  0  0  0  0  0  0  0  0  0  0
   -0.2708    1.9083    0.0000 O   0  0  0  0  0  0  0  0  0  0  0  0
    0.3167    2.7125    0.0000 C   0  0  0  0  0  0  0  0  0  0  0  0
    0.0125    0.1458    0.0000 C   0  0  0  0  0  0  0  0  0  0  0  0
   -0.9708   -0.0625    0.0000 C   0  0  0  0  0  0  0  0  0  0  0  0
    0.6792   -0.6000    0.0000 C   0  0  0  0  0  0  0  0  0  0  0  0
   -0.6083   -1.7542    0.0000 C   0  0  0  0  0  0  0  0  0  0  0  0
   -1.2750   -1.0167    0.0000 C   0  0  0  0  0  0  0  0  0  0  0  0
    0.3667   -1.5500    0.0000 C   0  0  0  0  0  0  0  0  0  0  0  0
   -0.9208   -2.7042    0.0000 O   0  0  0  0  0  0  0  0  0  0  0  0
  2  1  2  0  0  0  0
  3  2  1  0  0  0  0
  3  5  2  0  0  0  0
  4  1  1  0  0  0  0
  5  4  1  0  0  0  0
  6  1  1  0  0  0  0
  7  6  2  0  0  0  0
  8  6  1  0  0  0  0
  9 11  1  0  0  0  0
 10  7  1  0  0  0  0
 10  9  2  0  0  0  0
 11  8  2  0  0  0  0
 12  9  1  0  0  0  0
M  END
>  <idnumber>
T0519-7989

>  <LogP>
1.610000000000000e-001

>  <rotating_bonds>
1.000000000000000e+000

>  <hb_acceptors>
3.000000000000000e+000

>  <hb_donors>
1.000000000000000e+000

>  <PSA>
5.915000000000000e+001

>  <clusterid>
114

>  <is_centroid>
@

>  <class1>
689

>  <class2>
625

>  <population1>
17264

>  <population2>
877209

>  <population>
15721

>  <cansmi>
Oc1ccc(cc1)c1ocnn1

>  <HBA2>
4

>  <HBD>
1

>  <logP>
1.4422

>  <TPSA>
59.15

>  <MW>
162.145

$$$$

 OpenBabel02121609142D

 15 16  0  0  0  0  0  0  0  0999 V2000
    1.2917    0.2500    0.0000 C   0  0  0  0  0  0  0  0  0  0  0  0
    0.4292   -0.2500    0.0000 C   0  0  0  0  0  0  0  0  0  0  0  0
   -0.4333    0.2500    0.0000 N   0  0  0  0  0  0  0  0  0  0  0  0
    2.1625   -0.2500    0.0000 C   0  0  0  0  0  0  0  0  0  0  0  0
    2.1625   -1.2500    0.0000 O   0  0  0  0  0  0  0  0  0  0  0  0
   -1.3000   -0.2500    0.0000 C   0  0  0  0  0  0  0  0  0  0  0  0
    1.2917    1.2583    0.0000 C   0  0  0  0  0  0  0  0  0  0  0  0
    3.0292    0.2500    0.0000 C   0  0  0  0  0  0  0  0  0  0  0  0
   -2.1708    0.2500    0.0000 C   0  0  0  0  0  0  0  0  0  0  0  0
   -1.3000   -1.2500    0.0000 C   0  0  0  0  0  0  0  0  0  0  0  0
    2.1625    1.7500    0.0000 C   0  0  0  0  0  0  0  0  0  0  0  0
    3.0292    1.2583    0.0000 C   0  0  0  0  0  0  0  0  0  0  0  0
   -2.1708   -1.7500    0.0000 C   0  0  0  0  0  0  0  0  0  0  0  0
   -3.0333   -0.2500    0.0000 C   0  0  0  0  0  0  0  0  0  0  0  0
   -3.0333   -1.2500    0.0000 C   0  0  0  0  0  0  0  0  0  0  0  0
  2  1  1  0  0  0  0
  3  2  1  0  0  0  0
  4  1  2  0  0  0  0
  5  4  1  0  0  0  0
  6  3  1  0  0  0  0
  7  1  1  0  0  0  0
  8  4  1  0  0  0  0
  8 12  2  0  0  0  0
  9  6  1  0  0  0  0
 10  6  1  0  0  0  0
 11  7  2  0  0  0  0
 12 11  1  0  0  0  0
 13 10  1  0  0  0  0
 14  9  1  0  0  0  0
 14 15  1  0  0  0  0
 15 13  1  0  0  0  0
M  END
>  <idnumber>
T0519-7995

>  <LogP>
2.824000000000000e+000

>  <rotating_bonds>
3.000000000000000e+000

>  <hb_acceptors>
2.000000000000000e+000

>  <hb_donors>
2.000000000000000e+000

>  <PSA>
3.226000000000001e+001

>  <clusterid>
-379

>  <is_centroid>
@

>  <class1>
625

>  <class2>
797

>  <population1>
877209

>  <population2>
40410

>  <population>
31549

>  <cansmi>
Oc1ccccc1CNC1CCCCC1

>  <HBA2>
2

>  <HBD>
2

>  <logP>
3.2054

>  <TPSA>
32.26

>  <MW>
205.296

$$$$

 OpenBabel02121609142D

 13 14  0  0  0  0  0  0  0  0999 V2000
   -0.8708   -0.5000    0.0000 N   0  0  0  0  0  0  0  0  0  0  0  0
   -0.8708    0.5000    0.0000 C   0  0  0  0  0  0  0  0  0  0  0  0
    0.0000   -1.0000    0.0000 C   0  0  0  0  0  0  0  0  0  0  0  0
   -1.7333    1.0000    0.0000 N   0  0  0  0  0  0  0  0  0  0  0  0
    0.8625   -0.5000    0.0000 N   0  0  0  0  0  0  0  0  0  0  0  0
    1.7292   -1.0000    0.0000 C   0  0  0  0  0  0  0  0  0  0  0  0
   -1.7333    2.0000    0.0000 C   0  0  0  0  0  0  0  0  0  0  0  0
    0.0000    1.0000    0.0000 C   0  0  0  0  0  0  0  0  0  0  0  0
    0.0000   -2.0000    0.0000 C   0  0  0  0  0  0  0  0  0  0  0  0
   -0.8708    2.5000    0.0000 C   0  0  0  0  0  0  0  0  0  0  0  0
    1.7292   -2.0000    0.0000 C   0  0  0  0  0  0  0  0  0  0  0  0
    0.8625   -2.5000    0.0000 C   0  0  0  0  0  0  0  0  0  0  0  0
    0.0000    2.0000    0.0000 C   0  0  0  0  0  0  0  0  0  0  0  0
  2  1  1  0  0  0  0
  3  1  1  0  0  0  0
  4  2  2  0  0  0  0
  5  3  2  0  0  0  0
  6  5  1  0  0  0  0
  6 11  2  0  0  0  0
  7  4  1  0  0  0  0
  7 10  2  0  0  0  0
  8  2  1  0  0  0  0
  9  3  1  0  0  0  0
 10 13  1  0  0  0  0
 11 12  1  0  0  0  0
 12  9  2  0  0  0  0
 13  8  2  0  0  0  0
M  END
>  <idnumber>
T0519-8228

>  <LogP>
1.938000000000000e+000

>  <rotating_bonds>
2.000000000000000e+000

>  <hb_acceptors>
3.000000000000000e+000

>  <hb_donors>
1.000000000000000e+000

>  <PSA>
3.781000000000000e+001

>  <clusterid>
-381

>  <is_centroid>
@

>  <class1>
632

>  <class2>
632

>  <population1>
79489

>  <population2>
79489

>  <population>
79489

>  <cansmi>
c1ccc(nc1)Nc1ccccn1

>  <HBA2>
2

>  <HBD>
1

>  <logP>
2.2932

>  <TPSA>
37.81

>  <MW>
171.199

$$$$

 OpenBabel02121609142D

 11 11  0  0  0  0  0  0  0  0999 V2000
    0.5042   -0.0667    0.0000 C   0  0  0  0  0  0  0  0  0  0  0  0
    1.8750    0.8000    0.0000 N   0  0  0  0  0  0  0  0  0  0  0  0
    0.8750    0.8625    0.0000 C   0  0  0  0  0  0  0  0  0  0  0  0
    1.2792   -0.7042    0.0000 C   0  0  0  0  0  0  0  0  0  0  0  0
   -0.4583   -0.3167    0.0000 C   0  0  0  0  0  0  0  0  0  0  0  0
    2.1250   -0.1667    0.0000 C   0  0  0  0  0  0  0  0  0  0  0  0
   -0.7250   -1.2792    0.0000 O   0  0  0  0  0  0  0  0  0  0  0  0
   -1.1583    0.3958    0.0000 O   0  0  0  0  0  0  0  0  0  0  0  0
    0.3375    1.7083    0.0000 C   0  0  0  0  0  0  0  0  0  0  0  0
    1.2167   -1.7000    0.0000 C   0  0  0  0  0  0  0  0  0  0  0  0
   -2.1333    0.1458    0.0000 C   0  0  0  0  0  0  0  0  0  0  0  0
  2  3  1  0  0  0  0
  3  1  2  0  0  0  0
  4  1  1  0  0  0  0
  5  1  1  0  0  0  0
  6  4  2  0  0  0  0
  6  2  1  0  0  0  0
  7  5  2  0  0  0  0
  8  5  1  0  0  0  0
  9  3  1  0  0  0  0
 10  4  1  0  0  0  0
 11  8  1  0  0  0  0
M  END
>  <idnumber>
T0519-8578

>  <LogP>
2.123000000000000e+000

>  <rotating_bonds>
2.000000000000000e+000

>  <hb_acceptors>
1.000000000000000e+000

>  <hb_donors>
1.000000000000000e+000

>  <PSA>
4.209000000000000e+001

>  <clusterid>
-384

>  <is_centroid>
@

>  <class1>
635

>  <population1>
31512

>  <population>
31512

>  <cansmi>
COC(=O)c1c(C)c[nH]c1C

>  <HBA2>
2

>  <HBD>
1

>  <logP>
1.4181

>  <TPSA>
42.09

>  <MW>
153.178

$$$$

 OpenBabel02121609142D

 20 22  0  0  0  0  0  0  0  0999 V2000
   -0.0083    0.2500    0.0000 N   0  0  0  0  0  0  0  0  0  0  0  0
   -0.8708   -0.2500    0.0000 C   0  0  0  0  0  0  0  0  0  0  0  0
   -0.0083    1.2500    0.0000 C   0  0  0  0  0  0  0  0  0  0  0  0
   -0.8708    1.7500    0.0000 N   0  0  0  0  0  0  0  0  0  0  0  0
   -1.7333    0.2500    0.0000 C   0  0  0  0  0  0  0  0  0  0  0  0
   -1.7333    1.2500    0.0000 C   0  0  0  0  0  0  0  0  0  0  0  0
    0.8625   -0.2500    0.0000 C   0  0  0  0  0  0  0  0  0  0  0  0
   -0.8708   -1.2417    0.0000 O   0  0  0  0  0  0  0  0  0  0  0  0
    0.8625   -1.2417    0.0000 C   0  0  0  0  0  0  0  0  0  0  0  0
    1.7292    0.2500    0.0000 C   0  0  0  0  0  0  0  0  0  0  0  0
    0.8625    1.7500    0.0000 C   0  0  0  0  0  0  0  0  0  0  0  0
   -2.6000   -0.2500    0.0000 C   0  0  0  0  0  0  0  0  0  0  0  0
    1.7292   -1.7500    0.0000 C   0  0  0  0  0  0  0  0  0  0  0  0
    2.5917   -0.2500    0.0000 C   0  0  0  0  0  0  0  0  0  0  0  0
    2.5917   -1.2417    0.0000 C   0  0  0  0  0  0  0  0  0  0  0  0
    1.7292    1.2500    0.0000 N   0  0  0  0  0  0  0  0  0  0  0  0
   -2.6000    1.7500    0.0000 C   0  0  0  0  0  0  0  0  0  0  0  0
    3.4625   -1.7500    0.0000 C   0  0  0  0  0  0  0  0  0  0  0  0
   -3.4708    0.2500    0.0000 C   0  0  0  0  0  0  0  0  0  0  0  0
   -3.4708    1.2500    0.0000 C   0  0  0  0  0  0  0  0  0  0  0  0
  2  1  1  0  0  0  0
  3  1  1  0  0  0  0
  4  3  2  0  0  0  0
  5  2  1  0  0  0  0
  5  6  2  0  0  0  0
  6  4  1  0  0  0  0
  7  1  1  0  0  0  0
  8  2  2  0  0  0  0
  9  7  2  0  0  0  0
 10  7  1  0  0  0  0
 11  3  1  0  0  0  0
 12  5  1  0  0  0  0
 13  9  1  0  0  0  0
 13 15  2  0  0  0  0
 14 10  2  0  0  0  0
 15 14  1  0  0  0  0
 16 11  1  0  0  0  0
 17  6  1  0  0  0  0
 18 15  1  0  0  0  0
 19 12  2  0  0  0  0
 20 17  2  0  0  0  0
 20 19  1  0  0  0  0
M  END
>  <idnumber>
T0519-9019

>  <LogP>
1.389000000000000e+000

>  <rotating_bonds>
2.000000000000000e+000

>  <hb_acceptors>
3.000000000000000e+000

>  <hb_donors>
1.000000000000000e+000

>  <PSA>
5.869000000000001e+001

>  <clusterid>
-386

>  <is_centroid>
@

>  <class1>
648

>  <class2>
625

>  <population1>
19152

>  <population2>
877209

>  <population>
19152

>  <cansmi>
NCc1nc2ccccc2c(=O)n1c1ccc(cc1)C

>  <HBA2>
4

>  <HBD>
1

>  <logP>
2.8531

>  <TPSA>
60.91

>  <MW>
265.31

$$$$

 OpenBabel02121609142D

 14 14  0  0  0  0  0  0  0  0999 V2000
   -0.3000   -1.2167    0.0000 N   0  0  0  0  0  0  0  0  0  0  0  0
    0.2875   -0.4042    0.0000 C   0  0  0  0  0  0  0  0  0  0  0  0
    0.2875   -2.0250    0.0000 C   0  0  0  0  0  0  0  0  0  0  0  0
    1.2375   -0.7167    0.0000 S   0  0  0  0  0  0  0  0  0  0  0  0
   -0.0208   -2.9750    0.0000 O   0  0  0  0  0  0  0  0  0  0  0  0
    1.2375   -1.7167    0.0000 C   0  0  0  0  0  0  0  0  0  0  0  0
   -0.0208    0.5458    0.0000 C   0  0  0  0  0  0  0  0  0  0  0  0
   -2.3000    0.2833    0.0000 Cl  0  0  0  0  0  0  0  0  0  0  0  0
    0.6500    1.2875    0.0000 C   0  0  0  0  0  0  0  0  0  0  0  0
    1.6250    1.0833    0.0000 C   0  0  0  0  0  0  0  0  0  0  0  0
    0.3375    2.2375    0.0000 C   0  0  0  0  0  0  0  0  0  0  0  0
    1.0042    2.9833    0.0000 C   0  0  0  0  0  0  0  0  0  0  0  0
    2.2917    1.8208    0.0000 C   0  0  0  0  0  0  0  0  0  0  0  0
    1.9875    2.7708    0.0000 C   0  0  0  0  0  0  0  0  0  0  0  0
  2  1  2  0  0  0  0
  3  1  1  0  0  0  0
  4  2  1  0  0  0  0
  5  3  2  0  0  0  0
  6  3  1  0  0  0  0
  6  4  1  0  0  0  0
  7  2  1  0  0  0  0
  9  7  1  0  0  0  0
 10  9  1  0  0  0  0
 11  9  2  0  0  0  0
 12 11  1  0  0  0  0
 13 10  2  0  0  0  0
 13 14  1  0  0  0  0
 14 12  2  0  0  0  0
M  END
>  <idnumber>
T0519-9092

>  <saltdata>
HCI

>  <LogP>
1.368000000000000e+000

>  <rotating_bonds>
2.000000000000000e+000

>  <hb_acceptors>
3.000000000000000e+000

>  <hb_donors>
0.000000000000000e+000

>  <PSA>
5.473000000000000e+001

>  <clusterid>
-388

>  <is_centroid>
@

>  <class1>
625

>  <class2>
978

>  <population1>
877209

>  <population2>
929

>  <population>
897

>  <cansmi>
O=C1CSC(=N1)Cc1ccccc1.Cl

>  <HBA2>
3

>  <HBD>
1

>  <logP>
2.1386

>  <TPSA>
54.73

>  <MW>
227.711

$$$$

 OpenBabel02121609142D

 15 17  0  0  0  0  0  0  0  0999 V2000
    0.1292    0.0000    0.0000 C   0  0  0  0  0  0  0  0  0  0  0  0
   -0.4583    0.8125    0.0000 N   0  0  0  0  0  0  0  0  0  0  0  0
   -0.4583   -0.8042    0.0000 S   0  0  0  0  0  0  0  0  0  0  0  0
   -1.4083    0.5000    0.0000 C   0  0  0  0  0  0  0  0  0  0  0  0
   -1.4083   -0.5000    0.0000 C   0  0  0  0  0  0  0  0  0  0  0  0
    1.1292    0.0000    0.0000 C   0  0  0  0  0  0  0  0  0  0  0  0
    1.6292   -0.8625    0.0000 N   0  0  0  0  0  0  0  0  0  0  0  0
   -2.2708    1.0000    0.0000 C   0  0  0  0  0  0  0  0  0  0  0  0
   -2.2708   -1.0000    0.0000 C   0  0  0  0  0  0  0  0  0  0  0  0
    2.6292   -0.8625    0.0000 C   0  0  0  0  0  0  0  0  0  0  0  0
    1.6292    0.8708    0.0000 C   0  0  0  0  0  0  0  0  0  0  0  0
    3.1292    0.0000    0.0000 C   0  0  0  0  0  0  0  0  0  0  0  0
   -3.1375   -0.5000    0.0000 C   0  0  0  0  0  0  0  0  0  0  0  0
   -3.1375    0.5000    0.0000 C   0  0  0  0  0  0  0  0  0  0  0  0
    2.6292    0.8708    0.0000 C   0  0  0  0  0  0  0  0  0  0  0  0
  2  1  2  0  0  0  0
  3  1  1  0  0  0  0
  4  2  1  0  0  0  0
  4  5  2  0  0  0  0
  5  3  1  0  0  0  0
  6  1  1  0  0  0  0
  7  6  2  0  0  0  0
  8  4  1  0  0  0  0
  9  5  1  0  0  0  0
 10  7  1  0  0  0  0
 10 12  2  0  0  0  0
 11  6  1  0  0  0  0
 12 15  1  0  0  0  0
 13  9  2  0  0  0  0
 14  8  2  0  0  0  0
 14 13  1  0  0  0  0
 15 11  2  0  0  0  0
M  END
>  <idnumber>
T0520-0650

>  <LogP>
2.978000000000000e+000

>  <rotating_bonds>
1.000000000000000e+000

>  <hb_acceptors>
3.000000000000000e+000

>  <hb_donors>
0.000000000000000e+000

>  <PSA>
5.402000000000000e+001

>  <clusterid>
-390

>  <is_centroid>
@

>  <class1>
640

>  <class2>
632

>  <population1>
23901

>  <population2>
79489

>  <population>
1011

>  <cansmi>
c1ccc(nc1)c1nc2c(s1)cccc2

>  <HBA2>
3

>  <HBD>
0

>  <logP>
3.3583

>  <TPSA>
54.02

>  <MW>
212.27

$$$$

 OpenBabel02121609142D

 14 15  0  0  0  0  0  0  0  0999 V2000
    0.4042   -0.1417    0.0000 N   0  0  0  0  0  0  0  0  0  0  0  0
    1.3542   -0.4500    0.0000 C   0  0  0  0  0  0  0  0  0  0  0  0
   -0.1833   -0.9500    0.0000 N   0  0  0  0  0  0  0  0  0  0  0  0
    1.3542   -1.4500    0.0000 C   0  0  0  0  0  0  0  0  0  0  0  0
    0.0917    0.8125    0.0000 C   0  0  0  0  0  0  0  0  0  0  0  0
    0.4042   -1.7542    0.0000 C   0  0  0  0  0  0  0  0  0  0  0  0
   -0.8833    1.0208    0.0000 C   0  0  0  0  0  0  0  0  0  0  0  0
    2.1667    0.1375    0.0000 N   0  0  0  0  0  0  0  0  0  0  0  0
   -1.1958    1.9708    0.0000 C   0  0  0  0  0  0  0  0  0  0  0  0
    0.7667    1.5583    0.0000 C   0  0  0  0  0  0  0  0  0  0  0  0
    0.4542    2.5083    0.0000 C   0  0  0  0  0  0  0  0  0  0  0  0
    0.0917   -2.7042    0.0000 C   0  0  0  0  0  0  0  0  0  0  0  0
   -0.5208    2.7125    0.0000 C   0  0  0  0  0  0  0  0  0  0  0  0
   -2.1708    2.1833    0.0000 C   0  0  0  0  0  0  0  0  0  0  0  0
  2  1  1  0  0  0  0
  3  1  1  0  0  0  0
  4  2  2  0  0  0  0
  5  1  1  0  0  0  0
  6  3  2  0  0  0  0
  6  4  1  0  0  0  0
  7  5  2  0  0  0  0
  8  2  1  0  0  0  0
  9  7  1  0  0  0  0
  9 13  2  0  0  0  0
 10  5  1  0  0  0  0
 11 10  2  0  0  0  0
 12  6  1  0  0  0  0
 13 11  1  0  0  0  0
 14  9  1  0  0  0  0
M  END
>  <idnumber>
T0520-2111

>  <LogP>
2.180000000000000e+000

>  <rotating_bonds>
1.000000000000000e+000

>  <hb_acceptors>
2.000000000000000e+000

>  <hb_donors>
1.000000000000000e+000

>  <PSA>
4.384000000000000e+001

>  <clusterid>
120

>  <is_centroid>
@

>  <class1>
631

>  <class2>
625

>  <population1>
41612

>  <population2>
877209

>  <population>
39300

>  <cansmi>
Cc1cccc(c1)n1nc(cc1N)C

>  <HBA2>
3

>  <HBD>
1

>  <logP>
2.6525

>  <TPSA>
43.84

>  <MW>
187.241

$$$$

 OpenBabel02121609142D

 15 16  0  0  0  0  0  0  0  0999 V2000
    0.4875   -0.2292    0.0000 C   0  0  0  0  0  0  0  0  0  0  0  0
    0.1792   -1.1792    0.0000 C   0  0  0  0  0  0  0  0  0  0  0  0
    0.1250    1.4708    0.0000 N   0  0  0  0  0  0  0  0  0  0  0  0
   -0.1833    0.5208    0.0000 C   0  0  0  0  0  0  0  0  0  0  0  0
   -0.8000   -1.3875    0.0000 C   0  0  0  0  0  0  0  0  0  0  0  0
    1.4667   -0.0167    0.0000 O   0  0  0  0  0  0  0  0  0  0  0  0
   -1.4708   -0.6417    0.0000 Br  0  0  0  0  0  0  0  0  0  0  0  0
    0.8417   -1.9167    0.0000 C   0  0  0  0  0  0  0  0  0  0  0  0
    1.0792    1.7750    0.0000 C   0  0  0  0  0  0  0  0  0  0  0  0
   -0.4625    2.2750    0.0000 C   0  0  0  0  0  0  0  0  0  0  0  0
   -1.1083   -2.3375    0.0000 C   0  0  0  0  0  0  0  0  0  0  0  0
    0.5375   -2.8667    0.0000 C   0  0  0  0  0  0  0  0  0  0  0  0
    0.1250    3.0833    0.0000 C   0  0  0  0  0  0  0  0  0  0  0  0
    1.0792    2.7750    0.0000 C   0  0  0  0  0  0  0  0  0  0  0  0
   -0.4458   -3.0792    0.0000 C   0  0  0  0  0  0  0  0  0  0  0  0
  2  1  1  0  0  0  0
  3  4  1  0  0  0  0
  4  1  1  0  0  0  0
  5  2  2  0  0  0  0
  6  1  2  0  0  0  0
  7  5  1  0  0  0  0
  8  2  1  0  0  0  0
  9  3  1  0  0  0  0
 10  3  1  0  0  0  0
 11  5  1  0  0  0  0
 11 15  2  0  0  0  0
 12  8  2  0  0  0  0
 13 10  1  0  0  0  0
 14  9  1  0  0  0  0
 14 13  1  0  0  0  0
 15 12  1  0  0  0  0
M  END
>  <idnumber>
T0520-3970

>  <LogP>
2.911000000000000e+000

>  <rotating_bonds>
3.000000000000000e+000

>  <hb_acceptors>
2.000000000000000e+000

>  <hb_donors>
0.000000000000000e+000

>  <PSA>
2.031000000000000e+001

>  <clusterid>
-393

>  <is_centroid>
@

>  <class1>
625

>  <class2>
642

>  <population1>
877209

>  <population2>
51183

>  <population>
48174

>  <cansmi>
O=C(c1ccccc1Br)CN1CCCC1

>  <HBA2>
2

>  <HBD>
0

>  <logP>
2.6655

>  <TPSA>
20.31

>  <MW>
268.15

$$$$

 OpenBabel02121609142D

 11 11  0  0  0  0  0  0  0  0999 V2000
    0.0417    0.5083    0.0000 C   0  0  0  0  0  0  0  0  0  0  0  0
    0.8167    1.1458    0.0000 S   0  0  0  0  0  0  0  0  0  0  0  0
    1.6542    0.6083    0.0000 C   0  0  0  0  0  0  0  0  0  0  0  0
    1.4042   -0.3667    0.0000 C   0  0  0  0  0  0  0  0  0  0  0  0
    0.4125   -0.4250    0.0000 C   0  0  0  0  0  0  0  0  0  0  0  0
   -0.9250    0.7583    0.0000 N   0  0  0  0  0  0  0  0  0  0  0  0
   -1.6250    0.0458    0.0000 C   0  0  0  0  0  0  0  0  0  0  0  0
   -2.5958    0.2958    0.0000 O   0  0  0  0  0  0  0  0  0  0  0  0
    2.5875    0.9708    0.0000 C   0  0  0  0  0  0  0  0  0  0  0  0
    2.0417   -1.1375    0.0000 C   0  0  0  0  0  0  0  0  0  0  0  0
   -1.3583   -0.9167    0.0000 C   0  0  0  0  0  0  0  0  0  0  0  0
  2  1  1  0  0  0  0
  3  2  1  0  0  0  0
  4  5  1  0  0  0  0
  4  3  2  0  0  0  0
  5  1  2  0  0  0  0
  6  1  1  0  0  0  0
  7  6  1  0  0  0  0
  8  7  2  0  0  0  0
  9  3  1  0  0  0  0
 10  4  1  0  0  0  0
 11  7  1  0  0  0  0
M  END
>  <idnumber>
T0520-5722

>  <LogP>
1.939000000000000e+000

>  <rotating_bonds>
1.000000000000000e+000

>  <hb_acceptors>
2.000000000000000e+000

>  <hb_donors>
1.000000000000000e+000

>  <PSA>
5.734000000000000e+001

>  <clusterid>
-395

>  <is_centroid>
@

>  <class1>
645

>  <population1>
105961

>  <population>
105961

>  <cansmi>
CC(=O)Nc1sc(c(c1)C)C

>  <HBA2>
3

>  <HBD>
1

>  <logP>
2.3963

>  <TPSA>
57.34

>  <MW>
169.244

$$$$

 OpenBabel02121609142D

 15 16  0  0  0  0  0  0  0  0999 V2000
   -0.6708   -0.9125    0.0000 C   0  0  0  0  0  0  0  0  0  0  0  0
   -0.3625    0.0458    0.0000 N   0  0  0  0  0  0  0  0  0  0  0  0
   -1.3083    2.5458    0.0000 S   0  0  0  0  0  0  0  0  0  0  0  0
   -0.7208    1.7333    0.0000 C   0  0  0  0  0  0  0  0  0  0  0  0
   -0.7208    3.3583    0.0000 C   0  0  0  0  0  0  0  0  0  0  0  0
   -1.6500   -1.1167    0.0000 O   0  0  0  0  0  0  0  0  0  0  0  0
    0.2292    2.0458    0.0000 C   0  0  0  0  0  0  0  0  0  0  0  0
    0.2292    3.0458    0.0000 C   0  0  0  0  0  0  0  0  0  0  0  0
    0.0000   -1.6542    0.0000 C   0  0  0  0  0  0  0  0  0  0  0  0
   -1.0333    0.7833    0.0000 C   0  0  0  0  0  0  0  0  0  0  0  0
   -0.3125   -2.6042    0.0000 C   0  0  0  0  0  0  0  0  0  0  0  0
    0.9750   -1.4417    0.0000 C   0  0  0  0  0  0  0  0  0  0  0  0
    1.6417   -2.1875    0.0000 C   0  0  0  0  0  0  0  0  0  0  0  0
    0.3542   -3.3500    0.0000 C   0  0  0  0  0  0  0  0  0  0  0  0
    1.3375   -3.1417    0.0000 C   0  0  0  0  0  0  0  0  0  0  0  0
  2  1  1  0  0  0  0
  3  4  1  0  0  0  0
  4 10  1  0  0  0  0
  5  3  1  0  0  0  0
  6  1  2  0  0  0  0
  7  4  2  0  0  0  0
  8  7  1  0  0  0  0
  8  5  2  0  0  0  0
  9  1  1  0  0  0  0
 10  2  1  0  0  0  0
 11  9  1  0  0  0  0
 12  9  1  0  0  0  0
 13 12  1  0  0  0  0
 14 11  1  0  0  0  0
 14 15  1  0  0  0  0
 15 13  1  0  0  0  0
M  END
>  <idnumber>
T0520-7811

>  <LogP>
2.627000000000000e+000

>  <rotating_bonds>
3.000000000000000e+000

>  <hb_acceptors>
2.000000000000000e+000

>  <hb_donors>
1.000000000000000e+000

>  <PSA>
5.734000000000000e+001

>  <clusterid>
-396

>  <is_centroid>
@

>  <class1>
645

>  <class2>
797

>  <population1>
105961

>  <population2>
40410

>  <population>
2655

>  <cansmi>
O=C(C1CCCCC1)NCc1cccs1

>  <HBA2>
3

>  <HBD>
1

>  <logP>
3.3355

>  <TPSA>
57.34

>  <MW>
223.334

$$$$

 OpenBabel02121609142D

 12 13  0  0  0  0  0  0  0  0999 V2000
    1.6667    1.2250    0.0000 C   0  0  0  0  0  0  0  0  0  0  0  0
    0.6667    1.2250    0.0000 C   0  0  0  0  0  0  0  0  0  0  0  0
    2.5292    0.7250    0.0000 C   0  0  0  0  0  0  0  0  0  0  0  0
    2.5292    1.7250    0.0000 C   0  0  0  0  0  0  0  0  0  0  0  0
    0.1667    0.3583    0.0000 N   0  0  0  0  0  0  0  0  0  0  0  0
   -0.9333   -1.4167    0.0000 S   0  0  0  0  0  0  0  0  0  0  0  0
   -1.3333   -0.5042    0.0000 C   0  0  0  0  0  0  0  0  0  0  0  0
   -1.6708   -2.0875    0.0000 C   0  0  0  0  0  0  0  0  0  0  0  0
    0.1667    2.0958    0.0000 O   0  0  0  0  0  0  0  0  0  0  0  0
   -2.3333   -0.6042    0.0000 C   0  0  0  0  0  0  0  0  0  0  0  0
   -2.5375   -1.5875    0.0000 C   0  0  0  0  0  0  0  0  0  0  0  0
   -0.8333    0.3583    0.0000 C   0  0  0  0  0  0  0  0  0  0  0  0
  2  1  1  0  0  0  0
  3  1  1  0  0  0  0
  3  4  1  0  0  0  0
  4  1  1  0  0  0  0
  5  2  1  0  0  0  0
  6  7  1  0  0  0  0
  7 12  1  0  0  0  0
  8  6  1  0  0  0  0
  9  2  2  0  0  0  0
 10  7  2  0  0  0  0
 11 10  1  0  0  0  0
 11  8  2  0  0  0  0
 12  5  1  0  0  0  0
M  END
>  <idnumber>
T0520-8103

>  <LogP>
9.500000000000002e-001

>  <rotating_bonds>
3.000000000000000e+000

>  <hb_acceptors>
2.000000000000000e+000

>  <hb_donors>
1.000000000000000e+000

>  <PSA>
5.734000000000000e+001

>  <clusterid>
-397

>  <is_centroid>
@

>  <class1>
675

>  <class2>
645

>  <population1>
33654

>  <population2>
105961

>  <population>
3849

>  <cansmi>
O=C(C1CC1)NCc1cccs1

>  <HBA2>
3

>  <HBD>
1

>  <logP>
2.1652

>  <TPSA>
57.34

>  <MW>
181.255

$$$$

 OpenBabel02121609142D

 15 15  0  0  0  0  0  0  0  0999 V2000
    1.0542    0.2583    0.0000 N   0  0  0  0  0  0  0  0  0  0  0  0
    0.1000    0.5708    0.0000 C   0  0  0  0  0  0  0  0  0  0  0  0
    1.3625   -0.6917    0.0000 C   0  0  0  0  0  0  0  0  0  0  0  0
    1.6417    1.0708    0.0000 C   0  0  0  0  0  0  0  0  0  0  0  0
    0.1000    1.5708    0.0000 C   0  0  0  0  0  0  0  0  0  0  0  0
    0.6917   -1.4375    0.0000 O   0  0  0  0  0  0  0  0  0  0  0  0
    1.0542    1.8750    0.0000 C   0  0  0  0  0  0  0  0  0  0  0  0
    2.6500   -1.8542    0.0000 N   0  0  0  0  0  0  0  0  0  0  0  0
    2.3417   -0.9042    0.0000 C   0  0  0  0  0  0  0  0  0  0  0  0
   -3.6333    0.1875    0.0000 Cl  0  0  0  0  0  0  0  0  0  0  0  0
   -0.7708    0.0708    0.0000 C   0  0  0  0  0  0  0  0  0  0  0  0
   -0.7708    2.0708    0.0000 C   0  0  0  0  0  0  0  0  0  0  0  0
    3.6250   -2.0625    0.0000 C   0  0  0  0  0  0  0  0  0  0  0  0
   -1.6333    0.5708    0.0000 C   0  0  0  0  0  0  0  0  0  0  0  0
   -1.6333    1.5708    0.0000 C   0  0  0  0  0  0  0  0  0  0  0  0
  2  1  1  0  0  0  0
  3  1  1  0  0  0  0
  4  1  1  0  0  0  0
  5  2  2  0  0  0  0
  6  3  2  0  0  0  0
  7  4  1  0  0  0  0
  7  5  1  0  0  0  0
  8  9  1  0  0  0  0
  9  3  1  0  0  0  0
 11  2  1  0  0  0  0
 12  5  1  0  0  0  0
 12 15  2  0  0  0  0
 13  8  1  0  0  0  0
 14 11  2  0  0  0  0
 15 14  1  0  0  0  0
M  END
>  <idnumber>
T5211095

>  <saltdata>
HCl

>  <LogP>
1.051000000000000e+000

>  <rotating_bonds>
2.000000000000000e+000

>  <hb_acceptors>
2.000000000000000e+000

>  <hb_donors>
1.000000000000000e+000

>  <PSA>
3.234000000000000e+001

>  <clusterid>
171

>  <is_centroid>
@

>  <class1>
732

>  <population1>
13534

>  <population>
13534

>  <cansmi>
CNCC(=O)N1CCc2c1cccc2.Cl

>  <HBA2>
3

>  <HBD>
2

>  <logP>
2.053

>  <TPSA>
32.34

>  <MW>
226.703

$$$$

 OpenBabel02121609142D

 16 17  0  0  0  0  0  0  0  0999 V2000
   -0.4333    0.2500    0.0000 N   0  0  0  0  0  0  0  0  0  0  0  0
    0.4292   -0.2500    0.0000 C   0  0  0  0  0  0  0  0  0  0  0  0
    0.4292   -1.2500    0.0000 C   0  0  0  0  0  0  0  0  0  0  0  0
   -0.4333   -1.7500    0.0000 N   0  0  0  0  0  0  0  0  0  0  0  0
   -1.3000   -0.2500    0.0000 C   0  0  0  0  0  0  0  0  0  0  0  0
   -1.3000   -1.2500    0.0000 C   0  0  0  0  0  0  0  0  0  0  0  0
    1.2917    0.2500    0.0000 N   0  0  0  0  0  0  0  0  0  0  0  0
    1.2917   -1.7500    0.0000 O   0  0  0  0  0  0  0  0  0  0  0  0
   -2.1708    0.2500    0.0000 C   0  0  0  0  0  0  0  0  0  0  0  0
   -2.1708   -1.7500    0.0000 C   0  0  0  0  0  0  0  0  0  0  0  0
    1.2917    1.2500    0.0000 C   0  0  0  0  0  0  0  0  0  0  0  0
    2.1625   -0.2500    0.0000 C   0  0  0  0  0  0  0  0  0  0  0  0
    2.1625    1.7500    0.0000 C   0  0  0  0  0  0  0  0  0  0  0  0
    3.0292    0.2500    0.0000 C   0  0  0  0  0  0  0  0  0  0  0  0
   -3.0333   -1.2500    0.0000 C   0  0  0  0  0  0  0  0  0  0  0  0
   -3.0333   -0.2500    0.0000 C   0  0  0  0  0  0  0  0  0  0  0  0
  2  1  2  0  0  0  0
  3  2  1  0  0  0  0
  4  6  1  0  0  0  0
  4  3  1  0  0  0  0
  5  1  1  0  0  0  0
  6  5  2  0  0  0  0
  7  2  1  0  0  0  0
  8  3  2  0  0  0  0
  9  5  1  0  0  0  0
 10  6  1  0  0  0  0
 10 15  2  0  0  0  0
 11  7  1  0  0  0  0
 12  7  1  0  0  0  0
 13 11  1  0  0  0  0
 14 12  1  0  0  0  0
 15 16  1  0  0  0  0
 16  9  2  0  0  0  0
M  END
>  <idnumber>
T5212557

>  <LogP>
2.184000000000000e+000

>  <rotating_bonds>
3.000000000000000e+000

>  <hb_acceptors>
3.000000000000000e+000

>  <hb_donors>
1.000000000000000e+000

>  <PSA>
4.470000000000000e+001

>  <clusterid>
-400

>  <is_centroid>
@

>  <class1>
802

>  <population1>
1299

>  <population>
1299

>  <cansmi>
CCN(c1nc2ccccc2[nH]c1=O)CC

>  <HBA2>
3

>  <HBD>
1

>  <logP>
1.7693

>  <TPSA>
48.99

>  <MW>
217.267

$$$$

 OpenBabel02121609142D

 11 11  0  0  0  0  0  0  0  0999 V2000
    0.0000    0.2500    0.0000 C   0  0  0  0  0  0  0  0  0  0  0  0
    0.8625    0.7500    0.0000 N   0  0  0  0  0  0  0  0  0  0  0  0
    0.0000   -0.7500    0.0000 C   0  0  0  0  0  0  0  0  0  0  0  0
   -0.8708    0.7500    0.0000 C   0  0  0  0  0  0  0  0  0  0  0  0
    0.8625   -1.2500    0.0000 N   0  0  0  0  0  0  0  0  0  0  0  0
   -1.7333    0.2500    0.0000 O   0  0  0  0  0  0  0  0  0  0  0  0
    0.8625    1.7500    0.0000 C   0  0  0  0  0  0  0  0  0  0  0  0
   -0.8708    1.7500    0.0000 C   0  0  0  0  0  0  0  0  0  0  0  0
    0.8625   -2.2500    0.0000 C   0  0  0  0  0  0  0  0  0  0  0  0
    1.7292   -0.7500    0.0000 C   0  0  0  0  0  0  0  0  0  0  0  0
    0.0000    2.2500    0.0000 C   0  0  0  0  0  0  0  0  0  0  0  0
  2  1  1  0  0  0  0
  3  1  1  0  0  0  0
  4  1  2  0  0  0  0
  5  3  1  0  0  0  0
  6  4  1  0  0  0  0
  7  2  2  0  0  0  0
  7 11  1  0  0  0  0
  8  4  1  0  0  0  0
  9  5  1  0  0  0  0
 10  5  1  0  0  0  0
 11  8  2  0  0  0  0
M  END
>  <idnumber>
T5212618

>  <LogP>
7.160000000000000e-001

>  <rotating_bonds>
2.000000000000000e+000

>  <hb_acceptors>
3.000000000000000e+000

>  <hb_donors>
1.000000000000000e+000

>  <PSA>
3.636000000000000e+001

>  <clusterid>
-402

>  <is_centroid>
@

>  <class1>
632

>  <population1>
79489

>  <population>
79489

>  <cansmi>
CN(Cc1ncccc1O)C

>  <HBA2>
3

>  <HBD>
1

>  <logP>
0.8488

>  <TPSA>
36.36

>  <MW>
152.194

$$$$

 OpenBabel02121609142D

 22 24  0  0  0  0  0  0  0  0999 V2000
   -0.8708    0.0000    0.0000 C   0  0  0  0  0  0  0  0  0  0  0  0
   -0.8708    1.0000    0.0000 C   0  0  0  0  0  0  0  0  0  0  0  0
    0.0000   -0.5000    0.0000 N   0  0  0  0  0  0  0  0  0  0  0  0
    1.7292   -1.5000    0.0000 N   0  0  0  0  0  0  0  0  0  0  0  0
   -0.8708    3.0000    0.0000 N   0  0  0  0  0  0  0  0  0  0  0  0
   -1.7333    1.5000    0.0000 C   0  0  0  0  0  0  0  0  0  0  0  0
    2.5917   -2.0000    0.0000 C   0  0  0  0  0  0  0  0  0  0  0  0
   -1.7333    2.5000    0.0000 C   0  0  0  0  0  0  0  0  0  0  0  0
    0.0000    1.5000    0.0000 C   0  0  0  0  0  0  0  0  0  0  0  0
    0.0000    2.5000    0.0000 C   0  0  0  0  0  0  0  0  0  0  0  0
   -1.7333   -0.5000    0.0000 O   0  0  0  0  0  0  0  0  0  0  0  0
    0.8625    0.0000    0.0000 C   0  0  0  0  0  0  0  0  0  0  0  0
    0.0000   -1.5000    0.0000 C   0  0  0  0  0  0  0  0  0  0  0  0
    1.7292   -0.5000    0.0000 C   0  0  0  0  0  0  0  0  0  0  0  0
    0.8625   -2.0000    0.0000 C   0  0  0  0  0  0  0  0  0  0  0  0
    3.4625   -1.5000    0.0000 O   0  0  0  0  0  0  0  0  0  0  0  0
    2.5917   -3.0000    0.0000 C   0  0  0  0  0  0  0  0  0  0  0  0
   -2.6000    1.0000    0.0000 C   0  0  0  0  0  0  0  0  0  0  0  0
   -2.6000    3.0000    0.0000 C   0  0  0  0  0  0  0  0  0  0  0  0
    0.8625    3.0000    0.0000 C   0  0  0  0  0  0  0  0  0  0  0  0
   -3.4708    1.5000    0.0000 C   0  0  0  0  0  0  0  0  0  0  0  0
   -3.4708    2.5000    0.0000 C   0  0  0  0  0  0  0  0  0  0  0  0
  2  1  1  0  0  0  0
  3  1  1  0  0  0  0
  4 15  1  0  0  0  0
  4 14  1  0  0  0  0
  5 10  1  0  0  0  0
  6  2  2  0  0  0  0
  7  4  1  0  0  0  0
  8  6  1  0  0  0  0
  8  5  2  0  0  0  0
  9  2  1  0  0  0  0
 10  9  2  0  0  0  0
 11  1  2  0  0  0  0
 12  3  1  0  0  0  0
 13  3  1  0  0  0  0
 14 12  1  0  0  0  0
 15 13  1  0  0  0  0
 16  7  2  0  0  0  0
 17  7  1  0  0  0  0
 18  6  1  0  0  0  0
 19  8  1  0  0  0  0
 19 22  2  0  0  0  0
 20 10  1  0  0  0  0
 21 18  2  0  0  0  0
 22 21  1  0  0  0  0
M  END
>  <idnumber>
T5214575

>  <LogP>
1.135000000000000e+000

>  <rotating_bonds>
1.000000000000000e+000

>  <hb_acceptors>
3.000000000000000e+000

>  <hb_donors>
0.000000000000000e+000

>  <PSA>
5.351000000000000e+001

>  <clusterid>
-403

>  <is_centroid>
@

>  <class1>
717

>  <class2>
682

>  <population1>
74368

>  <population2>
20351

>  <population>
1156

>  <cansmi>
CC(=O)N1CCN(CC1)C(=O)c1cc(C)nc2c1cccc2

>  <HBA2>
5

>  <HBD>
0

>  <logP>
1.7233

>  <TPSA>
53.51

>  <MW>
297.352

$$$$

 OpenBabel02121609142D

 14 15  0  0  0  0  0  0  0  0999 V2000
    0.6292    0.0000    0.0000 C   0  0  0  0  0  0  0  0  0  0  0  0
    0.0417   -0.8042    0.0000 N   0  0  0  0  0  0  0  0  0  0  0  0
    0.0417    0.8125    0.0000 N   0  0  0  0  0  0  0  0  0  0  0  0
   -0.9083    0.5000    0.0000 C   0  0  0  0  0  0  0  0  0  0  0  0
   -0.9083   -0.5000    0.0000 C   0  0  0  0  0  0  0  0  0  0  0  0
    1.6292    0.0000    0.0000 C   0  0  0  0  0  0  0  0  0  0  0  0
    2.1292   -0.8625    0.0000 C   0  0  0  0  0  0  0  0  0  0  0  0
    2.6292   -1.7292    0.0000 N   0  0  0  0  0  0  0  0  0  0  0  0
    0.3542   -1.7542    0.0000 C   0  0  0  0  0  0  0  0  0  0  0  0
    0.3542    1.7625    0.0000 C   0  0  0  0  0  0  0  0  0  0  0  0
   -1.7708   -1.0000    0.0000 C   0  0  0  0  0  0  0  0  0  0  0  0
   -1.7708    1.0000    0.0000 C   0  0  0  0  0  0  0  0  0  0  0  0
   -2.6375    0.5000    0.0000 C   0  0  0  0  0  0  0  0  0  0  0  0
   -2.6375   -0.5000    0.0000 C   0  0  0  0  0  0  0  0  0  0  0  0
  2  1  1  0  0  0  0
  3  1  1  0  0  0  0
  4  3  1  0  0  0  0
  4  5  2  0  0  0  0
  5  2  1  0  0  0  0
  6  1  2  0  0  0  0
  7  6  1  0  0  0  0
  8  7  3  0  0  0  0
  9  2  1  0  0  0  0
 10  3  1  0  0  0  0
 11  5  1  0  0  0  0
 12  4  1  0  0  0  0
 13 12  2  0  0  0  0
 13 14  1  0  0  0  0
 14 11  2  0  0  0  0
M  END
>  <idnumber>
T5214822

>  <LogP>
2.667000000000000e+000

>  <rotating_bonds>
1.000000000000000e+000

>  <hb_acceptors>
3.000000000000000e+000

>  <hb_donors>
0.000000000000000e+000

>  <PSA>
3.027000000000000e+001

>  <clusterid>
-404

>  <is_centroid>
@

>  <class1>
628

>  <population1>
5448

>  <population>
5448

>  <cansmi>
N#CC=c1n(C)c2c(n1C)cccc2

>  <HBA2>
3

>  <HBD>
0

>  <logP>
1.10198

>  <TPSA>
33.65

>  <MW>
185.225

$$$$

 OpenBabel02121609142D

 11 12  0  0  0  0  0  0  0  0999 V2000
   -0.2333    0.5000    0.0000 C   0  0  0  0  0  0  0  0  0  0  0  0
   -0.2333   -0.5000    0.0000 C   0  0  0  0  0  0  0  0  0  0  0  0
    0.5500    1.1250    0.0000 O   0  0  0  0  0  0  0  0  0  0  0  0
    0.5500   -1.1167    0.0000 O   0  0  0  0  0  0  0  0  0  0  0  0
    1.9542    0.0000    0.0000 C   0  0  0  0  0  0  0  0  0  0  0  0
    1.5250    0.9083    0.0000 C   0  0  0  0  0  0  0  0  0  0  0  0
    1.5250   -0.9000    0.0000 C   0  0  0  0  0  0  0  0  0  0  0  0
   -1.0958   -1.0000    0.0000 C   0  0  0  0  0  0  0  0  0  0  0  0
   -1.0958    1.0000    0.0000 C   0  0  0  0  0  0  0  0  0  0  0  0
   -1.9708    0.5000    0.0000 C   0  0  0  0  0  0  0  0  0  0  0  0
   -1.9708   -0.5000    0.0000 C   0  0  0  0  0  0  0  0  0  0  0  0
  2  1  2  0  0  0  0
  3  1  1  0  0  0  0
  4  2  1  0  0  0  0
  5  6  1  0  0  0  0
  5  7  1  0  0  0  0
  6  3  1  0  0  0  0
  7  4  1  0  0  0  0
  8  2  1  0  0  0  0
  8 11  2  0  0  0  0
  9  1  1  0  0  0  0
 10  9  2  0  0  0  0
 11 10  1  0  0  0  0
M  END
>  <idnumber>
T5219102

>  <LogP>
2.225000000000000e+000

>  <rotating_bonds>
0.000000000000000e+000

>  <hb_acceptors>
2.000000000000000e+000

>  <hb_donors>
0.000000000000000e+000

>  <PSA>
1.846000000000000e+001

>  <clusterid>
-409

>  <is_centroid>
@

>  <class1>
820

>  <population1>
6542

>  <population>
6542

>  <cansmi>
C1COc2c(OC1)cccc2

>  <HBA2>
2

>  <HBD>
0

>  <logP>
1.8479

>  <TPSA>
18.46

>  <MW>
150.175

$$$$

 OpenBabel02121609142D

 12 11  0  0  0  0  0  0  0  0999 V2000
    3.0292    0.1208    0.0000 S   0  0  0  0  0  0  0  0  0  0  0  0
    2.2875    0.7958    0.0000 C   0  0  0  0  0  0  0  0  0  0  0  0
    4.0250    0.0333    0.0000 O   0  0  0  0  0  0  0  0  0  0  0  0
    3.9042    0.6083    0.0000 O   0  0  0  0  0  0  0  0  0  0  0  0
    2.6167   -0.7917    0.0000 C   0  0  0  0  0  0  0  0  0  0  0  0
    1.4167    0.2958    0.0000 C   0  0  3  0  0  0  0  0  0  0  0  0
    1.6250   -0.6792    0.0000 C   0  0  0  0  0  0  0  0  0  0  0  0
    0.5042    0.7083    0.0000 N   0  0  0  0  0  0  0  0  0  0  0  0
   -4.0333    0.1583    0.0000 Cl  0  0  0  0  0  0  0  0  0  0  0  0
   -0.3083    0.1250    0.0000 C   0  0  0  0  0  0  0  0  0  0  0  0
   -1.2208    0.5333    0.0000 C   0  0  0  0  0  0  0  0  0  0  0  0
   -2.0333   -0.0500    0.0000 C   0  0  0  0  0  0  0  0  0  0  0  0
  2  1  1  0  0  0  0
  3  1  2  0  0  0  0
  4  1  2  0  0  0  0
  5  1  1  0  0  0  0
  6  2  1  0  0  0  0
  6  7  1  0  0  0  0
  7  5  1  0  0  0  0
  8  6  1  0  0  0  0
 10  8  1  0  0  0  0
 11 10  1  0  0  0  0
 12 11  1  0  0  0  0
M  END
>  <idnumber>
T5219122

>  <saltdata>
HCl

>  <LogP>
-5.530000000000001e-001

>  <rotating_bonds>
3.000000000000000e+000

>  <hb_acceptors>
3.000000000000000e+000

>  <hb_donors>
1.000000000000000e+000

>  <PSA>
5.455000000000000e+001

>  <clusterid>
79

>  <is_centroid>
@

>  <class1>
630

>  <population1>
9493

>  <population>
9493

>  <cansmi>
CCCNC1CCS(=O)(=O)C1.Cl

>  <HBA2>
3

>  <HBD>
2

>  <logP>
2.4468

>  <TPSA>
54.55

>  <MW>
213.725

$$$$

 OpenBabel02121609142D

 16 17  0  0  0  0  0  0  0  0999 V2000
    0.8625   -0.2500    0.0000 N   0  0  0  0  0  0  0  0  0  0  0  0
    0.8625    0.7500    0.0000 C   0  0  0  0  0  0  0  0  0  0  0  0
   -0.0083   -0.7500    0.0000 C   0  0  0  0  0  0  0  0  0  0  0  0
   -0.0083    1.2500    0.0000 N   0  0  0  0  0  0  0  0  0  0  0  0
   -0.8708   -0.2500    0.0000 C   0  0  0  0  0  0  0  0  0  0  0  0
   -0.8708    0.7500    0.0000 C   0  0  0  0  0  0  0  0  0  0  0  0
   -0.0083   -1.7500    0.0000 O   0  0  0  0  0  0  0  0  0  0  0  0
    1.7292    1.2500    0.0000 S   0  0  0  0  0  0  0  0  0  0  0  0
    1.7292   -0.7500    0.0000 C   0  0  0  0  0  0  0  0  0  0  0  0
   -1.7333   -0.7500    0.0000 C   0  0  0  0  0  0  0  0  0  0  0  0
   -1.7333    1.2500    0.0000 C   0  0  0  0  0  0  0  0  0  0  0  0
    1.7292    2.2500    0.0000 C   0  0  0  0  0  0  0  0  0  0  0  0
    1.7292   -1.7500    0.0000 C   0  0  0  0  0  0  0  0  0  0  0  0
   -2.6000   -0.2500    0.0000 C   0  0  0  0  0  0  0  0  0  0  0  0
   -2.6000    0.7500    0.0000 C   0  0  0  0  0  0  0  0  0  0  0  0
    2.5917   -2.2500    0.0000 C   0  0  0  0  0  0  0  0  0  0  0  0
  2  1  1  0  0  0  0
  3  1  1  0  0  0  0
  4  2  2  0  0  0  0
  4  6  1  0  0  0  0
  5  3  1  0  0  0  0
  6  5  2  0  0  0  0
  7  3  2  0  0  0  0
  8  2  1  0  0  0  0
  9  1  1  0  0  0  0
 10  5  1  0  0  0  0
 11  6  1  0  0  0  0
 11 15  2  0  0  0  0
 12  8  1  0  0  0  0
 13  9  1  0  0  0  0
 14 10  2  0  0  0  0
 15 14  1  0  0  0  0
 16 13  1  0  0  0  0
M  END
>  <idnumber>
T5219331

>  <LogP>
2.728000000000000e+000

>  <rotating_bonds>
3.000000000000000e+000

>  <hb_acceptors>
3.000000000000000e+000

>  <hb_donors>
0.000000000000000e+000

>  <PSA>
5.797000000000000e+001

>  <clusterid>
281

>  <is_centroid>
@

>  <class1>
648

>  <population1>
19152

>  <population>
19152

>  <cansmi>
CCCn1c(SC)nc2c(c1=O)cccc2

>  <HBA2>
4

>  <HBD>
0

>  <logP>
2.5284

>  <TPSA>
60.19

>  <MW>
234.317

$$$$

 OpenBabel02121609142D

 11 11  0  0  0  0  0  0  0  0999 V2000
    0.0000    0.5000    0.0000 N   0  0  0  0  0  0  0  0  0  0  0  0
    0.0000   -2.5000    0.0000 N   0  0  0  0  0  0  0  0  0  0  0  0
    0.0000   -0.5000    0.0000 C   0  0  0  0  0  0  0  0  0  0  0  0
    0.0000   -1.5000    0.0000 C   0  0  0  0  0  0  0  0  0  0  0  0
    0.0000    2.5000    0.0000 O   0  0  0  0  0  0  0  0  0  0  0  0
    0.8625    1.0000    0.0000 C   0  0  0  0  0  0  0  0  0  0  0  0
   -0.8708    1.0000    0.0000 C   0  0  0  0  0  0  0  0  0  0  0  0
    1.0000   -0.5000    0.0000 C   0  0  0  0  0  0  0  0  0  0  0  0
   -1.0000   -0.5000    0.0000 C   0  0  0  0  0  0  0  0  0  0  0  0
   -0.8708    2.0000    0.0000 C   0  0  0  0  0  0  0  0  0  0  0  0
    0.8625    2.0000    0.0000 C   0  0  0  0  0  0  0  0  0  0  0  0
  2  4  3  0  0  0  0
  3  1  1  0  0  0  0
  4  3  1  0  0  0  0
  5 10  1  0  0  0  0
  6  1  1  0  0  0  0
  7  1  1  0  0  0  0
  8  3  1  0  0  0  0
  9  3  1  0  0  0  0
 10  7  1  0  0  0  0
 11  6  1  0  0  0  0
 11  5  1  0  0  0  0
M  END
>  <idnumber>
T5220211

>  <LogP>
2.780000000000000e-001

>  <rotating_bonds>
2.000000000000000e+000

>  <hb_acceptors>
3.000000000000000e+000

>  <hb_donors>
0.000000000000000e+000

>  <PSA>
3.626000000000001e+001

>  <clusterid>
282

>  <is_centroid>
@

>  <class1>
786

>  <population1>
48067

>  <population>
48067

>  <cansmi>
N#CC(N1CCOCC1)(C)C

>  <HBA2>
3

>  <HBD>
0

>  <logP>
0.55868

>  <TPSA>
36.26

>  <MW>
154.21

$$$$

 OpenBabel02121609142D

 15 16  0  0  0  0  0  0  0  0999 V2000
   -0.0583    0.6833    0.0000 C   0  0  0  0  0  0  0  0  0  0  0  0
    0.2500    1.6333    0.0000 C   0  0  0  0  0  0  0  0  0  0  0  0
    0.6042   -0.0542    0.0000 N   0  0  0  0  0  0  0  0  0  0  0  0
   -0.3375    2.4458    0.0000 O   0  0  0  0  0  0  0  0  0  0  0  0
    1.2000    1.9458    0.0000 C   0  0  0  0  0  0  0  0  0  0  0  0
   -1.0375    0.4750    0.0000 O   0  0  0  0  0  0  0  0  0  0  0  0
    0.2500    3.2583    0.0000 C   0  0  0  0  0  0  0  0  0  0  0  0
    1.2000    2.9458    0.0000 C   0  0  0  0  0  0  0  0  0  0  0  0
    0.3000   -1.0125    0.0000 C   0  0  0  0  0  0  0  0  0  0  0  0
    1.0167   -1.7000    0.0000 C   0  0  0  0  0  0  0  0  0  0  0  0
   -0.6958   -1.1417    0.0000 C   0  0  0  0  0  0  0  0  0  0  0  0
   -1.2083   -2.0042    0.0000 C   0  0  0  0  0  0  0  0  0  0  0  0
    0.9292   -2.6917    0.0000 C   0  0  0  0  0  0  0  0  0  0  0  0
    0.1000   -3.2500    0.0000 C   0  0  0  0  0  0  0  0  0  0  0  0
   -0.8583   -2.9375    0.0000 C   0  0  0  0  0  0  0  0  0  0  0  0
  2  1  1  0  0  0  0
  3  1  1  0  0  0  0
  4  2  1  0  0  0  0
  5  2  2  0  0  0  0
  6  1  2  0  0  0  0
  7  4  1  0  0  0  0
  8  5  1  0  0  0  0
  8  7  2  0  0  0  0
  9  3  1  0  0  0  0
 10  9  1  0  0  0  0
 11  9  1  0  0  0  0
 12 11  1  0  0  0  0
 13 10  1  0  0  0  0
 14 13  1  0  0  0  0
 15 12  1  0  0  0  0
 15 14  1  0  0  0  0
M  END
>  <idnumber>
T5221406

>  <LogP>
2.627000000000000e+000

>  <rotating_bonds>
2.000000000000000e+000

>  <hb_acceptors>
1.000000000000000e+000

>  <hb_donors>
1.000000000000000e+000

>  <PSA>
4.224000000000000e+001

>  <clusterid>
49

>  <is_centroid>
@

>  <class1>
704

>  <class2>
833

>  <population1>
51112

>  <population2>
2589

>  <population>
75

>  <cansmi>
O=C(c1ccco1)NC1CCCCCC1

>  <HBA2>
3

>  <HBD>
1

>  <logP>
3.1231

>  <TPSA>
42.24

>  <MW>
207.269

$$$$

 OpenBabel02121609142D

 11 11  0  0  0  0  0  0  0  0999 V2000
    0.4167    0.1708    0.0000 C   0  0  0  0  0  0  0  0  0  0  0  0
    2.1875    0.4000    0.0000 N   0  0  0  0  0  0  0  0  0  0  0  0
    1.3625   -0.1542    0.0000 C   0  0  3  0  0  0  0  0  0  0  0  0
    0.2417    1.1583    0.0000 O   0  0  0  0  0  0  0  0  0  0  0  0
   -0.3458   -0.4750    0.0000 N   0  0  0  0  0  0  0  0  0  0  0  0
    2.9792   -0.2042    0.0000 C   0  0  0  0  0  0  0  0  0  0  0  0
   -1.2833   -0.1375    0.0000 C   0  0  0  0  0  0  0  0  0  0  0  0
    1.6417   -1.1250    0.0000 C   0  0  0  0  0  0  0  0  0  0  0  0
   -2.0458   -0.7875    0.0000 C   0  0  0  0  0  0  0  0  0  0  0  0
    2.6417   -1.1542    0.0000 C   0  0  0  0  0  0  0  0  0  0  0  0
   -2.9875   -0.4500    0.0000 C   0  0  0  0  0  0  0  0  0  0  0  0
  2  3  1  0  0  0  0
  3  1  1  0  0  0  0
  4  1  2  0  0  0  0
  5  1  1  0  0  0  0
  6  2  1  0  0  0  0
  7  5  1  0  0  0  0
  8  3  1  0  0  0  0
  9  7  1  0  0  0  0
 10  8  1  0  0  0  0
 10  6  1  0  0  0  0
 11  9  1  0  0  0  0
M  END
>  <idnumber>
T5224385

>  <LogP>
4.670000000000000e-001

>  <rotating_bonds>
3.000000000000000e+000

>  <hb_acceptors>
2.000000000000000e+000

>  <hb_donors>
2.000000000000000e+000

>  <PSA>
4.113000000000000e+001

>  <clusterid>
286

>  <is_centroid>
@

>  <class1>
642

>  <population1>
51183

>  <population>
51183

>  <cansmi>
CCCNC(=O)C1CCCN1

>  <HBA2>
3

>  <HBD>
2

>  <logP>
0.9843

>  <TPSA>
41.13

>  <MW>
156.225

$$$$

 OpenBabel02121609142D

 19 21  0  0  0  0  0  0  0  0999 V2000
    0.4292    1.0208    0.0000 N   0  0  0  0  0  0  0  0  0  0  0  0
    0.4292    0.0208    0.0000 C   0  0  0  0  0  0  0  0  0  0  0  0
    0.4292    3.0208    0.0000 N   0  0  0  0  0  0  0  0  0  0  0  0
   -0.4333    1.5208    0.0000 C   0  0  0  0  0  0  0  0  0  0  0  0
    1.2917    2.5208    0.0000 C   0  0  0  0  0  0  0  0  0  0  0  0
   -0.4333    2.5208    0.0000 C   0  0  0  0  0  0  0  0  0  0  0  0
    1.2917    1.5208    0.0000 C   0  0  0  0  0  0  0  0  0  0  0  0
    1.2917   -1.4792    0.0000 N   0  0  0  0  0  0  0  0  0  0  0  0
    1.2917   -0.4792    0.0000 C   0  0  0  0  0  0  0  0  0  0  0  0
   -0.4333   -0.4792    0.0000 O   0  0  0  0  0  0  0  0  0  0  0  0
    2.1625    3.0208    0.0000 O   0  0  0  0  0  0  0  0  0  0  0  0
   -1.3000    1.0208    0.0000 C   0  0  0  0  0  0  0  0  0  0  0  0
   -1.3000    3.0208    0.0000 C   0  0  0  0  0  0  0  0  0  0  0  0
    2.1042   -2.0667    0.0000 C   0  0  0  0  0  0  0  0  0  0  0  0
    0.4875   -2.0667    0.0000 C   0  0  0  0  0  0  0  0  0  0  0  0
   -2.1708    1.5208    0.0000 C   0  0  0  0  0  0  0  0  0  0  0  0
    1.7917   -3.0167    0.0000 C   0  0  0  0  0  0  0  0  0  0  0  0
    0.7917   -3.0167    0.0000 C   0  0  0  0  0  0  0  0  0  0  0  0
   -2.1708    2.5208    0.0000 C   0  0  0  0  0  0  0  0  0  0  0  0
  2  1  1  0  0  0  0
  3  5  1  0  0  0  0
  4  1  1  0  0  0  0
  5  7  1  0  0  0  0
  6  4  2  0  0  0  0
  6  3  1  0  0  0  0
  7  1  1  0  0  0  0
  8  9  1  0  0  0  0
  9  2  1  0  0  0  0
 10  2  2  0  0  0  0
 11  5  2  0  0  0  0
 12  4  1  0  0  0  0
 13  6  1  0  0  0  0
 13 19  2  0  0  0  0
 14  8  1  0  0  0  0
 15  8  1  0  0  0  0
 16 12  2  0  0  0  0
 17 14  1  0  0  0  0
 18 15  1  0  0  0  0
 18 17  1  0  0  0  0
 19 16  1  0  0  0  0
M  END
>  <idnumber>
T5224513

>  <LogP>
1.474000000000000e+000

>  <rotating_bonds>
2.000000000000000e+000

>  <hb_acceptors>
3.000000000000000e+000

>  <hb_donors>
1.000000000000000e+000

>  <PSA>
5.265000000000000e+001

>  <clusterid>
147

>  <is_centroid>
@

>  <class1>
835

>  <class2>
642

>  <population1>
2727

>  <population2>
51183

>  <population>
190

>  <cansmi>
O=C1Nc2ccccc2N(C1)C(=O)CN1CCCC1

>  <HBA2>
5

>  <HBD>
1

>  <logP>
1.2084

>  <TPSA>
52.65

>  <MW>
259.304

$$$$

 OpenBabel02121609142D

 15 16  0  0  0  0  0  0  0  0999 V2000
    0.6792   -0.0625    0.0000 C   0  0  0  0  0  0  0  0  0  0  0  0
   -0.2958   -0.2667    0.0000 C   0  0  0  0  0  0  0  0  0  0  0  0
    0.9875    0.8875    0.0000 N   0  0  0  0  0  0  0  0  0  0  0  0
    1.3500   -0.8042    0.0000 C   0  0  0  0  0  0  0  0  0  0  0  0
   -0.6083   -1.2167    0.0000 C   0  0  0  0  0  0  0  0  0  0  0  0
   -0.9708    0.4708    0.0000 C   0  0  0  0  0  0  0  0  0  0  0  0
   -1.9458    0.2625    0.0000 O   0  0  0  0  0  0  0  0  0  0  0  0
    1.0417   -1.7542    0.0000 C   0  0  0  0  0  0  0  0  0  0  0  0
    0.0625   -1.9667    0.0000 C   0  0  0  0  0  0  0  0  0  0  0  0
    1.7042   -2.5000    0.0000 F   0  0  0  0  0  0  0  0  0  0  0  0
    1.9417    1.1958    0.0000 C   0  0  0  0  0  0  0  0  0  0  0  0
    0.4000    1.6958    0.0000 C   0  0  0  0  0  0  0  0  0  0  0  0
   -0.6583    1.4208    0.0000 C   0  0  0  0  0  0  0  0  0  0  0  0
    0.9875    2.5083    0.0000 C   0  0  0  0  0  0  0  0  0  0  0  0
    1.9417    2.1958    0.0000 C   0  0  0  0  0  0  0  0  0  0  0  0
  2  1  2  0  0  0  0
  3  1  1  0  0  0  0
  4  1  1  0  0  0  0
  5  2  1  0  0  0  0
  5  9  2  0  0  0  0
  6  2  1  0  0  0  0
  7  6  2  0  0  0  0
  8  4  2  0  0  0  0
  9  8  1  0  0  0  0
 10  8  1  0  0  0  0
 11  3  1  0  0  0  0
 12  3  1  0  0  0  0
 13  6  1  0  0  0  0
 14 12  1  0  0  0  0
 15 11  1  0  0  0  0
 15 14  1  0  0  0  0
M  END
>  <idnumber>
T5224694

>  <LogP>
2.917000000000000e+000

>  <rotating_bonds>
2.000000000000000e+000

>  <hb_acceptors>
3.000000000000000e+000

>  <hb_donors>
0.000000000000000e+000

>  <PSA>
2.031000000000000e+001

>  <clusterid>
-421

>  <is_centroid>
@

>  <class1>
642

>  <class2>
625

>  <population1>
51183

>  <population2>
877209

>  <population>
48174

>  <cansmi>
CC(=O)c1ccc(cc1N1CCCC1)F

>  <HBA2>
2

>  <HBD>
0

>  <logP>
2.6935

>  <TPSA>
20.31

>  <MW>
207.244

$$$$

 OpenBabel02121609142D

 12 13  0  0  0  0  0  0  0  0999 V2000
    0.3167    1.0958    0.0000 N   0  0  0  0  0  0  0  0  0  0  0  0
    0.3167    2.7125    0.0000 N   0  0  0  0  0  0  0  0  0  0  0  0
   -0.2708    1.9083    0.0000 C   0  0  0  0  0  0  0  0  0  0  0  0
    0.0125    0.1458    0.0000 C   0  0  0  0  0  0  0  0  0  0  0  0
    1.2667    1.4083    0.0000 C   0  0  0  0  0  0  0  0  0  0  0  0
    1.2667    2.4083    0.0000 C   0  0  0  0  0  0  0  0  0  0  0  0
   -0.9708   -0.0625    0.0000 C   0  0  0  0  0  0  0  0  0  0  0  0
    0.6792   -0.6000    0.0000 C   0  0  0  0  0  0  0  0  0  0  0  0
   -0.6083   -1.7542    0.0000 C   0  0  0  0  0  0  0  0  0  0  0  0
   -1.2750   -1.0167    0.0000 C   0  0  0  0  0  0  0  0  0  0  0  0
    0.3667   -1.5500    0.0000 C   0  0  0  0  0  0  0  0  0  0  0  0
   -0.9208   -2.7042    0.0000 O   0  0  0  0  0  0  0  0  0  0  0  0
  2  3  2  0  0  0  0
  3  1  1  0  0  0  0
  4  1  1  0  0  0  0
  5  1  1  0  0  0  0
  6  5  2  0  0  0  0
  6  2  1  0  0  0  0
  7  4  2  0  0  0  0
  8  4  1  0  0  0  0
  9 11  1  0  0  0  0
 10  7  1  0  0  0  0
 10  9  2  0  0  0  0
 11  8  2  0  0  0  0
 12  9  1  0  0  0  0
M  END
>  <idnumber>
T5225181

>  <LogP>
1.534000000000000e+000

>  <rotating_bonds>
1.000000000000000e+000

>  <hb_acceptors>
2.000000000000000e+000

>  <hb_donors>
1.000000000000000e+000

>  <PSA>
3.805000000000000e+001

>  <clusterid>
-424

>  <is_centroid>
@

>  <class1>
686

>  <class2>
625

>  <population1>
31113

>  <population2>
877209

>  <population>
26567

>  <cansmi>
Oc1ccc(cc1)n1cncc1

>  <HBA2>
3

>  <HBD>
1

>  <logP>
1.5779

>  <TPSA>
38.05

>  <MW>
160.173

$$$$

 OpenBabel02121609142D

 12 13  0  0  0  0  0  0  0  0999 V2000
    0.5000    0.6208    0.0000 C   0  0  0  0  0  0  0  0  0  0  0  0
    1.4500    1.9333    0.0000 N   0  0  0  0  0  0  0  0  0  0  0  0
    1.4500    0.9333    0.0000 N   0  0  0  0  0  0  0  0  0  0  0  0
    0.5000    2.2375    0.0000 N   0  0  0  0  0  0  0  0  0  0  0  0
    0.1917   -0.3292    0.0000 C   0  0  0  0  0  0  0  0  0  0  0  0
   -0.0875    1.4333    0.0000 N   0  0  0  0  0  0  0  0  0  0  0  0
   -0.7875   -0.5375    0.0000 C   0  0  0  0  0  0  0  0  0  0  0  0
   -1.4583    0.2083    0.0000 Br  0  0  0  0  0  0  0  0  0  0  0  0
    0.8625   -1.0750    0.0000 C   0  0  0  0  0  0  0  0  0  0  0  0
   -1.0958   -1.4917    0.0000 C   0  0  0  0  0  0  0  0  0  0  0  0
    0.5500   -2.0250    0.0000 C   0  0  0  0  0  0  0  0  0  0  0  0
   -0.4250   -2.2292    0.0000 C   0  0  0  0  0  0  0  0  0  0  0  0
  2  3  1  0  0  0  0
  2  4  2  0  0  0  0
  3  1  2  0  0  0  0
  4  6  1  0  0  0  0
  5  1  1  0  0  0  0
  6  1  1  0  0  0  0
  7  5  2  0  0  0  0
  8  7  1  0  0  0  0
  9  5  1  0  0  0  0
 10  7  1  0  0  0  0
 10 12  2  0  0  0  0
 11  9  2  0  0  0  0
 12 11  1  0  0  0  0
M  END
>  <idnumber>
T5225186

>  <LogP>
1.558000000000000e+000

>  <rotating_bonds>
1.000000000000000e+000

>  <hb_acceptors>
3.000000000000000e+000

>  <hb_donors>
1.000000000000000e+000

>  <PSA>
5.446000000000002e+001

>  <clusterid>
-425

>  <is_centroid>
@

>  <class1>
634

>  <class2>
625

>  <population1>
16228

>  <population2>
877209

>  <population>
14982

>  <cansmi>
Brc1ccccc1c1nnn[nH]1

>  <HBA2>
3

>  <HBD>
1

>  <logP>
1.6292

>  <TPSA>
54.46

>  <MW>
225.045

$$$$

 OpenBabel02121609142D

 17 18  0  0  0  0  0  0  0  0999 V2000
   -0.5208    1.3625    0.0000 C   0  0  0  0  0  0  0  0  0  0  0  0
   -0.2083    2.3125    0.0000 N   0  0  0  0  0  0  0  0  0  0  0  0
    0.5125   -1.0750    0.0000 C   0  0  0  0  0  0  0  0  0  0  0  0
   -0.1583   -0.3292    0.0000 N   0  0  0  0  0  0  0  0  0  0  0  0
    0.1542    0.6208    0.0000 C   0  0  0  0  0  0  0  0  0  0  0  0
   -1.4958    1.1583    0.0000 O   0  0  0  0  0  0  0  0  0  0  0  0
    1.4917   -0.8667    0.0000 O   0  0  0  0  0  0  0  0  0  0  0  0
    0.2042   -2.0250    0.0000 C   0  0  0  0  0  0  0  0  0  0  0  0
    0.7417    2.6208    0.0000 C   0  0  0  0  0  0  0  0  0  0  0  0
   -0.7958    3.1208    0.0000 C   0  0  0  0  0  0  0  0  0  0  0  0
    0.8667   -2.7667    0.0000 C   0  0  0  0  0  0  0  0  0  0  0  0
   -0.7750   -2.2292    0.0000 C   0  0  0  0  0  0  0  0  0  0  0  0
   -0.2083    3.9333    0.0000 C   0  0  0  0  0  0  0  0  0  0  0  0
    0.7417    3.6208    0.0000 C   0  0  0  0  0  0  0  0  0  0  0  0
   -1.0833   -3.1792    0.0000 C   0  0  0  0  0  0  0  0  0  0  0  0
    0.5625   -3.7167    0.0000 C   0  0  0  0  0  0  0  0  0  0  0  0
   -0.4125   -3.9292    0.0000 C   0  0  0  0  0  0  0  0  0  0  0  0
  2  1  1  0  0  0  0
  3  4  1  0  0  0  0
  4  5  1  0  0  0  0
  5  1  1  0  0  0  0
  6  1  2  0  0  0  0
  7  3  2  0  0  0  0
  8  3  1  0  0  0  0
  9  2  1  0  0  0  0
 10  2  1  0  0  0  0
 11  8  1  0  0  0  0
 12  8  1  0  0  0  0
 13 10  1  0  0  0  0
 14  9  1  0  0  0  0
 14 13  1  0  0  0  0
 15 12  1  0  0  0  0
 16 11  1  0  0  0  0
 16 17  1  0  0  0  0
 17 15  1  0  0  0  0
M  END
>  <idnumber>
T5225285

>  <LogP>
1.171000000000000e+000

>  <rotating_bonds>
3.000000000000000e+000

>  <hb_acceptors>
2.000000000000000e+000

>  <hb_donors>
1.000000000000000e+000

>  <PSA>
4.941000000000003e+001

>  <clusterid>
-428

>  <is_centroid>
@

>  <class1>
642

>  <class2>
797

>  <population1>
51183

>  <population2>
40410

>  <population>
2730

>  <cansmi>
O=C(C1CCCCC1)NCC(=O)N1CCCC1

>  <HBA2>
4

>  <HBD>
1

>  <logP>
1.6341

>  <TPSA>
49.41

>  <MW>
238.326

$$$$

 OpenBabel02121609142D

 19 21  0  0  0  0  0  0  0  0999 V2000
    0.0000    0.2500    0.0000 N   0  0  0  0  0  0  0  0  0  0  0  0
   -0.8708   -0.2500    0.0000 C   0  0  0  0  0  0  0  0  0  0  0  0
    0.0000    1.2500    0.0000 C   0  0  0  0  0  0  0  0  0  0  0  0
   -0.8708    1.7500    0.0000 N   0  0  0  0  0  0  0  0  0  0  0  0
   -1.7333    0.2500    0.0000 C   0  0  0  0  0  0  0  0  0  0  0  0
   -1.7333    1.2500    0.0000 C   0  0  0  0  0  0  0  0  0  0  0  0
    0.8625   -0.2500    0.0000 C   0  0  0  0  0  0  0  0  0  0  0  0
   -0.8708   -1.2500    0.0000 O   0  0  0  0  0  0  0  0  0  0  0  0
    0.8625   -1.2500    0.0000 C   0  0  0  0  0  0  0  0  0  0  0  0
    1.7292    0.2500    0.0000 C   0  0  0  0  0  0  0  0  0  0  0  0
    0.8625    1.7500    0.0000 C   0  0  0  0  0  0  0  0  0  0  0  0
    2.5917   -1.2500    0.0000 C   0  0  0  0  0  0  0  0  0  0  0  0
   -2.6000   -0.2500    0.0000 C   0  0  0  0  0  0  0  0  0  0  0  0
    2.5917   -0.2500    0.0000 C   0  0  0  0  0  0  0  0  0  0  0  0
    1.7292   -1.7500    0.0000 C   0  0  0  0  0  0  0  0  0  0  0  0
    3.4625   -1.7500    0.0000 F   0  0  0  0  0  0  0  0  0  0  0  0
   -2.6000    1.7500    0.0000 C   0  0  0  0  0  0  0  0  0  0  0  0
   -3.4708    0.2500    0.0000 C   0  0  0  0  0  0  0  0  0  0  0  0
   -3.4708    1.2500    0.0000 C   0  0  0  0  0  0  0  0  0  0  0  0
  2  1  1  0  0  0  0
  3  1  1  0  0  0  0
  4  3  2  0  0  0  0
  5  2  1  0  0  0  0
  6  4  1  0  0  0  0
  6  5  2  0  0  0  0
  7  1  1  0  0  0  0
  8  2  2  0  0  0  0
  9  7  1  0  0  0  0
 10  7  2  0  0  0  0
 11  3  1  0  0  0  0
 12 14  2  0  0  0  0
 13  5  1  0  0  0  0
 14 10  1  0  0  0  0
 15  9  2  0  0  0  0
 15 12  1  0  0  0  0
 16 12  1  0  0  0  0
 17  6  1  0  0  0  0
 18 13  2  0  0  0  0
 19 17  2  0  0  0  0
 19 18  1  0  0  0  0
M  END
>  <idnumber>
T5225992

>  <LogP>
2.604000000000000e+000

>  <rotating_bonds>
1.000000000000000e+000

>  <hb_acceptors>
3.000000000000000e+000

>  <hb_donors>
0.000000000000000e+000

>  <PSA>
3.267000000000000e+001

>  <clusterid>
-429

>  <is_centroid>
@

>  <class1>
648

>  <class2>
625

>  <population1>
19152

>  <population2>
877209

>  <population>
19152

>  <cansmi>
Fc1ccc(cc1)n1c(C)nc2c(c1=O)cccc2

>  <HBA2>
3

>  <HBD>
0

>  <logP>
2.8332

>  <TPSA>
34.89

>  <MW>
254.259

$$$$

 OpenBabel02121609142D

 15 16  0  0  0  0  0  0  0  0999 V2000
    0.8167    0.9708    0.0000 N   0  0  0  0  0  0  0  0  0  0  0  0
    0.5042    0.0208    0.0000 C   0  0  0  0  0  0  0  0  0  0  0  0
   -0.1083   -1.8792    0.0000 N   0  0  0  0  0  0  0  0  0  0  0  0
    0.8667   -1.6750    0.0000 C   0  0  0  0  0  0  0  0  0  0  0  0
   -0.7833   -1.1417    0.0000 C   0  0  0  0  0  0  0  0  0  0  0  0
   -0.4708   -0.1875    0.0000 C   0  0  0  0  0  0  0  0  0  0  0  0
    1.1792   -0.7250    0.0000 C   0  0  0  0  0  0  0  0  0  0  0  0
    1.7667    1.2833    0.0000 C   0  0  0  0  0  0  0  0  0  0  0  0
    0.2292    1.7833    0.0000 C   0  0  0  0  0  0  0  0  0  0  0  0
    0.8167    2.5875    0.0000 C   0  0  0  0  0  0  0  0  0  0  0  0
    1.7667    2.2833    0.0000 C   0  0  0  0  0  0  0  0  0  0  0  0
   -1.6500   -1.6292    0.0000 C   0  0  0  0  0  0  0  0  0  0  0  0
   -1.7833   -1.0500    0.0000 C   0  0  0  0  0  0  0  0  0  0  0  0
    1.7292   -2.1875    0.0000 C   0  0  0  0  0  0  0  0  0  0  0  0
    1.2875   -2.5792    0.0000 C   0  0  0  0  0  0  0  0  0  0  0  0
  2  1  1  0  0  0  0
  3  4  1  0  0  0  0
  4  7  1  0  0  0  0
  5  6  1  0  0  0  0
  5  3  1  0  0  0  0
  6  2  1  0  0  0  0
  7  2  1  0  0  0  0
  8  1  1  0  0  0  0
  9  1  1  0  0  0  0
 10  9  2  0  0  0  0
 11  8  2  0  0  0  0
 11 10  1  0  0  0  0
 12  5  1  0  0  0  0
 13  5  1  0  0  0  0
 14  4  1  0  0  0  0
 15  4  1  0  0  0  0
M  END
>  <idnumber>
T5227314

>  <LogP>
2.902000000000000e+000

>  <rotating_bonds>
1.000000000000000e+000

>  <hb_acceptors>
1.000000000000000e+000

>  <hb_donors>
1.000000000000000e+000

>  <PSA>
1.696000000000000e+001

>  <clusterid>
-431

>  <is_centroid>
@

>  <class1>
639

>  <class2>
635

>  <population1>
59855

>  <population2>
31512

>  <population>
1063

>  <cansmi>
CC1(C)CC(CC(N1)(C)C)n1cccc1

>  <HBA2>
2

>  <HBD>
1

>  <logP>
3.2986

>  <TPSA>
16.96

>  <MW>
206.327

$$$$

 OpenBabel02121609142D

 16 16  0  0  0  0  0  0  0  0999 V2000
   -1.3125   -1.3292    0.0000 S   0  0  0  0  0  0  0  0  0  0  0  0
   -1.9083   -0.5167    0.0000 C   0  0  0  0  0  0  0  0  0  0  0  0
   -0.3583   -1.0167    0.0000 C   0  0  0  0  0  0  0  0  0  0  0  0
   -1.3125    0.2958    0.0000 C   0  0  0  0  0  0  0  0  0  0  0  0
   -1.8875   -2.1417    0.0000 O   0  0  0  0  0  0  0  0  0  0  0  0
   -1.3250   -2.3292    0.0000 O   0  0  0  0  0  0  0  0  0  0  0  0
   -0.3583   -0.0167    0.0000 C   0  0  3  0  0  0  0  0  0  0  0  0
    0.4500    0.5708    0.0000 N   0  0  0  0  0  0  0  0  0  0  0  0
    1.3625    0.1625    0.0000 C   0  0  0  0  0  0  0  0  0  0  0  0
   -3.9000    0.1125    0.0000 Cl  0  0  0  0  0  0  0  0  0  0  0  0
    2.1667    0.7500    0.0000 C   0  0  0  0  0  0  0  0  0  0  0  0
    3.0875    0.3458    0.0000 C   0  0  0  0  0  0  0  0  0  0  0  0
    2.0667    1.7458    0.0000 C   0  0  0  0  0  0  0  0  0  0  0  0
    2.8750    2.3333    0.0000 C   0  0  0  0  0  0  0  0  0  0  0  0
    3.8917    0.9333    0.0000 C   0  0  0  0  0  0  0  0  0  0  0  0
    3.7917    1.9250    0.0000 C   0  0  0  0  0  0  0  0  0  0  0  0
  2  1  1  0  0  0  0
  3  1  1  0  0  0  0
  4  2  2  0  0  0  0
  5  1  2  0  0  0  0
  6  1  2  0  0  0  0
  7  3  1  0  0  0  0
  7  4  1  0  0  0  0
  8  7  1  0  0  0  0
  9  8  1  0  0  0  0
 11  9  1  0  0  0  0
 12 11  1  0  0  0  0
 13 11  2  0  0  0  0
 14 13  1  0  0  0  0
 15 12  2  0  0  0  0
 15 16  1  0  0  0  0
 16 14  2  0  0  0  0
M  END
>  <idnumber>
T5229421

>  <saltdata>
HCl

>  <LogP>
3.360000000000000e-001

>  <rotating_bonds>
3.000000000000000e+000

>  <hb_acceptors>
3.000000000000000e+000

>  <hb_donors>
1.000000000000000e+000

>  <PSA>
5.455000000000000e+001

>  <clusterid>
-432

>  <is_centroid>
@

>  <class1>
625

>  <class2>
872

>  <population1>
877209

>  <population2>
295

>  <population>
263

>  <cansmi>
O=S1(=O)C=CC(C1)NCc1ccccc1.Cl

>  <HBA2>
3

>  <HBD>
2

>  <logP>
3.3606

>  <TPSA>
54.55

>  <MW>
259.752

$$$$

 OpenBabel02121609142D

 12 13  0  0  0  0  0  0  0  0999 V2000
   -0.8708    1.0000    0.0000 N   0  0  0  0  0  0  0  0  0  0  0  0
   -0.8708   -1.0000    0.0000 S   0  0  0  0  0  0  0  0  0  0  0  0
    0.0000   -0.5000    0.0000 C   0  0  0  0  0  0  0  0  0  0  0  0
    0.0000    0.5000    0.0000 C   0  0  0  0  0  0  0  0  0  0  0  0
   -1.7333    0.5000    0.0000 C   0  0  0  0  0  0  0  0  0  0  0  0
    0.8625   -1.0000    0.0000 C   0  0  0  0  0  0  0  0  0  0  0  0
   -1.7333   -0.5000    0.0000 C   0  0  0  0  0  0  0  0  0  0  0  0
   -2.6000    1.0000    0.0000 O   0  0  0  0  0  0  0  0  0  0  0  0
    0.8625    1.0000    0.0000 C   0  0  0  0  0  0  0  0  0  0  0  0
    1.7292   -0.5000    0.0000 C   0  0  0  0  0  0  0  0  0  0  0  0
    1.7292    0.5000    0.0000 C   0  0  0  0  0  0  0  0  0  0  0  0
    2.5917   -1.0000    0.0000 Cl  0  0  0  0  0  0  0  0  0  0  0  0
  2  7  1  0  0  0  0
  2  3  1  0  0  0  0
  3  4  2  0  0  0  0
  4  1  1  0  0  0  0
  5  1  1  0  0  0  0
  6  3  1  0  0  0  0
  6 10  2  0  0  0  0
  7  5  1  0  0  0  0
  8  5  2  0  0  0  0
  9  4  1  0  0  0  0
 10 11  1  0  0  0  0
 11  9  2  0  0  0  0
 12 10  1  0  0  0  0
M  END
>  <idnumber>
T5230795

>  <LogP>
2.264000000000000e+000

>  <rotating_bonds>
0.000000000000000e+000

>  <hb_acceptors>
3.000000000000000e+000

>  <hb_donors>
1.000000000000000e+000

>  <PSA>
5.440000000000001e+001

>  <clusterid>
-434

>  <is_centroid>
@

>  <class1>
867

>  <population1>
1652

>  <population>
1652

>  <cansmi>
O=C1CSc2c(N1)ccc(c2)Cl

>  <HBA2>
3

>  <HBD>
1

>  <logP>
2.5222

>  <TPSA>
54.4

>  <MW>
199.657

$$$$

 OpenBabel02121609142D

 18 19  0  0  0  0  0  0  0  0999 V2000
    0.4292    2.2500    0.0000 N   0  0  0  0  0  0  0  0  0  0  0  0
    0.4292    3.2500    0.0000 C   0  0  0  0  0  0  0  0  0  0  0  0
   -0.4333    0.7500    0.0000 C   0  0  0  0  0  0  0  0  0  0  0  0
   -0.4333    1.7500    0.0000 C   0  0  0  0  0  0  0  0  0  0  0  0
   -1.3000    0.2500    0.0000 N   0  0  0  0  0  0  0  0  0  0  0  0
    1.2917    1.7500    0.0000 C   0  0  0  0  0  0  0  0  0  0  0  0
    1.2917    3.7583    0.0000 C   0  0  0  0  0  0  0  0  0  0  0  0
   -0.4333    3.7583    0.0000 O   0  0  0  0  0  0  0  0  0  0  0  0
    0.4292    0.2500    0.0000 O   0  0  0  0  0  0  0  0  0  0  0  0
    2.1625    2.2500    0.0000 C   0  0  0  0  0  0  0  0  0  0  0  0
    2.1625    3.2500    0.0000 C   0  0  0  0  0  0  0  0  0  0  0  0
   -1.3000   -0.7500    0.0000 C   0  0  0  0  0  0  0  0  0  0  0  0
   -1.3000   -2.7500    0.0000 C   0  0  0  0  0  0  0  0  0  0  0  0
   -0.4333   -1.2500    0.0000 C   0  0  0  0  0  0  0  0  0  0  0  0
   -2.1708   -1.2500    0.0000 C   0  0  0  0  0  0  0  0  0  0  0  0
   -0.4333   -2.2500    0.0000 C   0  0  0  0  0  0  0  0  0  0  0  0
   -2.1708   -2.2417    0.0000 C   0  0  0  0  0  0  0  0  0  0  0  0
   -1.3000   -3.7500    0.0000 C   0  0  0  0  0  0  0  0  0  0  0  0
  2  1  1  0  0  0  0
  3  4  1  0  0  0  0
  4  1  1  0  0  0  0
  5  3  1  0  0  0  0
  6  1  1  0  0  0  0
  7  2  1  0  0  0  0
  7 11  2  0  0  0  0
  8  2  2  0  0  0  0
  9  3  2  0  0  0  0
 10  6  2  0  0  0  0
 11 10  1  0  0  0  0
 12  5  1  0  0  0  0
 13 17  2  0  0  0  0
 13 16  1  0  0  0  0
 14 12  1  0  0  0  0
 15 12  2  0  0  0  0
 16 14  2  0  0  0  0
 17 15  1  0  0  0  0
 18 13  1  0  0  0  0
M  END
>  <idnumber>
T5232639

>  <LogP>
1.599000000000000e+000

>  <rotating_bonds>
3.000000000000000e+000

>  <hb_acceptors>
2.000000000000000e+000

>  <hb_donors>
1.000000000000000e+000

>  <PSA>
4.941000000000003e+001

>  <clusterid>
299

>  <is_centroid>
@

>  <class1>
625

>  <class2>
696

>  <population1>
877209

>  <population2>
4759

>  <population>
3770

>  <cansmi>
O=C(Cn1ccccc1=O)Nc1ccc(cc1)C

>  <HBA2>
4

>  <HBD>
1

>  <logP>
1.8684

>  <TPSA>
51.1

>  <MW>
242.273

$$$$

 OpenBabel02121609142D

 16 17  0  0  0  0  0  0  0  0999 V2000
   -0.8833    1.6333    0.0000 N   0  0  0  0  0  0  0  0  0  0  0  0
   -1.4708    2.4375    0.0000 C   0  0  0  0  0  0  0  0  0  0  0  0
    0.0667    1.9375    0.0000 N   0  0  0  0  0  0  0  0  0  0  0  0
   -0.8833    3.2500    0.0000 C   0  0  0  0  0  0  0  0  0  0  0  0
    0.0667    2.9375    0.0000 C   0  0  0  0  0  0  0  0  0  0  0  0
   -1.1958    0.6833    0.0000 C   0  0  0  0  0  0  0  0  0  0  0  0
    0.8167   -1.5500    0.0000 C   0  0  0  0  0  0  0  0  0  0  0  0
   -2.4708    2.4375    0.0000 N   0  0  0  0  0  0  0  0  0  0  0  0
    1.1250   -0.6000    0.0000 C   0  0  0  0  0  0  0  0  0  0  0  0
   -0.1625   -1.7542    0.0000 C   0  0  0  0  0  0  0  0  0  0  0  0
   -0.5208   -0.0625    0.0000 C   0  0  0  0  0  0  0  0  0  0  0  0
    1.4875   -2.2917    0.0000 C   0  0  0  0  0  0  0  0  0  0  0  0
   -0.8333   -1.0167    0.0000 C   0  0  0  0  0  0  0  0  0  0  0  0
    0.4542    0.1458    0.0000 C   0  0  0  0  0  0  0  0  0  0  0  0
    2.4667   -2.0792    0.0000 C   0  0  0  0  0  0  0  0  0  0  0  0
    1.1792   -3.2417    0.0000 C   0  0  0  0  0  0  0  0  0  0  0  0
  2  1  1  0  0  0  0
  3  1  1  0  0  0  0
  4  2  2  0  0  0  0
  5  3  2  0  0  0  0
  5  4  1  0  0  0  0
  6  1  1  0  0  0  0
  7  9  1  0  0  0  0
  8  2  1  0  0  0  0
  9 14  2  0  0  0  0
 10 13  1  0  0  0  0
 10  7  2  0  0  0  0
 11  6  1  0  0  0  0
 12  7  1  0  0  0  0
 13 11  2  0  0  0  0
 14 11  1  0  0  0  0
 15 12  1  0  0  0  0
 16 12  1  0  0  0  0
M  END
>  <idnumber>
T5232689

>  <LogP>
2.667000000000000e+000

>  <rotating_bonds>
3.000000000000000e+000

>  <hb_acceptors>
2.000000000000000e+000

>  <hb_donors>
1.000000000000000e+000

>  <PSA>
4.384000000000000e+001

>  <clusterid>
300

>  <is_centroid>
@

>  <class1>
631

>  <class2>
625

>  <population1>
41612

>  <population2>
877209

>  <population>
39300

>  <cansmi>
CC(c1ccc(cc1)Cn1nccc1N)C

>  <HBA2>
3

>  <HBD>
1

>  <logP>
3.2182

>  <TPSA>
43.84

>  <MW>
215.294

$$$$

 OpenBabel02121609142D

 11 11  0  0  0  0  0  0  0  0999 V2000
    0.4125    0.8125    0.0000 N   0  0  0  0  0  0  0  0  0  0  0  0
    0.4125   -0.8042    0.0000 C   0  0  0  0  0  0  0  0  0  0  0  0
    1.3625   -0.5000    0.0000 C   0  0  0  0  0  0  0  0  0  0  0  0
    1.3625    0.5000    0.0000 N   0  0  0  0  0  0  0  0  0  0  0  0
   -0.1750    0.0000    0.0000 C   0  0  0  0  0  0  0  0  0  0  0  0
   -1.1750    0.0000    0.0000 C   0  0  0  0  0  0  0  0  0  0  0  0
    2.1667   -1.0875    0.0000 N   0  0  0  0  0  0  0  0  0  0  0  0
    2.1667    1.0958    0.0000 C   0  0  0  0  0  0  0  0  0  0  0  0
   -1.1750   -1.0000    0.0000 C   0  0  0  0  0  0  0  0  0  0  0  0
   -1.1750    1.0000    0.0000 C   0  0  0  0  0  0  0  0  0  0  0  0
   -2.1750    0.0000    0.0000 C   0  0  0  0  0  0  0  0  0  0  0  0
  2  5  1  0  0  0  0
  2  3  2  0  0  0  0
  3  4  1  0  0  0  0
  4  1  1  0  0  0  0
  5  1  2  0  0  0  0
  6  5  1  0  0  0  0
  7  3  1  0  0  0  0
  8  4  1  0  0  0  0
  9  6  1  0  0  0  0
 10  6  1  0  0  0  0
 11  6  1  0  0  0  0
M  END
>  <idnumber>
T5232710

>  <LogP>
1.068000000000000e+000

>  <rotating_bonds>
1.000000000000000e+000

>  <hb_acceptors>
2.000000000000000e+000

>  <hb_donors>
1.000000000000000e+000

>  <PSA>
4.384000000000000e+001

>  <clusterid>
-437

>  <is_centroid>
@

>  <class1>
631

>  <population1>
41612

>  <population>
41612

>  <cansmi>
Cn1nc(cc1N)C(C)(C)C

>  <HBA2>
3

>  <HBD>
1

>  <logP>
1.881

>  <TPSA>
43.84

>  <MW>
153.225

$$$$

 OpenBabel02121609142D

 10 10  0  0  0  0  0  0  0  0999 V2000
   -0.0625    0.1458    0.0000 C   0  0  0  0  0  0  0  0  0  0  0  0
    0.7667    0.6958    0.0000 C   0  0  0  0  0  0  0  0  0  0  0  0
    1.5542    0.0833    0.0000 S   0  0  0  0  0  0  0  0  0  0  0  0
    0.2042   -0.8167    0.0000 C   0  0  0  0  0  0  0  0  0  0  0  0
    1.2042   -0.8625    0.0000 C   0  0  0  0  0  0  0  0  0  0  0  0
   -1.0000    0.4875    0.0000 C   0  0  0  0  0  0  0  0  0  0  0  0
   -1.7708   -0.1542    0.0000 O   0  0  0  0  0  0  0  0  0  0  0  0
    0.8042    1.6958    0.0000 C   0  0  0  0  0  0  0  0  0  0  0  0
    1.7667   -1.6917    0.0000 C   0  0  0  0  0  0  0  0  0  0  0  0
   -1.1708    1.4708    0.0000 C   0  0  0  0  0  0  0  0  0  0  0  0
  2  1  2  0  0  0  0
  3  2  1  0  0  0  0
  4  1  1  0  0  0  0
  5  4  2  0  0  0  0
  5  3  1  0  0  0  0
  6  1  1  0  0  0  0
  7  6  2  0  0  0  0
  8  2  1  0  0  0  0
  9  5  1  0  0  0  0
 10  6  1  0  0  0  0
M  END
>  <idnumber>
T5232774

>  <LogP>
2.355999999999999e+000

>  <rotating_bonds>
1.000000000000000e+000

>  <hb_acceptors>
2.000000000000000e+000

>  <hb_donors>
0.000000000000000e+000

>  <PSA>
4.531000000000000e+001

>  <clusterid>
-439

>  <is_centroid>
@

>  <class1>
645

>  <population1>
105961

>  <population>
105961

>  <cansmi>
Cc1sc(c(c1)C(=O)C)C

>  <HBA2>
2

>  <HBD>
0

>  <logP>
2.5675

>  <TPSA>
45.31

>  <MW>
154.229

$$$$

 OpenBabel02121609142D

 13 14  0  0  0  0  0  0  0  0999 V2000
    0.0000   -0.5000    0.0000 C   0  0  0  0  0  0  0  0  0  0  0  0
    0.8625    0.0000    0.0000 C   0  0  0  0  0  0  0  0  0  0  0  0
   -0.8708    0.0000    0.0000 C   0  0  0  0  0  0  0  0  0  0  0  0
   -0.8708    1.0000    0.0000 C   0  0  0  0  0  0  0  0  0  0  0  0
    0.8625    1.0000    0.0000 C   0  0  0  0  0  0  0  0  0  0  0  0
    0.0000    1.5000    0.0000 C   0  0  0  0  0  0  0  0  0  0  0  0
    1.7292   -0.5000    0.0000 C   0  0  3  0  0  0  0  0  0  0  0  0
    2.5917    0.0000    0.0000 N   0  0  0  0  0  0  0  0  0  0  0  0
   -1.7333   -0.5000    0.0000 C   0  0  0  0  0  0  0  0  0  0  0  0
   -1.7333    1.5000    0.0000 C   0  0  0  0  0  0  0  0  0  0  0  0
    1.7292   -1.5000    0.0000 C   0  0  0  0  0  0  0  0  0  0  0  0
   -2.6000    0.0000    0.0000 C   0  0  0  0  0  0  0  0  0  0  0  0
   -2.6000    1.0000    0.0000 C   0  0  0  0  0  0  0  0  0  0  0  0
  2  1  2  0  0  0  0
  3  1  1  0  0  0  0
  4  3  2  0  0  0  0
  5  2  1  0  0  0  0
  5  6  2  0  0  0  0
  6  4  1  0  0  0  0
  7  2  1  0  0  0  0
  8  7  1  0  0  0  0
  9  3  1  0  0  0  0
 10  4  1  0  0  0  0
 10 13  1  0  0  0  0
 11  7  1  0  0  0  0
 12  9  1  0  0  0  0
 13 12  1  0  0  0  0
M  END
>  <idnumber>
T5232776

>  <LogP>
2.975000000000000e+000

>  <rotating_bonds>
1.000000000000000e+000

>  <hb_acceptors>
1.000000000000000e+000

>  <hb_donors>
1.000000000000000e+000

>  <PSA>
2.602000000000000e+001

>  <clusterid>
-440

>  <is_centroid>
@

>  <class1>
807

>  <population1>
5384

>  <population>
5384

>  <cansmi>
CC(c1ccc2c(c1)CCCC2)N

>  <HBA2>
1

>  <HBD>
1

>  <logP>
3.2854

>  <TPSA>
26.02

>  <MW>
175.27

$$$$

 OpenBabel02121609142D

 13 14  0  0  0  0  0  0  0  0999 V2000
   -1.0083   -0.2542    0.0000 N   0  0  0  0  0  0  0  0  0  0  0  0
   -1.0083    0.7458    0.0000 C   0  0  0  0  0  0  0  0  0  0  0  0
   -1.9583   -0.5625    0.0000 C   0  0  0  0  0  0  0  0  0  0  0  0
   -2.5458    0.2458    0.0000 S   0  0  0  0  0  0  0  0  0  0  0  0
   -1.9583    1.0583    0.0000 C   0  0  0  0  0  0  0  0  0  0  0  0
    0.7167    0.9333    0.0000 N   0  0  0  0  0  0  0  0  0  0  0  0
   -0.2000    1.3375    0.0000 C   0  0  0  0  0  0  0  0  0  0  0  0
    0.8167   -0.0667    0.0000 C   0  0  0  0  0  0  0  0  0  0  0  0
    1.5250    1.5208    0.0000 C   0  0  0  0  0  0  0  0  0  0  0  0
   -2.2708   -1.5125    0.0000 C   0  0  0  0  0  0  0  0  0  0  0  0
    2.4375    1.1083    0.0000 C   0  0  0  0  0  0  0  0  0  0  0  0
    1.7292   -0.4667    0.0000 C   0  0  0  0  0  0  0  0  0  0  0  0
    2.5417    0.1208    0.0000 C   0  0  0  0  0  0  0  0  0  0  0  0
  2  1  1  0  0  0  0
  3  1  2  0  0  0  0
  4  3  1  0  0  0  0
  5  2  2  0  0  0  0
  5  4  1  0  0  0  0
  6  7  1  0  0  0  0
  7  2  1  0  0  0  0
  8  6  1  0  0  0  0
  9  6  1  0  0  0  0
 10  3  1  0  0  0  0
 11  9  1  0  0  0  0
 12  8  1  0  0  0  0
 12 13  1  0  0  0  0
 13 11  1  0  0  0  0
M  END
>  <idnumber>
T5233280

>  <LogP>
2.012000000000000e+000

>  <rotating_bonds>
2.000000000000000e+000

>  <hb_acceptors>
3.000000000000000e+000

>  <hb_donors>
0.000000000000000e+000

>  <PSA>
4.437000000000001e+001

>  <clusterid>
-444

>  <is_centroid>
@

>  <class1>
733

>  <class2>
639

>  <population1>
49846

>  <population2>
59855

>  <population>
1859

>  <cansmi>
Cc1scc(n1)CN1CCCCC1

>  <HBA2>
3

>  <HBD>
0

>  <logP>
2.3753

>  <TPSA>
44.37

>  <MW>
196.312

$$$$

 OpenBabel02121609142D

 15 16  0  0  0  0  0  0  0  0999 V2000
   -0.0333   -0.5375    0.0000 N   0  0  0  0  0  0  0  0  0  0  0  0
   -0.3875    1.1583    0.0000 C   0  0  0  0  0  0  0  0  0  0  0  0
   -0.6958    0.2083    0.0000 C   0  0  3  0  0  0  0  0  0  0  0  0
   -0.9750    1.9625    0.0000 S   0  0  0  0  0  0  0  0  0  0  0  0
    0.5625    1.4625    0.0000 C   0  0  0  0  0  0  0  0  0  0  0  0
   -0.3875    2.7708    0.0000 C   0  0  0  0  0  0  0  0  0  0  0  0
   -0.3375   -1.4917    0.0000 C   0  0  0  0  0  0  0  0  0  0  0  0
    0.9500   -0.3292    0.0000 C   0  0  0  0  0  0  0  0  0  0  0  0
    0.5625    2.4625    0.0000 C   0  0  0  0  0  0  0  0  0  0  0  0
    1.6167   -1.0750    0.0000 C   0  0  0  0  0  0  0  0  0  0  0  0
    0.3292   -2.2292    0.0000 C   0  0  0  0  0  0  0  0  0  0  0  0
   -1.9833   -0.9542    0.0000 N   0  0  0  0  0  0  0  0  0  0  0  0
   -1.6750   -0.0042    0.0000 C   0  0  0  0  0  0  0  0  0  0  0  0
    1.3125   -2.0250    0.0000 C   0  0  3  0  0  0  0  0  0  0  0  0
    1.9792   -2.7667    0.0000 C   0  0  0  0  0  0  0  0  0  0  0  0
  2  3  1  0  0  0  0
  3  1  1  0  0  0  0
  4  2  1  0  0  0  0
  5  2  2  0  0  0  0
  6  4  1  0  0  0  0
  7  1  1  0  0  0  0
  8  1  1  0  0  0  0
  9  5  1  0  0  0  0
  9  6  2  0  0  0  0
 10  8  1  0  0  0  0
 11  7  1  0  0  0  0
 11 14  1  0  0  0  0
 12 13  1  0  0  0  0
 13  3  1  0  0  0  0
 14 10  1  0  0  0  0
 15 14  1  0  0  0  0
M  END
>  <idnumber>
T5233318

>  <LogP>
2.566000000000000e+000

>  <rotating_bonds>
3.000000000000000e+000

>  <hb_acceptors>
3.000000000000000e+000

>  <hb_donors>
1.000000000000000e+000

>  <PSA>
5.750000000000000e+001

>  <clusterid>
304

>  <is_centroid>
@

>  <class1>
645

>  <class2>
639

>  <population1>
105961

>  <population2>
59855

>  <population>
5372

>  <cansmi>
NCC(c1cccs1)N1CCC(CC1)C

>  <HBA2>
3

>  <HBD>
1

>  <logP>
3.118

>  <TPSA>
57.5

>  <MW>
224.366

$$$$

 OpenBabel02121609142D

 12 13  0  0  0  0  0  0  0  0999 V2000
   -0.5000   -0.9542    0.0000 N   0  0  0  0  0  0  0  0  0  0  0  0
   -0.5000    0.0458    0.0000 N   0  0  0  0  0  0  0  0  0  0  0  0
   -1.4500   -1.2625    0.0000 C   0  0  0  0  0  0  0  0  0  0  0  0
   -2.0375   -0.4542    0.0000 C   0  0  0  0  0  0  0  0  0  0  0  0
   -1.4500    0.3583    0.0000 C   0  0  0  0  0  0  0  0  0  0  0  0
    0.3125    0.6333    0.0000 C   0  0  0  0  0  0  0  0  0  0  0  0
   -1.7583   -2.2125    0.0000 N   0  0  0  0  0  0  0  0  0  0  0  0
    1.2250    0.2333    0.0000 C   0  0  0  0  0  0  0  0  0  0  0  0
    0.2042    1.6333    0.0000 C   0  0  0  0  0  0  0  0  0  0  0  0
    1.0167    2.2208    0.0000 C   0  0  0  0  0  0  0  0  0  0  0  0
    2.0292    0.8208    0.0000 C   0  0  0  0  0  0  0  0  0  0  0  0
    1.9292    1.8083    0.0000 C   0  0  0  0  0  0  0  0  0  0  0  0
  2  1  1  0  0  0  0
  3  1  2  0  0  0  0
  4  3  1  0  0  0  0
  5  2  1  0  0  0  0
  5  4  1  0  0  0  0
  6  2  1  0  0  0  0
  7  3  1  0  0  0  0
  8  6  1  0  0  0  0
  9  6  2  0  0  0  0
 10  9  1  0  0  0  0
 11  8  2  0  0  0  0
 11 12  1  0  0  0  0
 12 10  2  0  0  0  0
M  END
>  <idnumber>
T5233402

>  <LogP>
1.373000000000000e+000

>  <rotating_bonds>
1.000000000000000e+000

>  <hb_acceptors>
3.000000000000000e+000

>  <hb_donors>
1.000000000000000e+000

>  <PSA>
4.161999999999998e+001

>  <clusterid>
-446

>  <is_centroid>
@

>  <class1>
663

>  <class2>
625

>  <population1>
5869

>  <population2>
877209

>  <population>
5531

>  <cansmi>
NC1=NN(CC1)c1ccccc1

>  <HBA2>
3

>  <HBD>
1

>  <logP>
1.3698

>  <TPSA>
41.62

>  <MW>
161.204

$$$$

 OpenBabel02121609142D

 12 13  0  0  0  0  0  0  0  0999 V2000
   -0.7125    0.8875    0.0000 N   0  0  0  0  0  0  0  0  0  0  0  0
    0.2375    1.1958    0.0000 C   0  0  0  0  0  0  0  0  0  0  0  0
   -1.3000    1.6958    0.0000 C   0  0  0  0  0  0  0  0  0  0  0  0
    1.2917   -1.3417    0.0000 N   0  0  0  0  0  0  0  0  0  0  0  0
   -0.7125    2.5083    0.0000 C   0  0  0  0  0  0  0  0  0  0  0  0
    0.2375    2.1958    0.0000 C   0  0  0  0  0  0  0  0  0  0  0  0
   -1.0208   -0.0625    0.0000 C   0  0  0  0  0  0  0  0  0  0  0  0
   -0.3500   -0.8042    0.0000 C   0  0  0  0  0  0  0  0  0  0  0  0
    0.6250   -0.6000    0.0000 C   0  0  0  0  0  0  0  0  0  0  0  0
    0.9875   -2.2917    0.0000 C   0  0  0  0  0  0  0  0  0  0  0  0
   -0.6625   -1.7542    0.0000 C   0  0  0  0  0  0  0  0  0  0  0  0
    0.0042   -2.5000    0.0000 C   0  0  0  0  0  0  0  0  0  0  0  0
  2  1  1  0  0  0  0
  3  1  1  0  0  0  0
  4  9  1  0  0  0  0
  4 10  2  0  0  0  0
  5  3  2  0  0  0  0
  6  2  2  0  0  0  0
  6  5  1  0  0  0  0
  7  1  1  0  0  0  0
  8  7  1  0  0  0  0
  9  8  2  0  0  0  0
 10 12  1  0  0  0  0
 11  8  1  0  0  0  0
 12 11  2  0  0  0  0
M  END
>  <idnumber>
T5233403

>  <LogP>
1.485000000000000e+000

>  <rotating_bonds>
2.000000000000000e+000

>  <hb_acceptors>
1.000000000000000e+000

>  <hb_donors>
0.000000000000000e+000

>  <PSA>
1.782000000000000e+001

>  <clusterid>
-447

>  <is_centroid>
@

>  <class1>
635

>  <class2>
632

>  <population1>
31512

>  <population2>
79489

>  <population>
1851

>  <cansmi>
c1ccc(cn1)Cn1cccc1

>  <HBA2>
2

>  <HBD>
0

>  <logP>
1.9314

>  <TPSA>
17.82

>  <MW>
158.2

$$$$

 OpenBabel02121609142D

 12 13  0  0  0  0  0  0  0  0999 V2000
   -1.4208    0.8125    0.0000 N   0  0  0  0  0  0  0  0  0  0  0  0
   -1.4208   -0.8042    0.0000 S   0  0  0  0  0  0  0  0  0  0  0  0
   -2.0083    0.0000    0.0000 C   0  0  0  0  0  0  0  0  0  0  0  0
   -0.4708   -0.4917    0.0000 C   0  0  0  0  0  0  0  0  0  0  0  0
   -0.4708    0.5000    0.0000 C   0  0  0  0  0  0  0  0  0  0  0  0
    0.4000   -1.0000    0.0000 C   0  0  0  0  0  0  0  0  0  0  0  0
    0.4000    1.0000    0.0000 C   0  0  0  0  0  0  0  0  0  0  0  0
    1.2667   -0.4917    0.0000 C   0  0  0  0  0  0  0  0  0  0  0  0
    1.2667    0.5000    0.0000 C   0  0  0  0  0  0  0  0  0  0  0  0
   -3.0083    0.0000    0.0000 C   0  0  0  0  0  0  0  0  0  0  0  0
    2.1292   -1.0000    0.0000 O   0  0  0  0  0  0  0  0  0  0  0  0
    3.0000   -0.4917    0.0000 C   0  0  0  0  0  0  0  0  0  0  0  0
  2  3  1  0  0  0  0
  2  4  1  0  0  0  0
  3  1  2  0  0  0  0
  4  5  2  0  0  0  0
  5  1  1  0  0  0  0
  6  4  1  0  0  0  0
  6  8  2  0  0  0  0
  7  5  1  0  0  0  0
  8  9  1  0  0  0  0
  9  7  2  0  0  0  0
 10  3  1  0  0  0  0
 11  8  1  0  0  0  0
 12 11  1  0  0  0  0
M  END
>  <idnumber>
T5233417

>  <LogP>
2.877000000000000e+000

>  <rotating_bonds>
1.000000000000000e+000

>  <hb_acceptors>
3.000000000000000e+000

>  <hb_donors>
0.000000000000000e+000

>  <PSA>
5.036000000000001e+001

>  <clusterid>
-448

>  <is_centroid>
@

>  <class1>
640

>  <population1>
23901

>  <population>
23901

>  <cansmi>
COc1ccc2c(c1)sc(n2)C

>  <HBA2>
3

>  <HBD>
0

>  <logP>
2.6133

>  <TPSA>
50.36

>  <MW>
179.239

$$$$

 OpenBabel02121609142D

 14 15  0  0  0  0  0  0  0  0999 V2000
    0.1542   -0.8042    0.0000 N   0  0  0  0  0  0  0  0  0  0  0  0
   -0.2083    0.8875    0.0000 C   0  0  0  0  0  0  0  0  0  0  0  0
   -0.5208   -0.0625    0.0000 C   0  0  3  0  0  0  0  0  0  0  0  0
   -0.7958    1.6958    0.0000 O   0  0  0  0  0  0  0  0  0  0  0  0
    0.7417    1.1958    0.0000 C   0  0  0  0  0  0  0  0  0  0  0  0
   -0.2083    2.5083    0.0000 C   0  0  0  0  0  0  0  0  0  0  0  0
    0.7417    2.1958    0.0000 C   0  0  0  0  0  0  0  0  0  0  0  0
   -1.8083   -1.2167    0.0000 N   0  0  0  0  0  0  0  0  0  0  0  0
   -1.4958   -0.2667    0.0000 C   0  0  0  0  0  0  0  0  0  0  0  0
    1.1292   -0.6000    0.0000 C   0  0  0  0  0  0  0  0  0  0  0  0
   -0.1583   -1.7542    0.0000 C   0  0  0  0  0  0  0  0  0  0  0  0
    0.5125   -2.5000    0.0000 C   0  0  0  0  0  0  0  0  0  0  0  0
    1.8000   -1.3417    0.0000 C   0  0  0  0  0  0  0  0  0  0  0  0
    1.4917   -2.2917    0.0000 C   0  0  0  0  0  0  0  0  0  0  0  0
  2  3  1  0  0  0  0
  3  1  1  0  0  0  0
  4  2  1  0  0  0  0
  5  2  2  0  0  0  0
  6  4  1  0  0  0  0
  7  5  1  0  0  0  0
  7  6  2  0  0  0  0
  8  9  1  0  0  0  0
  9  3  1  0  0  0  0
 10  1  1  0  0  0  0
 11  1  1  0  0  0  0
 12 11  1  0  0  0  0
 13 10  1  0  0  0  0
 13 14  1  0  0  0  0
 14 12  1  0  0  0  0
M  END
>  <idnumber>
T5233940

>  <LogP>
1.577000000000000e+000

>  <rotating_bonds>
3.000000000000000e+000

>  <hb_acceptors>
2.000000000000000e+000

>  <hb_donors>
1.000000000000000e+000

>  <PSA>
4.240000000000001e+001

>  <clusterid>
307

>  <is_centroid>
@

>  <class1>
704

>  <class2>
639

>  <population1>
51112

>  <population2>
59855

>  <population>
2157

>  <cansmi>
NCC(c1ccco1)N1CCCCC1

>  <HBA2>
3

>  <HBD>
1

>  <logP>
2.4035

>  <TPSA>
42.4

>  <MW>
194.273

$$$$

 OpenBabel02121609142D

 16 17  0  0  0  0  0  0  0  0999 V2000
    0.6292    0.6208    0.0000 C   0  0  0  0  0  0  0  0  0  0  0  0
    0.0417    1.4333    0.0000 O   0  0  0  0  0  0  0  0  0  0  0  0
    1.5792    0.9333    0.0000 C   0  0  0  0  0  0  0  0  0  0  0  0
    0.6292    2.2375    0.0000 C   0  0  0  0  0  0  0  0  0  0  0  0
    1.5792    1.9333    0.0000 C   0  0  0  0  0  0  0  0  0  0  0  0
    0.3167   -0.3292    0.0000 C   0  0  0  0  0  0  0  0  0  0  0  0
   -0.2958   -2.2292    0.0000 C   0  0  0  0  0  0  0  0  0  0  0  0
   -0.6583   -0.5375    0.0000 C   0  0  0  0  0  0  0  0  0  0  0  0
    0.9875   -1.0750    0.0000 C   0  0  0  0  0  0  0  0  0  0  0  0
   -0.9708   -1.4917    0.0000 C   0  0  0  0  0  0  0  0  0  0  0  0
    0.6792   -2.0250    0.0000 C   0  0  0  0  0  0  0  0  0  0  0  0
   -0.6083   -3.1792    0.0000 C   0  0  3  0  0  0  0  0  0  0  0  0
    0.0625   -3.9292    0.0000 O   0  0  0  0  0  0  0  0  0  0  0  0
    0.3167    3.1875    0.0000 C   0  0  0  0  0  0  0  0  0  0  0  0
    0.9875    3.9333    0.0000 O   0  0  0  0  0  0  0  0  0  0  0  0
   -1.5833   -3.3917    0.0000 C   0  0  0  0  0  0  0  0  0  0  0  0
  2  1  1  0  0  0  0
  3  1  2  0  0  0  0
  4  2  1  0  0  0  0
  5  3  1  0  0  0  0
  5  4  2  0  0  0  0
  6  1  1  0  0  0  0
  7 11  1  0  0  0  0
  8  6  2  0  0  0  0
  9  6  1  0  0  0  0
 10  8  1  0  0  0  0
 10  7  2  0  0  0  0
 11  9  2  0  0  0  0
 12  7  1  0  0  0  0
 13 12  1  0  0  0  0
 14  4  1  0  0  0  0
 15 14  1  0  0  0  0
 16 12  1  0  0  0  0
M  END
>  <idnumber>
T5234672

>  <LogP>
1.649000000000000e+000

>  <rotating_bonds>
3.000000000000000e+000

>  <hb_acceptors>
2.000000000000000e+000

>  <hb_donors>
2.000000000000000e+000

>  <PSA>
5.359999999999999e+001

>  <clusterid>
-456

>  <is_centroid>
@

>  <class1>
704

>  <class2>
625

>  <population1>
51112

>  <population2>
877209

>  <population>
42813

>  <cansmi>
OCc1ccc(o1)c1ccc(cc1)C(O)C

>  <HBA2>
3

>  <HBD>
2

>  <logP>
2.4922

>  <TPSA>
53.6

>  <MW>
218.248

$$$$

 OpenBabel02121609142D

 14 14  0  0  0  0  0  0  0  0999 V2000
    1.1875    0.4000    0.0000 C   0  0  0  0  0  0  0  0  0  0  0  0
    0.1917    0.4625    0.0000 C   0  0  0  0  0  0  0  0  0  0  0  0
   -0.1750   -0.4667    0.0000 N   0  0  0  0  0  0  0  0  0  0  0  0
    1.4375   -0.5667    0.0000 C   0  0  0  0  0  0  0  0  0  0  0  0
    0.5917   -1.1042    0.0000 C   0  0  0  0  0  0  0  0  0  0  0  0
    1.8250    1.1708    0.0000 C   0  0  0  0  0  0  0  0  0  0  0  0
    1.4750    2.1083    0.0000 O   0  0  0  0  0  0  0  0  0  0  0  0
   -1.1458   -0.7167    0.0000 C   0  0  3  0  0  0  0  0  0  0  0  0
    2.8042    1.0083    0.0000 N   0  0  0  0  0  0  0  0  0  0  0  0
   -0.3458    1.3083    0.0000 C   0  0  0  0  0  0  0  0  0  0  0  0
    0.5292   -2.1042    0.0000 C   0  0  0  0  0  0  0  0  0  0  0  0
   -1.8458   -0.0042    0.0000 C   0  0  0  0  0  0  0  0  0  0  0  0
   -1.4125   -1.6792    0.0000 C   0  0  0  0  0  0  0  0  0  0  0  0
   -2.8125   -0.2542    0.0000 C   0  0  0  0  0  0  0  0  0  0  0  0
  2  1  2  0  0  0  0
  3  2  1  0  0  0  0
  3  5  1  0  0  0  0
  4  1  1  0  0  0  0
  5  4  2  0  0  0  0
  6  1  1  0  0  0  0
  7  6  2  0  0  0  0
  8  3  1  0  0  0  0
  9  6  1  0  0  0  0
 10  2  1  0  0  0  0
 11  5  1  0  0  0  0
 12  8  1  0  0  0  0
 13  8  1  0  0  0  0
 14 12  1  0  0  0  0
M  END
>  <idnumber>
T5234800

>  <LogP>
1.996000000000000e+000

>  <rotating_bonds>
3.000000000000000e+000

>  <hb_acceptors>
1.000000000000000e+000

>  <hb_donors>
1.000000000000000e+000

>  <PSA>
4.802000000000000e+001

>  <clusterid>
-457

>  <is_centroid>
@

>  <class1>
635

>  <population1>
31512

>  <population>
31512

>  <cansmi>
CCC(n1c(C)cc(c1C)C(=O)N)C

>  <HBA2>
3

>  <HBD>
1

>  <logP>
2.8751

>  <TPSA>
48.02

>  <MW>
194.273

$$$$

 OpenBabel02121609142D

 18 19  0  0  0  0  0  0  0  0999 V2000
   -0.8833    1.4958    0.0000 C   0  0  0  0  0  0  0  0  0  0  0  0
   -1.1958    0.5458    0.0000 C   0  0  0  0  0  0  0  0  0  0  0  0
   -1.4708    2.3000    0.0000 C   0  0  0  0  0  0  0  0  0  0  0  0
   -0.5208   -0.2042    0.0000 N   0  0  0  0  0  0  0  0  0  0  0  0
    0.0667    1.8000    0.0000 C   0  0  0  0  0  0  0  0  0  0  0  0
   -0.8833    3.1083    0.0000 O   0  0  0  0  0  0  0  0  0  0  0  0
    0.8167   -1.6875    0.0000 N   0  0  0  0  0  0  0  0  0  0  0  0
    0.0667    2.8000    0.0000 C   0  0  0  0  0  0  0  0  0  0  0  0
    1.4875   -2.4292    0.0000 C   0  0  0  0  0  0  0  0  0  0  0  0
   -2.1708    0.3333    0.0000 O   0  0  0  0  0  0  0  0  0  0  0  0
   -0.8333   -1.1542    0.0000 C   0  0  0  0  0  0  0  0  0  0  0  0
    0.4542    0.0083    0.0000 C   0  0  0  0  0  0  0  0  0  0  0  0
   -0.1625   -1.8917    0.0000 C   0  0  0  0  0  0  0  0  0  0  0  0
    1.1250   -0.7375    0.0000 C   0  0  0  0  0  0  0  0  0  0  0  0
    2.4667   -2.2250    0.0000 O   0  0  0  0  0  0  0  0  0  0  0  0
   -2.4708    2.3000    0.0000 C   0  0  0  0  0  0  0  0  0  0  0  0
    1.1792   -3.3792    0.0000 C   0  0  0  0  0  0  0  0  0  0  0  0
    0.8792    3.3958    0.0000 C   0  0  0  0  0  0  0  0  0  0  0  0
  2  1  1  0  0  0  0
  3  1  2  0  0  0  0
  4  2  1  0  0  0  0
  5  1  1  0  0  0  0
  6  3  1  0  0  0  0
  7 14  1  0  0  0  0
  8  5  2  0  0  0  0
  8  6  1  0  0  0  0
  9  7  1  0  0  0  0
 10  2  2  0  0  0  0
 11  4  1  0  0  0  0
 12  4  1  0  0  0  0
 13 11  1  0  0  0  0
 13  7  1  0  0  0  0
 14 12  1  0  0  0  0
 15  9  2  0  0  0  0
 16  3  1  0  0  0  0
 17  9  1  0  0  0  0
 18  8  1  0  0  0  0
M  END
>  <idnumber>
T5235217

>  <LogP>
5.270000000000000e-001

>  <rotating_bonds>
1.000000000000000e+000

>  <hb_acceptors>
2.000000000000000e+000

>  <hb_donors>
0.000000000000000e+000

>  <PSA>
5.376000000000001e+001

>  <clusterid>
308

>  <is_centroid>
@

>  <class1>
704

>  <class2>
717

>  <population1>
51112

>  <population2>
74368

>  <population>
4190

>  <cansmi>
CC(=O)N1CCN(CC1)C(=O)c1cc(oc1C)C

>  <HBA2>
5

>  <HBD>
0

>  <logP>
1.0765

>  <TPSA>
53.76

>  <MW>
250.294

$$$$

 OpenBabel02121609142D

 16 17  0  0  0  0  0  0  0  0999 V2000
   -0.3458   -0.3292    0.0000 N   0  0  0  0  0  0  0  0  0  0  0  0
   -1.0083    0.4125    0.0000 C   0  0  0  0  0  0  0  0  0  0  0  0
   -0.7000    1.3625    0.0000 C   0  0  0  0  0  0  0  0  0  0  0  0
   -1.2875    2.1708    0.0000 C   0  0  0  0  0  0  0  0  0  0  0  0
    0.2500    1.6708    0.0000 S   0  0  0  0  0  0  0  0  0  0  0  0
    0.9917   -1.8167    0.0000 O   0  0  0  0  0  0  0  0  0  0  0  0
   -0.6500   -1.2792    0.0000 C   0  0  0  0  0  0  0  0  0  0  0  0
    0.6375   -0.1250    0.0000 C   0  0  0  0  0  0  0  0  0  0  0  0
    0.2500    2.6708    0.0000 C   0  0  0  0  0  0  0  0  0  0  0  0
   -1.9875    0.2083    0.0000 O   0  0  0  0  0  0  0  0  0  0  0  0
   -0.7000    2.9833    0.0000 C   0  0  0  0  0  0  0  0  0  0  0  0
    1.3042   -0.8667    0.0000 C   0  0  3  0  0  0  0  0  0  0  0  0
    0.0167   -2.0250    0.0000 C   0  0  3  0  0  0  0  0  0  0  0  0
   -2.2875    2.1708    0.0000 C   0  0  0  0  0  0  0  0  0  0  0  0
   -0.2958   -2.9750    0.0000 C   0  0  0  0  0  0  0  0  0  0  0  0
    2.2792   -0.6542    0.0000 C   0  0  0  0  0  0  0  0  0  0  0  0
  2  1  1  0  0  0  0
  3  2  1  0  0  0  0
  4  3  2  0  0  0  0
  5  3  1  0  0  0  0
  6 12  1  0  0  0  0
  7  1  1  0  0  0  0
  8  1  1  0  0  0  0
  9  5  1  0  0  0  0
  9 11  2  0  0  0  0
 10  2  2  0  0  0  0
 11  4  1  0  0  0  0
 12  8  1  0  0  0  0
 13  7  1  0  0  0  0
 13  6  1  0  0  0  0
 14  4  1  0  0  0  0
 15 13  1  0  0  0  0
 16 12  1  0  0  0  0
M  END
>  <idnumber>
T5237551

>  <LogP>
2.086000000000000e+000

>  <rotating_bonds>
1.000000000000000e+000

>  <hb_acceptors>
3.000000000000000e+000

>  <hb_donors>
0.000000000000000e+000

>  <PSA>
5.778000000000000e+001

>  <clusterid>
-463

>  <is_centroid>
@

>  <class1>
645

>  <class2>
786

>  <population1>
105961

>  <population2>
48067

>  <population>
4498

>  <cansmi>
CC1OC(C)CN(C1)C(=O)c1sccc1C

>  <HBA2>
4

>  <HBD>
0

>  <logP>
2.2438

>  <TPSA>
57.78

>  <MW>
239.334

$$$$

 OpenBabel02121609142D

 17 20  0  0  0  0  0  0  0  0999 V2000
   -0.0750   -0.7542    0.0000 C   0  0  3  0  0  0  0  0  0  0  0  0
   -0.7208   -0.0417    0.0000 C   0  0  0  0  0  0  0  0  0  0  0  0
   -0.3208    0.8208    0.0000 N   0  0  0  0  0  0  0  0  0  0  0  0
   -0.4125   -1.6292    0.0000 C   0  0  0  0  0  0  0  0  0  0  0  0
    0.1917   -1.8042    0.0000 C   0  0  0  0  0  0  0  0  0  0  0  0
    0.9125   -0.4792    0.0000 C   0  0  0  0  0  0  0  0  0  0  0  0
    1.2667   -1.0292    0.0000 C   0  0  3  0  0  0  0  0  0  0  0  0
    0.3250   -2.3500    0.0000 C   0  0  3  0  0  0  0  0  0  0  0  0
    1.6292   -1.3917    0.0000 C   0  0  3  0  0  0  0  0  0  0  0  0
   -1.6375   -0.3042    0.0000 O   0  0  0  0  0  0  0  0  0  0  0  0
    0.5167   -1.0542    0.0000 C   0  0  0  0  0  0  0  0  0  0  0  0
    0.8917   -1.9292    0.0000 C   0  0  0  0  0  0  0  0  0  0  0  0
    1.3292   -2.2292    0.0000 C   0  0  0  0  0  0  0  0  0  0  0  0
    0.5792    1.1208    0.0000 C   0  0  0  0  0  0  0  0  0  0  0  0
   -0.8833    1.5833    0.0000 C   0  0  0  0  0  0  0  0  0  0  0  0
   -0.3250    2.3583    0.0000 C   0  0  0  0  0  0  0  0  0  0  0  0
    0.5750    2.0625    0.0000 C   0  0  0  0  0  0  0  0  0  0  0  0
  2  1  1  0  0  0  0
  3  2  1  0  0  0  0
  4  1  1  0  0  0  0
  5  1  1  0  0  0  0
  6  1  1  0  0  0  0
  7  5  1  0  0  0  0
  8  4  1  0  0  0  0
  8 13  1  0  0  0  0
  8 11  1  0  0  0  0
  9  6  1  0  0  0  0
 10  2  2  0  0  0  0
 11  7  1  0  0  0  0
 12  9  1  0  0  0  0
 12  7  1  0  0  0  0
 13  9  1  0  0  0  0
 14  3  1  0  0  0  0
 15  3  1  0  0  0  0
 16 15  1  0  0  0  0
 17 14  1  0  0  0  0
 17 16  1  0  0  0  0
M  END
>  <idnumber>
T5237555

>  <LogP>
2.081000000000000e+000

>  <rotating_bonds>
1.000000000000000e+000

>  <hb_acceptors>
1.000000000000000e+000

>  <hb_donors>
0.000000000000000e+000

>  <PSA>
2.031000000000000e+001

>  <clusterid>
-464

>  <is_centroid>
@

>  <class1>
809

>  <class2>
642

>  <population1>
8162

>  <population2>
51183

>  <population>
299

>  <cansmi>
O=C(C12CC3CC(C2)CC(C1)C3)N1CCCC1

>  <HBA2>
2

>  <HBD>
0

>  <logP>
2.7631

>  <TPSA>
20.31

>  <MW>
233.349

$$$$

 OpenBabel02121609142D

 10 11  0  0  0  0  0  0  0  0999 V2000
   -0.5000   -0.9750    0.0000 C   0  0  0  0  0  0  0  0  0  0  0  0
   -0.5000    0.0250    0.0000 N   0  0  0  0  0  0  0  0  0  0  0  0
    0.4500   -1.2792    0.0000 N   0  0  0  0  0  0  0  0  0  0  0  0
   -1.4583   -1.2792    0.0000 S   0  0  0  0  0  0  0  0  0  0  0  0
    0.4500    0.3375    0.0000 C   0  0  0  0  0  0  0  0  0  0  0  0
   -1.4583    0.3375    0.0000 C   0  0  0  0  0  0  0  0  0  0  0  0
    1.0375   -0.4750    0.0000 C   0  0  0  0  0  0  0  0  0  0  0  0
   -2.0458   -0.4750    0.0000 C   0  0  0  0  0  0  0  0  0  0  0  0
   -1.7625    1.2875    0.0000 C   0  0  0  0  0  0  0  0  0  0  0  0
    2.0375   -0.4750    0.0000 C   0  0  0  0  0  0  0  0  0  0  0  0
  2  1  1  0  0  0  0
  3  1  2  0  0  0  0
  4  1  1  0  0  0  0
  5  2  1  0  0  0  0
  6  2  1  0  0  0  0
  6  8  2  0  0  0  0
  7  3  1  0  0  0  0
  7  5  2  0  0  0  0
  8  4  1  0  0  0  0
  9  6  1  0  0  0  0
 10  7  1  0  0  0  0
M  END
>  <idnumber>
T5241037

>  <LogP>
1.965000000000000e+000

>  <rotating_bonds>
0.000000000000000e+000

>  <hb_acceptors>
3.000000000000000e+000

>  <hb_donors>
0.000000000000000e+000

>  <PSA>
4.553999999999999e+001

>  <clusterid>
-465

>  <is_centroid>
@

>  <class1>
637

>  <population1>
2048

>  <population>
2048

>  <cansmi>
Cc1nc2n(c1)c(cs2)C

>  <HBA2>
3

>  <HBD>
0

>  <logP>
2.0126

>  <TPSA>
45.54

>  <MW>
152.217

$$$$

 OpenBabel02121609142D

 10 11  0  0  0  0  0  0  0  0999 V2000
    1.0417   -0.4250    0.0000 C   0  0  0  0  0  0  0  0  0  0  0  0
    1.6292    0.3833    0.0000 N   0  0  0  0  0  0  0  0  0  0  0  0
    0.0917   -0.1167    0.0000 C   0  0  0  0  0  0  0  0  0  0  0  0
    1.0417    1.1958    0.0000 S   0  0  0  0  0  0  0  0  0  0  0  0
    0.0917    0.8833    0.0000 C   0  0  0  0  0  0  0  0  0  0  0  0
    1.3542   -1.3792    0.0000 O   0  0  0  0  0  0  0  0  0  0  0  0
   -0.7708   -0.6167    0.0000 C   0  0  0  0  0  0  0  0  0  0  0  0
   -0.7708    1.3833    0.0000 C   0  0  0  0  0  0  0  0  0  0  0  0
   -1.6375   -0.1167    0.0000 C   0  0  0  0  0  0  0  0  0  0  0  0
   -1.6375    0.8833    0.0000 C   0  0  0  0  0  0  0  0  0  0  0  0
  2  1  1  0  0  0  0
  3  1  1  0  0  0  0
  4  2  1  0  0  0  0
  4  5  1  0  0  0  0
  5  3  2  0  0  0  0
  6  1  2  0  0  0  0
  7  3  1  0  0  0  0
  8  5  1  0  0  0  0
  8 10  2  0  0  0  0
  9  7  2  0  0  0  0
 10  9  1  0  0  0  0
M  END
>  <idnumber>
T5241073

>  <LogP>
6.080000000000000e-001

>  <rotating_bonds>
0.000000000000000e+000

>  <hb_acceptors>
2.000000000000000e+000

>  <hb_donors>
1.000000000000000e+000

>  <PSA>
5.440000000000001e+001

>  <clusterid>
-466

>  <is_centroid>
@

>  <class1>
638

>  <population1>
820

>  <population>
820

>  <cansmi>
O=c1[nH]sc2c1cccc2

>  <HBA2>
2

>  <HBD>
1

>  <logP>
1.5896

>  <TPSA>
61.1

>  <MW>
151.186

$$$$

 OpenBabel02121609142D

 19 21  0  0  0  0  0  0  0  0999 V2000
   -0.2833    1.0000    0.0000 N   0  0  0  0  0  0  0  0  0  0  0  0
    0.0250    0.0500    0.0000 C   0  0  0  0  0  0  0  0  0  0  0  0
    1.0042   -0.1542    0.0000 C   0  0  0  0  0  0  0  0  0  0  0  0
   -1.2333    1.3083    0.0000 C   0  0  0  0  0  0  0  0  0  0  0  0
    1.3125   -1.1042    0.0000 C   0  0  0  0  0  0  0  0  0  0  0  0
    0.3042    1.8083    0.0000 C   0  0  0  0  0  0  0  0  0  0  0  0
   -0.6458   -0.6917    0.0000 O   0  0  0  0  0  0  0  0  0  0  0  0
    2.2917   -1.3167    0.0000 N   0  0  0  0  0  0  0  0  0  0  0  0
   -1.2333    2.3083    0.0000 C   0  0  0  0  0  0  0  0  0  0  0  0
   -0.2833    2.6208    0.0000 C   0  0  0  0  0  0  0  0  0  0  0  0
    0.6417   -1.8542    0.0000 S   0  0  0  0  0  0  0  0  0  0  0  0
    1.6750    0.5833    0.0000 C   0  0  0  0  0  0  0  0  0  0  0  0
   -2.1000    0.8083    0.0000 C   0  0  0  0  0  0  0  0  0  0  0  0
    2.9625   -0.5750    0.0000 C   0  0  0  0  0  0  0  0  0  0  0  0
   -2.1000    2.8083    0.0000 C   0  0  0  0  0  0  0  0  0  0  0  0
    0.9542   -2.8042    0.0000 C   0  0  0  0  0  0  0  0  0  0  0  0
    2.6542    0.3750    0.0000 C   0  0  0  0  0  0  0  0  0  0  0  0
   -2.9708    1.3083    0.0000 C   0  0  0  0  0  0  0  0  0  0  0  0
   -2.9708    2.3083    0.0000 C   0  0  0  0  0  0  0  0  0  0  0  0
  2  1  1  0  0  0  0
  3  2  1  0  0  0  0
  4  1  1  0  0  0  0
  5  3  2  0  0  0  0
  6  1  1  0  0  0  0
  7  2  2  0  0  0  0
  8  5  1  0  0  0  0
  8 14  2  0  0  0  0
  9  4  2  0  0  0  0
 10  6  1  0  0  0  0
 10  9  1  0  0  0  0
 11  5  1  0  0  0  0
 12  3  1  0  0  0  0
 13  4  1  0  0  0  0
 14 17  1  0  0  0  0
 15  9  1  0  0  0  0
 15 19  2  0  0  0  0
 16 11  1  0  0  0  0
 17 12  2  0  0  0  0
 18 13  2  0  0  0  0
 19 18  1  0  0  0  0
M  END
>  <idnumber>
T5242950

>  <LogP>
2.680000000000000e+000

>  <rotating_bonds>
2.000000000000000e+000

>  <hb_acceptors>
3.000000000000000e+000

>  <hb_donors>
0.000000000000000e+000

>  <PSA>
5.850000000000000e+001

>  <clusterid>
-467

>  <is_centroid>
@

>  <class1>
732

>  <class2>
632

>  <population1>
13534

>  <population2>
79489

>  <population>
631

>  <cansmi>
CSc1ncccc1C(=O)N1CCc2c1cccc2

>  <HBA2>
4

>  <HBD>
0

>  <logP>
3.0714

>  <TPSA>
58.5

>  <MW>
270.349

$$$$

 OpenBabel02121609142D

 15 16  0  0  0  0  0  0  0  0999 V2000
   -1.7333   -0.7500    0.0000 N   0  0  0  0  0  0  0  0  0  0  0  0
   -0.8708   -1.2417    0.0000 C   0  0  0  0  0  0  0  0  0  0  0  0
    0.0000    0.2500    0.0000 C   0  0  3  0  0  0  0  0  0  0  0  0
    0.0000   -0.7500    0.0000 N   0  0  0  0  0  0  0  0  0  0  0  0
   -1.7333    0.2500    0.0000 C   0  0  0  0  0  0  0  0  0  0  0  0
   -0.8708    0.7500    0.0000 C   0  0  0  0  0  0  0  0  0  0  0  0
    0.8625    0.7500    0.0000 C   0  0  0  0  0  0  0  0  0  0  0  0
   -0.8708   -2.2500    0.0000 O   0  0  0  0  0  0  0  0  0  0  0  0
    1.7292    0.2500    0.0000 C   0  0  0  0  0  0  0  0  0  0  0  0
   -2.6000    0.7500    0.0000 O   0  0  0  0  0  0  0  0  0  0  0  0
    1.7292   -0.7500    0.0000 Cl  0  0  0  0  0  0  0  0  0  0  0  0
    0.8625    1.7500    0.0000 C   0  0  0  0  0  0  0  0  0  0  0  0
    2.5917    0.7500    0.0000 C   0  0  0  0  0  0  0  0  0  0  0  0
    1.7292    2.2500    0.0000 C   0  0  0  0  0  0  0  0  0  0  0  0
    2.5917    1.7500    0.0000 C   0  0  0  0  0  0  0  0  0  0  0  0
  2  1  1  0  0  0  0
  3  6  1  0  0  0  0
  4  2  1  0  0  0  0
  4  3  1  0  0  0  0
  5  1  1  0  0  0  0
  6  5  1  0  0  0  0
  7  3  1  0  0  0  0
  8  2  2  0  0  0  0
  9  7  2  0  0  0  0
 10  5  2  0  0  0  0
 11  9  1  0  0  0  0
 12  7  1  0  0  0  0
 13  9  1  0  0  0  0
 13 15  2  0  0  0  0
 14 12  2  0  0  0  0
 15 14  1  0  0  0  0
M  END
>  <idnumber>
T5243048

>  <LogP>
1.649000000000000e+000

>  <rotating_bonds>
1.000000000000000e+000

>  <hb_acceptors>
3.000000000000000e+000

>  <hb_donors>
2.000000000000000e+000

>  <PSA>
5.820000000000000e+001

>  <clusterid>
314

>  <is_centroid>
@

>  <class1>
870

>  <class2>
625

>  <population1>
651

>  <population2>
877209

>  <population>
546

>  <cansmi>
O=C1NC(=O)NC(C1)c1ccccc1Cl

>  <HBA2>
4

>  <HBD>
2

>  <logP>
2.2682

>  <TPSA>
58.2

>  <MW>
224.644

$$$$

 OpenBabel02121609142D

 15 16  0  0  0  0  0  0  0  0999 V2000
   -1.7333    1.2500    0.0000 N   0  0  0  0  0  0  0  0  0  0  0  0
   -1.7333    0.2500    0.0000 C   0  0  0  0  0  0  0  0  0  0  0  0
   -0.8708   -0.2500    0.0000 N   0  0  0  0  0  0  0  0  0  0  0  0
   -0.8708    1.7500    0.0000 C   0  0  0  0  0  0  0  0  0  0  0  0
    0.0000    0.2500    0.0000 C   0  0  3  0  0  0  0  0  0  0  0  0
    0.0000    1.2500    0.0000 C   0  0  0  0  0  0  0  0  0  0  0  0
    0.8625   -0.2500    0.0000 C   0  0  0  0  0  0  0  0  0  0  0  0
   -2.6000   -0.2500    0.0000 O   0  0  0  0  0  0  0  0  0  0  0  0
   -0.8708    2.7500    0.0000 O   0  0  0  0  0  0  0  0  0  0  0  0
    0.8625   -1.2500    0.0000 C   0  0  0  0  0  0  0  0  0  0  0  0
    1.7292   -1.7500    0.0000 C   0  0  0  0  0  0  0  0  0  0  0  0
    1.7292   -2.7500    0.0000 Br  0  0  0  0  0  0  0  0  0  0  0  0
    1.7292    0.2500    0.0000 C   0  0  0  0  0  0  0  0  0  0  0  0
    2.5917   -0.2500    0.0000 C   0  0  0  0  0  0  0  0  0  0  0  0
    2.5917   -1.2500    0.0000 C   0  0  0  0  0  0  0  0  0  0  0  0
  2  1  1  0  0  0  0
  3  2  1  0  0  0  0
  3  5  1  0  0  0  0
  4  1  1  0  0  0  0
  5  6  1  0  0  0  0
  6  4  1  0  0  0  0
  7  5  1  0  0  0  0
  8  2  2  0  0  0  0
  9  4  2  0  0  0  0
 10  7  1  0  0  0  0
 11 10  2  0  0  0  0
 11 15  1  0  0  0  0
 12 11  1  0  0  0  0
 13  7  2  0  0  0  0
 14 13  1  0  0  0  0
 15 14  2  0  0  0  0
M  END
>  <idnumber>
T5243060

>  <LogP>
1.799000000000000e+000

>  <rotating_bonds>
1.000000000000000e+000

>  <hb_acceptors>
2.000000000000000e+000

>  <hb_donors>
2.000000000000000e+000

>  <PSA>
5.820000000000000e+001

>  <clusterid>
-468

>  <is_centroid>
@

>  <class1>
870

>  <class2>
625

>  <population1>
651

>  <population2>
877209

>  <population>
546

>  <cansmi>
O=C1NC(=O)NC(C1)c1cccc(c1)Br

>  <HBA2>
4

>  <HBD>
2

>  <logP>
2.3773

>  <TPSA>
58.2

>  <MW>
269.095

$$$$

 OpenBabel02121609142D

 15 17  0  0  0  0  0  0  0  0999 V2000
   -0.4583    0.8125    0.0000 N   0  0  0  0  0  0  0  0  0  0  0  0
    0.1292    0.0000    0.0000 C   0  0  0  0  0  0  0  0  0  0  0  0
   -0.4583   -0.8042    0.0000 O   0  0  0  0  0  0  0  0  0  0  0  0
   -1.4083    0.5000    0.0000 C   0  0  0  0  0  0  0  0  0  0  0  0
   -1.4083   -0.5000    0.0000 C   0  0  0  0  0  0  0  0  0  0  0  0
    3.1292    0.0000    0.0000 N   0  0  0  0  0  0  0  0  0  0  0  0
    1.1292    0.0000    0.0000 C   0  0  0  0  0  0  0  0  0  0  0  0
   -2.2708    1.0000    0.0000 C   0  0  0  0  0  0  0  0  0  0  0  0
   -2.2708   -1.0000    0.0000 C   0  0  0  0  0  0  0  0  0  0  0  0
    2.6292    0.8708    0.0000 C   0  0  0  0  0  0  0  0  0  0  0  0
    2.6292   -0.8625    0.0000 C   0  0  0  0  0  0  0  0  0  0  0  0
    1.6292   -0.8625    0.0000 C   0  0  0  0  0  0  0  0  0  0  0  0
    1.6292    0.8708    0.0000 C   0  0  0  0  0  0  0  0  0  0  0  0
   -3.1375   -0.5000    0.0000 C   0  0  0  0  0  0  0  0  0  0  0  0
   -3.1375    0.5000    0.0000 C   0  0  0  0  0  0  0  0  0  0  0  0
  2  1  2  0  0  0  0
  3  2  1  0  0  0  0
  4  1  1  0  0  0  0
  5  4  2  0  0  0  0
  5  3  1  0  0  0  0
  6 10  1  0  0  0  0
  7  2  1  0  0  0  0
  8  4  1  0  0  0  0
  9  5  1  0  0  0  0
  9 14  2  0  0  0  0
 10 13  1  0  0  0  0
 11 12  1  0  0  0  0
 11  6  1  0  0  0  0
 12  7  1  0  0  0  0
 13  7  1  0  0  0  0
 14 15  1  0  0  0  0
 15  8  2  0  0  0  0
M  END
>  <idnumber>
T5243112

>  <LogP>
1.386000000000000e+000

>  <rotating_bonds>
1.000000000000000e+000

>  <hb_acceptors>
2.000000000000000e+000

>  <hb_donors>
1.000000000000000e+000

>  <PSA>
3.806000000000000e+001

>  <clusterid>
315

>  <is_centroid>
@

>  <class1>
639

>  <class2>
752

>  <population1>
59855

>  <population2>
4005

>  <population>
741

>  <cansmi>
N1CCC(CC1)c1nc2c(o1)cccc2

>  <HBA2>
3

>  <HBD>
1

>  <logP>
2.6236

>  <TPSA>
38.06

>  <MW>
202.252

$$$$

 OpenBabel02121609142D

 20 22  0  0  0  0  0  0  0  0999 V2000
   -0.4333    0.5000    0.0000 C   0  0  0  0  0  0  0  0  0  0  0  0
   -1.3000    0.0000    0.0000 C   0  0  3  0  0  0  0  0  0  0  0  0
    0.4292    0.0000    0.0000 C   0  0  0  0  0  0  0  0  0  0  0  0
   -0.4333    1.5083    0.0000 C   0  0  0  0  0  0  0  0  0  0  0  0
    1.2917    0.5000    0.0000 C   0  0  0  0  0  0  0  0  0  0  0  0
    0.4292    2.0000    0.0000 C   0  0  0  0  0  0  0  0  0  0  0  0
    1.2917    1.5083    0.0000 C   0  0  0  0  0  0  0  0  0  0  0  0
   -2.1708    0.5000    0.0000 N   0  0  0  0  0  0  0  0  0  0  0  0
   -1.3000   -1.0000    0.0000 C   0  0  0  0  0  0  0  0  0  0  0  0
   -2.1708    1.5083    0.0000 C   0  0  0  0  0  0  0  0  0  0  0  0
    2.1625    0.0000    0.0000 O   0  0  0  0  0  0  0  0  0  0  0  0
    2.1625    2.0000    0.0000 O   0  0  0  0  0  0  0  0  0  0  0  0
   -1.3000    2.0000    0.0000 C   0  0  0  0  0  0  0  0  0  0  0  0
   -2.1708   -1.5000    0.0000 C   0  0  0  0  0  0  0  0  0  0  0  0
   -0.4333   -1.5000    0.0000 C   0  0  0  0  0  0  0  0  0  0  0  0
    2.1625    3.0000    0.0000 C   0  0  0  0  0  0  0  0  0  0  0  0
    2.1625   -1.0000    0.0000 C   0  0  0  0  0  0  0  0  0  0  0  0
   -2.1708   -2.5000    0.0000 C   0  0  0  0  0  0  0  0  0  0  0  0
   -0.4333   -2.5000    0.0000 C   0  0  0  0  0  0  0  0  0  0  0  0
   -1.3000   -3.0000    0.0000 C   0  0  0  0  0  0  0  0  0  0  0  0
  2  1  1  0  0  0  0
  3  1  2  0  0  0  0
  4  1  1  0  0  0  0
  5  3  1  0  0  0  0
  5  7  2  0  0  0  0
  6  4  2  0  0  0  0
  7  6  1  0  0  0  0
  8  2  1  0  0  0  0
  9  2  1  0  0  0  0
 10 13  1  0  0  0  0
 10  8  1  0  0  0  0
 11  5  1  0  0  0  0
 12  7  1  0  0  0  0
 13  4  1  0  0  0  0
 14  9  1  0  0  0  0
 15  9  2  0  0  0  0
 16 12  1  0  0  0  0
 17 11  1  0  0  0  0
 18 14  2  0  0  0  0
 18 20  1  0  0  0  0
 19 15  1  0  0  0  0
 20 19  2  0  0  0  0
M  END
>  <idnumber>
T5246244

>  <LogP>
2.811000000000000e+000

>  <rotating_bonds>
3.000000000000000e+000

>  <hb_acceptors>
3.000000000000000e+000

>  <hb_donors>
1.000000000000000e+000

>  <PSA>
3.049000000000000e+001

>  <clusterid>
318

>  <is_centroid>
@

>  <class1>
750

>  <class2>
625

>  <population1>
7929

>  <population2>
877209

>  <population>
7929

>  <cansmi>
COc1cc2c(cc1OC)CCNC2c1ccccc1

>  <HBA2>
3

>  <HBD>
1

>  <logP>
3.2677

>  <TPSA>
30.49

>  <MW>
269.338

$$$$

 OpenBabel02121609142D

 22 25  0  0  0  0  0  0  0  0999 V2000
   -0.6333    1.4750    0.0000 C   0  0  3  0  0  0  0  0  0  0  0  0
    0.2000    0.8833    0.0000 C   0  0  0  0  0  0  0  0  0  0  0  0
   -2.0333    1.1958    0.0000 C   0  0  3  0  0  0  0  0  0  0  0  0
    0.0000   -0.0667    0.0000 N   0  0  0  0  0  0  0  0  0  0  0  0
    0.8417   -0.4750    0.0000 C   0  0  0  0  0  0  0  0  0  0  0  0
   -1.3583    2.3583    0.0000 C   0  0  0  0  0  0  0  0  0  0  0  0
   -0.6958    2.4333    0.0000 C   0  0  0  0  0  0  0  0  0  0  0  0
   -1.4708    0.8958    0.0000 C   0  0  0  0  0  0  0  0  0  0  0  0
   -2.4875    1.4833    0.0000 C   0  0  3  0  0  0  0  0  0  0  0  0
   -1.5833    2.8500    0.0000 C   0  0  3  0  0  0  0  0  0  0  0  0
    1.6667    0.0083    0.0000 C   0  0  0  0  0  0  0  0  0  0  0  0
    0.8000    1.6250    0.0000 O   0  0  0  0  0  0  0  0  0  0  0  0
    0.8417   -1.4250    0.0000 C   0  0  0  0  0  0  0  0  0  0  0  0
   -1.2458    1.4833    0.0000 C   0  0  0  0  0  0  0  0  0  0  0  0
   -2.0875    2.1458    0.0000 C   0  0  0  0  0  0  0  0  0  0  0  0
   -2.5083    2.4583    0.0000 C   0  0  0  0  0  0  0  0  0  0  0  0
    2.4917   -0.4667    0.0000 C   0  0  0  0  0  0  0  0  0  0  0  0
   -2.4333    0.3458    0.0000 O   0  0  0  0  0  0  0  0  0  0  0  0
    1.6667   -1.9000    0.0000 C   0  0  0  0  0  0  0  0  0  0  0  0
    2.5000   -1.4167    0.0000 C   0  0  0  0  0  0  0  0  0  0  0  0
    1.8667    0.9208    0.0000 C   0  0  0  0  0  0  0  0  0  0  0  0
    1.6667   -2.8417    0.0000 C   0  0  0  0  0  0  0  0  0  0  0  0
  2  1  1  0  0  0  0
  3  6  1  0  0  0  0
  3 14  1  0  0  0  0
  4  2  1  0  0  0  0
  5  4  1  0  0  0  0
  6  1  1  0  0  0  0
  7  1  1  0  0  0  0
  8  1  1  0  0  0  0
  9  8  1  0  0  0  0
 10  7  1  0  0  0  0
 10 16  1  0  0  0  0
 11  5  2  0  0  0  0
 12  2  2  0  0  0  0
 13  5  1  0  0  0  0
 14 10  1  0  0  0  0
 15  9  1  0  0  0  0
 15  3  1  0  0  0  0
 16  9  1  0  0  0  0
 17 11  1  0  0  0  0
 18  3  1  0  0  0  0
 19 13  2  0  0  0  0
 20 19  1  0  0  0  0
 20 17  2  0  0  0  0
 21 11  1  0  0  0  0
 22 19  1  0  0  0  0
M  END
>  <idnumber>
T5248117

>  <LogP>
2.711000000000000e+000

>  <rotating_bonds>
2.000000000000000e+000

>  <hb_acceptors>
2.000000000000000e+000

>  <hb_donors>
2.000000000000000e+000

>  <PSA>
4.933000000000001e+001

>  <clusterid>
320

>  <is_centroid>
@

>  <class1>
809

>  <class2>
625

>  <population1>
8162

>  <population2>
877209

>  <population>
5907

>  <cansmi>
Cc1ccc(c(c1)NC(=O)C12CC3CC(C1)CC(C2)(C3)O)C

>  <HBA2>
3

>  <HBD>
2

>  <logP>
3.6462

>  <TPSA>
49.33

>  <MW>
299.407

$$$$

 OpenBabel02121609142D

 15 17  0  0  0  0  0  0  0  0999 V2000
    0.1292    0.0000    0.0000 C   0  0  0  0  0  0  0  0  0  0  0  0
   -0.4583    0.8125    0.0000 N   0  0  0  0  0  0  0  0  0  0  0  0
   -0.4583   -0.8042    0.0000 S   0  0  0  0  0  0  0  0  0  0  0  0
   -1.4083    0.5000    0.0000 C   0  0  0  0  0  0  0  0  0  0  0  0
    1.1292    0.0000    0.0000 C   0  0  3  0  0  0  0  0  0  0  0  0
   -1.4083   -0.5000    0.0000 C   0  0  0  0  0  0  0  0  0  0  0  0
    2.6292    0.8708    0.0000 N   0  0  0  0  0  0  0  0  0  0  0  0
    1.6292    0.8708    0.0000 C   0  0  0  0  0  0  0  0  0  0  0  0
    1.6292   -0.8625    0.0000 C   0  0  0  0  0  0  0  0  0  0  0  0
   -2.2708    1.0000    0.0000 C   0  0  0  0  0  0  0  0  0  0  0  0
   -2.2708   -1.0000    0.0000 C   0  0  0  0  0  0  0  0  0  0  0  0
    3.1292    0.0000    0.0000 C   0  0  0  0  0  0  0  0  0  0  0  0
    2.6292   -0.8625    0.0000 C   0  0  0  0  0  0  0  0  0  0  0  0
   -3.1375   -0.5000    0.0000 C   0  0  0  0  0  0  0  0  0  0  0  0
   -3.1375    0.5000    0.0000 C   0  0  0  0  0  0  0  0  0  0  0  0
  2  1  2  0  0  0  0
  3  1  1  0  0  0  0
  4  2  1  0  0  0  0
  4  6  2  0  0  0  0
  5  1  1  0  0  0  0
  6  3  1  0  0  0  0
  7  8  1  0  0  0  0
  8  5  1  0  0  0  0
  9  5  1  0  0  0  0
 10  4  1  0  0  0  0
 11  6  1  0  0  0  0
 12 13  1  0  0  0  0
 12  7  1  0  0  0  0
 13  9  1  0  0  0  0
 14 11  2  0  0  0  0
 15 10  2  0  0  0  0
 15 14  1  0  0  0  0
M  END
>  <idnumber>
T5248700

>  <LogP>
2.431000000000000e+000

>  <rotating_bonds>
1.000000000000000e+000

>  <hb_acceptors>
3.000000000000000e+000

>  <hb_donors>
1.000000000000000e+000

>  <PSA>
5.316000000000000e+001

>  <clusterid>
-475

>  <is_centroid>
@

>  <class1>
639

>  <class2>
640

>  <population1>
59855

>  <population2>
23901

>  <population>
3045

>  <cansmi>
C1CCC(CN1)c1nc2c(s1)cccc2

>  <HBA2>
3

>  <HBD>
1

>  <logP>
3.0921

>  <TPSA>
53.16

>  <MW>
218.318

$$$$

 OpenBabel02121609142D

 19 21  0  0  0  0  0  0  0  0999 V2000
    0.4542    1.5208    0.0000 N   0  0  0  0  0  0  0  0  0  0  0  0
    1.3250    0.0208    0.0000 C   0  0  0  0  0  0  0  0  0  0  0  0
   -1.2708    1.5208    0.0000 C   0  0  0  0  0  0  0  0  0  0  0  0
   -0.4083    1.0208    0.0000 C   0  0  0  0  0  0  0  0  0  0  0  0
    2.1917   -0.4792    0.0000 N   0  0  0  0  0  0  0  0  0  0  0  0
    1.3250    1.0208    0.0000 C   0  0  0  0  0  0  0  0  0  0  0  0
   -1.2708    2.5208    0.0000 C   0  0  0  0  0  0  0  0  0  0  0  0
    0.4542   -0.4792    0.0000 O   0  0  0  0  0  0  0  0  0  0  0  0
    0.4542    2.5208    0.0000 C   0  0  0  0  0  0  0  0  0  0  0  0
   -0.4083    3.0208    0.0000 C   0  0  0  0  0  0  0  0  0  0  0  0
    2.1917   -1.4792    0.0000 C   0  0  0  0  0  0  0  0  0  0  0  0
   -2.1375    1.0208    0.0000 C   0  0  0  0  0  0  0  0  0  0  0  0
   -2.1375    3.0208    0.0000 C   0  0  0  0  0  0  0  0  0  0  0  0
    1.3792   -2.0667    0.0000 C   0  0  0  0  0  0  0  0  0  0  0  0
    3.0000   -2.0667    0.0000 C   0  0  0  0  0  0  0  0  0  0  0  0
   -3.0083    1.5208    0.0000 C   0  0  0  0  0  0  0  0  0  0  0  0
   -3.0083    2.5208    0.0000 C   0  0  0  0  0  0  0  0  0  0  0  0
    2.6917   -3.0167    0.0000 C   0  0  0  0  0  0  0  0  0  0  0  0
    1.6917   -3.0167    0.0000 C   0  0  0  0  0  0  0  0  0  0  0  0
  2  6  1  0  0  0  0
  3  4  1  0  0  0  0
  3  7  2  0  0  0  0
  4  1  1  0  0  0  0
  5  2  1  0  0  0  0
  6  1  1  0  0  0  0
  7 10  1  0  0  0  0
  8  2  2  0  0  0  0
  9  1  1  0  0  0  0
 10  9  1  0  0  0  0
 11  5  1  0  0  0  0
 12  3  1  0  0  0  0
 13  7  1  0  0  0  0
 14 11  1  0  0  0  0
 15 11  1  0  0  0  0
 16 12  2  0  0  0  0
 17 13  2  0  0  0  0
 17 16  1  0  0  0  0
 18 15  1  0  0  0  0
 19 14  1  0  0  0  0
 19 18  1  0  0  0  0
M  END
>  <idnumber>
T5249886

>  <LogP>
2.783000000000000e+000

>  <rotating_bonds>
3.000000000000000e+000

>  <hb_acceptors>
2.000000000000000e+000

>  <hb_donors>
1.000000000000000e+000

>  <PSA>
3.234000000000000e+001

>  <clusterid>
-476

>  <is_centroid>
@

>  <class1>
674

>  <class2>
750

>  <population1>
16474

>  <population2>
7929

>  <population>
176

>  <cansmi>
O=C(NC1CCCC1)CN1CCc2c(C1)cccc2

>  <HBA2>
3

>  <HBD>
1

>  <logP>
2.4323

>  <TPSA>
32.34

>  <MW>
258.359

$$$$

 OpenBabel02121609142D

 17 18  0  0  0  0  0  0  0  0999 V2000
    0.4292    0.5000    0.0000 C   0  0  0  0  0  0  0  0  0  0  0  0
    0.4292   -0.5000    0.0000 C   0  0  0  0  0  0  0  0  0  0  0  0
    0.4292    2.5000    0.0000 N   0  0  0  0  0  0  0  0  0  0  0  0
    1.2917    2.0000    0.0000 C   0  0  0  0  0  0  0  0  0  0  0  0
   -0.4333    1.0000    0.0000 C   0  0  0  0  0  0  0  0  0  0  0  0
    1.2917    1.0000    0.0000 C   0  0  0  0  0  0  0  0  0  0  0  0
   -0.4333    2.0000    0.0000 C   0  0  0  0  0  0  0  0  0  0  0  0
    1.2917   -1.0000    0.0000 N   0  0  0  0  0  0  0  0  0  0  0  0
   -0.4333   -1.0000    0.0000 O   0  0  0  0  0  0  0  0  0  0  0  0
    2.1625    2.5000    0.0000 O   0  0  0  0  0  0  0  0  0  0  0  0
    1.2917   -2.0000    0.0000 C   0  0  0  0  0  0  0  0  0  0  0  0
   -1.3000    0.5000    0.0000 C   0  0  0  0  0  0  0  0  0  0  0  0
   -1.3000    2.5000    0.0000 C   0  0  0  0  0  0  0  0  0  0  0  0
    0.4292   -2.5000    0.0000 C   0  0  0  0  0  0  0  0  0  0  0  0
    2.1625   -2.5000    0.0000 C   0  0  0  0  0  0  0  0  0  0  0  0
   -2.1708    1.0000    0.0000 C   0  0  0  0  0  0  0  0  0  0  0  0
   -2.1708    2.0000    0.0000 C   0  0  0  0  0  0  0  0  0  0  0  0
  2  1  1  0  0  0  0
  3  4  1  0  0  0  0
  4  6  1  0  0  0  0
  5  1  1  0  0  0  0
  6  1  2  0  0  0  0
  7  5  2  0  0  0  0
  7  3  1  0  0  0  0
  8  2  1  0  0  0  0
  9  2  2  0  0  0  0
 10  4  2  0  0  0  0
 11  8  1  0  0  0  0
 12  5  1  0  0  0  0
 13  7  1  0  0  0  0
 13 17  2  0  0  0  0
 14 11  1  0  0  0  0
 15 11  1  0  0  0  0
 16 12  2  0  0  0  0
 17 16  1  0  0  0  0
M  END
>  <idnumber>
T5254438

>  <LogP>
2.669000000000000e+000

>  <rotating_bonds>
2.000000000000000e+000

>  <hb_acceptors>
2.000000000000000e+000

>  <hb_donors>
2.000000000000000e+000

>  <PSA>
5.820000000000000e+001

>  <clusterid>
280

>  <is_centroid>
@

>  <class1>
801

>  <population1>
1387

>  <population>
1387

>  <cansmi>
CC(NC(=O)c1cc(=O)[nH]c2c1cccc2)C

>  <HBA2>
3

>  <HBD>
2

>  <logP>
2.0572

>  <TPSA>
61.96

>  <MW>
230.262

$$$$

 OpenBabel02121609142D

 19 20  0  0  0  0  0  0  0  0999 V2000
    1.0500    1.6750    0.0000 N   0  0  0  0  0  0  0  0  0  0  0  0
    0.7417    0.7250    0.0000 C   0  0  0  0  0  0  0  0  0  0  0  0
    2.0000    1.9833    0.0000 C   0  0  0  0  0  0  0  0  0  0  0  0
    0.4625    2.4833    0.0000 C   0  0  0  0  0  0  0  0  0  0  0  0
   -0.5458   -0.4292    0.0000 C   0  0  0  0  0  0  0  0  0  0  0  0
   -0.2375    0.5208    0.0000 C   0  0  0  0  0  0  0  0  0  0  0  0
   -1.5250   -0.6417    0.0000 C   0  0  0  0  0  0  0  0  0  0  0  0
    0.1167   -1.1792    0.0000 C   0  0  0  0  0  0  0  0  0  0  0  0
   -1.8333   -1.5917    0.0000 C   0  0  0  0  0  0  0  0  0  0  0  0
   -0.1875   -2.1292    0.0000 C   0  0  0  0  0  0  0  0  0  0  0  0
   -1.1708   -2.3375    0.0000 C   0  0  0  0  0  0  0  0  0  0  0  0
    1.0500    3.2958    0.0000 C   0  0  0  0  0  0  0  0  0  0  0  0
    2.0000    2.9833    0.0000 C   0  0  0  0  0  0  0  0  0  0  0  0
    2.8042    1.3958    0.0000 O   0  0  0  0  0  0  0  0  0  0  0  0
   -0.5375    2.4833    0.0000 O   0  0  0  0  0  0  0  0  0  0  0  0
   -0.9083    1.2583    0.0000 O   0  0  0  0  0  0  0  0  0  0  0  0
    1.1000   -0.9667    0.0000 C   0  0  0  0  0  0  0  0  0  0  0  0
   -2.8125   -1.8042    0.0000 C   0  0  0  0  0  0  0  0  0  0  0  0
   -1.4750   -3.2875    0.0000 C   0  0  0  0  0  0  0  0  0  0  0  0
  2  1  1  0  0  0  0
  3  1  1  0  0  0  0
  4  1  1  0  0  0  0
  5  6  1  0  0  0  0
  6  2  1  0  0  0  0
  7  5  2  0  0  0  0
  8  5  1  0  0  0  0
  9  7  1  0  0  0  0
  9 11  2  0  0  0  0
 10  8  2  0  0  0  0
 11 10  1  0  0  0  0
 12  4  1  0  0  0  0
 13  3  1  0  0  0  0
 13 12  1  0  0  0  0
 14  3  2  0  0  0  0
 15  4  2  0  0  0  0
 16  6  2  0  0  0  0
 17  8  1  0  0  0  0
 18  9  1  0  0  0  0
 19 11  1  0  0  0  0
M  END
>  <idnumber>
T5254615

>  <LogP>
2.120000000000000e+000

>  <rotating_bonds>
3.000000000000000e+000

>  <hb_acceptors>
3.000000000000000e+000

>  <hb_donors>
0.000000000000000e+000

>  <PSA>
5.445000000000000e+001

>  <clusterid>
262

>  <is_centroid>
@

>  <class1>
625

>  <class2>
705

>  <population1>
877209

>  <population2>
4908

>  <population>
4348

>  <cansmi>
O=C(c1cc(C)c(cc1C)C)CN1C(=O)CCC1=O

>  <HBA2>
4

>  <HBD>
0

>  <logP>
1.8814

>  <TPSA>
54.45

>  <MW>
259.3

$$$$

 OpenBabel02121609142D

 12 12  0  0  0  0  0  0  0  0999 V2000
    0.8625   -2.0000    0.0000 C   0  0  0  0  0  0  0  0  0  0  0  0
    0.8625   -3.0000    0.0000 O   0  0  0  0  0  0  0  0  0  0  0  0
   -0.8708    1.0000    0.0000 C   0  0  0  0  0  0  0  0  0  0  0  0
   -0.0083   -1.5000    0.0000 N   0  0  0  0  0  0  0  0  0  0  0  0
   -0.0083    1.5000    0.0000 C   0  0  0  0  0  0  0  0  0  0  0  0
    1.7292   -1.5000    0.0000 N   0  0  0  0  0  0  0  0  0  0  0  0
   -0.0083   -0.5000    0.0000 C   0  0  0  0  0  0  0  0  0  0  0  0
   -0.8708    0.0000    0.0000 C   0  0  0  0  0  0  0  0  0  0  0  0
   -1.7333    1.5000    0.0000 C   0  0  0  0  0  0  0  0  0  0  0  0
   -0.0083    2.5000    0.0000 C   0  0  0  0  0  0  0  0  0  0  0  0
   -1.7333    2.5000    0.0000 C   0  0  0  0  0  0  0  0  0  0  0  0
   -0.8708    3.0000    0.0000 C   0  0  0  0  0  0  0  0  0  0  0  0
  2  1  2  0  0  0  0
  3  8  1  0  0  0  0
  4  1  1  0  0  0  0
  5  3  2  0  0  0  0
  6  1  1  0  0  0  0
  7  4  1  0  0  0  0
  8  7  1  0  0  0  0
  9  3  1  0  0  0  0
 10  5  1  0  0  0  0
 10 12  1  0  0  0  0
 11  9  1  0  0  0  0
 12 11  1  0  0  0  0
M  END
>  <idnumber>
T5258583

>  <LogP>
1.391000000000000e+000

>  <rotating_bonds>
3.000000000000000e+000

>  <hb_acceptors>
1.000000000000000e+000

>  <hb_donors>
2.000000000000000e+000

>  <PSA>
5.512000000000001e+001

>  <clusterid>
-482

>  <is_centroid>
@

>  <class1>
810

>  <population1>
20527

>  <population>
20527

>  <cansmi>
NC(=O)NCCC1=CCCCC1

>  <HBA2>
3

>  <HBD>
2

>  <logP>
2.6364

>  <TPSA>
55.12

>  <MW>
168.236

$$$$

 OpenBabel02121609142D

 18 19  0  0  0  0  0  0  0  0999 V2000
   -1.3000    0.2500    0.0000 C   0  0  0  0  0  0  0  0  0  0  0  0
   -1.3000   -0.7417    0.0000 N   0  0  0  0  0  0  0  0  0  0  0  0
   -0.4333    0.7583    0.0000 C   0  0  3  0  0  0  0  0  0  0  0  0
   -1.3000   -2.7500    0.0000 N   0  0  0  0  0  0  0  0  0  0  0  0
   -2.1708    0.7500    0.0000 O   0  0  0  0  0  0  0  0  0  0  0  0
   -2.1708   -1.2500    0.0000 C   0  0  0  0  0  0  0  0  0  0  0  0
   -0.4333   -1.2500    0.0000 C   0  0  0  0  0  0  0  0  0  0  0  0
   -0.4333    1.7500    0.0000 C   0  0  0  0  0  0  0  0  0  0  0  0
   -0.4333   -2.2500    0.0000 C   0  0  0  0  0  0  0  0  0  0  0  0
   -2.1708   -2.2417    0.0000 C   0  0  0  0  0  0  0  0  0  0  0  0
    0.4292    0.2500    0.0000 N   0  0  0  0  0  0  0  0  0  0  0  0
    0.4292    2.2500    0.0000 C   0  0  0  0  0  0  0  0  0  0  0  0
   -1.3000   -3.7500    0.0000 C   0  0  0  0  0  0  0  0  0  0  0  0
    1.2917    1.7500    0.0000 C   0  0  0  0  0  0  0  0  0  0  0  0
    0.4292    3.2500    0.0000 C   0  0  0  0  0  0  0  0  0  0  0  0
    1.2917    3.7583    0.0000 C   0  0  0  0  0  0  0  0  0  0  0  0
    2.1625    2.2500    0.0000 C   0  0  0  0  0  0  0  0  0  0  0  0
    2.1625    3.2500    0.0000 C   0  0  0  0  0  0  0  0  0  0  0  0
  2  1  1  0  0  0  0
  3  1  1  0  0  0  0
  4  9  1  0  0  0  0
  5  1  2  0  0  0  0
  6  2  1  0  0  0  0
  7  2  1  0  0  0  0
  8  3  1  0  0  0  0
  9  7  1  0  0  0  0
 10  6  1  0  0  0  0
 10  4  1  0  0  0  0
 11  3  1  0  0  0  0
 12  8  1  0  0  0  0
 13  4  1  0  0  0  0
 14 12  1  0  0  0  0
 15 12  2  0  0  0  0
 16 15  1  0  0  0  0
 17 14  2  0  0  0  0
 17 18  1  0  0  0  0
 18 16  2  0  0  0  0
M  END
>  <idnumber>
T5260519

>  <LogP>
1.233000000000000e+000

>  <rotating_bonds>
3.000000000000000e+000

>  <hb_acceptors>
3.000000000000000e+000

>  <hb_donors>
1.000000000000000e+000

>  <PSA>
4.957000000000000e+001

>  <clusterid>
-484

>  <is_centroid>
@

>  <class1>
625

>  <class2>
717

>  <population1>
877209

>  <population2>
74368

>  <population>
68762

>  <cansmi>
NC(C(=O)N1CCN(CC1)C)Cc1ccccc1

>  <HBA2>
4

>  <HBD>
1

>  <logP>
0.9065

>  <TPSA>
49.57

>  <MW>
247.336

$$$$

 OpenBabel02121609142D

 14 15  0  0  0  0  0  0  0  0999 V2000
    1.2917    0.5000    0.0000 C   0  0  0  0  0  0  0  0  0  0  0  0
    1.2917   -0.5000    0.0000 C   0  0  0  0  0  0  0  0  0  0  0  0
    0.4292   -1.0000    0.0000 C   0  0  0  0  0  0  0  0  0  0  0  0
    0.4292    1.0000    0.0000 C   0  0  0  0  0  0  0  0  0  0  0  0
   -0.4333   -0.5000    0.0000 C   0  0  0  0  0  0  0  0  0  0  0  0
   -0.4333    0.5000    0.0000 C   0  0  0  0  0  0  0  0  0  0  0  0
   -2.1708   -0.5000    0.0000 N   0  0  0  0  0  0  0  0  0  0  0  0
    2.1625    1.0000    0.0000 O   0  0  0  0  0  0  0  0  0  0  0  0
    2.1625   -1.0000    0.0000 O   0  0  0  0  0  0  0  0  0  0  0  0
   -1.3000   -1.0000    0.0000 C   0  0  0  0  0  0  0  0  0  0  0  0
   -2.1708    0.5000    0.0000 C   0  0  0  0  0  0  0  0  0  0  0  0
   -1.3000    1.0000    0.0000 C   0  0  0  0  0  0  0  0  0  0  0  0
    2.1625    2.0000    0.0000 C   0  0  0  0  0  0  0  0  0  0  0  0
    2.1625   -2.0000    0.0000 C   0  0  0  0  0  0  0  0  0  0  0  0
  2  1  2  0  0  0  0
  3  2  1  0  0  0  0
  3  5  2  0  0  0  0
  4  1  1  0  0  0  0
  5  6  1  0  0  0  0
  6  4  2  0  0  0  0
  7 11  1  0  0  0  0
  7 10  2  0  0  0  0
  8  1  1  0  0  0  0
  9  2  1  0  0  0  0
 10  5  1  0  0  0  0
 11 12  2  0  0  0  0
 12  6  1  0  0  0  0
 13  8  1  0  0  0  0
 14  9  1  0  0  0  0
M  END
>  <idnumber>
T5266933

>  <LogP>
2.057000000000000e+000

>  <rotating_bonds>
2.000000000000000e+000

>  <hb_acceptors>
3.000000000000000e+000

>  <hb_donors>
0.000000000000000e+000

>  <PSA>
3.135000000000000e+001

>  <clusterid>
326

>  <is_centroid>
@

>  <class1>
873

>  <population1>
672

>  <population>
672

>  <cansmi>
COc1cc2cnccc2cc1OC

>  <HBA2>
3

>  <HBD>
0

>  <logP>
2.252

>  <TPSA>
31.35

>  <MW>
189.211

$$$$

 OpenBabel02121609142D

 14 15  0  0  0  0  0  0  0  0999 V2000
    1.5792    2.7750    0.0000 N   0  0  0  0  0  0  0  0  0  0  0  0
    0.6292    3.0833    0.0000 N   0  0  0  0  0  0  0  0  0  0  0  0
    1.5792    1.7750    0.0000 N   0  0  0  0  0  0  0  0  0  0  0  0
    0.6292    1.4708    0.0000 C   0  0  0  0  0  0  0  0  0  0  0  0
    0.0417    2.2750    0.0000 N   0  0  0  0  0  0  0  0  0  0  0  0
    0.3167    0.5208    0.0000 C   0  0  0  0  0  0  0  0  0  0  0  0
   -0.2958   -1.3875    0.0000 C   0  0  0  0  0  0  0  0  0  0  0  0
   -0.6583    0.3083    0.0000 C   0  0  0  0  0  0  0  0  0  0  0  0
    0.9917   -0.2292    0.0000 C   0  0  0  0  0  0  0  0  0  0  0  0
   -0.9708   -0.6417    0.0000 C   0  0  0  0  0  0  0  0  0  0  0  0
    0.6792   -1.1792    0.0000 C   0  0  0  0  0  0  0  0  0  0  0  0
   -0.6083   -2.3375    0.0000 C   0  0  0  0  0  0  0  0  0  0  0  0
    0.0625   -3.0792    0.0000 C   0  0  0  0  0  0  0  0  0  0  0  0
   -1.5833   -2.5417    0.0000 C   0  0  0  0  0  0  0  0  0  0  0  0
  2  1  2  0  0  0  0
  3  1  1  0  0  0  0
  4  3  2  0  0  0  0
  4  5  1  0  0  0  0
  5  2  1  0  0  0  0
  6  4  1  0  0  0  0
  7 11  1  0  0  0  0
  8  6  2  0  0  0  0
  9  6  1  0  0  0  0
 10  8  1  0  0  0  0
 10  7  2  0  0  0  0
 11  9  2  0  0  0  0
 12  7  1  0  0  0  0
 13 12  1  0  0  0  0
 14 12  1  0  0  0  0
M  END
>  <idnumber>
T5270252

>  <LogP>
2.422000000000000e+000

>  <rotating_bonds>
2.000000000000000e+000

>  <hb_acceptors>
3.000000000000000e+000

>  <hb_donors>
1.000000000000000e+000

>  <PSA>
5.446000000000002e+001

>  <clusterid>
208

>  <is_centroid>
@

>  <class1>
634

>  <class2>
625

>  <population1>
16228

>  <population2>
877209

>  <population>
14982

>  <cansmi>
CC(c1ccc(cc1)c1nnn[nH]1)C

>  <HBA2>
3

>  <HBD>
1

>  <logP>
1.9901

>  <TPSA>
54.46

>  <MW>
188.229

$$$$

 OpenBabel02121609142D

 19 21  0  0  0  0  0  0  0  0999 V2000
    0.7667   -0.5000    0.0000 C   0  0  0  0  0  0  0  0  0  0  0  0
   -2.6958   -0.5000    0.0000 C   0  0  0  0  0  0  0  0  0  0  0  0
   -1.8333   -1.0000    0.0000 C   0  0  0  0  0  0  0  0  0  0  0  0
   -0.1000   -1.0000    0.0000 N   0  0  0  0  0  0  0  0  0  0  0  0
   -2.6958    0.5000    0.0000 C   0  0  0  0  0  0  0  0  0  0  0  0
   -3.6458   -0.8042    0.0000 O   0  0  0  0  0  0  0  0  0  0  0  0
   -3.6458    0.8125    0.0000 O   0  0  0  0  0  0  0  0  0  0  0  0
   -0.9625   -0.5000    0.0000 C   0  0  0  0  0  0  0  0  0  0  0  0
   -4.2375    0.0083    0.0000 C   0  0  0  0  0  0  0  0  0  0  0  0
    0.7667    0.5000    0.0000 O   0  0  0  0  0  0  0  0  0  0  0  0
   -1.8333    1.0000    0.0000 C   0  0  0  0  0  0  0  0  0  0  0  0
    1.6292   -1.0000    0.0000 C   0  0  0  0  0  0  0  0  0  0  0  0
   -0.9625    0.5000    0.0000 C   0  0  0  0  0  0  0  0  0  0  0  0
    2.5000   -0.5000    0.0000 C   0  0  0  0  0  0  0  0  0  0  0  0
    3.3667   -1.0000    0.0000 C   0  0  0  0  0  0  0  0  0  0  0  0
    2.5000    0.5000    0.0000 C   0  0  0  0  0  0  0  0  0  0  0  0
    3.3667    1.0000    0.0000 C   0  0  0  0  0  0  0  0  0  0  0  0
    4.2292   -0.5000    0.0000 C   0  0  0  0  0  0  0  0  0  0  0  0
    4.2292    0.5000    0.0000 C   0  0  0  0  0  0  0  0  0  0  0  0
  2  3  1  0  0  0  0
  2  5  2  0  0  0  0
  3  8  2  0  0  0  0
  4  1  1  0  0  0  0
  5 11  1  0  0  0  0
  6  2  1  0  0  0  0
  7  5  1  0  0  0  0
  7  9  1  0  0  0  0
  8  4  1  0  0  0  0
  9  6  1  0  0  0  0
 10  1  2  0  0  0  0
 11 13  2  0  0  0  0
 12  1  1  0  0  0  0
 13  8  1  0  0  0  0
 14 12  1  0  0  0  0
 15 14  1  0  0  0  0
 16 14  2  0  0  0  0
 17 16  1  0  0  0  0
 18 15  2  0  0  0  0
 18 19  1  0  0  0  0
 19 17  2  0  0  0  0
M  END
>  <idnumber>
T5270417

>  <LogP>
2.355999999999999e+000

>  <rotating_bonds>
3.000000000000000e+000

>  <hb_acceptors>
3.000000000000000e+000

>  <hb_donors>
1.000000000000000e+000

>  <PSA>
4.756000000000000e+001

>  <clusterid>
321

>  <is_centroid>
@

>  <class1>
811

>  <class2>
625

>  <population1>
21222

>  <population2>
877209

>  <population>
21222

>  <cansmi>
O=C(Cc1ccccc1)Nc1ccc2c(c1)OCO2

>  <HBA2>
4

>  <HBD>
1

>  <logP>
2.6695

>  <TPSA>
47.56

>  <MW>
255.269

$$$$

 OpenBabel02121609142D

 18 20  0  0  0  0  0  0  0  0999 V2000
   -0.7958    0.2708    0.0000 N   0  0  0  0  0  0  0  0  0  0  0  0
   -0.2083    1.0833    0.0000 C   0  0  0  0  0  0  0  0  0  0  0  0
    0.7417   -0.2292    0.0000 N   0  0  0  0  0  0  0  0  0  0  0  0
    0.7417    0.7708    0.0000 N   0  0  0  0  0  0  0  0  0  0  0  0
   -0.2083   -0.5375    0.0000 C   0  0  0  0  0  0  0  0  0  0  0  0
   -0.5208    2.0333    0.0000 C   0  0  0  0  0  0  0  0  0  0  0  0
   -1.1333    3.9333    0.0000 N   0  0  0  0  0  0  0  0  0  0  0  0
   -0.5208   -1.4917    0.0000 C   0  0  0  0  0  0  0  0  0  0  0  0
    0.1542   -2.2292    0.0000 C   0  0  0  0  0  0  0  0  0  0  0  0
   -1.8083    3.1875    0.0000 C   0  0  0  0  0  0  0  0  0  0  0  0
   -0.1583    3.7333    0.0000 C   0  0  0  0  0  0  0  0  0  0  0  0
   -1.4958    2.2375    0.0000 C   0  0  0  0  0  0  0  0  0  0  0  0
    0.1542    2.7708    0.0000 C   0  0  0  0  0  0  0  0  0  0  0  0
   -0.1583   -3.1792    0.0000 C   0  0  0  0  0  0  0  0  0  0  0  0
    1.1292   -2.0250    0.0000 C   0  0  0  0  0  0  0  0  0  0  0  0
    1.8000   -2.7667    0.0000 C   0  0  0  0  0  0  0  0  0  0  0  0
    0.5125   -3.9292    0.0000 C   0  0  0  0  0  0  0  0  0  0  0  0
    1.4917   -3.7167    0.0000 C   0  0  0  0  0  0  0  0  0  0  0  0
  2  1  2  0  0  0  0
  3  5  2  0  0  0  0
  3  4  1  0  0  0  0
  4  2  1  0  0  0  0
  5  1  1  0  0  0  0
  6  2  1  0  0  0  0
  7 11  1  0  0  0  0
  8  5  1  0  0  0  0
  9  8  1  0  0  0  0
 10 12  1  0  0  0  0
 10  7  2  0  0  0  0
 11 13  2  0  0  0  0
 12  6  2  0  0  0  0
 13  6  1  0  0  0  0
 14  9  1  0  0  0  0
 15  9  2  0  0  0  0
 16 15  1  0  0  0  0
 17 14  2  0  0  0  0
 17 18  1  0  0  0  0
 18 16  2  0  0  0  0
M  END
>  <idnumber>
T5271533

>  <saltdata>
CH3C6H4SO2-

>  <LogP>
2.516000000000000e+000

>  <rotating_bonds>
3.000000000000000e+000

>  <hb_acceptors>
3.000000000000000e+000

>  <hb_donors>
1.000000000000000e+000

>  <PSA>
5.446000000000002e+001

>  <clusterid>
-491

>  <is_centroid>
@

>  <class1>
625

>  <class2>
636

>  <class3>
632

>  <population1>
877209

>  <population2>
10575

>  <population3>
79489

>  <population>
319

>  <cansmi>
c1ccc(cc1)Cc1n[nH]c(n1)c1ccncc1

>  <HBA2>
3

>  <HBD>
1

>  <logP>
2.4575

>  <TPSA>
54.46

>  <MW>
236.272

$$$$

 OpenBabel02121609142D

 19 21  0  0  0  0  0  0  0  0999 V2000
    0.7667    0.2583    0.0000 C   0  0  0  0  0  0  0  0  0  0  0  0
    1.6292   -0.2500    0.0000 C   0  0  0  0  0  0  0  0  0  0  0  0
    2.5000    0.2583    0.0000 N   0  0  0  0  0  0  0  0  0  0  0  0
   -0.1000   -0.2500    0.0000 N   0  0  0  0  0  0  0  0  0  0  0  0
    2.5000   -1.7500    0.0000 N   0  0  0  0  0  0  0  0  0  0  0  0
   -2.6958    0.2583    0.0000 C   0  0  0  0  0  0  0  0  0  0  0  0
    1.6292   -1.2500    0.0000 C   0  0  0  0  0  0  0  0  0  0  0  0
   -0.9625    0.2583    0.0000 C   0  0  0  0  0  0  0  0  0  0  0  0
   -1.8333   -0.2500    0.0000 C   0  0  0  0  0  0  0  0  0  0  0  0
    0.7667    1.2500    0.0000 O   0  0  0  0  0  0  0  0  0  0  0  0
   -2.6958    1.2500    0.0000 C   0  0  0  0  0  0  0  0  0  0  0  0
   -1.8333    1.7500    0.0000 C   0  0  0  0  0  0  0  0  0  0  0  0
    3.3667   -0.2500    0.0000 C   0  0  0  0  0  0  0  0  0  0  0  0
    3.3667   -1.2500    0.0000 C   0  0  0  0  0  0  0  0  0  0  0  0
   -0.9625    1.2500    0.0000 C   0  0  0  0  0  0  0  0  0  0  0  0
   -3.6458   -0.0542    0.0000 C   0  0  0  0  0  0  0  0  0  0  0  0
   -4.2375    0.7500    0.0000 C   0  0  0  0  0  0  0  0  0  0  0  0
   -3.6458    1.5625    0.0000 C   0  0  0  0  0  0  0  0  0  0  0  0
    4.2292   -1.7500    0.0000 C   0  0  0  0  0  0  0  0  0  0  0  0
  2  1  1  0  0  0  0
  3  2  1  0  0  0  0
  4  1  1  0  0  0  0
  5  7  1  0  0  0  0
  6  9  1  0  0  0  0
  6 11  2  0  0  0  0
  7  2  2  0  0  0  0
  8  4  1  0  0  0  0
  9  8  2  0  0  0  0
 10  1  2  0  0  0  0
 11 12  1  0  0  0  0
 12 15  2  0  0  0  0
 13  3  2  0  0  0  0
 14  5  2  0  0  0  0
 14 13  1  0  0  0  0
 15  8  1  0  0  0  0
 16  6  1  0  0  0  0
 17 16  1  0  0  0  0
 18 11  1  0  0  0  0
 18 17  1  0  0  0  0
 19 14  1  0  0  0  0
M  END
>  <idnumber>
T5277587

>  <LogP>
2.976000000000000e+000

>  <rotating_bonds>
2.000000000000000e+000

>  <hb_acceptors>
3.000000000000000e+000

>  <hb_donors>
1.000000000000000e+000

>  <PSA>
5.488000000000000e+001

>  <clusterid>
333

>  <is_centroid>
@

>  <class1>
815

>  <class2>
644

>  <population1>
7310

>  <population2>
7036

>  <population>
17

>  <cansmi>
Cc1cnc(cn1)C(=O)Nc1ccc2c(c1)CCC2

>  <HBA2>
4

>  <HBD>
1

>  <logP>
2.599

>  <TPSA>
54.88

>  <MW>
253.299

$$$$

 OpenBabel02121609142D

 19 21  0  0  0  0  0  0  0  0999 V2000
   -0.6208   -0.3625    0.0000 C   0  0  0  0  0  0  0  0  0  0  0  0
   -1.2083    0.4458    0.0000 N   0  0  0  0  0  0  0  0  0  0  0  0
    0.3792   -0.3625    0.0000 N   0  0  0  0  0  0  0  0  0  0  0  0
    0.8792    0.5000    0.0000 C   0  0  0  0  0  0  0  0  0  0  0  0
   -1.2083   -1.1750    0.0000 N   0  0  0  0  0  0  0  0  0  0  0  0
    1.8792    0.5000    0.0000 C   0  0  0  0  0  0  0  0  0  0  0  0
   -2.1583    0.1375    0.0000 C   0  0  0  0  0  0  0  0  0  0  0  0
   -2.1583   -0.8625    0.0000 C   0  0  0  0  0  0  0  0  0  0  0  0
    2.3792   -0.3625    0.0000 C   0  0  0  0  0  0  0  0  0  0  0  0
    0.3792    1.3708    0.0000 O   0  0  0  0  0  0  0  0  0  0  0  0
    1.8792   -1.2292    0.0000 Cl  0  0  0  0  0  0  0  0  0  0  0  0
    2.3792    1.3708    0.0000 C   0  0  0  0  0  0  0  0  0  0  0  0
   -3.0208    0.6375    0.0000 C   0  0  0  0  0  0  0  0  0  0  0  0
   -3.0208   -1.3625    0.0000 C   0  0  0  0  0  0  0  0  0  0  0  0
    3.3792   -0.3625    0.0000 C   0  0  0  0  0  0  0  0  0  0  0  0
    3.3792    1.3708    0.0000 C   0  0  0  0  0  0  0  0  0  0  0  0
   -3.8958   -0.8625    0.0000 C   0  0  0  0  0  0  0  0  0  0  0  0
   -3.8958    0.1375    0.0000 C   0  0  0  0  0  0  0  0  0  0  0  0
    3.8792    0.5000    0.0000 C   0  0  0  0  0  0  0  0  0  0  0  0
  2  1  2  0  0  0  0
  3  1  1  0  0  0  0
  4  3  1  0  0  0  0
  5  1  1  0  0  0  0
  6  4  1  0  0  0  0
  7  2  1  0  0  0  0
  7  8  2  0  0  0  0
  8  5  1  0  0  0  0
  9  6  2  0  0  0  0
 10  4  2  0  0  0  0
 11  9  1  0  0  0  0
 12  6  1  0  0  0  0
 13  7  1  0  0  0  0
 14  8  1  0  0  0  0
 15  9  1  0  0  0  0
 15 19  2  0  0  0  0
 16 12  2  0  0  0  0
 17 14  2  0  0  0  0
 18 13  2  0  0  0  0
 18 17  1  0  0  0  0
 19 16  1  0  0  0  0
M  END
>  <idnumber>
T5277744

>  <LogP>
2.855000000000000e+000

>  <rotating_bonds>
2.000000000000000e+000

>  <hb_acceptors>
3.000000000000000e+000

>  <hb_donors>
2.000000000000000e+000

>  <PSA>
5.778000000000000e+001

>  <clusterid>
334

>  <is_centroid>
@

>  <class1>
625

>  <class2>
685

>  <population1>
877209

>  <population2>
28767

>  <population>
28767

>  <cansmi>
Clc1ccccc1C(=O)Nc1nc2c([nH]1)cccc2

>  <HBA2>
3

>  <HBD>
2

>  <logP>
3.5416

>  <TPSA>
57.78

>  <MW>
271.702

$$$$

 OpenBabel02121609142D

 17 19  0  0  0  0  0  0  0  0999 V2000
    0.8625    0.3583    0.0000 C   0  0  0  0  0  0  0  0  0  0  0  0
    0.8625   -0.6417    0.0000 C   0  0  3  0  0  0  0  0  0  0  0  0
    0.0000   -1.1417    0.0000 C   0  0  0  0  0  0  0  0  0  0  0  0
    0.0000    0.8583    0.0000 C   0  0  0  0  0  0  0  0  0  0  0  0
    1.7292    0.8583    0.0000 N   0  0  0  0  0  0  0  0  0  0  0  0
   -0.1083   -2.1417    0.0000 O   0  0  0  0  0  0  0  0  0  0  0  0
   -0.9208   -0.7417    0.0000 C   0  0  0  0  0  0  0  0  0  0  0  0
   -1.0833   -2.3500    0.0000 C   0  0  0  0  0  0  0  0  0  0  0  0
   -1.5833   -1.4792    0.0000 C   0  0  0  0  0  0  0  0  0  0  0  0
    0.0000    1.8583    0.0000 C   0  0  0  0  0  0  0  0  0  0  0  0
    1.7292   -1.1417    0.0000 O   0  0  0  0  0  0  0  0  0  0  0  0
    1.7292    1.8583    0.0000 C   0  0  0  0  0  0  0  0  0  0  0  0
   -0.8708    0.3583    0.0000 C   0  0  0  0  0  0  0  0  0  0  0  0
    0.8625    2.3583    0.0000 C   0  0  0  0  0  0  0  0  0  0  0  0
   -0.8708    2.3583    0.0000 C   0  0  0  0  0  0  0  0  0  0  0  0
   -1.7333    0.8583    0.0000 C   0  0  0  0  0  0  0  0  0  0  0  0
   -1.7333    1.8583    0.0000 C   0  0  0  0  0  0  0  0  0  0  0  0
  2  1  1  0  0  0  0
  3  2  1  0  0  0  0
  4  1  2  0  0  0  0
  5  1  1  0  0  0  0
  6  3  1  0  0  0  0
  7  3  2  0  0  0  0
  8  6  1  0  0  0  0
  9  7  1  0  0  0  0
  9  8  2  0  0  0  0
 10  4  1  0  0  0  0
 10 14  2  0  0  0  0
 11  2  1  0  0  0  0
 12  5  2  0  0  0  0
 13  4  1  0  0  0  0
 14 12  1  0  0  0  0
 15 10  1  0  0  0  0
 15 17  2  0  0  0  0
 16 13  2  0  0  0  0
 17 16  1  0  0  0  0
M  END
>  <idnumber>
T5280406

>  <LogP>
1.305000000000000e+000

>  <rotating_bonds>
2.000000000000000e+000

>  <hb_acceptors>
2.000000000000000e+000

>  <hb_donors>
1.000000000000000e+000

>  <PSA>
4.626000000000001e+001

>  <clusterid>
-492

>  <is_centroid>
@

>  <class1>
704

>  <class2>
873

>  <population1>
51112

>  <population2>
672

>  <population>
13

>  <cansmi>
OC(c1nccc2c1cccc2)c1ccco1

>  <HBA2>
3

>  <HBD>
1

>  <logP>
2.9095

>  <TPSA>
46.26

>  <MW>
225.243

$$$$

 OpenBabel02121609142D

 17 18  0  0  0  0  0  0  0  0999 V2000
    0.4292    0.5000    0.0000 N   0  0  0  0  0  0  0  0  0  0  0  0
    1.2917    1.0000    0.0000 C   0  0  0  0  0  0  0  0  0  0  0  0
    0.4292    2.5000    0.0000 N   0  0  0  0  0  0  0  0  0  0  0  0
    0.4292   -0.5000    0.0000 C   0  0  0  0  0  0  0  0  0  0  0  0
   -0.4333   -1.0000    0.0000 C   0  0  0  0  0  0  0  0  0  0  0  0
   -0.4333    1.0000    0.0000 C   0  0  0  0  0  0  0  0  0  0  0  0
    1.2917    2.0000    0.0000 C   0  0  0  0  0  0  0  0  0  0  0  0
   -0.4333    2.0000    0.0000 C   0  0  0  0  0  0  0  0  0  0  0  0
   -0.4333   -2.0000    0.0000 N   0  0  0  0  0  0  0  0  0  0  0  0
   -1.3000   -0.5000    0.0000 O   0  0  0  0  0  0  0  0  0  0  0  0
    2.1625    0.5000    0.0000 O   0  0  0  0  0  0  0  0  0  0  0  0
   -1.3000    0.5000    0.0000 C   0  0  0  0  0  0  0  0  0  0  0  0
   -1.3000   -2.5000    0.0000 C   0  0  0  0  0  0  0  0  0  0  0  0
    0.4292   -2.5000    0.0000 C   0  0  0  0  0  0  0  0  0  0  0  0
   -1.3000    2.5000    0.0000 C   0  0  0  0  0  0  0  0  0  0  0  0
   -2.1708    1.0000    0.0000 C   0  0  0  0  0  0  0  0  0  0  0  0
   -2.1708    2.0000    0.0000 C   0  0  0  0  0  0  0  0  0  0  0  0
  2  1  1  0  0  0  0
  3  8  1  0  0  0  0
  4  1  1  0  0  0  0
  5  4  1  0  0  0  0
  6  1  1  0  0  0  0
  7  2  1  0  0  0  0
  7  3  2  0  0  0  0
  8  6  2  0  0  0  0
  9  5  1  0  0  0  0
 10  5  2  0  0  0  0
 11  2  2  0  0  0  0
 12  6  1  0  0  0  0
 13  9  1  0  0  0  0
 14  9  1  0  0  0  0
 15  8  1  0  0  0  0
 15 17  2  0  0  0  0
 16 12  2  0  0  0  0
 17 16  1  0  0  0  0
M  END
>  <idnumber>
T5287381

>  <LogP>
2.820000000000000e-001

>  <rotating_bonds>
2.000000000000000e+000

>  <hb_acceptors>
3.000000000000000e+000

>  <hb_donors>
0.000000000000000e+000

>  <PSA>
5.298000000000000e+001

>  <clusterid>
336

>  <is_centroid>
@

>  <class1>
802

>  <population1>
1299

>  <population>
1299

>  <cansmi>
O=C(N(C)C)Cn1c(=O)cnc2c1cccc2

>  <HBA2>
5

>  <HBD>
0

>  <logP>
0.4847

>  <TPSA>
55.2

>  <MW>
231.251

$$$$

 OpenBabel02121609142D

 11 11  0  0  0  0  0  0  0  0999 V2000
   -0.4333   -0.2500    0.0000 C   0  0  0  0  0  0  0  0  0  0  0  0
   -0.4333    0.7500    0.0000 N   0  0  0  0  0  0  0  0  0  0  0  0
    0.4292   -0.7500    0.0000 N   0  0  0  0  0  0  0  0  0  0  0  0
    0.4292    1.2500    0.0000 C   0  0  0  0  0  0  0  0  0  0  0  0
    1.2917   -0.2500    0.0000 C   0  0  0  0  0  0  0  0  0  0  0  0
    1.2917    0.7500    0.0000 C   0  0  0  0  0  0  0  0  0  0  0  0
   -1.3000   -0.7500    0.0000 O   0  0  0  0  0  0  0  0  0  0  0  0
    0.4292    2.2500    0.0000 O   0  0  0  0  0  0  0  0  0  0  0  0
    0.4292   -1.7500    0.0000 C   0  0  0  0  0  0  0  0  0  0  0  0
   -0.4333   -2.2500    0.0000 C   0  0  0  0  0  0  0  0  0  0  0  0
    1.2917   -2.2500    0.0000 C   0  0  0  0  0  0  0  0  0  0  0  0
  2  1  1  0  0  0  0
  3  1  1  0  0  0  0
  4  2  1  0  0  0  0
  5  3  1  0  0  0  0
  6  5  1  0  0  0  0
  6  4  1  0  0  0  0
  7  1  2  0  0  0  0
  8  4  2  0  0  0  0
  9  3  1  0  0  0  0
 10  9  1  0  0  0  0
 11  9  1  0  0  0  0
M  END
>  <idnumber>
T5287932

>  <LogP>
-4.800000000000000e-002

>  <rotating_bonds>
1.000000000000000e+000

>  <hb_acceptors>
2.000000000000000e+000

>  <hb_donors>
1.000000000000000e+000

>  <PSA>
4.941000000000003e+001

>  <clusterid>
338

>  <is_centroid>
@

>  <class1>
870

>  <population1>
651

>  <population>
651

>  <cansmi>
CC(N1CCC(=O)NC1=O)C

>  <HBA2>
4

>  <HBD>
1

>  <logP>
0.6034

>  <TPSA>
49.41

>  <MW>
156.182

$$$$

 OpenBabel02121609142D

 15 16  0  0  0  0  0  0  0  0999 V2000
   -0.1458    0.9958    0.0000 C   0  0  0  0  0  0  0  0  0  0  0  0
    0.5250    0.2500    0.0000 N   0  0  0  0  0  0  0  0  0  0  0  0
    0.1667    1.9458    0.0000 C   0  0  3  0  0  0  0  0  0  0  0  0
   -1.1208    0.7833    0.0000 O   0  0  0  0  0  0  0  0  0  0  0  0
   -0.4208    2.7500    0.0000 O   0  0  0  0  0  0  0  0  0  0  0  0
    0.2167   -0.7042    0.0000 C   0  0  0  0  0  0  0  0  0  0  0  0
   -0.4000   -2.6042    0.0000 C   0  0  0  0  0  0  0  0  0  0  0  0
    0.8875   -1.4417    0.0000 C   0  0  0  0  0  0  0  0  0  0  0  0
   -0.7625   -0.9125    0.0000 C   0  0  0  0  0  0  0  0  0  0  0  0
    0.5792   -2.3917    0.0000 C   0  0  0  0  0  0  0  0  0  0  0  0
   -1.0708   -1.8625    0.0000 C   0  0  0  0  0  0  0  0  0  0  0  0
    0.1667    3.5583    0.0000 C   0  0  0  0  0  0  0  0  0  0  0  0
    1.1167    2.2500    0.0000 C   0  0  0  0  0  0  0  0  0  0  0  0
   -0.7083   -3.5542    0.0000 C   0  0  0  0  0  0  0  0  0  0  0  0
    1.1167    3.2500    0.0000 C   0  0  0  0  0  0  0  0  0  0  0  0
  2  1  1  0  0  0  0
  3  1  1  0  0  0  0
  4  1  2  0  0  0  0
  5  3  1  0  0  0  0
  6  2  1  0  0  0  0
  7 11  2  0  0  0  0
  7 10  1  0  0  0  0
  8  6  1  0  0  0  0
  9  6  2  0  0  0  0
 10  8  2  0  0  0  0
 11  9  1  0  0  0  0
 12  5  1  0  0  0  0
 13  3  1  0  0  0  0
 14  7  1  0  0  0  0
 15 13  1  0  0  0  0
 15 12  1  0  0  0  0
M  END
>  <idnumber>
T5288718

>  <LogP>
1.906000000000000e+000

>  <rotating_bonds>
2.000000000000000e+000

>  <hb_acceptors>
2.000000000000000e+000

>  <hb_donors>
1.000000000000000e+000

>  <PSA>
3.833000000000000e+001

>  <clusterid>
339

>  <is_centroid>
@

>  <class1>
625

>  <class2>
723

>  <population1>
877209

>  <population2>
9592

>  <population>
8140

>  <cansmi>
O=C(C1CCCO1)Nc1ccc(cc1)C

>  <HBA2>
3

>  <HBD>
1

>  <logP>
2.1855

>  <TPSA>
38.33

>  <MW>
205.253

$$$$

 OpenBabel02121609142D

 17 19  0  0  0  0  0  0  0  0999 V2000
   -0.2708    0.0000    0.0000 N   0  0  0  0  0  0  0  0  0  0  0  0
    0.3167    0.8125    0.0000 C   0  0  0  0  0  0  0  0  0  0  0  0
    0.3167   -0.8042    0.0000 C   0  0  0  0  0  0  0  0  0  0  0  0
    1.2667   -0.5000    0.0000 N   0  0  0  0  0  0  0  0  0  0  0  0
    1.2667    0.5000    0.0000 N   0  0  0  0  0  0  0  0  0  0  0  0
    0.0125    1.7625    0.0000 C   0  0  0  0  0  0  0  0  0  0  0  0
    0.0125   -1.7542    0.0000 C   0  0  0  0  0  0  0  0  0  0  0  0
   -1.2750    2.9208    0.0000 N   0  0  0  0  0  0  0  0  0  0  0  0
   -0.9708    1.9708    0.0000 C   0  0  0  0  0  0  0  0  0  0  0  0
    0.6792    2.5083    0.0000 C   0  0  0  0  0  0  0  0  0  0  0  0
   -0.6083    3.6708    0.0000 C   0  0  0  0  0  0  0  0  0  0  0  0
    0.6792   -2.5000    0.0000 C   0  0  0  0  0  0  0  0  0  0  0  0
   -0.9708   -1.9667    0.0000 C   0  0  0  0  0  0  0  0  0  0  0  0
    0.3667    3.4583    0.0000 C   0  0  0  0  0  0  0  0  0  0  0  0
   -1.2750   -2.9167    0.0000 C   0  0  0  0  0  0  0  0  0  0  0  0
    0.3667   -3.4542    0.0000 C   0  0  0  0  0  0  0  0  0  0  0  0
   -0.6083   -3.6542    0.0000 C   0  0  0  0  0  0  0  0  0  0  0  0
  2  1  2  0  0  0  0
  3  1  1  0  0  0  0
  4  3  2  0  0  0  0
  4  5  1  0  0  0  0
  5  2  1  0  0  0  0
  6  2  1  0  0  0  0
  7  3  1  0  0  0  0
  8  9  1  0  0  0  0
  8 11  2  0  0  0  0
  9  6  2  0  0  0  0
 10  6  1  0  0  0  0
 11 14  1  0  0  0  0
 12  7  1  0  0  0  0
 13  7  2  0  0  0  0
 14 10  2  0  0  0  0
 15 13  1  0  0  0  0
 16 12  2  0  0  0  0
 17 15  2  0  0  0  0
 17 16  1  0  0  0  0
M  END
>  <idnumber>
T5288789

>  <LogP>
2.547000000000000e+000

>  <rotating_bonds>
2.000000000000000e+000

>  <hb_acceptors>
3.000000000000000e+000

>  <hb_donors>
1.000000000000000e+000

>  <PSA>
5.446000000000002e+001

>  <clusterid>
-495

>  <is_centroid>
@

>  <class1>
636

>  <class2>
625

>  <class3>
632

>  <population1>
10575

>  <population2>
877209

>  <population3>
79489

>  <population>
319

>  <cansmi>
c1ccc(cc1)c1n[nH]c(n1)c1cccnc1

>  <HBA2>
3

>  <HBD>
1

>  <logP>
2.5337

>  <TPSA>
54.46

>  <MW>
222.245

$$$$

 OpenBabel02121609142D

 22 24  0  0  0  0  0  0  0  0999 V2000
    0.4292   -0.4917    0.0000 N   0  0  0  0  0  0  0  0  0  0  0  0
    1.2917   -1.0000    0.0000 C   0  0  0  0  0  0  0  0  0  0  0  0
    0.4292    0.5000    0.0000 C   0  0  0  0  0  0  0  0  0  0  0  0
    2.1625   -0.4917    0.0000 C   0  0  0  0  0  0  0  0  0  0  0  0
    1.2917   -1.9917    0.0000 C   0  0  0  0  0  0  0  0  0  0  0  0
   -0.4333    1.0083    0.0000 C   0  0  0  0  0  0  0  0  0  0  0  0
   -1.3000    0.5000    0.0000 C   0  0  0  0  0  0  0  0  0  0  0  0
   -2.1708    1.0083    0.0000 C   0  0  0  0  0  0  0  0  0  0  0  0
   -3.0333    0.5000    0.0000 N   0  0  0  0  0  0  0  0  0  0  0  0
    3.0292   -1.0000    0.0000 C   0  0  0  0  0  0  0  0  0  0  0  0
    2.1625   -2.4917    0.0000 C   0  0  0  0  0  0  0  0  0  0  0  0
   -3.0333    2.5083    0.0000 N   0  0  0  0  0  0  0  0  0  0  0  0
    1.2917    1.0083    0.0000 O   0  0  0  0  0  0  0  0  0  0  0  0
   -2.1708    2.0000    0.0000 C   0  0  0  0  0  0  0  0  0  0  0  0
    3.0292   -1.9917    0.0000 C   0  0  0  0  0  0  0  0  0  0  0  0
   -0.4333    2.0000    0.0000 C   0  0  0  0  0  0  0  0  0  0  0  0
   -1.3000    2.5083    0.0000 C   0  0  0  0  0  0  0  0  0  0  0  0
    0.4292   -2.4917    0.0000 C   0  0  0  0  0  0  0  0  0  0  0  0
    2.1625    0.5000    0.0000 C   0  0  0  0  0  0  0  0  0  0  0  0
   -3.9000    1.0083    0.0000 C   0  0  0  0  0  0  0  0  0  0  0  0
   -3.9000    2.0000    0.0000 C   0  0  0  0  0  0  0  0  0  0  0  0
    3.8917   -2.5000    0.0000 C   0  0  0  0  0  0  0  0  0  0  0  0
  2  1  1  0  0  0  0
  3  1  1  0  0  0  0
  4  2  1  0  0  0  0
  5  2  2  0  0  0  0
  6  3  1  0  0  0  0
  7  6  2  0  0  0  0
  8  7  1  0  0  0  0
  8 14  2  0  0  0  0
  9  8  1  0  0  0  0
 10  4  2  0  0  0  0
 11  5  1  0  0  0  0
 12 14  1  0  0  0  0
 13  3  2  0  0  0  0
 14 17  1  0  0  0  0
 15 11  2  0  0  0  0
 15 10  1  0  0  0  0
 16  6  1  0  0  0  0
 17 16  2  0  0  0  0
 18  5  1  0  0  0  0
 19  4  1  0  0  0  0
 20  9  2  0  0  0  0
 21 12  2  0  0  0  0
 21 20  1  0  0  0  0
 22 15  1  0  0  0  0
M  END
>  <idnumber>
T5288889

>  <LogP>
2.676000000000000e+000

>  <rotating_bonds>
2.000000000000000e+000

>  <hb_acceptors>
3.000000000000000e+000

>  <hb_donors>
1.000000000000000e+000

>  <PSA>
5.488000000000000e+001

>  <clusterid>
-499

>  <is_centroid>
@

>  <class1>
821

>  <class2>
625

>  <population1>
4380

>  <population2>
877209

>  <population>
4380

>  <cansmi>
Cc1cc(C)c(c(c1)C)NC(=O)c1ccc2c(c1)nccn2

>  <HBA2>
4

>  <HBD>
1

>  <logP>
3.8803

>  <TPSA>
54.88

>  <MW>
291.347

$$$$

 OpenBabel02121609142D

 11 11  0  0  0  0  0  0  0  0999 V2000
   -0.7958   -2.4542    0.0000 N   0  0  0  0  0  0  0  0  0  0  0  0
   -0.5000   -1.5000    0.0000 C   0  0  0  0  0  0  0  0  0  0  0  0
   -0.2083   -0.5417    0.0000 C   0  0  3  0  0  0  0  0  0  0  0  0
    0.0917   -1.5000    0.0000 N   0  0  0  0  0  0  0  0  0  0  0  0
    0.6625   -0.0417    0.0000 C   0  0  0  0  0  0  0  0  0  0  0  0
   -1.0708   -0.0417    0.0000 C   0  0  0  0  0  0  0  0  0  0  0  0
   -1.0708    0.9583    0.0000 C   0  0  0  0  0  0  0  0  0  0  0  0
    0.6625    0.9583    0.0000 C   0  0  0  0  0  0  0  0  0  0  0  0
   -0.2083    1.4583    0.0000 C   0  0  3  0  0  0  0  0  0  0  0  0
    1.0667   -1.7167    0.0000 C   0  0  0  0  0  0  0  0  0  0  0  0
   -0.2083    2.4583    0.0000 C   0  0  0  0  0  0  0  0  0  0  0  0
  2  1  3  0  0  0  0
  3  2  1  0  0  0  0
  4  3  1  0  0  0  0
  5  3  1  0  0  0  0
  6  3  1  0  0  0  0
  7  6  1  0  0  0  0
  8  5  1  0  0  0  0
  8  9  1  0  0  0  0
  9  7  1  0  0  0  0
 10  4  1  0  0  0  0
 11  9  1  0  0  0  0
M  END
>  <idnumber>
T5289680

>  <LogP>
1.409000000000000e+000

>  <rotating_bonds>
2.000000000000000e+000

>  <hb_acceptors>
2.000000000000000e+000

>  <hb_donors>
1.000000000000000e+000

>  <PSA>
3.582000000000000e+001

>  <clusterid>
-503

>  <is_centroid>
@

>  <class1>
797

>  <population1>
40410

>  <population>
40410

>  <cansmi>
CNC1(C#N)CCC(CC1)C

>  <HBA2>
2

>  <HBD>
1

>  <logP>
2.06918

>  <TPSA>
35.82

>  <MW>
152.237

$$$$

 OpenBabel02121609142D

 12 12  0  0  0  0  0  0  0  0999 V2000
   -0.1583    0.0000    0.0000 N   0  0  0  0  0  0  0  0  0  0  0  0
   -1.1333    0.2250    0.0000 C   0  0  0  0  0  0  0  0  0  0  0  0
    0.0625   -0.9750    0.0000 C   0  0  0  0  0  0  0  0  0  0  0  0
    1.0167   -1.2667    0.0000 C   0  0  0  0  0  0  0  0  0  0  0  0
   -1.7583   -0.5542    0.0000 O   0  0  0  0  0  0  0  0  0  0  0  0
    1.2417   -2.2417    0.0000 O   0  0  0  0  0  0  0  0  0  0  0  0
    1.7542   -0.5875    0.0000 O   0  0  0  0  0  0  0  0  0  0  0  0
    0.6250    0.6250    0.0000 C   0  0  0  0  0  0  0  0  0  0  0  0
   -1.5708    1.1250    0.0000 C   0  0  0  0  0  0  0  0  0  0  0  0
    0.6250    1.6250    0.0000 C   0  0  0  0  0  0  0  0  0  0  0  0
   -1.1333    2.0250    0.0000 C   0  0  0  0  0  0  0  0  0  0  0  0
   -0.1583    2.2500    0.0000 C   0  0  0  0  0  0  0  0  0  0  0  0
  2  1  1  0  0  0  0
  3  1  1  0  0  0  0
  4  3  1  0  0  0  0
  5  2  2  0  0  0  0
  6  4  2  0  0  0  0
  7  4  1  0  0  0  0
  8  1  1  0  0  0  0
  9  2  1  0  0  0  0
 10  8  1  0  0  0  0
 11  9  1  0  0  0  0
 12 10  1  0  0  0  0
 12 11  1  0  0  0  0
M  END
>  <idnumber>
T5289846

>  <LogP>
7.580000000000000e-001

>  <rotating_bonds>
2.000000000000000e+000

>  <hb_acceptors>
3.000000000000000e+000

>  <hb_donors>
1.000000000000000e+000

>  <PSA>
5.761000000000000e+001

>  <clusterid>
-506

>  <is_centroid>
@

>  <class1>
876

>  <population1>
606

>  <population>
606

>  <cansmi>
OC(=O)CN1CCCCCC1=O

>  <HBA2>
4

>  <HBD>
1

>  <logP>
0.4115

>  <TPSA>
57.61

>  <MW>
171.194

$$$$

 OpenBabel02121609142D

 14 16  0  0  0  0  0  0  0  0999 V2000
    0.7792   -1.2167    0.0000 N   0  0  0  0  0  0  0  0  0  0  0  0
   -0.1750   -0.9125    0.0000 C   0  0  0  0  0  0  0  0  0  0  0  0
   -0.1750    0.0875    0.0000 C   0  0  0  0  0  0  0  0  0  0  0  0
    1.3667   -0.4125    0.0000 C   0  0  0  0  0  0  0  0  0  0  0  0
    0.7792    0.3958    0.0000 C   0  0  0  0  0  0  0  0  0  0  0  0
   -1.0375   -1.4125    0.0000 C   0  0  0  0  0  0  0  0  0  0  0  0
   -1.0375    0.5875    0.0000 C   0  0  0  0  0  0  0  0  0  0  0  0
   -1.9083   -0.9125    0.0000 C   0  0  0  0  0  0  0  0  0  0  0  0
   -1.9083    0.0875    0.0000 C   0  0  0  0  0  0  0  0  0  0  0  0
   -2.7708   -1.4125    0.0000 O   0  0  0  0  0  0  0  0  0  0  0  0
    1.1792    1.3125    0.0000 C   0  0  0  0  0  0  0  0  0  0  0  0
    2.3542   -0.3042    0.0000 C   0  0  0  0  0  0  0  0  0  0  0  0
    2.1792    1.4208    0.0000 C   0  0  0  0  0  0  0  0  0  0  0  0
    2.7667    0.6083    0.0000 C   0  0  0  0  0  0  0  0  0  0  0  0
  2  1  1  0  0  0  0
  3  2  2  0  0  0  0
  3  5  1  0  0  0  0
  4  1  1  0  0  0  0
  5  4  2  0  0  0  0
  6  2  1  0  0  0  0
  7  3  1  0  0  0  0
  8  6  2  0  0  0  0
  9  8  1  0  0  0  0
  9  7  2  0  0  0  0
 10  8  1  0  0  0  0
 11  5  1  0  0  0  0
 11 13  2  0  0  0  0
 12  4  1  0  0  0  0
 13 14  1  0  0  0  0
 14 12  2  0  0  0  0
M  END
>  <idnumber>
T5290917

>  <LogP>
2.849000000000000e+000

>  <rotating_bonds>
0.000000000000000e+000

>  <hb_acceptors>
1.000000000000000e+000

>  <hb_donors>
2.000000000000000e+000

>  <PSA>
3.602000000000000e+001

>  <clusterid>
-513

>  <is_centroid>
@

>  <class1>
837

>  <population1>
1053

>  <population>
1053

>  <cansmi>
Oc1ccc2c(c1)[nH]c1c2cccc1

>  <HBA2>
1

>  <HBD>
2

>  <logP>
3.0267

>  <TPSA>
36.02

>  <MW>
183.206

$$$$

 OpenBabel02121609142D

 12 12  0  0  0  0  0  0  0  0999 V2000
    0.0000   -0.5000    0.0000 C   0  0  0  0  0  0  0  0  0  0  0  0
    0.0000   -1.5000    0.0000 C   0  0  0  0  0  0  0  0  0  0  0  0
   -0.8708    1.0000    0.0000 N   0  0  0  0  0  0  0  0  0  0  0  0
   -0.8708    0.0000    0.0000 C   0  0  0  0  0  0  0  0  0  0  0  0
    0.0000    1.5000    0.0000 C   0  0  0  0  0  0  0  0  0  0  0  0
   -0.8708   -2.0000    0.0000 O   0  0  0  0  0  0  0  0  0  0  0  0
    0.8625    0.0000    0.0000 C   0  0  0  0  0  0  0  0  0  0  0  0
    0.8625    1.0000    0.0000 C   0  0  0  0  0  0  0  0  0  0  0  0
    0.8625   -2.0000    0.0000 O   0  0  0  0  0  0  0  0  0  0  0  0
    0.0000    2.5000    0.0000 O   0  0  0  0  0  0  0  0  0  0  0  0
    0.8625   -3.0000    0.0000 C   0  0  0  0  0  0  0  0  0  0  0  0
    0.8625    3.0000    0.0000 C   0  0  0  0  0  0  0  0  0  0  0  0
  2  1  1  0  0  0  0
  3  4  1  0  0  0  0
  3  5  2  0  0  0  0
  4  1  2  0  0  0  0
  5  8  1  0  0  0  0
  6  2  2  0  0  0  0
  7  1  1  0  0  0  0
  8  7  2  0  0  0  0
  9  2  1  0  0  0  0
 10  5  1  0  0  0  0
 11  9  1  0  0  0  0
 12 10  1  0  0  0  0
M  END
>  <idnumber>
T5290963

>  <LogP>
1.536000000000000e+000

>  <rotating_bonds>
3.000000000000000e+000

>  <hb_acceptors>
3.000000000000000e+000

>  <hb_donors>
0.000000000000000e+000

>  <PSA>
4.842000000000000e+001

>  <clusterid>
-515

>  <is_centroid>
@

>  <class1>
632

>  <population1>
79489

>  <population>
79489

>  <cansmi>
COc1ccc(cn1)C(=O)OC

>  <HBA2>
4

>  <HBD>
0

>  <logP>
0.8768

>  <TPSA>
48.42

>  <MW>
167.162

$$$$

 OpenBabel02121609142D

 17 19  0  0  0  0  0  0  0  0999 V2000
    0.4167   -0.3250    0.0000 N   0  0  0  0  0  0  0  0  0  0  0  0
    0.4167    0.6750    0.0000 C   0  0  0  0  0  0  0  0  0  0  0  0
   -0.3958   -0.9125    0.0000 N   0  0  0  0  0  0  0  0  0  0  0  0
    1.2250   -0.9125    0.0000 C   0  0  0  0  0  0  0  0  0  0  0  0
   -0.4500    1.1750    0.0000 C   0  0  0  0  0  0  0  0  0  0  0  0
    0.9167   -1.8625    0.0000 C   0  0  0  0  0  0  0  0  0  0  0  0
    1.2792    1.1750    0.0000 N   0  0  0  0  0  0  0  0  0  0  0  0
   -0.0833   -1.8625    0.0000 C   0  0  0  0  0  0  0  0  0  0  0  0
    0.4167    2.6750    0.0000 N   0  0  0  0  0  0  0  0  0  0  0  0
    1.2792    2.1750    0.0000 C   0  0  0  0  0  0  0  0  0  0  0  0
   -0.4500    2.1750    0.0000 C   0  0  0  0  0  0  0  0  0  0  0  0
   -1.3208    0.6750    0.0000 C   0  0  0  0  0  0  0  0  0  0  0  0
    2.1750   -0.6042    0.0000 C   0  0  0  0  0  0  0  0  0  0  0  0
   -0.6708   -2.6667    0.0000 C   0  0  0  0  0  0  0  0  0  0  0  0
   -1.3208    2.6750    0.0000 C   0  0  0  0  0  0  0  0  0  0  0  0
   -2.1833    1.1750    0.0000 C   0  0  0  0  0  0  0  0  0  0  0  0
   -2.1833    2.1750    0.0000 C   0  0  0  0  0  0  0  0  0  0  0  0
  2  1  1  0  0  0  0
  3  1  1  0  0  0  0
  4  1  1  0  0  0  0
  5  2  2  0  0  0  0
  6  4  2  0  0  0  0
  7  2  1  0  0  0  0
  8  3  2  0  0  0  0
  8  6  1  0  0  0  0
  9 10  1  0  0  0  0
 10  7  2  0  0  0  0
 11  5  1  0  0  0  0
 11  9  2  0  0  0  0
 12  5  1  0  0  0  0
 13  4  1  0  0  0  0
 14  8  1  0  0  0  0
 15 11  1  0  0  0  0
 15 17  2  0  0  0  0
 16 12  2  0  0  0  0
 17 16  1  0  0  0  0
M  END
>  <idnumber>
T5292072

>  <LogP>
2.593000000000000e+000

>  <rotating_bonds>
1.000000000000000e+000

>  <hb_acceptors>
3.000000000000000e+000

>  <hb_donors>
0.000000000000000e+000

>  <PSA>
4.359999999999999e+001

>  <clusterid>
-516

>  <is_centroid>
@

>  <class1>
631

>  <class2>
641

>  <population1>
41612

>  <population2>
4916

>  <population>
67

>  <cansmi>
Cc1nn(c(c1)C)c1ncnc2c1cccc2

>  <HBA2>
4

>  <HBD>
0

>  <logP>
2.4323

>  <TPSA>
43.6

>  <MW>
224.261

$$$$

 OpenBabel02121609142D

 13 14  0  0  0  0  0  0  0  0999 V2000
   -0.2708    2.2750    0.0000 N   0  0  0  0  0  0  0  0  0  0  0  0
    0.0125    0.5208    0.0000 C   0  0  0  0  0  0  0  0  0  0  0  0
    0.3167    1.4708    0.0000 C   0  0  3  0  0  0  0  0  0  0  0  0
    0.6792   -0.2292    0.0000 C   0  0  0  0  0  0  0  0  0  0  0  0
   -0.9708    0.3083    0.0000 C   0  0  0  0  0  0  0  0  0  0  0  0
   -0.6083   -1.3875    0.0000 C   0  0  0  0  0  0  0  0  0  0  0  0
    0.3667   -1.1792    0.0000 C   0  0  0  0  0  0  0  0  0  0  0  0
   -1.2750   -0.6417    0.0000 C   0  0  0  0  0  0  0  0  0  0  0  0
   -0.9208   -2.3375    0.0000 O   0  0  0  0  0  0  0  0  0  0  0  0
    0.3167    3.0833    0.0000 C   0  0  0  0  0  0  0  0  0  0  0  0
    1.2667    1.7750    0.0000 C   0  0  0  0  0  0  0  0  0  0  0  0
   -0.2458   -3.0792    0.0000 C   0  0  0  0  0  0  0  0  0  0  0  0
    1.2667    2.7750    0.0000 C   0  0  0  0  0  0  0  0  0  0  0  0
  2  3  1  0  0  0  0
  3  1  1  0  0  0  0
  4  2  1  0  0  0  0
  5  2  2  0  0  0  0
  6  8  2  0  0  0  0
  6  7  1  0  0  0  0
  7  4  2  0  0  0  0
  8  5  1  0  0  0  0
  9  6  1  0  0  0  0
 10  1  1  0  0  0  0
 11  3  1  0  0  0  0
 11 13  1  0  0  0  0
 12  9  1  0  0  0  0
 13 10  1  0  0  0  0
M  END
>  <idnumber>
T5292090

>  <LogP>
1.853000000000000e+000

>  <rotating_bonds>
2.000000000000000e+000

>  <hb_acceptors>
2.000000000000000e+000

>  <hb_donors>
1.000000000000000e+000

>  <PSA>
2.126000000000000e+001

>  <clusterid>
346

>  <is_centroid>
@

>  <class1>
642

>  <class2>
625

>  <population1>
51183

>  <population2>
877209

>  <population>
48174

>  <cansmi>
COc1ccc(cc1)C1CCCN1

>  <HBA2>
2

>  <HBD>
1

>  <logP>
2.4485

>  <TPSA>
21.26

>  <MW>
177.243

$$$$

 OpenBabel02121609142D

 11 11  0  0  0  0  0  0  0  0999 V2000
   -0.4333    0.5000    0.0000 N   0  0  0  0  0  0  0  0  0  0  0  0
   -0.4333   -0.5000    0.0000 C   0  0  0  0  0  0  0  0  0  0  0  0
   -1.3000   -1.0000    0.0000 O   0  0  0  0  0  0  0  0  0  0  0  0
   -0.4333    2.5083    0.0000 O   0  0  0  0  0  0  0  0  0  0  0  0
    0.4292   -2.0000    0.0000 N   0  0  0  0  0  0  0  0  0  0  0  0
    0.4292   -1.0000    0.0000 C   0  0  0  0  0  0  0  0  0  0  0  0
    0.4292    1.0000    0.0000 C   0  0  0  0  0  0  0  0  0  0  0  0
   -1.3000    1.0000    0.0000 C   0  0  0  0  0  0  0  0  0  0  0  0
   -1.3000    2.0083    0.0000 C   0  0  0  0  0  0  0  0  0  0  0  0
    0.4292    2.0083    0.0000 C   0  0  0  0  0  0  0  0  0  0  0  0
    1.2917   -2.5000    0.0000 C   0  0  0  0  0  0  0  0  0  0  0  0
  2  1  1  0  0  0  0
  3  2  2  0  0  0  0
  4  9  1  0  0  0  0
  5  6  1  0  0  0  0
  6  2  1  0  0  0  0
  7  1  1  0  0  0  0
  8  1  1  0  0  0  0
  9  8  1  0  0  0  0
 10  7  1  0  0  0  0
 10  4  1  0  0  0  0
 11  5  1  0  0  0  0
M  END
>  <idnumber>
T5292130

>  <LogP>
-7.140000000000000e-001

>  <rotating_bonds>
2.000000000000000e+000

>  <hb_acceptors>
3.000000000000000e+000

>  <hb_donors>
1.000000000000000e+000

>  <PSA>
4.156999999999997e+001

>  <clusterid>
-517

>  <is_centroid>
@

>  <class1>
786

>  <population1>
48067

>  <population>
48067

>  <cansmi>
CNCC(=O)N1CCOCC1

>  <HBA2>
4

>  <HBD>
1

>  <logP>
-0.6066

>  <TPSA>
41.57

>  <MW>
158.198

$$$$

 OpenBabel02121609142D

 19 21  0  0  0  0  0  0  0  0999 V2000
    0.7667   -0.5000    0.0000 C   0  0  0  0  0  0  0  0  0  0  0  0
    2.5000   -0.5000    0.0000 N   0  0  0  0  0  0  0  0  0  0  0  0
   -0.1000   -1.0000    0.0000 N   0  0  0  0  0  0  0  0  0  0  0  0
   -2.6958   -0.5000    0.0000 C   0  0  0  0  0  0  0  0  0  0  0  0
   -0.9625   -0.5000    0.0000 C   0  0  0  0  0  0  0  0  0  0  0  0
   -1.8333   -1.0000    0.0000 C   0  0  0  0  0  0  0  0  0  0  0  0
   -2.6958    0.5000    0.0000 C   0  0  0  0  0  0  0  0  0  0  0  0
    1.6292   -1.0000    0.0000 C   0  0  0  0  0  0  0  0  0  0  0  0
    0.7667    0.5000    0.0000 O   0  0  0  0  0  0  0  0  0  0  0  0
    4.2292    0.5000    0.0000 O   0  0  0  0  0  0  0  0  0  0  0  0
   -1.8333    1.0000    0.0000 C   0  0  0  0  0  0  0  0  0  0  0  0
   -0.9625    0.5000    0.0000 C   0  0  0  0  0  0  0  0  0  0  0  0
    2.5000    0.5000    0.0000 C   0  0  0  0  0  0  0  0  0  0  0  0
    3.3667   -1.0000    0.0000 C   0  0  0  0  0  0  0  0  0  0  0  0
   -3.6458   -0.8042    0.0000 C   0  0  0  0  0  0  0  0  0  0  0  0
   -4.2375    0.0083    0.0000 C   0  0  0  0  0  0  0  0  0  0  0  0
   -3.6458    0.8125    0.0000 C   0  0  0  0  0  0  0  0  0  0  0  0
    3.3667    1.0000    0.0000 C   0  0  0  0  0  0  0  0  0  0  0  0
    4.2292   -0.5000    0.0000 C   0  0  0  0  0  0  0  0  0  0  0  0
  2  8  1  0  0  0  0
  3  1  1  0  0  0  0
  4  6  1  0  0  0  0
  4  7  2  0  0  0  0
  5  3  1  0  0  0  0
  6  5  2  0  0  0  0
  7 11  1  0  0  0  0
  8  1  1  0  0  0  0
  9  1  2  0  0  0  0
 10 19  1  0  0  0  0
 11 12  2  0  0  0  0
 12  5  1  0  0  0  0
 13  2  1  0  0  0  0
 14  2  1  0  0  0  0
 15  4  1  0  0  0  0
 16 15  1  0  0  0  0
 17  7  1  0  0  0  0
 17 16  1  0  0  0  0
 18 13  1  0  0  0  0
 18 10  1  0  0  0  0
 19 14  1  0  0  0  0
M  END
>  <idnumber>
T5292706

>  <LogP>
2.305000000000000e+000

>  <rotating_bonds>
3.000000000000000e+000

>  <hb_acceptors>
3.000000000000000e+000

>  <hb_donors>
1.000000000000000e+000

>  <PSA>
4.156999999999997e+001

>  <clusterid>
347

>  <is_centroid>
@

>  <class1>
644

>  <class2>
786

>  <population1>
7036

>  <population2>
48067

>  <population>
245

>  <cansmi>
O=C(Nc1ccc2c(c1)CCC2)CN1CCOCC1

>  <HBA2>
4

>  <HBD>
1

>  <logP>
1.4569

>  <TPSA>
41.57

>  <MW>
260.332

$$$$

 OpenBabel02121609142D

 15 16  0  0  0  0  0  0  0  0999 V2000
    0.6292    1.4708    0.0000 N   0  0  0  0  0  0  0  0  0  0  0  0
    0.0417    2.2750    0.0000 C   0  0  0  0  0  0  0  0  0  0  0  0
   -0.6083   -2.3375    0.0000 C   0  0  0  0  0  0  0  0  0  0  0  0
    0.3167    0.5208    0.0000 C   0  0  0  0  0  0  0  0  0  0  0  0
   -0.2958   -1.3875    0.0000 C   0  0  0  0  0  0  0  0  0  0  0  0
   -0.9583    2.2750    0.0000 O   0  0  0  0  0  0  0  0  0  0  0  0
    0.0625   -3.0792    0.0000 O   0  0  0  0  0  0  0  0  0  0  0  0
   -0.6583    0.3083    0.0000 C   0  0  0  0  0  0  0  0  0  0  0  0
    0.9917   -0.2292    0.0000 C   0  0  0  0  0  0  0  0  0  0  0  0
   -0.9708   -0.6417    0.0000 C   0  0  0  0  0  0  0  0  0  0  0  0
    0.6792   -1.1792    0.0000 C   0  0  0  0  0  0  0  0  0  0  0  0
   -1.5833   -2.5417    0.0000 O   0  0  0  0  0  0  0  0  0  0  0  0
    1.5792    1.7750    0.0000 C   0  0  0  0  0  0  0  0  0  0  0  0
    0.6292    3.0833    0.0000 C   0  0  0  0  0  0  0  0  0  0  0  0
    1.5792    2.7750    0.0000 C   0  0  0  0  0  0  0  0  0  0  0  0
  2  1  1  0  0  0  0
  3  5  1  0  0  0  0
  4  1  1  0  0  0  0
  5 11  1  0  0  0  0
  6  2  2  0  0  0  0
  7  3  2  0  0  0  0
  8  4  2  0  0  0  0
  9  4  1  0  0  0  0
 10  8  1  0  0  0  0
 10  5  2  0  0  0  0
 11  9  2  0  0  0  0
 12  3  1  0  0  0  0
 13  1  1  0  0  0  0
 14  2  1  0  0  0  0
 15 13  1  0  0  0  0
 15 14  1  0  0  0  0
M  END
>  <idnumber>
T5293533

>  <LogP>
2.005000000000000e+000

>  <rotating_bonds>
2.000000000000000e+000

>  <hb_acceptors>
3.000000000000000e+000

>  <hb_donors>
1.000000000000000e+000

>  <PSA>
5.761000000000000e+001

>  <clusterid>
-518

>  <is_centroid>
@

>  <class1>
673

>  <class2>
625

>  <population1>
18691

>  <population2>
877209

>  <population>
17790

>  <cansmi>
O=C1CCCN1c1ccc(cc1)C(=O)O

>  <HBA2>
4

>  <HBD>
1

>  <logP>
1.5766

>  <TPSA>
57.61

>  <MW>
205.21

$$$$

 OpenBabel02121609142D

 17 19  0  0  0  0  0  0  0  0999 V2000
    2.6542   -0.0625    0.0000 N   0  0  0  0  0  0  0  0  0  0  0  0
    1.7917    0.4500    0.0000 C   0  0  0  0  0  0  0  0  0  0  0  0
    1.0417   -0.2042    0.0000 C   0  0  3  0  0  0  0  0  0  0  0  0
    2.4292   -1.0375    0.0000 C   0  0  0  0  0  0  0  0  0  0  0  0
    1.4375   -1.1250    0.0000 N   0  0  0  0  0  0  0  0  0  0  0  0
    0.1750    0.2958    0.0000 C   0  0  0  0  0  0  0  0  0  0  0  0
   -0.6958   -0.2042    0.0000 C   0  0  0  0  0  0  0  0  0  0  0  0
   -1.5583    0.2958    0.0000 C   0  0  0  0  0  0  0  0  0  0  0  0
    1.7042    1.4458    0.0000 O   0  0  0  0  0  0  0  0  0  0  0  0
    3.0917   -1.7875    0.0000 O   0  0  0  0  0  0  0  0  0  0  0  0
   -1.5583    1.2958    0.0000 C   0  0  0  0  0  0  0  0  0  0  0  0
    0.1750    1.2958    0.0000 C   0  0  0  0  0  0  0  0  0  0  0  0
   -0.6958    1.7958    0.0000 C   0  0  0  0  0  0  0  0  0  0  0  0
    0.0417   -0.2792    0.0000 C   0  0  0  0  0  0  0  0  0  0  0  0
   -2.5083   -0.0167    0.0000 C   0  0  0  0  0  0  0  0  0  0  0  0
   -3.0958    0.7958    0.0000 C   0  0  0  0  0  0  0  0  0  0  0  0
   -2.5083    1.6000    0.0000 C   0  0  0  0  0  0  0  0  0  0  0  0
  2  1  1  0  0  0  0
  3  2  1  0  0  0  0
  3  5  1  0  0  0  0
  4  1  1  0  0  0  0
  5  4  1  0  0  0  0
  6  3  1  0  0  0  0
  7  6  2  0  0  0  0
  8  7  1  0  0  0  0
  8 11  2  0  0  0  0
  9  2  2  0  0  0  0
 10  4  2  0  0  0  0
 11 13  1  0  0  0  0
 12  6  1  0  0  0  0
 13 12  2  0  0  0  0
 14  3  1  0  0  0  0
 15  8  1  0  0  0  0
 16 15  1  0  0  0  0
 17 11  1  0  0  0  0
 17 16  1  0  0  0  0
M  END
>  <idnumber>
T5294651

>  <LogP>
2.059000000000000e+000

>  <rotating_bonds>
1.000000000000000e+000

>  <hb_acceptors>
2.000000000000000e+000

>  <hb_donors>
2.000000000000000e+000

>  <PSA>
5.820000000000000e+001

>  <clusterid>
-520

>  <is_centroid>
@

>  <class1>
643

>  <class2>
644

>  <population1>
24294

>  <population2>
7036

>  <population>
882

>  <cansmi>
O=C1NC(=O)C(N1)(C)c1ccc2c(c1)CCC2

>  <HBA2>
4

>  <HBD>
2

>  <logP>
1.8875

>  <TPSA>
58.2

>  <MW>
230.262

$$$$

 OpenBabel02121609142D

 16 18  0  0  0  0  0  0  0  0999 V2000
    0.6917    0.6833    0.0000 C   0  0  0  0  0  0  0  0  0  0  0  0
    1.2792    1.4958    0.0000 C   0  0  0  0  0  0  0  0  0  0  0  0
    1.0042   -0.2667    0.0000 C   0  0  0  0  0  0  0  0  0  0  0  0
    0.6917    2.3000    0.0000 N   0  0  0  0  0  0  0  0  0  0  0  0
   -0.2583    0.9958    0.0000 C   0  0  0  0  0  0  0  0  0  0  0  0
    0.3375   -1.0125    0.0000 C   0  0  0  0  0  0  0  0  0  0  0  0
   -0.2583    1.9958    0.0000 C   0  0  0  0  0  0  0  0  0  0  0  0
    0.5417   -1.9875    0.0000 O   0  0  0  0  0  0  0  0  0  0  0  0
    1.9792   -0.4750    0.0000 O   0  0  0  0  0  0  0  0  0  0  0  0
   -0.6583   -0.9042    0.0000 C   0  0  0  0  0  0  0  0  0  0  0  0
   -0.3208   -2.4875    0.0000 C   0  0  0  0  0  0  0  0  0  0  0  0
   -1.0708   -1.8167    0.0000 C   0  0  0  0  0  0  0  0  0  0  0  0
   -1.1208    0.4958    0.0000 C   0  0  0  0  0  0  0  0  0  0  0  0
   -1.1208    2.4958    0.0000 C   0  0  0  0  0  0  0  0  0  0  0  0
   -1.9875    0.9958    0.0000 C   0  0  0  0  0  0  0  0  0  0  0  0
   -1.9875    1.9958    0.0000 C   0  0  0  0  0  0  0  0  0  0  0  0
  2  1  2  0  0  0  0
  3  1  1  0  0  0  0
  4  2  1  0  0  0  0
  4  7  1  0  0  0  0
  5  1  1  0  0  0  0
  6  3  1  0  0  0  0
  7  5  2  0  0  0  0
  8  6  1  0  0  0  0
  9  3  2  0  0  0  0
 10  6  2  0  0  0  0
 11  8  1  0  0  0  0
 12 10  1  0  0  0  0
 12 11  2  0  0  0  0
 13  5  1  0  0  0  0
 14  7  1  0  0  0  0
 14 16  2  0  0  0  0
 15 13  2  0  0  0  0
 16 15  1  0  0  0  0
M  END
>  <idnumber>
T5296842

>  <LogP>
2.754000000000000e+000

>  <rotating_bonds>
2.000000000000000e+000

>  <hb_acceptors>
1.000000000000000e+000

>  <hb_donors>
1.000000000000000e+000

>  <PSA>
4.600000000000000e+001

>  <clusterid>
-524

>  <is_centroid>
@

>  <class1>
704

>  <class2>
748

>  <population1>
51112

>  <population2>
15713

>  <population>
452

>  <cansmi>
O=C(c1c[nH]c2c1cccc2)c1ccco1

>  <HBA2>
2

>  <HBD>
1

>  <logP>
2.9919

>  <TPSA>
46

>  <MW>
211.216

$$$$

 OpenBabel02121609142D

 18 20  0  0  0  0  0  0  0  0999 V2000
    1.2917   -0.4792    0.0000 C   0  0  0  0  0  0  0  0  0  0  0  0
    0.4292    0.0208    0.0000 N   0  0  0  0  0  0  0  0  0  0  0  0
    0.4292    1.0208    0.0000 C   0  0  3  0  0  0  0  0  0  0  0  0
   -0.4333    1.5208    0.0000 C   0  0  0  0  0  0  0  0  0  0  0  0
    1.2917   -1.4792    0.0000 C   0  0  3  0  0  0  0  0  0  0  0  0
    2.1625    0.0208    0.0000 O   0  0  0  0  0  0  0  0  0  0  0  0
    2.1042   -2.0667    0.0000 O   0  0  0  0  0  0  0  0  0  0  0  0
   -0.4333    2.5208    0.0000 C   0  0  0  0  0  0  0  0  0  0  0  0
    1.2917    1.5208    0.0000 C   0  0  0  0  0  0  0  0  0  0  0  0
    1.2917    2.5208    0.0000 C   0  0  0  0  0  0  0  0  0  0  0  0
   -1.3000    1.0208    0.0000 C   0  0  0  0  0  0  0  0  0  0  0  0
    0.4292    3.0208    0.0000 C   0  0  0  0  0  0  0  0  0  0  0  0
    1.7917   -3.0167    0.0000 C   0  0  0  0  0  0  0  0  0  0  0  0
   -1.3000    3.0208    0.0000 C   0  0  0  0  0  0  0  0  0  0  0  0
    0.4875   -2.0667    0.0000 C   0  0  0  0  0  0  0  0  0  0  0  0
    0.7917   -3.0167    0.0000 C   0  0  0  0  0  0  0  0  0  0  0  0
   -2.1708    1.5208    0.0000 C   0  0  0  0  0  0  0  0  0  0  0  0
   -2.1708    2.5208    0.0000 C   0  0  0  0  0  0  0  0  0  0  0  0
  2  1  1  0  0  0  0
  3  2  1  0  0  0  0
  4  3  1  0  0  0  0
  5  1  1  0  0  0  0
  6  1  2  0  0  0  0
  7  5  1  0  0  0  0
  8  4  2  0  0  0  0
  8 12  1  0  0  0  0
  9  3  1  0  0  0  0
 10  9  1  0  0  0  0
 11  4  1  0  0  0  0
 12 10  1  0  0  0  0
 13  7  1  0  0  0  0
 14  8  1  0  0  0  0
 14 18  2  0  0  0  0
 15  5  1  0  0  0  0
 16 15  1  0  0  0  0
 16 13  1  0  0  0  0
 17 11  2  0  0  0  0
 18 17  1  0  0  0  0
M  END
>  <idnumber>
T5297523

>  <LogP>
2.406000000000000e+000

>  <rotating_bonds>
2.000000000000000e+000

>  <hb_acceptors>
2.000000000000000e+000

>  <hb_donors>
1.000000000000000e+000

>  <PSA>
3.833000000000000e+001

>  <clusterid>
-526

>  <is_centroid>
@

>  <class1>
723

>  <class2>
807

>  <population1>
9592

>  <population2>
5384

>  <population>
33

>  <cansmi>
O=C(C1CCCO1)NC1CCCc2c1cccc2

>  <HBA2>
3

>  <HBD>
1

>  <logP>
2.7501

>  <TPSA>
38.33

>  <MW>
245.317

$$$$

 OpenBabel02121609142D

 15 16  0  0  0  0  0  0  0  0999 V2000
    0.3292   -0.8042    0.0000 C   0  0  0  0  0  0  0  0  0  0  0  0
   -0.0333    0.8875    0.0000 N   0  0  0  0  0  0  0  0  0  0  0  0
   -0.3375   -0.0625    0.0000 C   0  0  3  0  0  0  0  0  0  0  0  0
    1.3125   -0.6000    0.0000 C   0  0  0  0  0  0  0  0  0  0  0  0
    1.6167    0.3500    0.0000 Cl  0  0  0  0  0  0  0  0  0  0  0  0
   -1.9833    0.4708    0.0000 N   0  0  0  0  0  0  0  0  0  0  0  0
   -1.3208   -0.2667    0.0000 C   0  0  0  0  0  0  0  0  0  0  0  0
    0.0250   -1.7542    0.0000 C   0  0  0  0  0  0  0  0  0  0  0  0
    0.9250    1.1958    0.0000 C   0  0  0  0  0  0  0  0  0  0  0  0
   -0.6208    1.6958    0.0000 C   0  0  0  0  0  0  0  0  0  0  0  0
    1.9792   -1.3417    0.0000 C   0  0  0  0  0  0  0  0  0  0  0  0
    0.6917   -2.5000    0.0000 C   0  0  0  0  0  0  0  0  0  0  0  0
   -0.0333    2.5083    0.0000 C   0  0  0  0  0  0  0  0  0  0  0  0
    0.9250    2.1958    0.0000 C   0  0  0  0  0  0  0  0  0  0  0  0
    1.6667   -2.2917    0.0000 C   0  0  0  0  0  0  0  0  0  0  0  0
  2  3  1  0  0  0  0
  3  1  1  0  0  0  0
  4  1  2  0  0  0  0
  5  4  1  0  0  0  0
  6  7  1  0  0  0  0
  7  3  1  0  0  0  0
  8  1  1  0  0  0  0
  9  2  1  0  0  0  0
 10  2  1  0  0  0  0
 11  4  1  0  0  0  0
 11 15  2  0  0  0  0
 12  8  2  0  0  0  0
 13 10  1  0  0  0  0
 14  9  1  0  0  0  0
 14 13  1  0  0  0  0
 15 12  1  0  0  0  0
M  END
>  <idnumber>
T5297933

>  <LogP>
2.555000000000000e+000

>  <rotating_bonds>
3.000000000000000e+000

>  <hb_acceptors>
3.000000000000000e+000

>  <hb_donors>
1.000000000000000e+000

>  <PSA>
2.926000000000000e+001

>  <clusterid>
-528

>  <is_centroid>
@

>  <class1>
625

>  <class2>
642

>  <population1>
877209

>  <population2>
51183

>  <population>
48174

>  <cansmi>
NCC(c1ccccc1Cl)N1CCCC1

>  <HBA2>
2

>  <HBD>
1

>  <logP>
3.0738

>  <TPSA>
29.26

>  <MW>
224.73

$$$$

 OpenBabel02121609142D

 10 11  0  0  0  0  0  0  0  0999 V2000
   -0.1583    0.4833    0.0000 C   0  0  0  0  0  0  0  0  0  0  0  0
   -1.1083    0.7875    0.0000 S   0  0  0  0  0  0  0  0  0  0  0  0
    1.1042   -0.7792    0.0000 N   0  0  0  0  0  0  0  0  0  0  0  0
    0.1542   -0.4750    0.0000 C   0  0  3  0  0  0  0  0  0  0  0  0
    0.4292    1.2875    0.0000 C   0  0  0  0  0  0  0  0  0  0  0  0
   -1.1083    1.7875    0.0000 C   0  0  0  0  0  0  0  0  0  0  0  0
   -0.1583    2.0958    0.0000 C   0  0  0  0  0  0  0  0  0  0  0  0
    1.1042   -1.7792    0.0000 C   0  0  0  0  0  0  0  0  0  0  0  0
   -0.4333   -1.2792    0.0000 C   0  0  0  0  0  0  0  0  0  0  0  0
    0.1542   -2.0917    0.0000 C   0  0  0  0  0  0  0  0  0  0  0  0
  2  1  1  0  0  0  0
  3  4  1  0  0  0  0
  4  1  1  0  0  0  0
  5  1  2  0  0  0  0
  6  2  1  0  0  0  0
  7  5  1  0  0  0  0
  7  6  2  0  0  0  0
  8  3  1  0  0  0  0
  9  4  1  0  0  0  0
 10  9  1  0  0  0  0
 10  8  1  0  0  0  0
M  END
>  <idnumber>
T5297939

>  <LogP>
1.580000000000000e+000

>  <rotating_bonds>
1.000000000000000e+000

>  <hb_acceptors>
2.000000000000000e+000

>  <hb_donors>
1.000000000000000e+000

>  <PSA>
4.027000000000000e+001

>  <clusterid>
-530

>  <is_centroid>
@

>  <class1>
642

>  <class2>
645

>  <population1>
51183

>  <population2>
105961

>  <population>
4620

>  <cansmi>
C1CNC(C1)c1cccs1

>  <HBA2>
2

>  <HBD>
1

>  <logP>
2.5014

>  <TPSA>
40.27

>  <MW>
153.245

$$$$

 OpenBabel02121609142D

 16 18  0  0  0  0  0  0  0  0999 V2000
   -0.4333   -0.5000    0.0000 C   0  0  0  0  0  0  0  0  0  0  0  0
    0.4292    0.0000    0.0000 C   0  0  0  0  0  0  0  0  0  0  0  0
   -0.4333    1.5000    0.0000 N   0  0  0  0  0  0  0  0  0  0  0  0
   -1.3000    0.0000    0.0000 C   0  0  0  0  0  0  0  0  0  0  0  0
    0.4292    1.0000    0.0000 C   0  0  0  0  0  0  0  0  0  0  0  0
   -1.3000    1.0000    0.0000 C   0  0  0  0  0  0  0  0  0  0  0  0
    1.2917   -0.5000    0.0000 C   0  0  0  0  0  0  0  0  0  0  0  0
   -0.4333   -1.5000    0.0000 O   0  0  0  0  0  0  0  0  0  0  0  0
    1.2917    1.5000    0.0000 C   0  0  0  0  0  0  0  0  0  0  0  0
    2.1625    0.0000    0.0000 C   0  0  0  0  0  0  0  0  0  0  0  0
    2.1625    1.0000    0.0000 C   0  0  0  0  0  0  0  0  0  0  0  0
   -2.1708   -0.5000    0.0000 C   0  0  0  0  0  0  0  0  0  0  0  0
    3.0292   -0.5000    0.0000 O   0  0  0  0  0  0  0  0  0  0  0  0
   -2.1708    1.5000    0.0000 C   0  0  0  0  0  0  0  0  0  0  0  0
   -3.0333    0.0000    0.0000 C   0  0  0  0  0  0  0  0  0  0  0  0
   -3.0333    1.0000    0.0000 C   0  0  0  0  0  0  0  0  0  0  0  0
  2  1  1  0  0  0  0
  3  6  1  0  0  0  0
  4  1  1  0  0  0  0
  5  2  2  0  0  0  0
  5  3  1  0  0  0  0
  6  4  2  0  0  0  0
  7  2  1  0  0  0  0
  8  1  2  0  0  0  0
  9  5  1  0  0  0  0
 10  7  2  0  0  0  0
 11 10  1  0  0  0  0
 11  9  2  0  0  0  0
 12  4  1  0  0  0  0
 13 10  1  0  0  0  0
 14  6  1  0  0  0  0
 14 16  2  0  0  0  0
 15 12  2  0  0  0  0
 16 15  1  0  0  0  0
M  END
>  <idnumber>
T5297969

>  <LogP>
1.328000000000000e+000

>  <rotating_bonds>
0.000000000000000e+000

>  <hb_acceptors>
3.000000000000000e+000

>  <hb_donors>
2.000000000000000e+000

>  <PSA>
4.933000000000001e+001

>  <clusterid>
-531

>  <is_centroid>
@

>  <class1>
928

>  <population1>
192

>  <population>
192

>  <cansmi>
Oc1ccc2c(c1)c(=O)c1c([nH]2)cccc1

>  <HBA2>
2

>  <HBD>
2

>  <logP>
2.3869

>  <TPSA>
53.09

>  <MW>
211.216

$$$$

 OpenBabel02121609142D

 12 13  0  0  0  0  0  0  0  0999 V2000
    0.5792   -0.3417    0.0000 N   0  0  0  0  0  0  0  0  0  0  0  0
    1.1667   -1.1500    0.0000 C   0  0  0  0  0  0  0  0  0  0  0  0
    1.1667    0.4708    0.0000 N   0  0  0  0  0  0  0  0  0  0  0  0
    2.1167   -0.8417    0.0000 C   0  0  0  0  0  0  0  0  0  0  0  0
   -0.4208   -0.3417    0.0000 C   0  0  0  0  0  0  0  0  0  0  0  0
   -0.9208    0.5250    0.0000 C   0  0  0  0  0  0  0  0  0  0  0  0
    2.1167    0.1583    0.0000 C   0  0  0  0  0  0  0  0  0  0  0  0
   -1.9208    0.6333    0.0000 O   0  0  0  0  0  0  0  0  0  0  0  0
   -0.5125    1.4375    0.0000 C   0  0  0  0  0  0  0  0  0  0  0  0
   -2.1208    1.6083    0.0000 C   0  0  0  0  0  0  0  0  0  0  0  0
   -1.2583    2.1083    0.0000 C   0  0  0  0  0  0  0  0  0  0  0  0
    0.8542   -2.1042    0.0000 N   0  0  0  0  0  0  0  0  0  0  0  0
  2  1  1  0  0  0  0
  3  1  1  0  0  0  0
  4  2  2  0  0  0  0
  4  7  1  0  0  0  0
  5  1  1  0  0  0  0
  6  5  1  0  0  0  0
  7  3  2  0  0  0  0
  8  6  1  0  0  0  0
  9  6  2  0  0  0  0
 10  8  1  0  0  0  0
 11  9  1  0  0  0  0
 11 10  2  0  0  0  0
 12  2  1  0  0  0  0
M  END
>  <idnumber>
T5298803

>  <LogP>
4.159999999999998e-001

>  <rotating_bonds>
2.000000000000000e+000

>  <hb_acceptors>
2.000000000000000e+000

>  <hb_donors>
1.000000000000000e+000

>  <PSA>
5.698000000000000e+001

>  <clusterid>
353

>  <is_centroid>
@

>  <class1>
704

>  <class2>
631

>  <population1>
51112

>  <population2>
41612

>  <population>
1603

>  <cansmi>
Nc1ccnn1Cc1ccco1

>  <HBA2>
4

>  <HBD>
1

>  <logP>
1.6878

>  <TPSA>
56.98

>  <MW>
163.177

$$$$

 OpenBabel02121609142D

 10 11  0  0  0  0  0  0  0  0999 V2000
   -0.1583    0.4833    0.0000 C   0  0  0  0  0  0  0  0  0  0  0  0
    1.1042   -0.7792    0.0000 N   0  0  0  0  0  0  0  0  0  0  0  0
    0.1542   -0.4750    0.0000 C   0  0  0  0  0  0  0  0  0  0  0  0
   -1.1083    0.7875    0.0000 S   0  0  0  0  0  0  0  0  0  0  0  0
    0.4292    1.2875    0.0000 C   0  0  0  0  0  0  0  0  0  0  0  0
   -1.1083    1.7875    0.0000 C   0  0  0  0  0  0  0  0  0  0  0  0
   -0.1583    2.0958    0.0000 C   0  0  0  0  0  0  0  0  0  0  0  0
    1.1042   -1.7792    0.0000 C   0  0  0  0  0  0  0  0  0  0  0  0
   -0.4333   -1.2792    0.0000 C   0  0  0  0  0  0  0  0  0  0  0  0
    0.1542   -2.0917    0.0000 C   0  0  0  0  0  0  0  0  0  0  0  0
  2  3  2  0  0  0  0
  3  1  1  0  0  0  0
  4  1  1  0  0  0  0
  5  1  2  0  0  0  0
  6  4  1  0  0  0  0
  7  5  1  0  0  0  0
  7  6  2  0  0  0  0
  8  2  1  0  0  0  0
  9  3  1  0  0  0  0
 10  9  1  0  0  0  0
 10  8  1  0  0  0  0
M  END
>  <idnumber>
T5298839

>  <LogP>
1.496000000000000e+000

>  <rotating_bonds>
1.000000000000000e+000

>  <hb_acceptors>
2.000000000000000e+000

>  <hb_donors>
0.000000000000000e+000

>  <PSA>
4.059999999999999e+001

>  <clusterid>
-535

>  <is_centroid>
@

>  <class1>
647

>  <class2>
645

>  <population1>
647

>  <population2>
105961

>  <population>
44

>  <cansmi>
C1CN=C(C1)c1cccs1

>  <HBA2>
2

>  <HBD>
0

>  <logP>
1.7666

>  <TPSA>
40.6

>  <MW>
151.229

$$$$

 OpenBabel02121609142D

 13 13  0  0  0  0  0  0  0  0999 V2000
    0.5667   -0.2417    0.0000 C   0  0  0  0  0  0  0  0  0  0  0  0
   -1.1708   -1.2417    0.0000 N   0  0  0  0  0  0  0  0  0  0  0  0
    1.4292    0.2500    0.0000 C   0  0  0  0  0  0  0  0  0  0  0  0
   -0.3000    0.2583    0.0000 C   0  0  0  0  0  0  0  0  0  0  0  0
   -3.1708    0.0083    0.0000 Cl  0  0  0  0  0  0  0  0  0  0  0  0
   -1.1708   -0.2417    0.0000 C   0  0  0  0  0  0  0  0  0  0  0  0
    0.5667   -1.2417    0.0000 C   0  0  0  0  0  0  0  0  0  0  0  0
   -0.3000   -1.7417    0.0000 C   0  0  0  0  0  0  0  0  0  0  0  0
    2.2917   -0.2417    0.0000 C   0  0  0  0  0  0  0  0  0  0  0  0
    1.4292    1.2583    0.0000 C   0  0  0  0  0  0  0  0  0  0  0  0
    2.2917    1.7500    0.0000 C   0  0  0  0  0  0  0  0  0  0  0  0
    3.1625    0.2500    0.0000 C   0  0  0  0  0  0  0  0  0  0  0  0
    3.1625    1.2583    0.0000 C   0  0  0  0  0  0  0  0  0  0  0  0
  2  8  1  0  0  0  0
  3  1  1  0  0  0  0
  4  1  2  0  0  0  0
  6  4  1  0  0  0  0
  6  2  1  0  0  0  0
  7  1  1  0  0  0  0
  8  7  1  0  0  0  0
  9  3  1  0  0  0  0
 10  3  2  0  0  0  0
 11 10  1  0  0  0  0
 12  9  2  0  0  0  0
 12 13  1  0  0  0  0
 13 11  2  0  0  0  0
M  END
>  <idnumber>
T5300337

>  <saltdata>
HCl

>  <LogP>
2.239000000000000e+000

>  <rotating_bonds>
1.000000000000000e+000

>  <hb_acceptors>
1.000000000000000e+000

>  <hb_donors>
1.000000000000000e+000

>  <PSA>
1.203000000000000e+001

>  <clusterid>
354

>  <is_centroid>
@

>  <class1>
715

>  <class2>
625

>  <population1>
4585

>  <population2>
877209

>  <population>
4053

>  <cansmi>
N1CCC(=CC1)c1ccccc1.Cl

>  <HBA2>
1

>  <HBD>
2

>  <logP>
3.1941

>  <TPSA>
12.03

>  <MW>
195.689

$$$$

 OpenBabel02121609142D

 13 14  0  0  0  0  0  0  0  0999 V2000
    0.7292   -0.4167    0.0000 N   0  0  0  0  0  0  0  0  0  0  0  0
    1.3167   -1.2250    0.0000 C   0  0  0  0  0  0  0  0  0  0  0  0
    1.3167    0.3958    0.0000 N   0  0  0  0  0  0  0  0  0  0  0  0
    2.2667   -0.9167    0.0000 C   0  0  0  0  0  0  0  0  0  0  0  0
   -0.2708   -0.4167    0.0000 C   0  0  0  0  0  0  0  0  0  0  0  0
    2.2667    0.0833    0.0000 C   0  0  0  0  0  0  0  0  0  0  0  0
   -1.7708    0.4500    0.0000 N   0  0  0  0  0  0  0  0  0  0  0  0
    1.0042   -2.1750    0.0000 N   0  0  0  0  0  0  0  0  0  0  0  0
   -0.7708    0.4500    0.0000 C   0  0  0  0  0  0  0  0  0  0  0  0
   -2.2708    1.3208    0.0000 C   0  0  0  0  0  0  0  0  0  0  0  0
   -0.2708    1.3208    0.0000 C   0  0  0  0  0  0  0  0  0  0  0  0
   -1.7708    2.1833    0.0000 C   0  0  0  0  0  0  0  0  0  0  0  0
   -0.7708    2.1833    0.0000 C   0  0  0  0  0  0  0  0  0  0  0  0
  2  1  1  0  0  0  0
  3  1  1  0  0  0  0
  4  2  2  0  0  0  0
  4  6  1  0  0  0  0
  5  1  1  0  0  0  0
  6  3  2  0  0  0  0
  7  9  2  0  0  0  0
  8  2  1  0  0  0  0
  9  5  1  0  0  0  0
 10  7  1  0  0  0  0
 10 12  2  0  0  0  0
 11  9  1  0  0  0  0
 12 13  1  0  0  0  0
 13 11  2  0  0  0  0
M  END
>  <idnumber>
T5302559

>  <LogP>
-2.570000000000000e-001

>  <rotating_bonds>
2.000000000000000e+000

>  <hb_acceptors>
3.000000000000000e+000

>  <hb_donors>
1.000000000000000e+000

>  <PSA>
5.673000000000000e+001

>  <clusterid>
-541

>  <is_centroid>
@

>  <class1>
631

>  <class2>
632

>  <population1>
41612

>  <population2>
79489

>  <population>
3006

>  <cansmi>
Nc1ccnn1Cc1ccccn1

>  <HBA2>
4

>  <HBD>
1

>  <logP>
1.4898

>  <TPSA>
56.73

>  <MW>
174.202

$$$$

 OpenBabel02121609142D

 11 12  0  0  0  0  0  0  0  0999 V2000
    0.5500    1.1250    0.0000 N   0  0  0  0  0  0  0  0  0  0  0  0
    0.5500   -1.1167    0.0000 S   0  0  0  0  0  0  0  0  0  0  0  0
   -0.2333    0.5000    0.0000 C   0  0  0  0  0  0  0  0  0  0  0  0
   -0.2333   -0.5000    0.0000 C   0  0  0  0  0  0  0  0  0  0  0  0
    1.9542    0.0000    0.0000 C   0  0  0  0  0  0  0  0  0  0  0  0
    1.5250    0.9083    0.0000 C   0  0  0  0  0  0  0  0  0  0  0  0
    1.5250   -0.9000    0.0000 C   0  0  0  0  0  0  0  0  0  0  0  0
   -1.0958    1.0000    0.0000 C   0  0  0  0  0  0  0  0  0  0  0  0
   -1.0958   -1.0000    0.0000 C   0  0  0  0  0  0  0  0  0  0  0  0
   -1.9708    0.5000    0.0000 C   0  0  0  0  0  0  0  0  0  0  0  0
   -1.9708   -0.5000    0.0000 C   0  0  0  0  0  0  0  0  0  0  0  0
  2  4  1  0  0  0  0
  2  7  1  0  0  0  0
  3  1  1  0  0  0  0
  4  3  2  0  0  0  0
  5  6  1  0  0  0  0
  6  1  1  0  0  0  0
  7  5  1  0  0  0  0
  8  3  1  0  0  0  0
  9  4  1  0  0  0  0
  9 11  2  0  0  0  0
 10  8  2  0  0  0  0
 11 10  1  0  0  0  0
M  END
>  <idnumber>
T5302590

>  <LogP>
2.275000000000000e+000

>  <rotating_bonds>
0.000000000000000e+000

>  <hb_acceptors>
2.000000000000000e+000

>  <hb_donors>
1.000000000000000e+000

>  <PSA>
3.733000000000000e+001

>  <clusterid>
358

>  <is_centroid>
@

>  <class1>
866

>  <population1>
828

>  <population>
828

>  <cansmi>
C1CSc2c(NC1)cccc2

>  <HBA2>
2

>  <HBD>
1

>  <logP>
2.7323

>  <TPSA>
37.33

>  <MW>
165.255

$$$$

 OpenBabel02121609142D

 13 14  0  0  0  0  0  0  0  0999 V2000
    0.3167    1.0958    0.0000 N   0  0  0  0  0  0  0  0  0  0  0  0
   -0.2708    1.9083    0.0000 C   0  0  0  0  0  0  0  0  0  0  0  0
    1.2667    1.4083    0.0000 N   0  0  0  0  0  0  0  0  0  0  0  0
    0.3167    2.7125    0.0000 C   0  0  0  0  0  0  0  0  0  0  0  0
    0.0125    0.1458    0.0000 C   0  0  0  0  0  0  0  0  0  0  0  0
   -0.6083   -1.7542    0.0000 N   0  0  0  0  0  0  0  0  0  0  0  0
    1.2667    2.4083    0.0000 C   0  0  0  0  0  0  0  0  0  0  0  0
   -0.9708   -0.0625    0.0000 C   0  0  0  0  0  0  0  0  0  0  0  0
    0.6792   -0.6000    0.0000 C   0  0  0  0  0  0  0  0  0  0  0  0
   -1.2708    1.9083    0.0000 N   0  0  0  0  0  0  0  0  0  0  0  0
    0.3667   -1.5500    0.0000 C   0  0  0  0  0  0  0  0  0  0  0  0
   -1.2750   -1.0167    0.0000 C   0  0  0  0  0  0  0  0  0  0  0  0
   -0.9208   -2.7042    0.0000 C   0  0  0  0  0  0  0  0  0  0  0  0
  2  1  1  0  0  0  0
  3  1  1  0  0  0  0
  4  2  2  0  0  0  0
  5  1  1  0  0  0  0
  6 11  1  0  0  0  0
  7  3  2  0  0  0  0
  7  4  1  0  0  0  0
  8  5  1  0  0  0  0
  9  5  1  0  0  0  0
 10  2  1  0  0  0  0
 11  9  1  0  0  0  0
 12  8  1  0  0  0  0
 12  6  1  0  0  0  0
 13  6  1  0  0  0  0
M  END
>  <idnumber>
T5302615

>  <LogP>
-4.700000000000000e-001

>  <rotating_bonds>
1.000000000000000e+000

>  <hb_acceptors>
3.000000000000000e+000

>  <hb_donors>
1.000000000000000e+000

>  <PSA>
4.708000000000000e+001

>  <clusterid>
359

>  <is_centroid>
@

>  <class1>
639

>  <class2>
631

>  <population1>
59855

>  <population2>
41612

>  <population>
1732

>  <cansmi>
CN1CCC(CC1)n1nccc1N

>  <HBA2>
4

>  <HBD>
1

>  <logP>
1.2511

>  <TPSA>
47.08

>  <MW>
180.25

$$$$

 OpenBabel02121609142D

 19 21  0  0  0  0  0  0  0  0999 V2000
   -1.6750    1.0500    0.0000 C   0  0  0  0  0  0  0  0  0  0  0  0
   -1.0083    0.3083    0.0000 N   0  0  0  0  0  0  0  0  0  0  0  0
   -1.3708    2.0000    0.0000 C   0  0  0  0  0  0  0  0  0  0  0  0
    0.3292   -1.1792    0.0000 C   0  0  0  0  0  0  0  0  0  0  0  0
    0.6417   -0.2292    0.0000 C   0  0  0  0  0  0  0  0  0  0  0  0
   -1.9583    2.8125    0.0000 S   0  0  0  0  0  0  0  0  0  0  0  0
   -0.0333    0.5208    0.0000 C   0  0  0  0  0  0  0  0  0  0  0  0
   -1.3208   -0.6417    0.0000 C   0  0  0  0  0  0  0  0  0  0  0  0
   -2.6583    0.8458    0.0000 O   0  0  0  0  0  0  0  0  0  0  0  0
   -0.4208    2.3125    0.0000 C   0  0  0  0  0  0  0  0  0  0  0  0
   -1.3708    3.6208    0.0000 C   0  0  0  0  0  0  0  0  0  0  0  0
   -0.6458   -1.3875    0.0000 C   0  0  0  0  0  0  0  0  0  0  0  0
    1.0000   -1.9167    0.0000 C   0  0  0  0  0  0  0  0  0  0  0  0
   -0.4208    3.3125    0.0000 C   0  0  0  0  0  0  0  0  0  0  0  0
    1.9792   -1.7125    0.0000 C   0  0  0  0  0  0  0  0  0  0  0  0
    0.6917   -2.8667    0.0000 C   0  0  0  0  0  0  0  0  0  0  0  0
    1.3625   -3.6167    0.0000 C   0  0  0  0  0  0  0  0  0  0  0  0
    2.6500   -2.4542    0.0000 C   0  0  0  0  0  0  0  0  0  0  0  0
    2.3417   -3.4042    0.0000 C   0  0  0  0  0  0  0  0  0  0  0  0
  2  1  1  0  0  0  0
  3  1  1  0  0  0  0
  4 12  1  0  0  0  0
  5  7  1  0  0  0  0
  5  4  2  0  0  0  0
  6  3  1  0  0  0  0
  7  2  1  0  0  0  0
  8  2  1  0  0  0  0
  9  1  2  0  0  0  0
 10  3  2  0  0  0  0
 11  6  1  0  0  0  0
 12  8  1  0  0  0  0
 13  4  1  0  0  0  0
 14 10  1  0  0  0  0
 14 11  2  0  0  0  0
 15 13  2  0  0  0  0
 16 13  1  0  0  0  0
 17 16  2  0  0  0  0
 18 15  1  0  0  0  0
 18 19  2  0  0  0  0
 19 17  1  0  0  0  0
M  END
>  <idnumber>
T5303103

>  <LogP>
2.880000000000000e+000

>  <rotating_bonds>
2.000000000000000e+000

>  <hb_acceptors>
2.000000000000000e+000

>  <hb_donors>
0.000000000000000e+000

>  <PSA>
4.855000000000000e+001

>  <clusterid>
-546

>  <is_centroid>
@

>  <class1>
645

>  <class2>
715

>  <class3>
625

>  <population1>
105961

>  <population2>
4585

>  <population3>
877209

>  <population>
2112

>  <cansmi>
O=C(c1cccs1)N1CCC(=CC1)c1ccccc1

>  <HBA2>
3

>  <HBD>
0

>  <logP>
3.6155

>  <TPSA>
48.55

>  <MW>
269.361

$$$$

 OpenBabel02121609142D

 14 15  0  0  0  0  0  0  0  0999 V2000
   -0.8708    1.0000    0.0000 N   0  0  0  0  0  0  0  0  0  0  0  0
   -0.8708    3.0000    0.0000 N   0  0  0  0  0  0  0  0  0  0  0  0
   -0.8708    0.0083    0.0000 C   0  0  0  0  0  0  0  0  0  0  0  0
    0.0000   -0.5000    0.0000 C   0  0  0  0  0  0  0  0  0  0  0  0
    0.0000   -1.5000    0.0000 C   0  0  0  0  0  0  0  0  0  0  0  0
    0.8625   -2.0000    0.0000 C   0  0  0  0  0  0  0  0  0  0  0  0
   -1.7333    1.5000    0.0000 C   0  0  0  0  0  0  0  0  0  0  0  0
    0.0000    1.5000    0.0000 C   0  0  0  0  0  0  0  0  0  0  0  0
    0.0000    2.5000    0.0000 C   0  0  0  0  0  0  0  0  0  0  0  0
   -1.7333    2.5000    0.0000 C   0  0  0  0  0  0  0  0  0  0  0  0
    1.7292   -0.5000    0.0000 C   0  0  0  0  0  0  0  0  0  0  0  0
    0.8625    0.0083    0.0000 C   0  0  0  0  0  0  0  0  0  0  0  0
    1.7292   -1.5000    0.0000 C   0  0  0  0  0  0  0  0  0  0  0  0
    0.8625   -3.0000    0.0000 C   0  0  0  0  0  0  0  0  0  0  0  0
  2  9  1  0  0  0  0
  3  1  1  0  0  0  0
  4  3  1  0  0  0  0
  5  4  1  0  0  0  0
  6  5  2  0  0  0  0
  6 13  1  0  0  0  0
  7  1  1  0  0  0  0
  8  1  1  0  0  0  0
  9  8  1  0  0  0  0
 10  7  1  0  0  0  0
 10  2  1  0  0  0  0
 11 12  1  0  0  0  0
 12  4  2  0  0  0  0
 13 11  2  0  0  0  0
 14  6  1  0  0  0  0
M  END
>  <idnumber>
T5304560

>  <LogP>
2.374000000000000e+000

>  <rotating_bonds>
2.000000000000000e+000

>  <hb_acceptors>
2.000000000000000e+000

>  <hb_donors>
1.000000000000000e+000

>  <PSA>
1.527000000000000e+001

>  <clusterid>
363

>  <is_centroid>
@

>  <class1>
625

>  <class2>
717

>  <population1>
877209

>  <population2>
74368

>  <population>
68762

>  <cansmi>
Cc1cccc(c1)CN1CCNCC1

>  <HBA2>
2

>  <HBD>
1

>  <logP>
1.6669

>  <TPSA>
15.27

>  <MW>
190.285

$$$$

 OpenBabel02121609142D

 12 12  0  0  0  0  0  0  0  0999 V2000
   -0.4333    0.0000    0.0000 N   0  0  0  0  0  0  0  0  0  0  0  0
   -0.4333   -1.0000    0.0000 C   0  0  0  0  0  0  0  0  0  0  0  0
   -0.4333    2.0000    0.0000 N   0  0  0  0  0  0  0  0  0  0  0  0
    0.4292    0.5000    0.0000 C   0  0  0  0  0  0  0  0  0  0  0  0
   -1.3000    0.5000    0.0000 C   0  0  0  0  0  0  0  0  0  0  0  0
   -1.3000   -1.5000    0.0000 O   0  0  0  0  0  0  0  0  0  0  0  0
   -1.3000    1.5000    0.0000 C   0  0  0  0  0  0  0  0  0  0  0  0
    0.4292    1.5000    0.0000 C   0  0  0  0  0  0  0  0  0  0  0  0
    0.4292   -2.4917    0.0000 N   0  0  0  0  0  0  0  0  0  0  0  0
    0.4292   -1.5000    0.0000 C   0  0  0  0  0  0  0  0  0  0  0  0
   -0.4333    3.0000    0.0000 C   0  0  0  0  0  0  0  0  0  0  0  0
    1.2917   -3.0000    0.0000 C   0  0  0  0  0  0  0  0  0  0  0  0
  2  1  1  0  0  0  0
  3  7  1  0  0  0  0
  4  1  1  0  0  0  0
  5  1  1  0  0  0  0
  6  2  2  0  0  0  0
  7  5  1  0  0  0  0
  8  4  1  0  0  0  0
  8  3  1  0  0  0  0
  9 10  1  0  0  0  0
 10  2  1  0  0  0  0
 11  3  1  0  0  0  0
 12  9  1  0  0  0  0
M  END
>  <idnumber>
T5304575

>  <LogP>
-2.720000000000000e-001

>  <rotating_bonds>
2.000000000000000e+000

>  <hb_acceptors>
3.000000000000000e+000

>  <hb_donors>
1.000000000000000e+000

>  <PSA>
3.558000000000000e+001

>  <clusterid>
-548

>  <is_centroid>
@

>  <class1>
717

>  <population1>
74368

>  <population>
74368

>  <cansmi>
CNCC(=O)N1CCN(CC1)C

>  <HBA2>
4

>  <HBD>
1

>  <logP>
-0.7535

>  <TPSA>
35.58

>  <MW>
171.24

$$$$

 OpenBabel02121609142D

 17 19  0  0  0  0  0  0  0  0999 V2000
    0.2542   -0.4125    0.0000 C   0  0  0  0  0  0  0  0  0  0  0  0
    0.2542    0.5875    0.0000 C   0  0  0  0  0  0  0  0  0  0  0  0
    1.2125   -0.7167    0.0000 N   0  0  0  0  0  0  0  0  0  0  0  0
   -1.4708   -0.4125    0.0000 N   0  0  0  0  0  0  0  0  0  0  0  0
   -0.6083   -0.9125    0.0000 C   0  0  3  0  0  0  0  0  0  0  0  0
    1.2125    0.8958    0.0000 C   0  0  0  0  0  0  0  0  0  0  0  0
    1.8000    0.0875    0.0000 C   0  0  0  0  0  0  0  0  0  0  0  0
   -2.3375   -0.9125    0.0000 C   0  0  0  0  0  0  0  0  0  0  0  0
   -1.4708    0.5875    0.0000 C   0  0  0  0  0  0  0  0  0  0  0  0
   -0.6083    1.0875    0.0000 C   0  0  0  0  0  0  0  0  0  0  0  0
   -2.3375   -1.9125    0.0000 O   0  0  0  0  0  0  0  0  0  0  0  0
   -0.6083   -1.9125    0.0000 C   0  0  0  0  0  0  0  0  0  0  0  0
    1.6167    1.8125    0.0000 C   0  0  0  0  0  0  0  0  0  0  0  0
    2.7917    0.1958    0.0000 C   0  0  0  0  0  0  0  0  0  0  0  0
   -3.2083   -0.4125    0.0000 C   0  0  0  0  0  0  0  0  0  0  0  0
    2.6125    1.9208    0.0000 C   0  0  0  0  0  0  0  0  0  0  0  0
    3.2000    1.1083    0.0000 C   0  0  0  0  0  0  0  0  0  0  0  0
  2  1  2  0  0  0  0
  3  1  1  0  0  0  0
  4  5  1  0  0  0  0
  5  1  1  0  0  0  0
  6  2  1  0  0  0  0
  7  3  1  0  0  0  0
  7  6  2  0  0  0  0
  8  4  1  0  0  0  0
  9  4  1  0  0  0  0
  9 10  1  0  0  0  0
 10  2  1  0  0  0  0
 11  8  2  0  0  0  0
 12  5  1  0  0  0  0
 13  6  1  0  0  0  0
 14  7  1  0  0  0  0
 15  8  1  0  0  0  0
 16 13  2  0  0  0  0
 17 14  2  0  0  0  0
 17 16  1  0  0  0  0
M  END
>  <idnumber>
T5305195

>  <LogP>
1.150000000000000e+000

>  <rotating_bonds>
0.000000000000000e+000

>  <hb_acceptors>
1.000000000000000e+000

>  <hb_donors>
1.000000000000000e+000

>  <PSA>
3.610000000000000e+001

>  <clusterid>
-550

>  <is_centroid>
@

>  <class1>
649

>  <population1>
71

>  <population>
71

>  <cansmi>
CC(=O)N1CCc2c(C1C)[nH]c1c2cccc1

>  <HBA2>
2

>  <HBD>
1

>  <logP>
2.5714

>  <TPSA>
36.1

>  <MW>
228.29

$$$$

 OpenBabel02121609142D

 15 16  0  0  0  0  0  0  0  0999 V2000
    0.8625   -0.5000    0.0000 N   0  0  0  0  0  0  0  0  0  0  0  0
    0.8625    0.5000    0.0000 C   0  0  0  0  0  0  0  0  0  0  0  0
    0.0000   -1.0000    0.0000 C   0  0  0  0  0  0  0  0  0  0  0  0
    0.0000    1.0000    0.0000 C   0  0  0  0  0  0  0  0  0  0  0  0
   -0.8708   -0.5000    0.0000 C   0  0  0  0  0  0  0  0  0  0  0  0
   -0.8708    0.5000    0.0000 C   0  0  0  0  0  0  0  0  0  0  0  0
    1.7292    1.0000    0.0000 C   0  0  0  0  0  0  0  0  0  0  0  0
    0.0000   -2.0000    0.0000 O   0  0  0  0  0  0  0  0  0  0  0  0
    2.5917    0.5000    0.0000 O   0  0  0  0  0  0  0  0  0  0  0  0
    1.7292   -1.0000    0.0000 C   0  0  0  0  0  0  0  0  0  0  0  0
    1.7292    2.0000    0.0000 O   0  0  0  0  0  0  0  0  0  0  0  0
   -1.7333   -1.0000    0.0000 C   0  0  0  0  0  0  0  0  0  0  0  0
   -1.7333    1.0000    0.0000 C   0  0  0  0  0  0  0  0  0  0  0  0
   -2.6000   -0.5000    0.0000 C   0  0  0  0  0  0  0  0  0  0  0  0
   -2.6000    0.5000    0.0000 C   0  0  0  0  0  0  0  0  0  0  0  0
  2  1  1  0  0  0  0
  3  1  1  0  0  0  0
  4  2  2  0  0  0  0
  4  6  1  0  0  0  0
  5  3  1  0  0  0  0
  6  5  2  0  0  0  0
  7  2  1  0  0  0  0
  8  3  2  0  0  0  0
  9  7  2  0  0  0  0
 10  1  1  0  0  0  0
 11  7  1  0  0  0  0
 12  5  1  0  0  0  0
 13  6  1  0  0  0  0
 13 15  2  0  0  0  0
 14 12  2  0  0  0  0
 15 14  1  0  0  0  0
M  END
>  <idnumber>
T5308535

>  <LogP>
1.344000000000000e+000

>  <rotating_bonds>
1.000000000000000e+000

>  <hb_acceptors>
3.000000000000000e+000

>  <hb_donors>
1.000000000000000e+000

>  <PSA>
5.761000000000000e+001

>  <clusterid>
-556

>  <is_centroid>
@

>  <class1>
650

>  <population1>
168

>  <population>
168

>  <cansmi>
OC(=O)c1cc2ccccc2c(=O)n1C

>  <HBA2>
4

>  <HBD>
1

>  <logP>
1.2367

>  <TPSA>
59.3

>  <MW>
203.194

$$$$

 OpenBabel02121609142D

 17 18  0  0  0  0  0  0  0  0999 V2000
   -1.3458    0.7833    0.0000 C   0  0  0  0  0  0  0  0  0  0  0  0
   -0.6708    0.0458    0.0000 N   0  0  0  0  0  0  0  0  0  0  0  0
   -0.3125   -1.6542    0.0000 C   0  0  0  0  0  0  0  0  0  0  0  0
   -0.9833   -0.9125    0.0000 C   0  0  3  0  0  0  0  0  0  0  0  0
   -1.0333    1.7333    0.0000 C   0  0  3  0  0  0  0  0  0  0  0  0
   -2.3208    0.5750    0.0000 O   0  0  0  0  0  0  0  0  0  0  0  0
    0.6667   -1.4417    0.0000 C   0  0  0  0  0  0  0  0  0  0  0  0
   -1.6208    2.5458    0.0000 O   0  0  0  0  0  0  0  0  0  0  0  0
    1.3375   -2.1875    0.0000 C   0  0  0  0  0  0  0  0  0  0  0  0
    2.3125   -1.9792    0.0000 Cl  0  0  0  0  0  0  0  0  0  0  0  0
   -0.6208   -2.6042    0.0000 C   0  0  0  0  0  0  0  0  0  0  0  0
    0.0500   -3.3500    0.0000 C   0  0  0  0  0  0  0  0  0  0  0  0
   -1.0333    3.3583    0.0000 C   0  0  0  0  0  0  0  0  0  0  0  0
   -1.9583   -1.1167    0.0000 C   0  0  0  0  0  0  0  0  0  0  0  0
    1.0292   -3.1417    0.0000 C   0  0  0  0  0  0  0  0  0  0  0  0
   -0.0833    2.0458    0.0000 C   0  0  0  0  0  0  0  0  0  0  0  0
   -0.0833    3.0458    0.0000 C   0  0  0  0  0  0  0  0  0  0  0  0
  2  1  1  0  0  0  0
  3  4  1  0  0  0  0
  4  2  1  0  0  0  0
  5  1  1  0  0  0  0
  6  1  2  0  0  0  0
  7  3  2  0  0  0  0
  8  5  1  0  0  0  0
  9  7  1  0  0  0  0
  9 15  2  0  0  0  0
 10  9  1  0  0  0  0
 11  3  1  0  0  0  0
 12 11  2  0  0  0  0
 13  8  1  0  0  0  0
 14  4  1  0  0  0  0
 15 12  1  0  0  0  0
 16  5  1  0  0  0  0
 17 16  1  0  0  0  0
 17 13  1  0  0  0  0
M  END
>  <idnumber>
T5309579

>  <LogP>
2.455000000000000e+000

>  <rotating_bonds>
3.000000000000000e+000

>  <hb_acceptors>
3.000000000000000e+000

>  <hb_donors>
1.000000000000000e+000

>  <PSA>
3.833000000000000e+001

>  <clusterid>
-558

>  <is_centroid>
@

>  <class1>
625

>  <class2>
723

>  <population1>
877209

>  <population2>
9592

>  <population>
8140

>  <cansmi>
O=C(C1CCCO1)NC(c1cccc(c1)Cl)C

>  <HBA2>
3

>  <HBD>
1

>  <logP>
3.0871

>  <TPSA>
38.33

>  <MW>
253.725

$$$$

 OpenBabel02121609142D

 17 19  0  0  0  0  0  0  0  0999 V2000
    1.6417   -1.2167    0.0000 N   0  0  0  0  0  0  0  0  0  0  0  0
    0.6917   -0.9125    0.0000 C   0  0  0  0  0  0  0  0  0  0  0  0
    0.6917    0.0875    0.0000 C   0  0  0  0  0  0  0  0  0  0  0  0
    2.2292   -0.4125    0.0000 C   0  0  0  0  0  0  0  0  0  0  0  0
    1.6417    0.3958    0.0000 C   0  0  0  0  0  0  0  0  0  0  0  0
   -0.1750    0.5875    0.0000 C   0  0  0  0  0  0  0  0  0  0  0  0
   -0.1750   -1.4125    0.0000 C   0  0  0  0  0  0  0  0  0  0  0  0
   -2.7708   -0.9125    0.0000 C   0  0  0  0  0  0  0  0  0  0  0  0
   -1.0375   -0.9125    0.0000 C   0  0  0  0  0  0  0  0  0  0  0  0
   -3.6375   -1.4125    0.0000 O   0  0  0  0  0  0  0  0  0  0  0  0
   -1.9083   -1.4125    0.0000 C   0  0  0  0  0  0  0  0  0  0  0  0
   -1.0375    0.0875    0.0000 C   0  0  0  0  0  0  0  0  0  0  0  0
   -2.7708    0.0875    0.0000 O   0  0  0  0  0  0  0  0  0  0  0  0
    2.0500    1.3125    0.0000 C   0  0  0  0  0  0  0  0  0  0  0  0
    3.2250   -0.3042    0.0000 C   0  0  0  0  0  0  0  0  0  0  0  0
    3.0417    1.4208    0.0000 C   0  0  0  0  0  0  0  0  0  0  0  0
    3.6292    0.6083    0.0000 C   0  0  0  0  0  0  0  0  0  0  0  0
  2  1  1  0  0  0  0
  3  2  2  0  0  0  0
  3  5  1  0  0  0  0
  4  1  1  0  0  0  0
  5  4  2  0  0  0  0
  6  3  1  0  0  0  0
  7  2  1  0  0  0  0
  8 11  1  0  0  0  0
  9  7  2  0  0  0  0
 10  8  2  0  0  0  0
 11  9  1  0  0  0  0
 12  9  1  0  0  0  0
 12  6  2  0  0  0  0
 13  8  1  0  0  0  0
 14  5  1  0  0  0  0
 14 16  2  0  0  0  0
 15  4  1  0  0  0  0
 16 17  1  0  0  0  0
 17 15  2  0  0  0  0
M  END
>  <idnumber>
T5313807

>  <LogP>
2.788000000000000e+000

>  <rotating_bonds>
2.000000000000000e+000

>  <hb_acceptors>
2.000000000000000e+000

>  <hb_donors>
2.000000000000000e+000

>  <PSA>
5.309000000000000e+001

>  <clusterid>
-563

>  <is_centroid>
@

>  <class1>
837

>  <population1>
1053

>  <population>
1053

>  <cansmi>
OC(=O)Cc1ccc2c(c1)[nH]c1c2cccc1

>  <HBA2>
2

>  <HBD>
2

>  <logP>
2.9482

>  <TPSA>
53.09

>  <MW>
225.243

$$$$

 OpenBabel02121609142D

 18 20  0  0  0  0  0  0  0  0999 V2000
    0.3417   -0.3750    0.0000 N   0  0  0  0  0  0  0  0  0  0  0  0
   -0.6083   -0.6792    0.0000 C   0  0  0  0  0  0  0  0  0  0  0  0
    0.9292   -1.1792    0.0000 C   0  0  0  0  0  0  0  0  0  0  0  0
    0.3417   -1.9917    0.0000 C   0  0  0  0  0  0  0  0  0  0  0  0
   -0.6083   -1.6792    0.0000 C   0  0  0  0  0  0  0  0  0  0  0  0
    0.6542    0.5750    0.0000 C   0  0  0  0  0  0  0  0  0  0  0  0
   -0.0208    1.3208    0.0000 C   0  0  3  0  0  0  0  0  0  0  0  0
    1.9292   -1.2875    0.0000 C   0  0  0  0  0  0  0  0  0  0  0  0
   -1.4708   -0.1792    0.0000 C   0  0  0  0  0  0  0  0  0  0  0  0
   -1.4708   -2.1792    0.0000 C   0  0  0  0  0  0  0  0  0  0  0  0
    0.7500   -2.9042    0.0000 C   0  0  0  0  0  0  0  0  0  0  0  0
   -0.9958    1.1125    0.0000 O   0  0  0  0  0  0  0  0  0  0  0  0
   -0.3750    3.0208    0.0000 O   0  0  0  0  0  0  0  0  0  0  0  0
    0.2917    2.2708    0.0000 C   0  0  0  0  0  0  0  0  0  0  0  0
    1.7417   -3.0042    0.0000 C   0  0  0  0  0  0  0  0  0  0  0  0
    2.3292   -2.2000    0.0000 C   0  0  0  0  0  0  0  0  0  0  0  0
   -2.3375   -0.6792    0.0000 C   0  0  0  0  0  0  0  0  0  0  0  0
   -2.3375   -1.6792    0.0000 C   0  0  0  0  0  0  0  0  0  0  0  0
  2  1  1  0  0  0  0
  3  1  1  0  0  0  0
  4  3  2  0  0  0  0
  5  2  2  0  0  0  0
  5  4  1  0  0  0  0
  6  1  1  0  0  0  0
  7  6  1  0  0  0  0
  8  3  1  0  0  0  0
  9  2  1  0  0  0  0
 10  5  1  0  0  0  0
 10 18  2  0  0  0  0
 11  4  1  0  0  0  0
 11 15  2  0  0  0  0
 12  7  1  0  0  0  0
 13 14  1  0  0  0  0
 14  7  1  0  0  0  0
 15 16  1  0  0  0  0
 16  8  2  0  0  0  0
 17  9  2  0  0  0  0
 18 17  1  0  0  0  0
M  END
>  <idnumber>
T5313809

>  <LogP>
2.736000000000000e+000

>  <rotating_bonds>
3.000000000000000e+000

>  <hb_acceptors>
2.000000000000000e+000

>  <hb_donors>
2.000000000000000e+000

>  <PSA>
4.539000000000002e+001

>  <clusterid>
-564

>  <is_centroid>
@

>  <class1>
837

>  <population1>
1053

>  <population>
1053

>  <cansmi>
OCC(Cn1c2ccccc2c2c1cccc2)O

>  <HBA2>
3

>  <HBD>
2

>  <logP>
2.1477

>  <TPSA>
45.39

>  <MW>
241.285

$$$$

 OpenBabel02121609142D

 11 11  0  0  0  0  0  0  0  0999 V2000
    0.0000    0.2500    0.0000 N   0  0  0  0  0  0  0  0  0  0  0  0
   -0.8708    0.7500    0.0000 C   0  0  0  0  0  0  0  0  0  0  0  0
    0.0000   -0.7500    0.0000 C   0  0  0  0  0  0  0  0  0  0  0  0
    0.8625   -1.2500    0.0000 C   0  0  0  0  0  0  0  0  0  0  0  0
    0.8625    0.7500    0.0000 C   0  0  0  0  0  0  0  0  0  0  0  0
   -0.8708    1.7500    0.0000 C   0  0  0  0  0  0  0  0  0  0  0  0
   -1.7333    0.2500    0.0000 O   0  0  0  0  0  0  0  0  0  0  0  0
    0.8625    1.7500    0.0000 C   0  0  0  0  0  0  0  0  0  0  0  0
    0.0000    2.2500    0.0000 C   0  0  0  0  0  0  0  0  0  0  0  0
    0.8625   -2.2500    0.0000 O   0  0  0  0  0  0  0  0  0  0  0  0
    1.7292   -0.7500    0.0000 O   0  0  0  0  0  0  0  0  0  0  0  0
  2  1  1  0  0  0  0
  3  1  1  0  0  0  0
  4  3  1  0  0  0  0
  5  1  1  0  0  0  0
  6  2  1  0  0  0  0
  6  9  2  0  0  0  0
  7  2  2  0  0  0  0
  8  5  2  0  0  0  0
  9  8  1  0  0  0  0
 10  4  2  0  0  0  0
 11  4  1  0  0  0  0
M  END
>  <idnumber>
T5315873

>  <LogP>
-2.230000000000000e-001

>  <rotating_bonds>
2.000000000000000e+000

>  <hb_acceptors>
3.000000000000000e+000

>  <hb_donors>
1.000000000000000e+000

>  <PSA>
5.761000000000000e+001

>  <clusterid>
-568

>  <is_centroid>
@

>  <class1>
696

>  <population1>
4759

>  <population>
4759

>  <cansmi>
OC(=O)Cn1ccccc1=O

>  <HBA2>
4

>  <HBD>
1

>  <logP>
-0.0671

>  <TPSA>
59.3

>  <MW>
153.135

$$$$

 OpenBabel02121609142D

 18 20  0  0  0  0  0  0  0  0999 V2000
    0.0000    0.0083    0.0000 N   0  0  0  0  0  0  0  0  0  0  0  0
    0.8625   -0.5000    0.0000 C   0  0  0  0  0  0  0  0  0  0  0  0
    1.7292    0.0083    0.0000 C   0  0  0  0  0  0  0  0  0  0  0  0
   -0.8708   -0.5000    0.0000 C   0  0  0  0  0  0  0  0  0  0  0  0
   -1.7333    0.0083    0.0000 C   0  0  0  0  0  0  0  0  0  0  0  0
    1.7292    1.0000    0.0000 N   0  0  0  0  0  0  0  0  0  0  0  0
    0.0000    1.0000    0.0000 C   0  0  0  0  0  0  0  0  0  0  0  0
    0.8625   -1.5000    0.0000 O   0  0  0  0  0  0  0  0  0  0  0  0
   -1.7333    1.0000    0.0000 C   0  0  0  0  0  0  0  0  0  0  0  0
    3.4625    0.0083    0.0000 N   0  0  0  0  0  0  0  0  0  0  0  0
   -0.8708    1.5000    0.0000 C   0  0  0  0  0  0  0  0  0  0  0  0
    2.5917   -0.5000    0.0000 C   0  0  0  0  0  0  0  0  0  0  0  0
    2.5917    1.5000    0.0000 C   0  0  0  0  0  0  0  0  0  0  0  0
   -2.6000   -0.5000    0.0000 C   0  0  0  0  0  0  0  0  0  0  0  0
    3.4625    1.0000    0.0000 C   0  0  0  0  0  0  0  0  0  0  0  0
   -2.6000    1.5000    0.0000 C   0  0  0  0  0  0  0  0  0  0  0  0
   -3.4708    0.0083    0.0000 C   0  0  0  0  0  0  0  0  0  0  0  0
   -3.4708    1.0000    0.0000 C   0  0  0  0  0  0  0  0  0  0  0  0
  2  1  1  0  0  0  0
  3  2  1  0  0  0  0
  4  1  1  0  0  0  0
  5  4  1  0  0  0  0
  5  9  2  0  0  0  0
  6  3  2  0  0  0  0
  7  1  1  0  0  0  0
  8  2  2  0  0  0  0
  9 11  1  0  0  0  0
 10 12  2  0  0  0  0
 11  7  1  0  0  0  0
 12  3  1  0  0  0  0
 13  6  1  0  0  0  0
 13 15  2  0  0  0  0
 14  5  1  0  0  0  0
 15 10  1  0  0  0  0
 16  9  1  0  0  0  0
 17 14  2  0  0  0  0
 18 16  2  0  0  0  0
 18 17  1  0  0  0  0
M  END
>  <idnumber>
T5317547

>  <LogP>
1.024000000000000e+000

>  <rotating_bonds>
1.000000000000000e+000

>  <hb_acceptors>
3.000000000000000e+000

>  <hb_donors>
0.000000000000000e+000

>  <PSA>
4.609000000000000e+001

>  <clusterid>
-571

>  <is_centroid>
@

>  <class1>
750

>  <class2>
815

>  <population1>
7929

>  <population2>
7310

>  <population>
30

>  <cansmi>
O=C(c1cnccn1)N1CCc2c(C1)cccc2

>  <HBA2>
4

>  <HBD>
0

>  <logP>
1.613

>  <TPSA>
46.09

>  <MW>
239.273

$$$$

 OpenBabel02121609142D

 20 22  0  0  0  0  0  0  0  0999 V2000
   -0.8708   -2.0000    0.0000 C   0  0  0  0  0  0  0  0  0  0  0  0
   -0.8708   -1.0000    0.0000 N   0  0  0  0  0  0  0  0  0  0  0  0
   -0.8708    1.0000    0.0000 C   0  0  0  0  0  0  0  0  0  0  0  0
   -1.7333    0.5000    0.0000 C   0  0  0  0  0  0  0  0  0  0  0  0
    0.0000   -2.5000    0.0000 C   0  0  0  0  0  0  0  0  0  0  0  0
   -1.7333   -0.5000    0.0000 C   0  0  0  0  0  0  0  0  0  0  0  0
    0.8625   -2.0000    0.0000 N   0  0  0  0  0  0  0  0  0  0  0  0
    0.0000   -0.5000    0.0000 C   0  0  0  0  0  0  0  0  0  0  0  0
   -1.7333   -2.5000    0.0000 O   0  0  0  0  0  0  0  0  0  0  0  0
    0.0000    0.5000    0.0000 C   0  0  0  0  0  0  0  0  0  0  0  0
   -0.8708    2.0000    0.0000 C   0  0  0  0  0  0  0  0  0  0  0  0
    1.7292   -2.5000    0.0000 C   0  0  0  0  0  0  0  0  0  0  0  0
    0.0000   -3.4917    0.0000 C   0  0  0  0  0  0  0  0  0  0  0  0
    0.0000    2.5000    0.0000 C   0  0  0  0  0  0  0  0  0  0  0  0
   -1.7333    2.5000    0.0000 C   0  0  0  0  0  0  0  0  0  0  0  0
    1.7292   -3.4917    0.0000 C   0  0  0  0  0  0  0  0  0  0  0  0
   -1.7333    3.5000    0.0000 C   0  0  0  0  0  0  0  0  0  0  0  0
    0.0000    3.5000    0.0000 C   0  0  0  0  0  0  0  0  0  0  0  0
    0.8625   -3.9917    0.0000 C   0  0  0  0  0  0  0  0  0  0  0  0
   -0.8708    4.0000    0.0000 C   0  0  0  0  0  0  0  0  0  0  0  0
  2  1  1  0  0  0  0
  3 10  1  0  0  0  0
  4  6  1  0  0  0  0
  4  3  2  0  0  0  0
  5  1  1  0  0  0  0
  6  2  1  0  0  0  0
  7  5  2  0  0  0  0
  8  2  1  0  0  0  0
  9  1  2  0  0  0  0
 10  8  1  0  0  0  0
 11  3  1  0  0  0  0
 12  7  1  0  0  0  0
 12 16  2  0  0  0  0
 13  5  1  0  0  0  0
 14 11  1  0  0  0  0
 15 11  2  0  0  0  0
 16 19  1  0  0  0  0
 17 15  1  0  0  0  0
 18 14  2  0  0  0  0
 18 20  1  0  0  0  0
 19 13  2  0  0  0  0
 20 17  2  0  0  0  0
M  END
>  <idnumber>
T5317630

>  <LogP>
2.003000000000000e+000

>  <rotating_bonds>
2.000000000000000e+000

>  <hb_acceptors>
2.000000000000000e+000

>  <hb_donors>
0.000000000000000e+000

>  <PSA>
3.320000000000000e+001

>  <clusterid>
-572

>  <is_centroid>
@

>  <class1>
715

>  <class2>
625

>  <class3>
632

>  <population1>
4585

>  <population2>
877209

>  <population3>
79489

>  <population>
149

>  <cansmi>
O=C(c1ccccn1)N1CCC(=CC1)c1ccccc1

>  <HBA2>
3

>  <HBD>
0

>  <logP>
2.949

>  <TPSA>
33.2

>  <MW>
264.322

$$$$

 OpenBabel02121609142D

 17 18  0  0  0  0  0  0  0  0999 V2000
   -0.9833   -2.0625    0.0000 N   0  0  0  0  0  0  0  0  0  0  0  0
   -0.3958   -1.2542    0.0000 C   0  0  0  0  0  0  0  0  0  0  0  0
   -0.3958   -2.8667    0.0000 C   0  0  0  0  0  0  0  0  0  0  0  0
   -0.3458    1.3958    0.0000 C   0  0  0  0  0  0  0  0  0  0  0  0
    0.5542   -1.5625    0.0000 C   0  0  0  0  0  0  0  0  0  0  0  0
    0.5542   -2.5625    0.0000 C   0  0  0  0  0  0  0  0  0  0  0  0
   -0.0333    0.4375    0.0000 N   0  0  0  0  0  0  0  0  0  0  0  0
    0.3292    2.1333    0.0000 C   0  0  0  0  0  0  0  0  0  0  0  0
   -0.7000   -0.3042    0.0000 C   0  0  0  0  0  0  0  0  0  0  0  0
    0.0167    3.0833    0.0000 N   0  0  0  0  0  0  0  0  0  0  0  0
   -1.3208    1.6000    0.0000 O   0  0  0  0  0  0  0  0  0  0  0  0
   -1.9833   -2.0625    0.0000 C   0  0  0  0  0  0  0  0  0  0  0  0
   -0.7000   -3.8250    0.0000 C   0  0  0  0  0  0  0  0  0  0  0  0
    0.6875    3.8333    0.0000 C   0  0  0  0  0  0  0  0  0  0  0  0
    1.3042    1.9250    0.0000 C   0  0  0  0  0  0  0  0  0  0  0  0
    1.6667    3.6208    0.0000 C   0  0  0  0  0  0  0  0  0  0  0  0
    1.9750    2.6708    0.0000 C   0  0  0  0  0  0  0  0  0  0  0  0
  2  1  1  0  0  0  0
  3  1  1  0  0  0  0
  4  7  1  0  0  0  0
  5  2  2  0  0  0  0
  6  3  2  0  0  0  0
  6  5  1  0  0  0  0
  7  9  1  0  0  0  0
  8  4  1  0  0  0  0
  9  2  1  0  0  0  0
 10  8  2  0  0  0  0
 11  4  2  0  0  0  0
 12  1  1  0  0  0  0
 13  3  1  0  0  0  0
 14 10  1  0  0  0  0
 14 16  2  0  0  0  0
 15  8  1  0  0  0  0
 16 17  1  0  0  0  0
 17 15  2  0  0  0  0
M  END
>  <idnumber>
T5320531

>  <LogP>
1.997000000000000e+000

>  <rotating_bonds>
3.000000000000000e+000

>  <hb_acceptors>
2.000000000000000e+000

>  <hb_donors>
1.000000000000000e+000

>  <PSA>
4.692000000000000e+001

>  <clusterid>
-575

>  <is_centroid>
@

>  <class1>
635

>  <class2>
632

>  <population1>
31512

>  <population2>
79489

>  <population>
1851

>  <cansmi>
O=C(c1ccccn1)NCc1ccc(n1C)C

>  <HBA2>
4

>  <HBD>
1

>  <logP>
2.0494

>  <TPSA>
46.92

>  <MW>
229.278

$$$$

 OpenBabel02121609142D

 21 24  0  0  0  0  0  0  0  0999 V2000
   -1.6500    1.0083    0.0000 C   0  0  0  0  0  0  0  0  0  0  0  0
   -1.3583    1.9833    0.0000 C   0  0  3  0  0  0  0  0  0  0  0  0
   -0.9875    0.3250    0.0000 N   0  0  0  0  0  0  0  0  0  0  0  0
    0.3292   -1.1292    0.0000 N   0  0  0  0  0  0  0  0  0  0  0  0
   -1.9208    2.8500    0.0000 C   0  0  3  0  0  0  0  0  0  0  0  0
   -1.9583    1.9458    0.0000 C   0  0  0  0  0  0  0  0  0  0  0  0
   -0.7958    1.9125    0.0000 C   0  0  0  0  0  0  0  0  0  0  0  0
   -0.3000    2.2708    0.0000 C   0  0  0  0  0  0  0  0  0  0  0  0
   -2.6208    0.8208    0.0000 O   0  0  0  0  0  0  0  0  0  0  0  0
   -1.2583    3.5458    0.0000 C   0  0  0  0  0  0  0  0  0  0  0  0
   -0.3500    3.0708    0.0000 C   0  0  3  0  0  0  0  0  0  0  0  0
   -1.3000   -0.6042    0.0000 C   0  0  0  0  0  0  0  0  0  0  0  0
   -0.0250    0.5375    0.0000 C   0  0  0  0  0  0  0  0  0  0  0  0
    0.6292   -0.1917    0.0000 C   0  0  0  0  0  0  0  0  0  0  0  0
   -0.6375   -1.3417    0.0000 C   0  0  0  0  0  0  0  0  0  0  0  0
    0.9875   -1.8542    0.0000 C   0  0  0  0  0  0  0  0  0  0  0  0
    0.6792   -2.8000    0.0000 C   0  0  0  0  0  0  0  0  0  0  0  0
    1.9542   -1.6542    0.0000 C   0  0  0  0  0  0  0  0  0  0  0  0
    2.6167   -2.3875    0.0000 C   0  0  0  0  0  0  0  0  0  0  0  0
    1.3417   -3.5292    0.0000 C   0  0  0  0  0  0  0  0  0  0  0  0
    2.3042   -3.3292    0.0000 C   0  0  0  0  0  0  0  0  0  0  0  0
  2  1  1  0  0  0  0
  3  1  1  0  0  0  0
  4 14  1  0  0  0  0
  5  2  1  0  0  0  0
  6  5  1  0  0  0  0
  6  7  2  0  0  0  0
  7 11  1  0  0  0  0
  8  2  1  0  0  0  0
  9  1  2  0  0  0  0
 10  5  1  0  0  0  0
 11  8  1  0  0  0  0
 11 10  1  0  0  0  0
 12  3  1  0  0  0  0
 13  3  1  0  0  0  0
 14 13  1  0  0  0  0
 15 12  1  0  0  0  0
 15  4  1  0  0  0  0
 16  4  1  0  0  0  0
 17 16  1  0  0  0  0
 18 16  2  0  0  0  0
 19 18  1  0  0  0  0
 20 17  2  0  0  0  0
 20 21  1  0  0  0  0
 21 19  2  0  0  0  0
M  END
>  <idnumber>
T5322319

>  <LogP>
1.429000000000000e+000

>  <rotating_bonds>
2.000000000000000e+000

>  <hb_acceptors>
2.000000000000000e+000

>  <hb_donors>
0.000000000000000e+000

>  <PSA>
2.355000000000000e+001

>  <clusterid>
-577

>  <is_centroid>
@

>  <class1>
717

>  <class2>
625

>  <class3>
818

>  <population1>
74368

>  <population2>
877209

>  <population3>
344

>  <population>
21

>  <cansmi>
O=C(C1CC2CC1C=C2)N1CCN(CC1)c1ccccc1

>  <HBA2>
3

>  <HBD>
0

>  <logP>
2.5503

>  <TPSA>
23.55

>  <MW>
282.38

$$$$

 OpenBabel02121609142D

 14 15  0  0  0  0  0  0  0  0999 V2000
    0.6292    1.4708    0.0000 N   0  0  0  0  0  0  0  0  0  0  0  0
    0.6292    3.0833    0.0000 N   0  0  0  0  0  0  0  0  0  0  0  0
    0.0417    2.2750    0.0000 C   0  0  0  0  0  0  0  0  0  0  0  0
    0.3167    0.5208    0.0000 C   0  0  0  0  0  0  0  0  0  0  0  0
    1.5792    1.7750    0.0000 C   0  0  0  0  0  0  0  0  0  0  0  0
    1.5792    2.7750    0.0000 C   0  0  0  0  0  0  0  0  0  0  0  0
   -0.2958   -1.3875    0.0000 C   0  0  0  0  0  0  0  0  0  0  0  0
   -0.6583    0.3083    0.0000 C   0  0  0  0  0  0  0  0  0  0  0  0
    0.9917   -0.2292    0.0000 C   0  0  0  0  0  0  0  0  0  0  0  0
   -0.9708   -0.6417    0.0000 C   0  0  0  0  0  0  0  0  0  0  0  0
    0.6792   -1.1792    0.0000 C   0  0  0  0  0  0  0  0  0  0  0  0
   -0.6083   -2.3375    0.0000 C   0  0  3  0  0  0  0  0  0  0  0  0
    0.0625   -3.0792    0.0000 N   0  0  0  0  0  0  0  0  0  0  0  0
   -1.5833   -2.5417    0.0000 C   0  0  0  0  0  0  0  0  0  0  0  0
  2  3  2  0  0  0  0
  3  1  1  0  0  0  0
  4  1  1  0  0  0  0
  5  1  1  0  0  0  0
  6  5  2  0  0  0  0
  6  2  1  0  0  0  0
  7 11  1  0  0  0  0
  8  4  2  0  0  0  0
  9  4  1  0  0  0  0
 10  8  1  0  0  0  0
 10  7  2  0  0  0  0
 11  9  2  0  0  0  0
 12  7  1  0  0  0  0
 13 12  1  0  0  0  0
 14 12  1  0  0  0  0
M  END
>  <idnumber>
T5323839

>  <LogP>
1.141000000000000e+000

>  <rotating_bonds>
2.000000000000000e+000

>  <hb_acceptors>
2.000000000000000e+000

>  <hb_donors>
1.000000000000000e+000

>  <PSA>
4.384000000000000e+001

>  <clusterid>
-578

>  <is_centroid>
@

>  <class1>
686

>  <class2>
625

>  <population1>
31113

>  <population2>
877209

>  <population>
26567

>  <cansmi>
CC(c1ccc(cc1)n1cncc1)N

>  <HBA2>
3

>  <HBD>
1

>  <logP>
2.5923

>  <TPSA>
43.84

>  <MW>
187.241

$$$$

 OpenBabel02121609142D

 22 24  0  0  0  0  0  0  0  0999 V2000
   -0.6208    0.8583    0.0000 N   0  0  0  0  0  0  0  0  0  0  0  0
   -1.2083    1.6625    0.0000 C   0  0  0  0  0  0  0  0  0  0  0  0
   -1.2083    0.0458    0.0000 C   0  0  0  0  0  0  0  0  0  0  0  0
    0.3792    0.8583    0.0000 C   0  0  0  0  0  0  0  0  0  0  0  0
   -2.1583    0.3583    0.0000 C   0  0  0  0  0  0  0  0  0  0  0  0
   -2.1583    1.3583    0.0000 C   0  0  0  0  0  0  0  0  0  0  0  0
    0.8792   -0.0125    0.0000 C   0  0  0  0  0  0  0  0  0  0  0  0
    1.8792   -0.0125    0.0000 N   0  0  0  0  0  0  0  0  0  0  0  0
   -0.8958    2.6125    0.0000 O   0  0  0  0  0  0  0  0  0  0  0  0
   -0.8958   -0.9042    0.0000 O   0  0  0  0  0  0  0  0  0  0  0  0
    0.3792   -0.8792    0.0000 O   0  0  0  0  0  0  0  0  0  0  0  0
    2.3792   -0.8792    0.0000 C   0  0  0  0  0  0  0  0  0  0  0  0
   -3.0208    1.8583    0.0000 C   0  0  0  0  0  0  0  0  0  0  0  0
   -3.0208   -0.1417    0.0000 C   0  0  0  0  0  0  0  0  0  0  0  0
    2.3792    0.8583    0.0000 C   0  0  0  0  0  0  0  0  0  0  0  0
    1.8792   -1.7417    0.0000 C   0  0  0  0  0  0  0  0  0  0  0  0
    3.3792   -0.8792    0.0000 C   0  0  0  0  0  0  0  0  0  0  0  0
   -3.8958    0.3583    0.0000 C   0  0  0  0  0  0  0  0  0  0  0  0
   -3.8958    1.3583    0.0000 C   0  0  0  0  0  0  0  0  0  0  0  0
    3.8792   -1.7417    0.0000 C   0  0  0  0  0  0  0  0  0  0  0  0
    2.3792   -2.6042    0.0000 C   0  0  0  0  0  0  0  0  0  0  0  0
    3.3792   -2.6042    0.0000 C   0  0  0  0  0  0  0  0  0  0  0  0
  2  1  1  0  0  0  0
  3  1  1  0  0  0  0
  4  1  1  0  0  0  0
  5  3  1  0  0  0  0
  6  2  1  0  0  0  0
  6  5  2  0  0  0  0
  7  4  1  0  0  0  0
  8  7  1  0  0  0  0
  9  2  2  0  0  0  0
 10  3  2  0  0  0  0
 11  7  2  0  0  0  0
 12  8  1  0  0  0  0
 13  6  1  0  0  0  0
 14  5  1  0  0  0  0
 15  8  1  0  0  0  0
 16 12  1  0  0  0  0
 17 12  2  0  0  0  0
 18 14  2  0  0  0  0
 19 13  2  0  0  0  0
 19 18  1  0  0  0  0
 20 17  1  0  0  0  0
 21 16  2  0  0  0  0
 21 22  1  0  0  0  0
 22 20  2  0  0  0  0
M  END
>  <idnumber>
T5325171

>  <LogP>
2.476000000000000e+000

>  <rotating_bonds>
3.000000000000000e+000

>  <hb_acceptors>
3.000000000000000e+000

>  <hb_donors>
0.000000000000000e+000

>  <PSA>
5.769000000000001e+001

>  <clusterid>
-579

>  <is_centroid>
@

>  <class1>
625

>  <class2>
661

>  <population1>
877209

>  <population2>
7628

>  <population>
7628

>  <cansmi>
O=C(N(c1ccccc1)C)CN1C(=O)c2c(C1=O)cccc2

>  <HBA2>
5

>  <HBD>
0

>  <logP>
1.8835

>  <TPSA>
57.69

>  <MW>
294.305

$$$$

 OpenBabel02121609142D

 22 24  0  0  0  0  0  0  0  0999 V2000
    0.4292    1.2500    0.0000 N   0  0  0  0  0  0  0  0  0  0  0  0
   -1.3000    0.2583    0.0000 N   0  0  0  0  0  0  0  0  0  0  0  0
    1.2917    1.7500    0.0000 C   0  0  0  0  0  0  0  0  0  0  0  0
   -2.1708   -0.2417    0.0000 C   0  0  0  0  0  0  0  0  0  0  0  0
   -0.4333   -0.2500    0.0000 C   0  0  3  0  0  0  0  0  0  0  0  0
    0.4292    0.2500    0.0000 C   0  0  0  0  0  0  0  0  0  0  0  0
   -1.3000    1.2500    0.0000 C   0  0  0  0  0  0  0  0  0  0  0  0
   -0.4333    1.7500    0.0000 C   0  0  0  0  0  0  0  0  0  0  0  0
    2.1625    1.2500    0.0000 C   0  0  0  0  0  0  0  0  0  0  0  0
    3.0292    1.7500    0.0000 N   0  0  0  0  0  0  0  0  0  0  0  0
    1.2917    2.7500    0.0000 O   0  0  0  0  0  0  0  0  0  0  0  0
   -2.1708   -1.2500    0.0000 C   0  0  0  0  0  0  0  0  0  0  0  0
   -3.0333   -1.7500    0.0000 C   0  0  0  0  0  0  0  0  0  0  0  0
   -3.0333    0.2583    0.0000 C   0  0  0  0  0  0  0  0  0  0  0  0
   -0.4333   -1.2500    0.0000 C   0  0  0  0  0  0  0  0  0  0  0  0
   -3.9000   -0.2417    0.0000 C   0  0  0  0  0  0  0  0  0  0  0  0
    3.8917    1.2500    0.0000 C   0  0  0  0  0  0  0  0  0  0  0  0
    2.1625    0.2500    0.0000 C   0  0  0  0  0  0  0  0  0  0  0  0
   -3.9000   -1.2500    0.0000 C   0  0  0  0  0  0  0  0  0  0  0  0
   -3.0333   -2.7417    0.0000 C   0  0  0  0  0  0  0  0  0  0  0  0
    3.8917    0.2500    0.0000 C   0  0  0  0  0  0  0  0  0  0  0  0
    3.0292   -0.2500    0.0000 C   0  0  0  0  0  0  0  0  0  0  0  0
  2  7  1  0  0  0  0
  3  1  1  0  0  0  0
  4  2  1  0  0  0  0
  5  6  1  0  0  0  0
  5  2  1  0  0  0  0
  6  1  1  0  0  0  0
  7  8  1  0  0  0  0
  8  1  1  0  0  0  0
  9  3  1  0  0  0  0
 10  9  2  0  0  0  0
 11  3  2  0  0  0  0
 12  4  2  0  0  0  0
 13 12  1  0  0  0  0
 13 19  2  0  0  0  0
 14  4  1  0  0  0  0
 15  5  1  0  0  0  0
 16 14  2  0  0  0  0
 17 10  1  0  0  0  0
 17 21  2  0  0  0  0
 18  9  1  0  0  0  0
 19 16  1  0  0  0  0
 20 13  1  0  0  0  0
 21 22  1  0  0  0  0
 22 18  2  0  0  0  0
M  END
>  <idnumber>
T5329602

>  <LogP>
1.863000000000000e+000

>  <rotating_bonds>
2.000000000000000e+000

>  <hb_acceptors>
3.000000000000000e+000

>  <hb_donors>
0.000000000000000e+000

>  <PSA>
3.644000000000000e+001

>  <clusterid>
391

>  <is_centroid>
@

>  <class1>
717

>  <class2>
625

>  <class3>
632

>  <population1>
74368

>  <population2>
877209

>  <population3>
79489

>  <population>
5587

>  <cansmi>
Cc1cccc(c1)N1CCN(CC1C)C(=O)c1ccccn1

>  <HBA2>
4

>  <HBD>
0

>  <logP>
2.7438

>  <TPSA>
36.44

>  <MW>
295.379

$$$$

 OpenBabel02121609142D

 19 21  0  0  0  0  0  0  0  0999 V2000
    0.4292   -1.2500    0.0000 N   0  0  0  0  0  0  0  0  0  0  0  0
    0.4292   -0.2500    0.0000 N   0  0  0  0  0  0  0  0  0  0  0  0
    1.2917   -1.7500    0.0000 C   0  0  0  0  0  0  0  0  0  0  0  0
    1.2917    0.2500    0.0000 C   0  0  0  0  0  0  0  0  0  0  0  0
   -0.4333   -1.7500    0.0000 C   0  0  0  0  0  0  0  0  0  0  0  0
   -0.4333   -2.7500    0.0000 N   0  0  0  0  0  0  0  0  0  0  0  0
    2.1625   -1.2500    0.0000 C   0  0  0  0  0  0  0  0  0  0  0  0
    1.2917   -2.7500    0.0000 O   0  0  0  0  0  0  0  0  0  0  0  0
    2.1625   -0.2500    0.0000 C   0  0  0  0  0  0  0  0  0  0  0  0
    1.2917    1.2500    0.0000 C   0  0  0  0  0  0  0  0  0  0  0  0
   -1.3000   -1.2500    0.0000 C   0  0  0  0  0  0  0  0  0  0  0  0
   -1.3000   -3.2500    0.0000 C   0  0  0  0  0  0  0  0  0  0  0  0
    2.1625    1.7500    0.0000 C   0  0  0  0  0  0  0  0  0  0  0  0
    0.4292    1.7500    0.0000 C   0  0  0  0  0  0  0  0  0  0  0  0
   -2.1708   -1.7500    0.0000 C   0  0  0  0  0  0  0  0  0  0  0  0
   -2.1708   -2.7500    0.0000 C   0  0  0  0  0  0  0  0  0  0  0  0
    0.4292    2.7500    0.0000 C   0  0  0  0  0  0  0  0  0  0  0  0
    2.1625    2.7500    0.0000 C   0  0  0  0  0  0  0  0  0  0  0  0
    1.2917    3.2500    0.0000 C   0  0  0  0  0  0  0  0  0  0  0  0
  2  1  1  0  0  0  0
  3  1  1  0  0  0  0
  4  2  2  0  0  0  0
  5  1  1  0  0  0  0
  6  5  2  0  0  0  0
  7  3  1  0  0  0  0
  8  3  2  0  0  0  0
  9  7  1  0  0  0  0
  9  4  1  0  0  0  0
 10  4  1  0  0  0  0
 11  5  1  0  0  0  0
 12  6  1  0  0  0  0
 12 16  2  0  0  0  0
 13 10  1  0  0  0  0
 14 10  2  0  0  0  0
 15 11  2  0  0  0  0
 16 15  1  0  0  0  0
 17 14  1  0  0  0  0
 18 13  2  0  0  0  0
 18 19  1  0  0  0  0
 19 17  2  0  0  0  0
M  END
>  <idnumber>
T5330303

>  <LogP>
1.337000000000000e+000

>  <rotating_bonds>
2.000000000000000e+000

>  <hb_acceptors>
3.000000000000000e+000

>  <hb_donors>
0.000000000000000e+000

>  <PSA>
4.556000000000000e+001

>  <clusterid>
-582

>  <is_centroid>
@

>  <class1>
817

>  <class2>
625

>  <class3>
632

>  <population1>
1687

>  <population2>
877209

>  <population3>
79489

>  <population>
23

>  <cansmi>
O=C1CCC(=NN1c1ccccn1)c1ccccc1

>  <HBA2>
4

>  <HBD>
0

>  <logP>
2.1133

>  <TPSA>
45.56

>  <MW>
251.283

$$$$

 OpenBabel02121609142D

 21 23  0  0  0  0  0  0  0  0999 V2000
    3.1417    1.3125    0.0000 N   0  0  0  0  0  0  0  0  0  0  0  0
    2.1917    0.0083    0.0000 C   0  0  0  0  0  0  0  0  0  0  0  0
    3.1417   -0.3042    0.0000 C   0  0  0  0  0  0  0  0  0  0  0  0
    3.7292    0.5000    0.0000 C   0  0  0  0  0  0  0  0  0  0  0  0
    2.1917    1.0000    0.0000 C   0  0  0  0  0  0  0  0  0  0  0  0
    1.3250   -0.5000    0.0000 C   0  0  0  0  0  0  0  0  0  0  0  0
   -0.4083   -0.5000    0.0000 C   0  0  0  0  0  0  0  0  0  0  0  0
    0.4625    0.0083    0.0000 C   0  0  0  0  0  0  0  0  0  0  0  0
   -1.2708    0.0083    0.0000 N   0  0  0  0  0  0  0  0  0  0  0  0
    1.3250    1.5000    0.0000 C   0  0  0  0  0  0  0  0  0  0  0  0
   -3.8708   -0.5000    0.0000 N   0  0  0  0  0  0  0  0  0  0  0  0
   -0.4083   -1.5000    0.0000 O   0  0  0  0  0  0  0  0  0  0  0  0
    0.4625    1.0000    0.0000 C   0  0  0  0  0  0  0  0  0  0  0  0
   -2.1375   -0.5000    0.0000 C   0  0  0  0  0  0  0  0  0  0  0  0
   -3.0083    0.0083    0.0000 C   0  0  0  0  0  0  0  0  0  0  0  0
    3.4542   -1.2542    0.0000 C   0  0  0  0  0  0  0  0  0  0  0  0
    4.7292    0.5000    0.0000 C   0  0  0  0  0  0  0  0  0  0  0  0
   -4.7375    0.0083    0.0000 C   0  0  0  0  0  0  0  0  0  0  0  0
   -3.0083    1.0000    0.0000 C   0  0  0  0  0  0  0  0  0  0  0  0
   -4.7375    1.0000    0.0000 C   0  0  0  0  0  0  0  0  0  0  0  0
   -3.8708    1.5000    0.0000 C   0  0  0  0  0  0  0  0  0  0  0  0
  2  5  2  0  0  0  0
  2  3  1  0  0  0  0
  3  4  2  0  0  0  0
  4  1  1  0  0  0  0
  5  1  1  0  0  0  0
  6  2  1  0  0  0  0
  6  8  2  0  0  0  0
  7  8  1  0  0  0  0
  8 13  1  0  0  0  0
  9  7  1  0  0  0  0
 10  5  1  0  0  0  0
 11 15  2  0  0  0  0
 12  7  2  0  0  0  0
 13 10  2  0  0  0  0
 14  9  1  0  0  0  0
 15 14  1  0  0  0  0
 16  3  1  0  0  0  0
 17  4  1  0  0  0  0
 18 11  1  0  0  0  0
 18 20  2  0  0  0  0
 19 15  1  0  0  0  0
 20 21  1  0  0  0  0
 21 19  2  0  0  0  0
M  END
>  <idnumber>
T5330747

>  <LogP>
2.462000000000000e+000

>  <rotating_bonds>
3.000000000000000e+000

>  <hb_acceptors>
2.000000000000000e+000

>  <hb_donors>
2.000000000000000e+000

>  <PSA>
5.778000000000000e+001

>  <clusterid>
-584

>  <is_centroid>
@

>  <class1>
748

>  <class2>
632

>  <population1>
15713

>  <population2>
79489

>  <population>
785

>  <cansmi>
O=C(c1ccc2c(c1)c(C)c([nH]2)C)NCc1ccccn1

>  <HBA2>
3

>  <HBD>
2

>  <logP>
3.5006

>  <TPSA>
57.78

>  <MW>
279.336

$$$$

 OpenBabel02121609142D

 19 21  0  0  0  0  0  0  0  0999 V2000
   -2.6000   -0.4917    0.0000 C   0  0  0  0  0  0  0  0  0  0  0  0
    0.8625   -0.4917    0.0000 C   0  0  0  0  0  0  0  0  0  0  0  0
   -3.4708   -1.0000    0.0000 N   0  0  0  0  0  0  0  0  0  0  0  0
   -2.6000    0.5000    0.0000 N   0  0  0  0  0  0  0  0  0  0  0  0
   -1.7333   -1.0000    0.0000 O   0  0  0  0  0  0  0  0  0  0  0  0
   -0.0083   -1.0000    0.0000 C   0  0  0  0  0  0  0  0  0  0  0  0
   -0.8708   -0.4917    0.0000 C   0  0  0  0  0  0  0  0  0  0  0  0
    0.8625    0.5000    0.0000 C   0  0  0  0  0  0  0  0  0  0  0  0
    1.7292   -1.0000    0.0000 C   0  0  0  0  0  0  0  0  0  0  0  0
   -0.0083    1.0000    0.0000 C   0  0  0  0  0  0  0  0  0  0  0  0
    1.7292    1.0000    0.0000 C   0  0  0  0  0  0  0  0  0  0  0  0
    2.5917   -0.4917    0.0000 C   0  0  0  0  0  0  0  0  0  0  0  0
   -0.8708    0.5000    0.0000 C   0  0  0  0  0  0  0  0  0  0  0  0
    2.5917    0.5000    0.0000 C   0  0  0  0  0  0  0  0  0  0  0  0
   -4.3333    0.5000    0.0000 C   0  0  0  0  0  0  0  0  0  0  0  0
    3.4625   -1.0000    0.0000 O   0  0  0  0  0  0  0  0  0  0  0  0
   -3.4708    1.0000    0.0000 C   0  0  0  0  0  0  0  0  0  0  0  0
   -4.3333   -0.4917    0.0000 C   0  0  0  0  0  0  0  0  0  0  0  0
    4.3292   -0.4917    0.0000 C   0  0  0  0  0  0  0  0  0  0  0  0
  2  6  1  0  0  0  0
  2  8  2  0  0  0  0
  3  1  2  0  0  0  0
  4  1  1  0  0  0  0
  5  1  1  0  0  0  0
  6  7  2  0  0  0  0
  7  5  1  0  0  0  0
  8 10  1  0  0  0  0
  9  2  1  0  0  0  0
 10 13  2  0  0  0  0
 11  8  1  0  0  0  0
 12  9  2  0  0  0  0
 12 14  1  0  0  0  0
 13  7  1  0  0  0  0
 14 11  2  0  0  0  0
 15 17  1  0  0  0  0
 16 12  1  0  0  0  0
 17  4  2  0  0  0  0
 18  3  1  0  0  0  0
 18 15  2  0  0  0  0
 19 16  1  0  0  0  0
M  END
>  <idnumber>
T5331265

>  <LogP>
2.879000000000000e+000

>  <rotating_bonds>
3.000000000000000e+000

>  <hb_acceptors>
3.000000000000000e+000

>  <hb_donors>
0.000000000000000e+000

>  <PSA>
4.424000000000000e+001

>  <clusterid>
-585

>  <is_centroid>
@

>  <class1>
737

>  <class2>
796

>  <population1>
30296

>  <population2>
21922

>  <population>
264

>  <cansmi>
COc1ccc2c(c1)cc(cc2)Oc1ncccn1

>  <HBA2>
4

>  <HBD>
0

>  <logP>
3.4307

>  <TPSA>
44.24

>  <MW>
252.268

$$$$

 OpenBabel02121609142D

 13 14  0  0  0  0  0  0  0  0999 V2000
   -0.8708    0.5000    0.0000 N   0  0  0  0  0  0  0  0  0  0  0  0
   -0.8708    2.5000    0.0000 N   0  0  0  0  0  0  0  0  0  0  0  0
    1.7292   -2.0000    0.0000 N   0  0  0  0  0  0  0  0  0  0  0  0
   -0.8708   -0.5000    0.0000 C   0  0  0  0  0  0  0  0  0  0  0  0
    0.0000   -1.0000    0.0000 C   0  0  0  0  0  0  0  0  0  0  0  0
    0.0000    1.0000    0.0000 C   0  0  0  0  0  0  0  0  0  0  0  0
   -1.7333    1.0000    0.0000 C   0  0  0  0  0  0  0  0  0  0  0  0
   -1.7333    2.0000    0.0000 C   0  0  0  0  0  0  0  0  0  0  0  0
    0.0000    2.0000    0.0000 C   0  0  0  0  0  0  0  0  0  0  0  0
    0.8625   -2.5000    0.0000 C   0  0  0  0  0  0  0  0  0  0  0  0
    1.7292   -1.0000    0.0000 C   0  0  0  0  0  0  0  0  0  0  0  0
    0.0000   -2.0000    0.0000 C   0  0  0  0  0  0  0  0  0  0  0  0
    0.8625   -0.5000    0.0000 C   0  0  0  0  0  0  0  0  0  0  0  0
  2  8  1  0  0  0  0
  3 11  2  0  0  0  0
  4  1  1  0  0  0  0
  5  4  1  0  0  0  0
  6  1  1  0  0  0  0
  7  1  1  0  0  0  0
  8  7  1  0  0  0  0
  9  6  1  0  0  0  0
  9  2  1  0  0  0  0
 10 12  2  0  0  0  0
 10  3  1  0  0  0  0
 11 13  1  0  0  0  0
 12  5  1  0  0  0  0
 13  5  2  0  0  0  0
M  END
>  <idnumber>
T5332190

>  <LogP>
3.780000000000000e-001

>  <rotating_bonds>
2.000000000000000e+000

>  <hb_acceptors>
3.000000000000000e+000

>  <hb_donors>
1.000000000000000e+000

>  <PSA>
2.815999999999999e+001

>  <clusterid>
-586

>  <is_centroid>
@

>  <class1>
717

>  <class2>
632

>  <population1>
74368

>  <population2>
79489

>  <population>
6850

>  <cansmi>
N1CCN(CC1)Cc1ccncc1

>  <HBA2>
3

>  <HBD>
1

>  <logP>
0.7535

>  <TPSA>
28.16

>  <MW>
177.246

$$$$

 OpenBabel02121609142D

 20 22  0  0  0  0  0  0  0  0999 V2000
    0.0000   -0.2500    0.0000 C   0  0  0  0  0  0  0  0  0  0  0  0
    0.8625   -0.7500    0.0000 N   0  0  0  0  0  0  0  0  0  0  0  0
    0.8625   -1.7500    0.0000 N   0  0  0  0  0  0  0  0  0  0  0  0
   -0.8708   -0.7500    0.0000 C   0  0  0  0  0  0  0  0  0  0  0  0
    0.0000    0.7500    0.0000 O   0  0  0  0  0  0  0  0  0  0  0  0
   -0.8708   -1.7500    0.0000 C   0  0  0  0  0  0  0  0  0  0  0  0
   -0.8708    3.2500    0.0000 N   0  0  0  0  0  0  0  0  0  0  0  0
    0.0000    2.7500    0.0000 C   0  0  0  0  0  0  0  0  0  0  0  0
    0.8625    1.2500    0.0000 C   0  0  0  0  0  0  0  0  0  0  0  0
    0.8625    2.2500    0.0000 C   0  0  0  0  0  0  0  0  0  0  0  0
    0.0000   -2.2500    0.0000 C   0  0  0  0  0  0  0  0  0  0  0  0
   -1.7333   -0.2500    0.0000 C   0  0  0  0  0  0  0  0  0  0  0  0
   -1.7333   -2.2500    0.0000 C   0  0  0  0  0  0  0  0  0  0  0  0
    1.7292    2.7500    0.0000 C   0  0  0  0  0  0  0  0  0  0  0  0
    1.7292    0.7500    0.0000 C   0  0  0  0  0  0  0  0  0  0  0  0
    0.0000   -3.2500    0.0000 C   0  0  0  0  0  0  0  0  0  0  0  0
   -2.6000   -0.7500    0.0000 C   0  0  0  0  0  0  0  0  0  0  0  0
   -2.6000   -1.7500    0.0000 C   0  0  0  0  0  0  0  0  0  0  0  0
    2.5917    2.2500    0.0000 C   0  0  0  0  0  0  0  0  0  0  0  0
    2.5917    1.2500    0.0000 C   0  0  0  0  0  0  0  0  0  0  0  0
  2  1  1  0  0  0  0
  3  2  2  0  0  0  0
  4  1  2  0  0  0  0
  5  1  1  0  0  0  0
  6  4  1  0  0  0  0
  7  8  3  0  0  0  0
  8 10  1  0  0  0  0
  9  5  1  0  0  0  0
 10  9  2  0  0  0  0
 11  6  2  0  0  0  0
 11  3  1  0  0  0  0
 12  4  1  0  0  0  0
 13  6  1  0  0  0  0
 13 18  2  0  0  0  0
 14 10  1  0  0  0  0
 14 19  2  0  0  0  0
 15  9  1  0  0  0  0
 16 11  1  0  0  0  0
 17 12  2  0  0  0  0
 18 17  1  0  0  0  0
 19 20  1  0  0  0  0
 20 15  2  0  0  0  0
M  END
>  <idnumber>
T5334211

>  <LogP>
2.472000000000000e+000

>  <rotating_bonds>
3.000000000000000e+000

>  <hb_acceptors>
3.000000000000000e+000

>  <hb_donors>
0.000000000000000e+000

>  <PSA>
5.880000000000000e+001

>  <clusterid>
-588

>  <is_centroid>
@

>  <class1>
625

>  <class2>
854

>  <population1>
877209

>  <population2>
923

>  <population>
923

>  <cansmi>
N#Cc1ccccc1Oc1nnc(c2c1cccc2)C

>  <HBA2>
4

>  <HBD>
0

>  <logP>
3.60218

>  <TPSA>
58.8

>  <MW>
261.278

$$$$

 OpenBabel02121609142D

 14 15  0  0  0  0  0  0  0  0999 V2000
    0.6292    1.4708    0.0000 N   0  0  0  0  0  0  0  0  0  0  0  0
    1.5792    2.7750    0.0000 N   0  0  0  0  0  0  0  0  0  0  0  0
    0.0417    2.2750    0.0000 N   0  0  0  0  0  0  0  0  0  0  0  0
    1.5792    1.7750    0.0000 C   0  0  0  0  0  0  0  0  0  0  0  0
    0.6292    3.0833    0.0000 C   0  0  0  0  0  0  0  0  0  0  0  0
    0.3167    0.5208    0.0000 C   0  0  0  0  0  0  0  0  0  0  0  0
   -0.2958   -1.3875    0.0000 C   0  0  0  0  0  0  0  0  0  0  0  0
   -0.6583    0.3083    0.0000 C   0  0  0  0  0  0  0  0  0  0  0  0
    0.9917   -0.2292    0.0000 C   0  0  0  0  0  0  0  0  0  0  0  0
   -0.9708   -0.6417    0.0000 C   0  0  0  0  0  0  0  0  0  0  0  0
    0.6792   -1.1792    0.0000 C   0  0  0  0  0  0  0  0  0  0  0  0
   -0.6083   -2.3375    0.0000 C   0  0  3  0  0  0  0  0  0  0  0  0
    0.0625   -3.0792    0.0000 N   0  0  0  0  0  0  0  0  0  0  0  0
   -1.5833   -2.5417    0.0000 C   0  0  0  0  0  0  0  0  0  0  0  0
  2  4  2  0  0  0  0
  2  5  1  0  0  0  0
  3  1  1  0  0  0  0
  4  1  1  0  0  0  0
  5  3  2  0  0  0  0
  6  1  1  0  0  0  0
  7 11  1  0  0  0  0
  8  6  2  0  0  0  0
  9  6  1  0  0  0  0
 10  8  1  0  0  0  0
 10  7  2  0  0  0  0
 11  9  2  0  0  0  0
 12  7  1  0  0  0  0
 13 12  1  0  0  0  0
 14 12  1  0  0  0  0
M  END
>  <idnumber>
T5336001

>  <LogP>
9.590000000000002e-001

>  <rotating_bonds>
2.000000000000000e+000

>  <hb_acceptors>
3.000000000000000e+000

>  <hb_donors>
1.000000000000000e+000

>  <PSA>
5.673000000000000e+001

>  <clusterid>
405

>  <is_centroid>
@

>  <class1>
636

>  <class2>
625

>  <population1>
10575

>  <population2>
877209

>  <population>
9308

>  <cansmi>
CC(c1ccc(cc1)n1ncnc1)N

>  <HBA2>
4

>  <HBD>
1

>  <logP>
1.9873

>  <TPSA>
56.73

>  <MW>
188.229

$$$$

 OpenBabel02121609142D

 16 17  0  0  0  0  0  0  0  0999 V2000
    0.0000   -1.1792    0.0000 C   0  0  0  0  0  0  0  0  0  0  0  0
   -0.6708   -0.4375    0.0000 C   0  0  0  0  0  0  0  0  0  0  0  0
   -0.3625    0.5208    0.0000 N   0  0  0  0  0  0  0  0  0  0  0  0
    1.6417   -1.7125    0.0000 N   0  0  0  0  0  0  0  0  0  0  0  0
   -0.3125   -2.1292    0.0000 C   0  0  0  0  0  0  0  0  0  0  0  0
   -1.6500   -0.6417    0.0000 O   0  0  0  0  0  0  0  0  0  0  0  0
   -1.3083    3.0208    0.0000 O   0  0  0  0  0  0  0  0  0  0  0  0
    0.9750   -0.9667    0.0000 C   0  0  0  0  0  0  0  0  0  0  0  0
    0.3542   -2.8667    0.0000 C   0  0  0  0  0  0  0  0  0  0  0  0
   -1.0333    1.2583    0.0000 C   0  0  0  0  0  0  0  0  0  0  0  0
   -0.7208    2.2083    0.0000 C   0  0  3  0  0  0  0  0  0  0  0  0
    0.0500   -3.8250    0.0000 Br  0  0  0  0  0  0  0  0  0  0  0  0
    1.3375   -2.6667    0.0000 C   0  0  0  0  0  0  0  0  0  0  0  0
   -0.7208    3.8333    0.0000 C   0  0  0  0  0  0  0  0  0  0  0  0
    0.2292    2.5208    0.0000 C   0  0  0  0  0  0  0  0  0  0  0  0
    0.2292    3.5208    0.0000 C   0  0  0  0  0  0  0  0  0  0  0  0
  2  1  1  0  0  0  0
  3  2  1  0  0  0  0
  4  8  1  0  0  0  0
  5  1  1  0  0  0  0
  6  2  2  0  0  0  0
  7 11  1  0  0  0  0
  8  1  2  0  0  0  0
  9  5  2  0  0  0  0
  9 13  1  0  0  0  0
 10  3  1  0  0  0  0
 11 10  1  0  0  0  0
 12  9  1  0  0  0  0
 13  4  2  0  0  0  0
 14  7  1  0  0  0  0
 15 11  1  0  0  0  0
 16 15  1  0  0  0  0
 16 14  1  0  0  0  0
M  END
>  <idnumber>
T5336500

>  <LogP>
1.691000000000000e+000

>  <rotating_bonds>
3.000000000000000e+000

>  <hb_acceptors>
3.000000000000000e+000

>  <hb_donors>
1.000000000000000e+000

>  <PSA>
5.121999999999999e+001

>  <clusterid>
-592

>  <is_centroid>
@

>  <class1>
723

>  <class2>
632

>  <population1>
9592

>  <population2>
79489

>  <population>
453

>  <cansmi>
Brc1cncc(c1)C(=O)NCC1CCCO1

>  <HBA2>
4

>  <HBD>
1

>  <logP>
2.1438

>  <TPSA>
51.22

>  <MW>
285.137

$$$$

 OpenBabel02121609142D

 13 13  0  0  0  0  0  0  0  0999 V2000
    0.0792   -2.6125    0.0000 C   0  0  0  0  0  0  0  0  0  0  0  0
   -0.6333   -2.2000    0.0000 N   0  0  0  0  0  0  0  0  0  0  0  0
    0.7917   -2.2000    0.0000 O   0  0  0  0  0  0  0  0  0  0  0  0
    0.0792   -3.4417    0.0000 N   0  0  0  0  0  0  0  0  0  0  0  0
   -0.6333   -1.3750    0.0000 C   0  0  0  0  0  0  0  0  0  0  0  0
    0.7917   -3.8542    0.0000 C   0  0  0  0  0  0  0  0  0  0  0  0
    0.7917   -4.6833    0.0000 C   0  0  0  0  0  0  0  0  0  0  0  0
    0.0833   -0.9625    0.0000 C   0  0  0  0  0  0  0  0  0  0  0  0
   -1.3458   -0.9625    0.0000 C   0  0  0  0  0  0  0  0  0  0  0  0
   -1.3458   -0.1333    0.0000 C   0  0  0  0  0  0  0  0  0  0  0  0
    0.0833   -0.1333    0.0000 C   0  0  0  0  0  0  0  0  0  0  0  0
   -0.6333    0.2792    0.0000 C   0  0  0  0  0  0  0  0  0  0  0  0
    0.7875   -5.5083    0.0000 C   0  0  0  0  0  0  0  0  0  0  0  0
  2  1  1  0  0  0  0
  3  1  2  0  0  0  0
  4  1  1  0  0  0  0
  5  2  1  0  0  0  0
  6  4  1  0  0  0  0
  7  6  1  0  0  0  0
  7 13  3  0  0  0  0
  8  5  1  0  0  0  0
  9  5  1  0  0  0  0
 10  9  1  0  0  0  0
 11  8  1  0  0  0  0
 12 10  1  0  0  0  0
 12 11  1  0  0  0  0
M  END
>  <idnumber>
T5338956

>  <LogP>
2.083000000000000e+000

>  <rotating_bonds>
3.000000000000000e+000

>  <hb_acceptors>
1.000000000000000e+000

>  <hb_donors>
2.000000000000000e+000

>  <PSA>
4.113000000000000e+001

>  <clusterid>
-593

>  <is_centroid>
@

>  <class1>
797

>  <population1>
40410

>  <population>
40410

>  <cansmi>
C#CCNC(=O)NC1CCCCC1

>  <HBA2>
3

>  <HBD>
2

>  <logP>
2.0333

>  <TPSA>
41.13

>  <MW>
180.247

$$$$

 OpenBabel02121609142D

 12 13  0  0  0  0  0  0  0  0999 V2000
    1.6292   -0.5000    0.0000 C   0  0  0  0  0  0  0  0  0  0  0  0
    0.7667    0.0000    0.0000 C   0  0  0  0  0  0  0  0  0  0  0  0
   -0.1000   -0.5000    0.0000 C   0  0  0  0  0  0  0  0  0  0  0  0
   -0.9708    0.0000    0.0000 C   0  0  0  0  0  0  0  0  0  0  0  0
   -0.9708    1.0000    0.0000 C   0  0  0  0  0  0  0  0  0  0  0  0
    2.5000    0.0000    0.0000 O   0  0  0  0  0  0  0  0  0  0  0  0
    0.7667    1.0000    0.0000 C   0  0  0  0  0  0  0  0  0  0  0  0
   -0.1000    1.5000    0.0000 C   0  0  0  0  0  0  0  0  0  0  0  0
    1.6292   -1.5000    0.0000 O   0  0  0  0  0  0  0  0  0  0  0  0
   -1.9208   -0.3042    0.0000 C   0  0  0  0  0  0  0  0  0  0  0  0
   -2.5083    0.5000    0.0000 C   0  0  0  0  0  0  0  0  0  0  0  0
   -1.9208    1.3125    0.0000 C   0  0  0  0  0  0  0  0  0  0  0  0
  2  1  1  0  0  0  0
  3  2  2  0  0  0  0
  4  3  1  0  0  0  0
  4  5  2  0  0  0  0
  5  8  1  0  0  0  0
  6  1  2  0  0  0  0
  7  2  1  0  0  0  0
  8  7  2  0  0  0  0
  9  1  1  0  0  0  0
 10  4  1  0  0  0  0
 11 10  1  0  0  0  0
 12  5  1  0  0  0  0
 12 11  1  0  0  0  0
M  END
>  <idnumber>
T5342187

>  <LogP>
2.898000000000000e+000

>  <rotating_bonds>
1.000000000000000e+000

>  <hb_acceptors>
2.000000000000000e+000

>  <hb_donors>
1.000000000000000e+000

>  <PSA>
3.730000000000000e+001

>  <clusterid>
-595

>  <is_centroid>
@

>  <class1>
644

>  <population1>
7036

>  <population>
7036

>  <cansmi>
OC(=O)c1ccc2c(c1)CCC2

>  <HBA2>
2

>  <HBD>
1

>  <logP>
1.8735

>  <TPSA>
37.3

>  <MW>
162.185

$$$$

 OpenBabel02121609142D

 14 15  0  0  0  0  0  0  0  0999 V2000
    0.6292    1.4708    0.0000 N   0  0  0  0  0  0  0  0  0  0  0  0
    1.5792    2.7750    0.0000 N   0  0  0  0  0  0  0  0  0  0  0  0
    0.0417    2.2750    0.0000 N   0  0  0  0  0  0  0  0  0  0  0  0
    1.5792    1.7750    0.0000 C   0  0  0  0  0  0  0  0  0  0  0  0
    0.6292    3.0833    0.0000 C   0  0  0  0  0  0  0  0  0  0  0  0
    0.3167    0.5208    0.0000 C   0  0  0  0  0  0  0  0  0  0  0  0
   -0.2958   -1.3875    0.0000 C   0  0  0  0  0  0  0  0  0  0  0  0
   -0.6083   -2.3375    0.0000 C   0  0  0  0  0  0  0  0  0  0  0  0
    0.0625   -3.0792    0.0000 O   0  0  0  0  0  0  0  0  0  0  0  0
   -0.6583    0.3083    0.0000 C   0  0  0  0  0  0  0  0  0  0  0  0
    0.9917   -0.2292    0.0000 C   0  0  0  0  0  0  0  0  0  0  0  0
   -0.9708   -0.6417    0.0000 C   0  0  0  0  0  0  0  0  0  0  0  0
    0.6792   -1.1792    0.0000 C   0  0  0  0  0  0  0  0  0  0  0  0
   -1.5833   -2.5417    0.0000 C   0  0  0  0  0  0  0  0  0  0  0  0
  2  4  2  0  0  0  0
  2  5  1  0  0  0  0
  3  1  1  0  0  0  0
  4  1  1  0  0  0  0
  5  3  2  0  0  0  0
  6  1  1  0  0  0  0
  7 13  1  0  0  0  0
  8  7  1  0  0  0  0
  9  8  2  0  0  0  0
 10  6  2  0  0  0  0
 11  6  1  0  0  0  0
 12 10  1  0  0  0  0
 12  7  2  0  0  0  0
 13 11  2  0  0  0  0
 14  8  1  0  0  0  0
M  END
>  <idnumber>
T5342269

>  <LogP>
1.197000000000000e+000

>  <rotating_bonds>
2.000000000000000e+000

>  <hb_acceptors>
3.000000000000000e+000

>  <hb_donors>
0.000000000000000e+000

>  <PSA>
4.778000000000000e+001

>  <clusterid>
-596

>  <is_centroid>
@

>  <class1>
636

>  <class2>
625

>  <population1>
10575

>  <population2>
877209

>  <population>
9308

>  <cansmi>
CC(=O)c1ccc(cc1)n1ncnc1

>  <HBA2>
4

>  <HBD>
0

>  <logP>
1.4699

>  <TPSA>
47.78

>  <MW>
187.198

$$$$

 OpenBabel02121609142D

 12 13  0  0  0  0  0  0  0  0999 V2000
    1.2917    1.0000    0.0000 C   0  0  0  0  0  0  0  0  0  0  0  0
    0.4292    1.5000    0.0000 N   0  0  0  0  0  0  0  0  0  0  0  0
    1.2917    0.0000    0.0000 N   0  0  0  0  0  0  0  0  0  0  0  0
   -0.4333    0.0000    0.0000 C   0  0  0  0  0  0  0  0  0  0  0  0
   -0.4333    1.0083    0.0000 C   0  0  0  0  0  0  0  0  0  0  0  0
    0.4292   -0.5000    0.0000 C   0  0  0  0  0  0  0  0  0  0  0  0
    2.1625    1.5000    0.0000 N   0  0  0  0  0  0  0  0  0  0  0  0
   -1.3000   -0.5000    0.0000 C   0  0  0  0  0  0  0  0  0  0  0  0
   -1.3000    1.5083    0.0000 C   0  0  0  0  0  0  0  0  0  0  0  0
    0.4292   -1.5000    0.0000 C   0  0  0  0  0  0  0  0  0  0  0  0
   -2.1708    0.0000    0.0000 C   0  0  0  0  0  0  0  0  0  0  0  0
   -2.1708    1.0083    0.0000 C   0  0  0  0  0  0  0  0  0  0  0  0
  2  1  1  0  0  0  0
  3  1  2  0  0  0  0
  4  6  2  0  0  0  0
  5  2  2  0  0  0  0
  5  4  1  0  0  0  0
  6  3  1  0  0  0  0
  7  1  1  0  0  0  0
  8  4  1  0  0  0  0
  9  5  1  0  0  0  0
 10  6  1  0  0  0  0
 11  8  1  0  0  0  0
 12  9  1  0  0  0  0
 12 11  1  0  0  0  0
M  END
>  <idnumber>
T5342827

>  <LogP>
1.747000000000000e+000

>  <rotating_bonds>
0.000000000000000e+000

>  <hb_acceptors>
3.000000000000000e+000

>  <hb_donors>
1.000000000000000e+000

>  <PSA>
5.180000000000000e+001

>  <clusterid>
-599

>  <is_centroid>
@

>  <class1>
683

>  <population1>
36

>  <population>
36

>  <cansmi>
Nc1nc2CCCCc2c(n1)C

>  <HBA2>
3

>  <HBD>
1

>  <logP>
1.8272

>  <TPSA>
51.8

>  <MW>
163.22

$$$$

 OpenBabel02121609142D

 13 14  0  0  0  0  0  0  0  0999 V2000
    0.1417    1.4708    0.0000 C   0  0  0  0  0  0  0  0  0  0  0  0
   -0.4458    2.2750    0.0000 O   0  0  0  0  0  0  0  0  0  0  0  0
    1.0917    1.7750    0.0000 C   0  0  0  0  0  0  0  0  0  0  0  0
    0.1417    3.0833    0.0000 C   0  0  0  0  0  0  0  0  0  0  0  0
    0.5500   -2.8667    0.0000 N   0  0  0  0  0  0  0  0  0  0  0  0
    0.5000   -0.2292    0.0000 N   0  0  0  0  0  0  0  0  0  0  0  0
    1.0917    2.7750    0.0000 C   0  0  0  0  0  0  0  0  0  0  0  0
   -0.1708    0.5208    0.0000 C   0  0  0  0  0  0  0  0  0  0  0  0
    0.1917   -1.1792    0.0000 C   0  0  0  0  0  0  0  0  0  0  0  0
    0.8625   -1.9167    0.0000 C   0  0  0  0  0  0  0  0  0  0  0  0
   -0.4250   -3.0792    0.0000 C   0  0  0  0  0  0  0  0  0  0  0  0
   -0.7875   -1.3875    0.0000 C   0  0  0  0  0  0  0  0  0  0  0  0
   -1.0958   -2.3375    0.0000 C   0  0  0  0  0  0  0  0  0  0  0  0
  2  1  1  0  0  0  0
  3  1  2  0  0  0  0
  4  2  1  0  0  0  0
  5 10  1  0  0  0  0
  5 11  2  0  0  0  0
  6  8  1  0  0  0  0
  7  3  1  0  0  0  0
  7  4  2  0  0  0  0
  8  1  1  0  0  0  0
  9  6  1  0  0  0  0
 10  9  2  0  0  0  0
 11 13  1  0  0  0  0
 12  9  1  0  0  0  0
 13 12  2  0  0  0  0
M  END
>  <idnumber>
T5342937

>  <LogP>
1.740000000000000e+000

>  <rotating_bonds>
3.000000000000000e+000

>  <hb_acceptors>
2.000000000000000e+000

>  <hb_donors>
1.000000000000000e+000

>  <PSA>
3.806000000000000e+001

>  <clusterid>
-601

>  <is_centroid>
@

>  <class1>
704

>  <class2>
632

>  <population1>
51112

>  <population2>
79489

>  <population>
3605

>  <cansmi>
c1ccc(cn1)NCc1ccco1

>  <HBA2>
3

>  <HBD>
1

>  <logP>
2.3597

>  <TPSA>
38.06

>  <MW>
174.199

$$$$

 OpenBabel02121609142D

 14 16  0  0  0  0  0  0  0  0999 V2000
   -0.6083   -0.4625    0.0000 C   0  0  0  0  0  0  0  0  0  0  0  0
    0.3417   -0.7750    0.0000 C   0  0  0  0  0  0  0  0  0  0  0  0
   -0.6083    0.5375    0.0000 C   0  0  0  0  0  0  0  0  0  0  0  0
    0.9292    0.0375    0.0000 C   0  0  0  0  0  0  0  0  0  0  0  0
    0.3417    0.8458    0.0000 C   0  0  0  0  0  0  0  0  0  0  0  0
    0.6542    1.7958    0.0000 N   0  0  0  0  0  0  0  0  0  0  0  0
    0.7500   -1.6875    0.0000 C   0  0  0  0  0  0  0  0  0  0  0  0
   -1.4708   -0.9625    0.0000 C   0  0  0  0  0  0  0  0  0  0  0  0
    1.9292   -0.0667    0.0000 C   0  0  0  0  0  0  0  0  0  0  0  0
   -1.4708    1.0375    0.0000 C   0  0  0  0  0  0  0  0  0  0  0  0
    1.7417   -1.7917    0.0000 C   0  0  0  0  0  0  0  0  0  0  0  0
    2.3292   -0.9792    0.0000 C   0  0  0  0  0  0  0  0  0  0  0  0
   -2.3375    0.5375    0.0000 C   0  0  0  0  0  0  0  0  0  0  0  0
   -2.3375   -0.4625    0.0000 C   0  0  0  0  0  0  0  0  0  0  0  0
  2  1  1  0  0  0  0
  3  1  2  0  0  0  0
  4  2  2  0  0  0  0
  5  3  1  0  0  0  0
  5  4  1  0  0  0  0
  6  5  1  0  0  0  0
  7  2  1  0  0  0  0
  8  1  1  0  0  0  0
  9  4  1  0  0  0  0
  9 12  2  0  0  0  0
 10  3  1  0  0  0  0
 10 13  2  0  0  0  0
 11  7  2  0  0  0  0
 12 11  1  0  0  0  0
 13 14  1  0  0  0  0
 14  8  2  0  0  0  0
M  END
>  <idnumber>
T5342955

>  <LogP>
2.428000000000000e+000

>  <rotating_bonds>
0.000000000000000e+000

>  <hb_acceptors>
1.000000000000000e+000

>  <hb_donors>
1.000000000000000e+000

>  <PSA>
2.602000000000000e+001

>  <clusterid>
-603

>  <is_centroid>
@

>  <class1>
812

>  <population1>
999

>  <population>
999

>  <cansmi>
NC1c2ccccc2c2c1cccc2

>  <HBA2>
1

>  <HBD>
1

>  <logP>
3.4154

>  <TPSA>
26.02

>  <MW>
181.233

$$$$

 OpenBabel02121609142D

 13 14  0  0  0  0  0  0  0  0999 V2000
   -0.6708   -0.0625    0.0000 C   0  0  0  0  0  0  0  0  0  0  0  0
    0.0000   -0.8042    0.0000 N   0  0  0  0  0  0  0  0  0  0  0  0
   -0.3625    0.8875    0.0000 C   0  0  3  0  0  0  0  0  0  0  0  0
   -1.6500   -0.2667    0.0000 O   0  0  0  0  0  0  0  0  0  0  0  0
    1.3375   -2.2917    0.0000 N   0  0  0  0  0  0  0  0  0  0  0  0
   -0.9500    1.6958    0.0000 O   0  0  0  0  0  0  0  0  0  0  0  0
   -0.3125   -1.7542    0.0000 C   0  0  0  0  0  0  0  0  0  0  0  0
    0.9750   -0.6000    0.0000 C   0  0  0  0  0  0  0  0  0  0  0  0
    1.6417   -1.3417    0.0000 C   0  0  0  0  0  0  0  0  0  0  0  0
    0.3542   -2.5000    0.0000 C   0  0  0  0  0  0  0  0  0  0  0  0
   -0.3625    2.5083    0.0000 C   0  0  0  0  0  0  0  0  0  0  0  0
    0.5875    1.1958    0.0000 C   0  0  0  0  0  0  0  0  0  0  0  0
    0.5875    2.1958    0.0000 C   0  0  0  0  0  0  0  0  0  0  0  0
  2  1  1  0  0  0  0
  3  1  1  0  0  0  0
  4  1  2  0  0  0  0
  5  9  1  0  0  0  0
  6  3  1  0  0  0  0
  7  2  1  0  0  0  0
  8  2  1  0  0  0  0
  9  8  1  0  0  0  0
 10  7  1  0  0  0  0
 10  5  1  0  0  0  0
 11  6  1  0  0  0  0
 12  3  1  0  0  0  0
 13 12  1  0  0  0  0
 13 11  1  0  0  0  0
M  END
>  <idnumber>
T5342961

>  <LogP>
8.800000000000002e-002

>  <rotating_bonds>
1.000000000000000e+000

>  <hb_acceptors>
3.000000000000000e+000

>  <hb_donors>
1.000000000000000e+000

>  <PSA>
4.156999999999997e+001

>  <clusterid>
-604

>  <is_centroid>
@

>  <class1>
717

>  <class2>
723

>  <population1>
74368

>  <population2>
9592

>  <population>
700

>  <cansmi>
O=C(N1CCNCC1)C1CCCO1

>  <HBA2>
4

>  <HBD>
1

>  <logP>
-0.1361

>  <TPSA>
41.57

>  <MW>
184.236

$$$$

 OpenBabel02121609142D

 16 17  0  0  0  0  0  0  0  0999 V2000
    0.4750    0.7250    0.0000 C   0  0  0  0  0  0  0  0  0  0  0  0
    1.1417   -0.0167    0.0000 N   0  0  0  0  0  0  0  0  0  0  0  0
    0.8292   -0.9667    0.0000 C   0  0  0  0  0  0  0  0  0  0  0  0
   -0.5083    0.5208    0.0000 O   0  0  0  0  0  0  0  0  0  0  0  0
   -0.1458   -1.1792    0.0000 C   0  0  0  0  0  0  0  0  0  0  0  0
    0.7792    1.6750    0.0000 C   0  0  0  0  0  0  0  0  0  0  0  0
   -0.4500   -2.1292    0.0000 C   0  0  0  0  0  0  0  0  0  0  0  0
   -1.4333   -2.3375    0.0000 O   0  0  0  0  0  0  0  0  0  0  0  0
    1.1917   -2.6667    0.0000 C   0  0  0  0  0  0  0  0  0  0  0  0
    1.5042   -1.7125    0.0000 C   0  0  0  0  0  0  0  0  0  0  0  0
    0.2167   -2.8667    0.0000 C   0  0  0  0  0  0  0  0  0  0  0  0
    0.1917    2.4833    0.0000 C   0  0  0  0  0  0  0  0  0  0  0  0
    1.7292    1.9833    0.0000 C   0  0  0  0  0  0  0  0  0  0  0  0
   -1.7375   -3.2875    0.0000 C   0  0  0  0  0  0  0  0  0  0  0  0
    1.7292    2.9833    0.0000 C   0  0  0  0  0  0  0  0  0  0  0  0
    0.7792    3.2958    0.0000 C   0  0  0  0  0  0  0  0  0  0  0  0
  2  1  1  0  0  0  0
  3  2  1  0  0  0  0
  4  1  2  0  0  0  0
  5  3  1  0  0  0  0
  6  1  1  0  0  0  0
  7  5  2  0  0  0  0
  7 11  1  0  0  0  0
  8  7  1  0  0  0  0
  9 10  1  0  0  0  0
 10  3  2  0  0  0  0
 11  9  2  0  0  0  0
 12  6  1  0  0  0  0
 13  6  1  0  0  0  0
 14  8  1  0  0  0  0
 15 13  1  0  0  0  0
 15 16  1  0  0  0  0
 16 12  1  0  0  0  0
M  END
>  <idnumber>
T5344593

>  <LogP>
2.708000000000000e+000

>  <rotating_bonds>
3.000000000000000e+000

>  <hb_acceptors>
2.000000000000000e+000

>  <hb_donors>
1.000000000000000e+000

>  <PSA>
3.833000000000000e+001

>  <clusterid>
412

>  <is_centroid>
@

>  <class1>
674

>  <class2>
625

>  <population1>
16474

>  <population2>
877209

>  <population>
13629

>  <cansmi>
COc1cccc(c1)NC(=O)C1CCCC1

>  <HBA2>
3

>  <HBD>
1

>  <logP>
2.8969

>  <TPSA>
38.33

>  <MW>
219.28

$$$$

 OpenBabel02121609142D

 14 15  0  0  0  0  0  0  0  0999 V2000
   -0.1458    0.5208    0.0000 C   0  0  0  0  0  0  0  0  0  0  0  0
    0.1667    1.4708    0.0000 N   0  0  0  0  0  0  0  0  0  0  0  0
    0.2167   -1.1792    0.0000 N   0  0  0  0  0  0  0  0  0  0  0  0
    0.5250   -0.2292    0.0000 C   0  0  0  0  0  0  0  0  0  0  0  0
   -1.1208    0.3083    0.0000 O   0  0  0  0  0  0  0  0  0  0  0  0
   -0.4000   -3.0792    0.0000 N   0  0  0  0  0  0  0  0  0  0  0  0
    1.1167    1.7750    0.0000 C   0  0  0  0  0  0  0  0  0  0  0  0
   -0.4208    2.2750    0.0000 C   0  0  0  0  0  0  0  0  0  0  0  0
    0.8875   -1.9167    0.0000 C   0  0  0  0  0  0  0  0  0  0  0  0
   -0.7625   -1.3875    0.0000 C   0  0  0  0  0  0  0  0  0  0  0  0
   -1.0708   -2.3375    0.0000 C   0  0  0  0  0  0  0  0  0  0  0  0
    0.5792   -2.8667    0.0000 C   0  0  0  0  0  0  0  0  0  0  0  0
    0.1667    3.0833    0.0000 C   0  0  0  0  0  0  0  0  0  0  0  0
    1.1167    2.7750    0.0000 C   0  0  0  0  0  0  0  0  0  0  0  0
  2  1  1  0  0  0  0
  3  4  1  0  0  0  0
  4  1  1  0  0  0  0
  5  1  2  0  0  0  0
  6 11  1  0  0  0  0
  7  2  1  0  0  0  0
  8  2  1  0  0  0  0
  9  3  1  0  0  0  0
 10  3  1  0  0  0  0
 11 10  1  0  0  0  0
 12  9  1  0  0  0  0
 12  6  1  0  0  0  0
 13  8  1  0  0  0  0
 14  7  1  0  0  0  0
 14 13  1  0  0  0  0
M  END
>  <idnumber>
T5344957

>  <LogP>
-1.830000000000000e-001

>  <rotating_bonds>
2.000000000000000e+000

>  <hb_acceptors>
3.000000000000000e+000

>  <hb_donors>
1.000000000000000e+000

>  <PSA>
3.558000000000000e+001

>  <clusterid>
-609

>  <is_centroid>
@

>  <class1>
717

>  <class2>
642

>  <population1>
74368

>  <population2>
51183

>  <population>
3510

>  <cansmi>
O=C(N1CCCC1)CN1CCNCC1

>  <HBA2>
4

>  <HBD>
1

>  <logP>
-0.2814

>  <TPSA>
35.58

>  <MW>
197.277

$$$$

 OpenBabel02121609142D

 14 15  0  0  0  0  0  0  0  0999 V2000
    1.3167    0.0125    0.0000 C   0  0  0  0  0  0  0  0  0  0  0  0
    0.7292    0.8208    0.0000 N   0  0  0  0  0  0  0  0  0  0  0  0
    1.0042   -0.9375    0.0000 C   0  0  0  0  0  0  0  0  0  0  0  0
    2.2667    1.3208    0.0000 N   0  0  0  0  0  0  0  0  0  0  0  0
    1.3167    1.6333    0.0000 C   0  0  0  0  0  0  0  0  0  0  0  0
    2.2667    0.3208    0.0000 C   0  0  0  0  0  0  0  0  0  0  0  0
   -0.2708    0.8208    0.0000 C   0  0  0  0  0  0  0  0  0  0  0  0
    1.6750   -1.6792    0.0000 O   0  0  0  0  0  0  0  0  0  0  0  0
    0.0292   -1.1417    0.0000 O   0  0  0  0  0  0  0  0  0  0  0  0
   -0.7708    1.6875    0.0000 C   0  0  0  0  0  0  0  0  0  0  0  0
   -0.7708   -0.0417    0.0000 C   0  0  0  0  0  0  0  0  0  0  0  0
   -1.7708   -0.0417    0.0000 C   0  0  0  0  0  0  0  0  0  0  0  0
   -1.7708    1.6875    0.0000 C   0  0  0  0  0  0  0  0  0  0  0  0
   -2.2708    0.8208    0.0000 C   0  0  0  0  0  0  0  0  0  0  0  0
  2  1  1  0  0  0  0
  3  1  1  0  0  0  0
  4  6  1  0  0  0  0
  4  5  2  0  0  0  0
  5  2  1  0  0  0  0
  6  1  2  0  0  0  0
  7  2  1  0  0  0  0
  8  3  2  0  0  0  0
  9  3  1  0  0  0  0
 10  7  1  0  0  0  0
 11  7  2  0  0  0  0
 12 11  1  0  0  0  0
 13 10  2  0  0  0  0
 13 14  1  0  0  0  0
 14 12  2  0  0  0  0
M  END
>  <idnumber>
T5344963

>  <LogP>
1.988000000000000e+000

>  <rotating_bonds>
2.000000000000000e+000

>  <hb_acceptors>
3.000000000000000e+000

>  <hb_donors>
1.000000000000000e+000

>  <PSA>
5.512000000000001e+001

>  <clusterid>
-610

>  <is_centroid>
@

>  <class1>
686

>  <class2>
625

>  <population1>
31113

>  <population2>
877209

>  <population>
26567

>  <cansmi>
OC(=O)c1cncn1c1ccccc1

>  <HBA2>
4

>  <HBD>
1

>  <logP>
1.5705

>  <TPSA>
55.12

>  <MW>
188.183

$$$$

 OpenBabel02121609142D

 12 12  0  0  0  0  0  0  0  0999 V2000
    0.4292   -1.0000    0.0000 C   0  0  0  0  0  0  0  0  0  0  0  0
   -0.4333    0.5000    0.0000 N   0  0  0  0  0  0  0  0  0  0  0  0
   -0.4333   -0.5000    0.0000 C   0  0  0  0  0  0  0  0  0  0  0  0
    0.4292   -2.0000    0.0000 N   0  0  0  0  0  0  0  0  0  0  0  0
    1.2917   -0.5000    0.0000 O   0  0  0  0  0  0  0  0  0  0  0  0
   -0.4333    2.5000    0.0000 N   0  0  0  0  0  0  0  0  0  0  0  0
    0.4292    1.0000    0.0000 C   0  0  0  0  0  0  0  0  0  0  0  0
   -1.3000    1.0000    0.0000 C   0  0  0  0  0  0  0  0  0  0  0  0
   -1.3000    2.0000    0.0000 C   0  0  0  0  0  0  0  0  0  0  0  0
    0.4292    2.0000    0.0000 C   0  0  0  0  0  0  0  0  0  0  0  0
    1.2917   -2.5000    0.0000 C   0  0  0  0  0  0  0  0  0  0  0  0
   -0.4333   -2.5000    0.0000 C   0  0  0  0  0  0  0  0  0  0  0  0
  2  3  1  0  0  0  0
  3  1  1  0  0  0  0
  4  1  1  0  0  0  0
  5  1  2  0  0  0  0
  6  9  1  0  0  0  0
  7  2  1  0  0  0  0
  8  2  1  0  0  0  0
  9  8  1  0  0  0  0
 10  7  1  0  0  0  0
 10  6  1  0  0  0  0
 11  4  1  0  0  0  0
 12  4  1  0  0  0  0
M  END
>  <idnumber>
T5346674

>  <LogP>
-5.380000000000000e-001

>  <rotating_bonds>
2.000000000000000e+000

>  <hb_acceptors>
3.000000000000000e+000

>  <hb_donors>
1.000000000000000e+000

>  <PSA>
3.558000000000000e+001

>  <clusterid>
410

>  <is_centroid>
@

>  <class1>
717

>  <population1>
74368

>  <population>
74368

>  <cansmi>
CN(C(=O)CN1CCNCC1)C

>  <HBA2>
4

>  <HBD>
1

>  <logP>
-0.7535

>  <TPSA>
35.58

>  <MW>
171.24

$$$$

 OpenBabel02121609142D

 16 17  0  0  0  0  0  0  0  0999 V2000
    0.0417    1.8000    0.0000 N   0  0  0  0  0  0  0  0  0  0  0  0
    0.6292    0.9958    0.0000 C   0  0  3  0  0  0  0  0  0  0  0  0
    1.5792    1.3000    0.0000 S   0  0  0  0  0  0  0  0  0  0  0  0
    0.6292    2.6083    0.0000 C   0  0  0  0  0  0  0  0  0  0  0  0
    1.5792    2.3000    0.0000 C   0  0  0  0  0  0  0  0  0  0  0  0
    0.3167    0.0458    0.0000 C   0  0  0  0  0  0  0  0  0  0  0  0
    0.3167    3.5583    0.0000 O   0  0  0  0  0  0  0  0  0  0  0  0
   -0.2958   -1.8625    0.0000 C   0  0  0  0  0  0  0  0  0  0  0  0
    0.9917   -0.7042    0.0000 C   0  0  0  0  0  0  0  0  0  0  0  0
   -0.6583   -0.1667    0.0000 C   0  0  0  0  0  0  0  0  0  0  0  0
    0.6792   -1.6542    0.0000 C   0  0  0  0  0  0  0  0  0  0  0  0
   -0.9708   -1.1167    0.0000 C   0  0  0  0  0  0  0  0  0  0  0  0
   -0.9583    1.8000    0.0000 C   0  0  0  0  0  0  0  0  0  0  0  0
   -0.6083   -2.8125    0.0000 C   0  0  0  0  0  0  0  0  0  0  0  0
    0.0625   -3.5542    0.0000 C   0  0  0  0  0  0  0  0  0  0  0  0
   -1.5833   -3.0167    0.0000 C   0  0  0  0  0  0  0  0  0  0  0  0
  2  1  1  0  0  0  0
  3  2  1  0  0  0  0
  3  5  1  0  0  0  0
  4  1  1  0  0  0  0
  5  4  1  0  0  0  0
  6  2  1  0  0  0  0
  7  4  2  0  0  0  0
  8 12  2  0  0  0  0
  8 11  1  0  0  0  0
  9  6  1  0  0  0  0
 10  6  2  0  0  0  0
 11  9  2  0  0  0  0
 12 10  1  0  0  0  0
 13  1  1  0  0  0  0
 14  8  1  0  0  0  0
 15 14  1  0  0  0  0
 16 14  1  0  0  0  0
M  END
>  <idnumber>
T5347699

>  <LogP>
2.978000000000000e+000

>  <rotating_bonds>
2.000000000000000e+000

>  <hb_acceptors>
2.000000000000000e+000

>  <hb_donors>
0.000000000000000e+000

>  <PSA>
4.561000000000000e+001

>  <clusterid>
-614

>  <is_centroid>
@

>  <class1>
701

>  <class2>
625

>  <population1>
10103

>  <population2>
877209

>  <population>
9002

>  <cansmi>
CC(c1ccc(cc1)C1SCC(=O)N1C)C

>  <HBA2>
3

>  <HBD>
0

>  <logP>
2.9517

>  <TPSA>
45.61

>  <MW>
235.345

$$$$

 OpenBabel02121609142D

 21 23  0  0  0  0  0  0  0  0999 V2000
   -0.8708    0.0000    0.0000 N   0  0  0  0  0  0  0  0  0  0  0  0
    0.8625    0.0000    0.0000 C   0  0  0  0  0  0  0  0  0  0  0  0
    1.7292   -0.5000    0.0000 N   0  0  0  0  0  0  0  0  0  0  0  0
    2.5917    0.0000    0.0000 C   0  0  0  0  0  0  0  0  0  0  0  0
   -2.6000    0.0000    0.0000 C   0  0  0  0  0  0  0  0  0  0  0  0
   -1.7333   -0.5000    0.0000 C   0  0  0  0  0  0  0  0  0  0  0  0
    0.0000   -0.5000    0.0000 C   0  0  0  0  0  0  0  0  0  0  0  0
   -2.6000    1.0000    0.0000 C   0  0  0  0  0  0  0  0  0  0  0  0
    0.8625    1.0000    0.0000 O   0  0  0  0  0  0  0  0  0  0  0  0
    3.4625   -0.5000    0.0000 C   0  0  0  0  0  0  0  0  0  0  0  0
   -0.8708    1.0000    0.0000 C   0  0  0  0  0  0  0  0  0  0  0  0
   -1.7333    1.5000    0.0000 C   0  0  0  0  0  0  0  0  0  0  0  0
    3.4625   -1.5000    0.0000 F   0  0  0  0  0  0  0  0  0  0  0  0
   -3.4708   -0.5000    0.0000 C   0  0  0  0  0  0  0  0  0  0  0  0
    2.5917    1.0000    0.0000 C   0  0  0  0  0  0  0  0  0  0  0  0
   -3.4708    1.5000    0.0000 C   0  0  0  0  0  0  0  0  0  0  0  0
    4.3292    0.0000    0.0000 C   0  0  0  0  0  0  0  0  0  0  0  0
   -4.3333    0.0000    0.0000 C   0  0  0  0  0  0  0  0  0  0  0  0
    3.4625    1.5000    0.0000 C   0  0  0  0  0  0  0  0  0  0  0  0
   -4.3333    1.0000    0.0000 C   0  0  0  0  0  0  0  0  0  0  0  0
    4.3292    1.0000    0.0000 C   0  0  0  0  0  0  0  0  0  0  0  0
  2  7  1  0  0  0  0
  3  2  1  0  0  0  0
  4  3  1  0  0  0  0
  5  6  1  0  0  0  0
  5  8  2  0  0  0  0
  6  1  1  0  0  0  0
  7  1  1  0  0  0  0
  8 12  1  0  0  0  0
  9  2  2  0  0  0  0
 10  4  2  0  0  0  0
 11  1  1  0  0  0  0
 12 11  1  0  0  0  0
 13 10  1  0  0  0  0
 14  5  1  0  0  0  0
 15  4  1  0  0  0  0
 16  8  1  0  0  0  0
 17 10  1  0  0  0  0
 17 21  2  0  0  0  0
 18 14  2  0  0  0  0
 19 15  2  0  0  0  0
 20 16  2  0  0  0  0
 20 18  1  0  0  0  0
 21 19  1  0  0  0  0
M  END
>  <idnumber>
T5349653

>  <LogP>
2.967000000000000e+000

>  <rotating_bonds>
3.000000000000000e+000

>  <hb_acceptors>
3.000000000000000e+000

>  <hb_donors>
1.000000000000000e+000

>  <PSA>
3.234000000000000e+001

>  <clusterid>
413

>  <is_centroid>
@

>  <class1>
625

>  <class2>
750

>  <population1>
877209

>  <population2>
7929

>  <population>
7929

>  <cansmi>
O=C(Nc1ccccc1F)CN1CCc2c(C1)cccc2

>  <HBA2>
3

>  <HBD>
1

>  <logP>
2.8334

>  <TPSA>
32.34

>  <MW>
284.328

$$$$

 OpenBabel02121609142D

 20 22  0  0  0  0  0  0  0  0999 V2000
    0.4292   -0.2417    0.0000 C   0  0  0  0  0  0  0  0  0  0  0  0
    0.4292   -1.2500    0.0000 C   0  0  0  0  0  0  0  0  0  0  0  0
    0.4292   -3.2500    0.0000 N   0  0  0  0  0  0  0  0  0  0  0  0
   -0.4333   -1.7500    0.0000 C   0  0  0  0  0  0  0  0  0  0  0  0
   -0.4333   -2.7500    0.0000 C   0  0  0  0  0  0  0  0  0  0  0  0
    1.2917    0.2583    0.0000 N   0  0  0  0  0  0  0  0  0  0  0  0
    1.2917   -1.7500    0.0000 C   0  0  0  0  0  0  0  0  0  0  0  0
    1.2917   -2.7500    0.0000 C   0  0  0  0  0  0  0  0  0  0  0  0
   -0.4333    0.2583    0.0000 O   0  0  0  0  0  0  0  0  0  0  0  0
    0.4292    2.7500    0.0000 N   0  0  0  0  0  0  0  0  0  0  0  0
    1.2917    1.2500    0.0000 C   0  0  0  0  0  0  0  0  0  0  0  0
    0.4292    1.7500    0.0000 C   0  0  0  0  0  0  0  0  0  0  0  0
   -1.3000   -1.2500    0.0000 C   0  0  0  0  0  0  0  0  0  0  0  0
   -1.3000   -3.2500    0.0000 C   0  0  0  0  0  0  0  0  0  0  0  0
    1.2917    3.2500    0.0000 C   0  0  0  0  0  0  0  0  0  0  0  0
    2.1625   -3.2500    0.0000 C   0  0  0  0  0  0  0  0  0  0  0  0
    2.1625    1.7500    0.0000 C   0  0  0  0  0  0  0  0  0  0  0  0
    2.1625    2.7500    0.0000 C   0  0  0  0  0  0  0  0  0  0  0  0
   -2.1708   -1.7500    0.0000 C   0  0  0  0  0  0  0  0  0  0  0  0
   -2.1708   -2.7500    0.0000 C   0  0  0  0  0  0  0  0  0  0  0  0
  2  1  1  0  0  0  0
  3  8  2  0  0  0  0
  4  2  1  0  0  0  0
  5  4  2  0  0  0  0
  5  3  1  0  0  0  0
  6  1  1  0  0  0  0
  7  2  2  0  0  0  0
  8  7  1  0  0  0  0
  9  1  2  0  0  0  0
 10 12  1  0  0  0  0
 10 15  2  0  0  0  0
 11  6  1  0  0  0  0
 12 11  2  0  0  0  0
 13  4  1  0  0  0  0
 14  5  1  0  0  0  0
 14 20  2  0  0  0  0
 15 18  1  0  0  0  0
 16  8  1  0  0  0  0
 17 11  1  0  0  0  0
 18 17  2  0  0  0  0
 19 13  2  0  0  0  0
 20 19  1  0  0  0  0
M  END
>  <idnumber>
T5350370

>  <LogP>
2.690000000000000e+000

>  <rotating_bonds>
2.000000000000000e+000

>  <hb_acceptors>
3.000000000000000e+000

>  <hb_donors>
1.000000000000000e+000

>  <PSA>
5.488000000000000e+001

>  <clusterid>
-616

>  <is_centroid>
@

>  <class1>
632

>  <class2>
682

>  <population1>
79489

>  <population2>
20351

>  <population>
20351

>  <cansmi>
Cc1nc2ccccc2c(c1)C(=O)Nc1cccnc1

>  <HBA2>
4

>  <HBD>
1

>  <logP>
3.2635

>  <TPSA>
54.88

>  <MW>
263.294

$$$$

 OpenBabel02121609142D

 18 20  0  0  0  0  0  0  0  0999 V2000
    0.5542   -0.0417    0.0000 C   0  0  0  0  0  0  0  0  0  0  0  0
   -0.4458   -0.0417    0.0000 C   0  0  0  0  0  0  0  0  0  0  0  0
    1.1417    0.7708    0.0000 C   0  0  0  0  0  0  0  0  0  0  0  0
    2.0917    0.4583    0.0000 N   0  0  0  0  0  0  0  0  0  0  0  0
   -1.0333    0.7708    0.0000 N   0  0  0  0  0  0  0  0  0  0  0  0
    1.1417   -0.8500    0.0000 C   0  0  0  0  0  0  0  0  0  0  0  0
    2.0917   -0.5417    0.0000 C   0  0  0  0  0  0  0  0  0  0  0  0
   -1.0333   -0.8500    0.0000 N   0  0  0  0  0  0  0  0  0  0  0  0
   -1.9833    0.4583    0.0000 C   0  0  0  0  0  0  0  0  0  0  0  0
    2.9042   -1.1292    0.0000 C   0  0  0  0  0  0  0  0  0  0  0  0
   -1.9833   -0.5417    0.0000 C   0  0  0  0  0  0  0  0  0  0  0  0
    3.7125   -1.7167    0.0000 N   0  0  0  0  0  0  0  0  0  0  0  0
    2.9042    1.0458    0.0000 C   0  0  0  0  0  0  0  0  0  0  0  0
    0.8292    1.7208    0.0000 C   0  0  0  0  0  0  0  0  0  0  0  0
   -2.8500    0.9583    0.0000 C   0  0  0  0  0  0  0  0  0  0  0  0
   -2.8500   -1.0417    0.0000 C   0  0  0  0  0  0  0  0  0  0  0  0
   -3.7208   -0.5417    0.0000 C   0  0  0  0  0  0  0  0  0  0  0  0
   -3.7208    0.4583    0.0000 C   0  0  0  0  0  0  0  0  0  0  0  0
  2  1  1  0  0  0  0
  3  1  2  0  0  0  0
  4  3  1  0  0  0  0
  5  2  2  0  0  0  0
  6  1  1  0  0  0  0
  7  6  2  0  0  0  0
  7  4  1  0  0  0  0
  8  2  1  0  0  0  0
  9  5  1  0  0  0  0
  9 11  2  0  0  0  0
 10  7  1  0  0  0  0
 11  8  1  0  0  0  0
 12 10  3  0  0  0  0
 13  4  1  0  0  0  0
 14  3  1  0  0  0  0
 15  9  1  0  0  0  0
 16 11  1  0  0  0  0
 17 16  2  0  0  0  0
 18 15  2  0  0  0  0
 18 17  1  0  0  0  0
M  END
>  <idnumber>
T5350596

>  <LogP>
2.532000000000000e+000

>  <rotating_bonds>
2.000000000000000e+000

>  <hb_acceptors>
2.000000000000000e+000

>  <hb_donors>
1.000000000000000e+000

>  <PSA>
5.740000000000001e+001

>  <clusterid>
-617

>  <is_centroid>
@

>  <class1>
635

>  <class2>
685

>  <population1>
31512

>  <population2>
28767

>  <population>
543

>  <cansmi>
N#Cc1cc(c(n1C)C)c1nc2c([nH]1)cccc2

>  <HBA2>
3

>  <HBD>
1

>  <logP>
2.74848

>  <TPSA>
57.4

>  <MW>
236.272

$$$$

 OpenBabel02121609142D

 17 18  0  0  0  0  0  0  0  0999 V2000
    0.4292    1.7500    0.0000 N   0  0  0  0  0  0  0  0  0  0  0  0
    0.4292    0.7500    0.0000 C   0  0  0  0  0  0  0  0  0  0  0  0
   -0.4333    3.2583    0.0000 C   0  0  0  0  0  0  0  0  0  0  0  0
   -0.4333    2.2583    0.0000 C   0  0  0  0  0  0  0  0  0  0  0  0
    0.4292    3.7583    0.0000 N   0  0  0  0  0  0  0  0  0  0  0  0
   -0.4333    0.2500    0.0000 C   0  0  0  0  0  0  0  0  0  0  0  0
    1.2917    0.2500    0.0000 O   0  0  0  0  0  0  0  0  0  0  0  0
   -1.3000    3.7583    0.0000 O   0  0  0  0  0  0  0  0  0  0  0  0
   -0.4333   -0.7500    0.0000 C   0  0  0  0  0  0  0  0  0  0  0  0
   -0.4333   -2.7500    0.0000 C   0  0  0  0  0  0  0  0  0  0  0  0
    1.2917    2.2583    0.0000 C   0  0  0  0  0  0  0  0  0  0  0  0
    1.2917    3.2583    0.0000 C   0  0  0  0  0  0  0  0  0  0  0  0
   -0.4333   -3.7500    0.0000 Cl  0  0  0  0  0  0  0  0  0  0  0  0
    0.4292   -1.2500    0.0000 C   0  0  0  0  0  0  0  0  0  0  0  0
   -1.3000   -1.2500    0.0000 C   0  0  0  0  0  0  0  0  0  0  0  0
    0.4292   -2.2500    0.0000 C   0  0  0  0  0  0  0  0  0  0  0  0
   -1.3000   -2.2500    0.0000 C   0  0  0  0  0  0  0  0  0  0  0  0
  2  1  1  0  0  0  0
  3  4  1  0  0  0  0
  3  5  1  0  0  0  0
  4  1  1  0  0  0  0
  5 12  1  0  0  0  0
  6  2  1  0  0  0  0
  7  2  2  0  0  0  0
  8  3  2  0  0  0  0
  9  6  1  0  0  0  0
 10 17  2  0  0  0  0
 10 16  1  0  0  0  0
 11  1  1  0  0  0  0
 12 11  1  0  0  0  0
 13 10  1  0  0  0  0
 14  9  1  0  0  0  0
 15  9  2  0  0  0  0
 16 14  2  0  0  0  0
 17 15  1  0  0  0  0
M  END
>  <idnumber>
T5352291

>  <LogP>
2.539000000000000e+000

>  <rotating_bonds>
2.000000000000000e+000

>  <hb_acceptors>
3.000000000000000e+000

>  <hb_donors>
1.000000000000000e+000

>  <PSA>
4.941000000000003e+001

>  <clusterid>
-619

>  <is_centroid>
@

>  <class1>
625

>  <class2>
688

>  <population1>
877209

>  <population2>
1117

>  <population>
898

>  <cansmi>
O=C1NCCN(C1)C(=O)Cc1ccc(cc1)Cl

>  <HBA2>
4

>  <HBD>
1

>  <logP>
1.1076

>  <TPSA>
49.41

>  <MW>
252.697

$$$$

 OpenBabel02121609142D

 18 20  0  0  0  0  0  0  0  0999 V2000
    0.2292    1.3708    0.0000 N   0  0  0  0  0  0  0  0  0  0  0  0
    0.8167    2.1833    0.0000 C   0  0  0  0  0  0  0  0  0  0  0  0
    0.2292    2.9875    0.0000 N   0  0  0  0  0  0  0  0  0  0  0  0
   -0.7208    1.6833    0.0000 C   0  0  0  0  0  0  0  0  0  0  0  0
   -0.7208    2.6833    0.0000 C   0  0  0  0  0  0  0  0  0  0  0  0
    0.5417    0.4208    0.0000 C   0  0  0  0  0  0  0  0  0  0  0  0
    1.1542   -1.4792    0.0000 C   0  0  0  0  0  0  0  0  0  0  0  0
    1.4667   -2.4292    0.0000 C   0  0  0  0  0  0  0  0  0  0  0  0
   -0.1333   -0.3250    0.0000 C   0  0  0  0  0  0  0  0  0  0  0  0
    1.5167    0.2125    0.0000 C   0  0  0  0  0  0  0  0  0  0  0  0
    2.4417   -2.6417    0.0000 O   0  0  0  0  0  0  0  0  0  0  0  0
    0.1792   -1.2750    0.0000 C   0  0  0  0  0  0  0  0  0  0  0  0
    1.8292   -0.7375    0.0000 C   0  0  0  0  0  0  0  0  0  0  0  0
   -1.5833    1.1833    0.0000 C   0  0  0  0  0  0  0  0  0  0  0  0
    0.8000   -3.1750    0.0000 C   0  0  0  0  0  0  0  0  0  0  0  0
   -1.5833    3.1833    0.0000 C   0  0  0  0  0  0  0  0  0  0  0  0
   -2.4500    1.6833    0.0000 C   0  0  0  0  0  0  0  0  0  0  0  0
   -2.4500    2.6833    0.0000 C   0  0  0  0  0  0  0  0  0  0  0  0
  2  1  1  0  0  0  0
  3  2  2  0  0  0  0
  3  5  1  0  0  0  0
  4  1  1  0  0  0  0
  5  4  2  0  0  0  0
  6  1  1  0  0  0  0
  7 13  1  0  0  0  0
  8  7  1  0  0  0  0
  9  6  2  0  0  0  0
 10  6  1  0  0  0  0
 11  8  2  0  0  0  0
 12  9  1  0  0  0  0
 12  7  2  0  0  0  0
 13 10  2  0  0  0  0
 14  4  1  0  0  0  0
 15  8  1  0  0  0  0
 16  5  1  0  0  0  0
 16 18  2  0  0  0  0
 17 14  2  0  0  0  0
 18 17  1  0  0  0  0
M  END
>  <idnumber>
T5353561

>  <LogP>
2.984000000000000e+000

>  <rotating_bonds>
2.000000000000000e+000

>  <hb_acceptors>
2.000000000000000e+000

>  <hb_donors>
0.000000000000000e+000

>  <PSA>
3.489000000000000e+001

>  <clusterid>
-620

>  <is_centroid>
@

>  <class1>
685

>  <class2>
625

>  <population1>
28767

>  <population2>
877209

>  <population>
28767

>  <cansmi>
CC(=O)c1ccc(cc1)n1cnc2c1cccc2

>  <HBA2>
3

>  <HBD>
0

>  <logP>
3.2281

>  <TPSA>
34.89

>  <MW>
236.269

$$$$

 OpenBabel02121609142D

 20 22  0  0  0  0  0  0  0  0999 V2000
   -1.3708    2.0000    0.0000 N   0  0  0  0  0  0  0  0  0  0  0  0
   -1.6750    1.0500    0.0000 C   0  0  0  0  0  0  0  0  0  0  0  0
   -1.0083    0.3083    0.0000 N   0  0  0  0  0  0  0  0  0  0  0  0
    0.3292   -1.1792    0.0000 N   0  0  0  0  0  0  0  0  0  0  0  0
   -1.3708    3.6208    0.0000 N   0  0  0  0  0  0  0  0  0  0  0  0
   -1.9583    2.8125    0.0000 C   0  0  0  0  0  0  0  0  0  0  0  0
    1.0000   -1.9167    0.0000 C   0  0  0  0  0  0  0  0  0  0  0  0
   -0.4208    2.3125    0.0000 C   0  0  0  0  0  0  0  0  0  0  0  0
   -2.6583    0.8458    0.0000 O   0  0  0  0  0  0  0  0  0  0  0  0
   -0.4208    3.3125    0.0000 C   0  0  0  0  0  0  0  0  0  0  0  0
   -1.3208   -0.6417    0.0000 C   0  0  0  0  0  0  0  0  0  0  0  0
   -0.0333    0.5208    0.0000 C   0  0  0  0  0  0  0  0  0  0  0  0
   -0.6458   -1.3875    0.0000 C   0  0  0  0  0  0  0  0  0  0  0  0
    0.6417   -0.2292    0.0000 C   0  0  0  0  0  0  0  0  0  0  0  0
    0.6917   -2.8667    0.0000 C   0  0  0  0  0  0  0  0  0  0  0  0
    1.9792   -1.7125    0.0000 C   0  0  0  0  0  0  0  0  0  0  0  0
   -0.2875   -3.0792    0.0000 C   0  0  0  0  0  0  0  0  0  0  0  0
    1.3625   -3.6167    0.0000 C   0  0  0  0  0  0  0  0  0  0  0  0
    2.6500   -2.4542    0.0000 C   0  0  0  0  0  0  0  0  0  0  0  0
    2.3417   -3.4042    0.0000 C   0  0  0  0  0  0  0  0  0  0  0  0
  2  1  1  0  0  0  0
  3  2  1  0  0  0  0
  4 14  1  0  0  0  0
  5  6  2  0  0  0  0
  6  1  1  0  0  0  0
  7  4  1  0  0  0  0
  8  1  1  0  0  0  0
  9  2  2  0  0  0  0
 10  8  2  0  0  0  0
 10  5  1  0  0  0  0
 11  3  1  0  0  0  0
 12  3  1  0  0  0  0
 13 11  1  0  0  0  0
 13  4  1  0  0  0  0
 14 12  1  0  0  0  0
 15  7  2  0  0  0  0
 16  7  1  0  0  0  0
 17 15  1  0  0  0  0
 18 15  1  0  0  0  0
 18 20  2  0  0  0  0
 19 16  2  0  0  0  0
 20 19  1  0  0  0  0
M  END
>  <idnumber>
T5354798

>  <LogP>
1.481000000000000e+000

>  <rotating_bonds>
1.000000000000000e+000

>  <hb_acceptors>
3.000000000000000e+000

>  <hb_donors>
0.000000000000000e+000

>  <PSA>
4.137000000000000e+001

>  <clusterid>
409

>  <is_centroid>
@

>  <class1>
717

>  <class2>
625

>  <class3>
686

>  <population1>
74368

>  <population2>
877209

>  <population3>
31113

>  <population>
1968

>  <cansmi>
O=C(n1ccnc1)N1CCN(CC1)c1ccccc1C

>  <HBA2>
5

>  <HBD>
0

>  <logP>
1.9847

>  <TPSA>
41.37

>  <MW>
270.33

$$$$

 OpenBabel02121609142D

 21 23  0  0  0  0  0  0  0  0999 V2000
   -0.4500   -0.6250    0.0000 C   0  0  0  0  0  0  0  0  0  0  0  0
    0.1375    0.1833    0.0000 N   0  0  0  0  0  0  0  0  0  0  0  0
    1.0917   -0.1250    0.0000 C   0  0  0  0  0  0  0  0  0  0  0  0
   -1.4500   -0.6250    0.0000 C   0  0  0  0  0  0  0  0  0  0  0  0
    0.1375   -1.4292    0.0000 C   0  0  0  0  0  0  0  0  0  0  0  0
    1.0917   -1.1250    0.0000 O   0  0  0  0  0  0  0  0  0  0  0  0
   -1.9500    0.2458    0.0000 N   0  0  0  0  0  0  0  0  0  0  0  0
   -1.9500   -1.4917    0.0000 O   0  0  0  0  0  0  0  0  0  0  0  0
    1.9000    0.4625    0.0000 C   0  0  0  0  0  0  0  0  0  0  0  0
   -0.1708   -2.3792    0.0000 C   0  0  0  0  0  0  0  0  0  0  0  0
   -2.9458    0.1708    0.0000 C   0  0  0  0  0  0  0  0  0  0  0  0
   -1.3875    1.0708    0.0000 C   0  0  0  0  0  0  0  0  0  0  0  0
    2.8125    0.0583    0.0000 C   0  0  0  0  0  0  0  0  0  0  0  0
    1.7917    1.4583    0.0000 C   0  0  0  0  0  0  0  0  0  0  0  0
   -1.6833    2.0250    0.0000 C   0  0  0  0  0  0  0  0  0  0  0  0
   -3.6250    0.9000    0.0000 C   0  0  0  0  0  0  0  0  0  0  0  0
    2.6042    2.0458    0.0000 C   0  0  0  0  0  0  0  0  0  0  0  0
    3.6167    0.6458    0.0000 C   0  0  0  0  0  0  0  0  0  0  0  0
    3.5167    1.6375    0.0000 C   0  0  0  0  0  0  0  0  0  0  0  0
   -3.4750    1.8958    0.0000 C   0  0  0  0  0  0  0  0  0  0  0  0
   -2.6125    2.3958    0.0000 C   0  0  0  0  0  0  0  0  0  0  0  0
  2  1  1  0  0  0  0
  3  2  2  0  0  0  0
  4  1  1  0  0  0  0
  5  1  2  0  0  0  0
  6  5  1  0  0  0  0
  6  3  1  0  0  0  0
  7  4  1  0  0  0  0
  8  4  2  0  0  0  0
  9  3  1  0  0  0  0
 10  5  1  0  0  0  0
 11  7  1  0  0  0  0
 12  7  1  0  0  0  0
 13  9  1  0  0  0  0
 14  9  2  0  0  0  0
 15 12  1  0  0  0  0
 16 11  1  0  0  0  0
 17 14  1  0  0  0  0
 18 13  2  0  0  0  0
 18 19  1  0  0  0  0
 19 17  2  0  0  0  0
 20 16  1  0  0  0  0
 21 15  1  0  0  0  0
 21 20  1  0  0  0  0
M  END
>  <idnumber>
T5355397

>  <LogP>
2.801000000000000e+000

>  <rotating_bonds>
2.000000000000000e+000

>  <hb_acceptors>
2.000000000000000e+000

>  <hb_donors>
0.000000000000000e+000

>  <PSA>
4.634000000000000e+001

>  <clusterid>
417

>  <is_centroid>
@

>  <class1>
702

>  <class2>
789

>  <class3>
625

>  <population1>
14026

>  <population2>
4296

>  <population3>
877209

>  <population>
25

>  <cansmi>
O=C(c1nc(oc1C)c1ccccc1)N1CCCCCC1

>  <HBA2>
4

>  <HBD>
0

>  <logP>
3.6041

>  <TPSA>
46.34

>  <MW>
284.353

$$$$

 OpenBabel02121609142D

 16 17  0  0  0  0  0  0  0  0999 V2000
   -0.8833    1.6333    0.0000 N   0  0  0  0  0  0  0  0  0  0  0  0
   -1.4708    2.4375    0.0000 C   0  0  0  0  0  0  0  0  0  0  0  0
    1.4875   -2.2917    0.0000 C   0  0  0  0  0  0  0  0  0  0  0  0
   -1.1958    0.6833    0.0000 C   0  0  0  0  0  0  0  0  0  0  0  0
    0.8167   -1.5500    0.0000 C   0  0  0  0  0  0  0  0  0  0  0  0
   -2.4708    2.4375    0.0000 O   0  0  0  0  0  0  0  0  0  0  0  0
    2.4667   -2.0792    0.0000 O   0  0  0  0  0  0  0  0  0  0  0  0
    1.1250   -0.6000    0.0000 C   0  0  0  0  0  0  0  0  0  0  0  0
   -0.1625   -1.7542    0.0000 C   0  0  0  0  0  0  0  0  0  0  0  0
   -0.5208   -0.0625    0.0000 C   0  0  0  0  0  0  0  0  0  0  0  0
    1.1792   -3.2417    0.0000 O   0  0  0  0  0  0  0  0  0  0  0  0
    0.0667    1.9375    0.0000 C   0  0  0  0  0  0  0  0  0  0  0  0
   -0.8333   -1.0167    0.0000 C   0  0  0  0  0  0  0  0  0  0  0  0
    0.4542    0.1458    0.0000 C   0  0  0  0  0  0  0  0  0  0  0  0
   -0.8833    3.2500    0.0000 C   0  0  0  0  0  0  0  0  0  0  0  0
    0.0667    2.9375    0.0000 C   0  0  0  0  0  0  0  0  0  0  0  0
  2  1  1  0  0  0  0
  3  5  1  0  0  0  0
  4  1  1  0  0  0  0
  5  8  1  0  0  0  0
  6  2  2  0  0  0  0
  7  3  2  0  0  0  0
  8 14  2  0  0  0  0
  9 13  1  0  0  0  0
  9  5  2  0  0  0  0
 10  4  1  0  0  0  0
 11  3  1  0  0  0  0
 12  1  1  0  0  0  0
 13 10  2  0  0  0  0
 14 10  1  0  0  0  0
 15  2  1  0  0  0  0
 16 12  1  0  0  0  0
 16 15  1  0  0  0  0
M  END
>  <idnumber>
T5357123

>  <LogP>
7.839999999999999e-001

>  <rotating_bonds>
3.000000000000000e+000

>  <hb_acceptors>
3.000000000000000e+000

>  <hb_donors>
1.000000000000000e+000

>  <PSA>
5.761000000000000e+001

>  <clusterid>
-627

>  <is_centroid>
@

>  <class1>
625

>  <class2>
673

>  <population1>
877209

>  <population2>
18691

>  <population>
17790

>  <cansmi>
O=C1CCCN1Cc1ccc(cc1)C(=O)O

>  <HBA2>
4

>  <HBD>
1

>  <logP>
1.4451

>  <TPSA>
57.61

>  <MW>
219.237

$$$$

 OpenBabel02121609142D

 21 23  0  0  0  0  0  0  0  0999 V2000
   -0.4333    1.0083    0.0000 C   0  0  0  0  0  0  0  0  0  0  0  0
    0.4292    1.5083    0.0000 C   0  0  0  0  0  0  0  0  0  0  0  0
    0.4292    2.5000    0.0000 C   0  0  0  0  0  0  0  0  0  0  0  0
   -0.4333    3.0000    0.0000 O   0  0  0  0  0  0  0  0  0  0  0  0
   -1.3000    2.5000    0.0000 C   0  0  0  0  0  0  0  0  0  0  0  0
   -1.3000    1.5083    0.0000 C   0  0  0  0  0  0  0  0  0  0  0  0
    1.2917    1.0083    0.0000 C   0  0  0  0  0  0  0  0  0  0  0  0
   -1.3000   -0.5000    0.0000 N   0  0  0  0  0  0  0  0  0  0  0  0
   -0.4333    0.0000    0.0000 C   0  0  0  0  0  0  0  0  0  0  0  0
    1.2917    3.0000    0.0000 C   0  0  0  0  0  0  0  0  0  0  0  0
   -2.1708   -2.0000    0.0000 C   0  0  0  0  0  0  0  0  0  0  0  0
    2.1625    1.5083    0.0000 C   0  0  0  0  0  0  0  0  0  0  0  0
    2.1625    2.5000    0.0000 C   0  0  0  0  0  0  0  0  0  0  0  0
   -3.0333   -1.4917    0.0000 N   0  0  0  0  0  0  0  0  0  0  0  0
   -1.3000   -1.4917    0.0000 C   0  0  0  0  0  0  0  0  0  0  0  0
   -2.1708    3.0000    0.0000 O   0  0  0  0  0  0  0  0  0  0  0  0
   -2.1708   -3.0000    0.0000 O   0  0  0  0  0  0  0  0  0  0  0  0
   -3.0333   -0.5000    0.0000 C   0  0  0  0  0  0  0  0  0  0  0  0
   -2.1708    0.0000    0.0000 C   0  0  0  0  0  0  0  0  0  0  0  0
    3.0292    1.0083    0.0000 C   0  0  0  0  0  0  0  0  0  0  0  0
    3.0292    3.0000    0.0000 C   0  0  0  0  0  0  0  0  0  0  0  0
  2  1  1  0  0  0  0
  3  2  1  0  0  0  0
  3  4  1  0  0  0  0
  4  5  1  0  0  0  0
  5  6  1  0  0  0  0
  6  1  2  0  0  0  0
  7  2  2  0  0  0  0
  8  9  1  0  0  0  0
  9  1  1  0  0  0  0
 10  3  2  0  0  0  0
 11 15  1  0  0  0  0
 11 14  1  0  0  0  0
 12  7  1  0  0  0  0
 13 12  2  0  0  0  0
 13 10  1  0  0  0  0
 14 18  1  0  0  0  0
 15  8  1  0  0  0  0
 16  5  2  0  0  0  0
 17 11  2  0  0  0  0
 18 19  1  0  0  0  0
 19  8  1  0  0  0  0
 20 12  1  0  0  0  0
 21 13  1  0  0  0  0
M  END
>  <idnumber>
T5358071

>  <LogP>
1.753000000000000e+000

>  <rotating_bonds>
2.000000000000000e+000

>  <hb_acceptors>
3.000000000000000e+000

>  <hb_donors>
1.000000000000000e+000

>  <PSA>
5.863999999999997e+001

>  <clusterid>
352

>  <is_centroid>
@

>  <class1>
688

>  <class2>
799

>  <population1>
1117

>  <population2>
7929

>  <population>
10

>  <cansmi>
O=C1NCCN(C1)Cc1cc(=O)oc2c1cc(C)c(c2)C

>  <HBA2>
5

>  <HBD>
1

>  <logP>
1.6083

>  <TPSA>
62.55

>  <MW>
286.326

$$$$

 OpenBabel02121609142D

 16 17  0  0  0  0  0  0  0  0999 V2000
    0.4292    0.7500    0.0000 C   0  0  0  0  0  0  0  0  0  0  0  0
   -0.4333    0.2500    0.0000 N   0  0  0  0  0  0  0  0  0  0  0  0
   -0.4333   -0.7500    0.0000 C   0  0  0  0  0  0  0  0  0  0  0  0
   -1.3000   -1.2417    0.0000 N   0  0  0  0  0  0  0  0  0  0  0  0
    1.2917    0.2500    0.0000 O   0  0  0  0  0  0  0  0  0  0  0  0
    0.4292    1.7500    0.0000 C   0  0  0  0  0  0  0  0  0  0  0  0
    0.4292    3.7500    0.0000 N   0  0  0  0  0  0  0  0  0  0  0  0
   -1.3000   -2.2417    0.0000 C   0  0  0  0  0  0  0  0  0  0  0  0
   -0.4333   -2.7500    0.0000 C   0  0  0  0  0  0  0  0  0  0  0  0
    0.4292   -1.2417    0.0000 C   0  0  0  0  0  0  0  0  0  0  0  0
   -0.4333   -3.7500    0.0000 Br  0  0  0  0  0  0  0  0  0  0  0  0
    0.4292   -2.2417    0.0000 C   0  0  0  0  0  0  0  0  0  0  0  0
    1.2917    3.2500    0.0000 C   0  0  0  0  0  0  0  0  0  0  0  0
   -0.4333    3.2500    0.0000 C   0  0  0  0  0  0  0  0  0  0  0  0
    1.2917    2.2500    0.0000 C   0  0  0  0  0  0  0  0  0  0  0  0
   -0.4333    2.2500    0.0000 C   0  0  0  0  0  0  0  0  0  0  0  0
  2  1  1  0  0  0  0
  3  2  1  0  0  0  0
  4  3  2  0  0  0  0
  5  1  2  0  0  0  0
  6  1  1  0  0  0  0
  7 14  2  0  0  0  0
  8  4  1  0  0  0  0
  8  9  2  0  0  0  0
  9 12  1  0  0  0  0
 10  3  1  0  0  0  0
 11  9  1  0  0  0  0
 12 10  2  0  0  0  0
 13 15  2  0  0  0  0
 13  7  1  0  0  0  0
 14 16  1  0  0  0  0
 15  6  1  0  0  0  0
 16  6  2  0  0  0  0
M  END
>  <idnumber>
T5359359

>  <LogP>
1.727000000000000e+000

>  <rotating_bonds>
2.000000000000000e+000

>  <hb_acceptors>
3.000000000000000e+000

>  <hb_donors>
1.000000000000000e+000

>  <PSA>
5.488000000000000e+001

>  <clusterid>
-630

>  <is_centroid>
@

>  <class1>
632

>  <class2>
632

>  <population1>
79489

>  <population2>
79489

>  <population>
79489

>  <cansmi>
Brc1ccc(nc1)NC(=O)c1ccncc1

>  <HBA2>
4

>  <HBD>
1

>  <logP>
2.5644

>  <TPSA>
54.88

>  <MW>
278.105

$$$$

 OpenBabel02121609142D

 12 12  0  0  0  0  0  0  0  0999 V2000
    0.0000   -0.2500    0.0000 N   0  0  0  0  0  0  0  0  0  0  0  0
    0.0000    1.7583    0.0000 O   0  0  0  0  0  0  0  0  0  0  0  0
   -0.8708    0.2583    0.0000 C   0  0  0  0  0  0  0  0  0  0  0  0
   -0.8708    1.2500    0.0000 C   0  0  3  0  0  0  0  0  0  0  0  0
    0.0000   -1.2417    0.0000 C   0  0  0  0  0  0  0  0  0  0  0  0
    0.8625    1.2500    0.0000 C   0  0  0  0  0  0  0  0  0  0  0  0
    0.8625    0.2583    0.0000 C   0  0  0  0  0  0  0  0  0  0  0  0
   -1.7333    2.7500    0.0000 N   0  0  0  0  0  0  0  0  0  0  0  0
   -1.7333    1.7583    0.0000 C   0  0  0  0  0  0  0  0  0  0  0  0
    0.8625   -1.7500    0.0000 C   0  0  0  0  0  0  0  0  0  0  0  0
    0.8625   -2.7500    0.0000 C   0  0  0  0  0  0  0  0  0  0  0  0
    1.7292   -1.2500    0.0000 C   0  0  0  0  0  0  0  0  0  0  0  0
  2  6  1  0  0  0  0
  3  1  1  0  0  0  0
  4  3  1  0  0  0  0
  4  2  1  0  0  0  0
  5  1  1  0  0  0  0
  6  7  1  0  0  0  0
  7  1  1  0  0  0  0
  8  9  1  0  0  0  0
  9  4  1  0  0  0  0
 10  5  1  0  0  0  0
 11 10  1  0  0  0  0
 12 10  1  0  0  0  0
M  END
>  <idnumber>
T5359458

>  <LogP>
1.013000000000000e+000

>  <rotating_bonds>
3.000000000000000e+000

>  <hb_acceptors>
3.000000000000000e+000

>  <hb_donors>
1.000000000000000e+000

>  <PSA>
3.849000000000000e+001

>  <clusterid>
422

>  <is_centroid>
@

>  <class1>
786

>  <population1>
48067

>  <population>
48067

>  <cansmi>
NCC1OCCN(C1)CC(C)C

>  <HBA2>
3

>  <HBD>
1

>  <logP>
0.9401

>  <TPSA>
38.49

>  <MW>
172.268

$$$$

 OpenBabel02121609142D

 15 16  0  0  0  0  0  0  0  0999 V2000
   -0.8708    0.0000    0.0000 C   0  0  0  0  0  0  0  0  0  0  0  0
    0.0000   -0.5000    0.0000 C   0  0  0  0  0  0  0  0  0  0  0  0
   -0.8708    1.0000    0.0000 N   0  0  0  0  0  0  0  0  0  0  0  0
    0.0000   -1.5000    0.0000 C   0  0  0  0  0  0  0  0  0  0  0  0
    0.8625    0.0000    0.0000 N   0  0  0  0  0  0  0  0  0  0  0  0
   -1.7333   -0.5000    0.0000 O   0  0  0  0  0  0  0  0  0  0  0  0
    0.8625   -2.0000    0.0000 C   0  0  0  0  0  0  0  0  0  0  0  0
    1.7292   -0.5000    0.0000 C   0  0  0  0  0  0  0  0  0  0  0  0
    1.7292   -1.5000    0.0000 C   0  0  0  0  0  0  0  0  0  0  0  0
    0.8625   -3.0000    0.0000 Cl  0  0  0  0  0  0  0  0  0  0  0  0
    0.0000    1.5000    0.0000 C   0  0  0  0  0  0  0  0  0  0  0  0
   -1.7333    1.5000    0.0000 C   0  0  0  0  0  0  0  0  0  0  0  0
   -1.7333    2.5000    0.0000 C   0  0  0  0  0  0  0  0  0  0  0  0
    0.0000    2.5000    0.0000 C   0  0  0  0  0  0  0  0  0  0  0  0
   -0.8708    3.0000    0.0000 C   0  0  0  0  0  0  0  0  0  0  0  0
  2  1  1  0  0  0  0
  3  1  1  0  0  0  0
  4  2  1  0  0  0  0
  5  2  2  0  0  0  0
  6  1  2  0  0  0  0
  7  4  2  0  0  0  0
  7  9  1  0  0  0  0
  8  5  1  0  0  0  0
  9  8  2  0  0  0  0
 10  7  1  0  0  0  0
 11  3  1  0  0  0  0
 12  3  1  0  0  0  0
 13 12  1  0  0  0  0
 14 11  1  0  0  0  0
 14 15  1  0  0  0  0
 15 13  1  0  0  0  0
M  END
>  <idnumber>
T5359503

>  <LogP>
1.449000000000000e+000

>  <rotating_bonds>
1.000000000000000e+000

>  <hb_acceptors>
3.000000000000000e+000

>  <hb_donors>
0.000000000000000e+000

>  <PSA>
3.320000000000000e+001

>  <clusterid>
-632

>  <is_centroid>
@

>  <class1>
639

>  <class2>
632

>  <population1>
59855

>  <population2>
79489

>  <population>
3637

>  <cansmi>
O=C(c1nccc(c1)Cl)N1CCCCC1

>  <HBA2>
3

>  <HBD>
0

>  <logP>
2.299

>  <TPSA>
33.2

>  <MW>
224.687

$$$$

 OpenBabel02121609142D

 20 22  0  0  0  0  0  0  0  0999 V2000
   -0.5375   -0.4542    0.0000 C   0  0  0  0  0  0  0  0  0  0  0  0
    1.0000    0.0458    0.0000 N   0  0  0  0  0  0  0  0  0  0  0  0
    1.0000   -0.9542    0.0000 N   0  0  0  0  0  0  0  0  0  0  0  0
    0.0500    0.3583    0.0000 C   0  0  0  0  0  0  0  0  0  0  0  0
    0.0500   -1.2625    0.0000 C   0  0  0  0  0  0  0  0  0  0  0  0
   -1.5375   -0.4542    0.0000 C   0  0  3  0  0  0  0  0  0  0  0  0
   -2.0375   -1.3167    0.0000 C   0  0  0  0  0  0  0  0  0  0  0  0
   -2.0375    0.4125    0.0000 N   0  0  0  0  0  0  0  0  0  0  0  0
   -3.0375   -1.3167    0.0000 N   0  0  0  0  0  0  0  0  0  0  0  0
    1.8125    0.6333    0.0000 C   0  0  0  0  0  0  0  0  0  0  0  0
   -1.5375   -2.1792    0.0000 O   0  0  0  0  0  0  0  0  0  0  0  0
   -0.2583    1.3083    0.0000 C   0  0  0  0  0  0  0  0  0  0  0  0
   -0.2583   -2.2125    0.0000 C   0  0  0  0  0  0  0  0  0  0  0  0
   -3.5375   -0.4542    0.0000 C   0  0  0  0  0  0  0  0  0  0  0  0
   -3.0375    0.4125    0.0000 C   0  0  0  0  0  0  0  0  0  0  0  0
    2.7250    0.2333    0.0000 C   0  0  0  0  0  0  0  0  0  0  0  0
    1.7042    1.6333    0.0000 C   0  0  0  0  0  0  0  0  0  0  0  0
    2.5167    2.2208    0.0000 C   0  0  0  0  0  0  0  0  0  0  0  0
    3.5292    0.8208    0.0000 C   0  0  0  0  0  0  0  0  0  0  0  0
    3.4292    1.8083    0.0000 C   0  0  0  0  0  0  0  0  0  0  0  0
  2  4  1  0  0  0  0
  3  5  2  0  0  0  0
  3  2  1  0  0  0  0
  4  1  2  0  0  0  0
  5  1  1  0  0  0  0
  6  1  1  0  0  0  0
  7  6  1  0  0  0  0
  8  6  1  0  0  0  0
  9  7  1  0  0  0  0
  9 14  1  0  0  0  0
 10  2  1  0  0  0  0
 11  7  2  0  0  0  0
 12  4  1  0  0  0  0
 13  5  1  0  0  0  0
 14 15  1  0  0  0  0
 15  8  1  0  0  0  0
 16 10  1  0  0  0  0
 17 10  2  0  0  0  0
 18 17  1  0  0  0  0
 19 16  2  0  0  0  0
 19 20  1  0  0  0  0
 20 18  2  0  0  0  0
M  END
>  <idnumber>
T5359518

>  <LogP>
1.252000000000000e+000

>  <rotating_bonds>
2.000000000000000e+000

>  <hb_acceptors>
3.000000000000000e+000

>  <hb_donors>
2.000000000000000e+000

>  <PSA>
5.895000000000000e+001

>  <clusterid>
-633

>  <is_centroid>
@

>  <class1>
688

>  <class2>
631

>  <class3>
625

>  <population1>
1117

>  <population2>
41612

>  <population3>
877209

>  <population>
52

>  <cansmi>
O=C1NCCNC1c1c(C)nn(c1C)c1ccccc1

>  <HBA2>
5

>  <HBD>
2

>  <logP>
1.9072

>  <TPSA>
58.95

>  <MW>
270.33

$$$$

 OpenBabel02121609142D

 19 22  0  0  0  0  0  0  0  0999 V2000
   -0.0833   -1.5667    0.0000 C   0  0  3  0  0  0  0  0  0  0  0  0
   -0.7208   -0.8167    0.0000 C   0  0  0  0  0  0  0  0  0  0  0  0
   -0.4333   -2.4417    0.0000 C   0  0  0  0  0  0  0  0  0  0  0  0
    0.1792   -2.6125    0.0000 C   0  0  0  0  0  0  0  0  0  0  0  0
    0.9000   -1.2917    0.0000 C   0  0  0  0  0  0  0  0  0  0  0  0
   -0.3250    0.0583    0.0000 N   0  0  0  0  0  0  0  0  0  0  0  0
    1.2625   -1.8375    0.0000 C   0  0  3  0  0  0  0  0  0  0  0  0
    0.3042   -3.1625    0.0000 C   0  0  3  0  0  0  0  0  0  0  0  0
    1.6292   -2.2042    0.0000 C   0  0  3  0  0  0  0  0  0  0  0  0
   -1.6333   -1.1042    0.0000 O   0  0  0  0  0  0  0  0  0  0  0  0
   -1.2458    2.4000    0.0000 O   0  0  0  0  0  0  0  0  0  0  0  0
    0.5125   -1.8667    0.0000 C   0  0  0  0  0  0  0  0  0  0  0  0
    0.8917   -2.7417    0.0000 C   0  0  0  0  0  0  0  0  0  0  0  0
    1.3250   -3.0500    0.0000 C   0  0  0  0  0  0  0  0  0  0  0  0
   -0.9958    0.7375    0.0000 C   0  0  0  0  0  0  0  0  0  0  0  0
   -0.6833    1.6333    0.0000 C   0  0  3  0  0  0  0  0  0  0  0  0
   -0.6833    3.1708    0.0000 C   0  0  0  0  0  0  0  0  0  0  0  0
    0.2250    1.9208    0.0000 C   0  0  0  0  0  0  0  0  0  0  0  0
    0.2250    2.8750    0.0000 C   0  0  0  0  0  0  0  0  0  0  0  0
  2  1  1  0  0  0  0
  3  1  1  0  0  0  0
  4  1  1  0  0  0  0
  5  1  1  0  0  0  0
  6  2  1  0  0  0  0
  7  4  1  0  0  0  0
  8  3  1  0  0  0  0
  8 14  1  0  0  0  0
  8 12  1  0  0  0  0
  9  5  1  0  0  0  0
 10  2  2  0  0  0  0
 11 16  1  0  0  0  0
 12  7  1  0  0  0  0
 13  9  1  0  0  0  0
 13  7  1  0  0  0  0
 14  9  1  0  0  0  0
 15  6  1  0  0  0  0
 16 15  1  0  0  0  0
 17 11  1  0  0  0  0
 18 16  1  0  0  0  0
 19 18  1  0  0  0  0
 19 17  1  0  0  0  0
M  END
>  <idnumber>
T5363363

>  <LogP>
2.429000000000000e+000

>  <rotating_bonds>
3.000000000000000e+000

>  <hb_acceptors>
2.000000000000000e+000

>  <hb_donors>
1.000000000000000e+000

>  <PSA>
3.833000000000000e+001

>  <clusterid>
-636

>  <is_centroid>
@

>  <class1>
809

>  <class2>
723

>  <population1>
8162

>  <population2>
9592

>  <population>
40

>  <cansmi>
O=C(C12CC3CC(C2)CC(C1)C3)NCC1CCCO1

>  <HBA2>
3

>  <HBD>
1

>  <logP>
2.8889

>  <TPSA>
38.33

>  <MW>
263.375

$$$$

 OpenBabel02121609142D

 11 12  0  0  0  0  0  0  0  0999 V2000
    0.9792    0.8125    0.0000 N   0  0  0  0  0  0  0  0  0  0  0  0
    1.5667    0.0000    0.0000 C   0  0  0  0  0  0  0  0  0  0  0  0
    0.0292    0.5000    0.0000 C   0  0  0  0  0  0  0  0  0  0  0  0
    0.9792   -0.8042    0.0000 O   0  0  0  0  0  0  0  0  0  0  0  0
    0.0292   -0.5000    0.0000 C   0  0  0  0  0  0  0  0  0  0  0  0
   -0.8375    1.0000    0.0000 C   0  0  0  0  0  0  0  0  0  0  0  0
    2.5667    0.0000    0.0000 N   0  0  0  0  0  0  0  0  0  0  0  0
   -0.8375   -1.0000    0.0000 C   0  0  0  0  0  0  0  0  0  0  0  0
   -1.7083    0.5000    0.0000 C   0  0  0  0  0  0  0  0  0  0  0  0
   -1.7083   -0.5000    0.0000 C   0  0  0  0  0  0  0  0  0  0  0  0
   -2.5708    1.0000    0.0000 Cl  0  0  0  0  0  0  0  0  0  0  0  0
  2  1  2  0  0  0  0
  3  1  1  0  0  0  0
  4  2  1  0  0  0  0
  5  3  2  0  0  0  0
  5  4  1  0  0  0  0
  6  3  1  0  0  0  0
  7  2  1  0  0  0  0
  8  5  1  0  0  0  0
  8 10  2  0  0  0  0
  9  6  2  0  0  0  0
 10  9  1  0  0  0  0
 11  9  1  0  0  0  0
M  END
>  <idnumber>
T5363457

>  <LogP>
1.893000000000000e+000

>  <rotating_bonds>
0.000000000000000e+000

>  <hb_acceptors>
3.000000000000000e+000

>  <hb_donors>
1.000000000000000e+000

>  <PSA>
5.205000000000000e+001

>  <clusterid>
-637

>  <is_centroid>
@

>  <class1>
752

>  <population1>
4005

>  <population>
4005

>  <cansmi>
Clc1ccc2c(c1)nc(o2)N

>  <HBA2>
3

>  <HBD>
1

>  <logP>
2.6446

>  <TPSA>
52.05

>  <MW>
168.58

$$$$

 OpenBabel02121609142D

 17 19  0  0  0  0  0  0  0  0999 V2000
   -1.2083    0.4458    0.0000 N   0  0  0  0  0  0  0  0  0  0  0  0
   -0.6208   -0.3625    0.0000 C   0  0  0  0  0  0  0  0  0  0  0  0
   -1.2083   -1.1750    0.0000 S   0  0  0  0  0  0  0  0  0  0  0  0
   -2.1583    0.1375    0.0000 C   0  0  0  0  0  0  0  0  0  0  0  0
   -2.1583   -0.8625    0.0000 C   0  0  0  0  0  0  0  0  0  0  0  0
    0.3792   -0.3625    0.0000 C   0  0  0  0  0  0  0  0  0  0  0  0
    0.8792    0.5083    0.0000 C   0  0  0  0  0  0  0  0  0  0  0  0
    2.3792    1.3708    0.0000 N   0  0  0  0  0  0  0  0  0  0  0  0
    1.8792    0.5083    0.0000 C   0  0  0  0  0  0  0  0  0  0  0  0
   -3.0208    0.6375    0.0000 C   0  0  0  0  0  0  0  0  0  0  0  0
   -3.0208   -1.3625    0.0000 C   0  0  0  0  0  0  0  0  0  0  0  0
    3.3792    1.3708    0.0000 C   0  0  0  0  0  0  0  0  0  0  0  0
    2.3792   -0.3625    0.0000 C   0  0  0  0  0  0  0  0  0  0  0  0
    3.8792    0.5083    0.0000 C   0  0  0  0  0  0  0  0  0  0  0  0
   -3.8958   -0.8625    0.0000 C   0  0  0  0  0  0  0  0  0  0  0  0
   -3.8958    0.1375    0.0000 C   0  0  0  0  0  0  0  0  0  0  0  0
    3.3792   -0.3625    0.0000 C   0  0  0  0  0  0  0  0  0  0  0  0
  2  1  2  0  0  0  0
  3  2  1  0  0  0  0
  4  1  1  0  0  0  0
  5  4  2  0  0  0  0
  5  3  1  0  0  0  0
  6  2  1  0  0  0  0
  7  6  2  0  0  0  0
  8  9  2  0  0  0  0
  9  7  1  0  0  0  0
 10  4  1  0  0  0  0
 11  5  1  0  0  0  0
 11 15  2  0  0  0  0
 12  8  1  0  0  0  0
 12 14  2  0  0  0  0
 13  9  1  0  0  0  0
 14 17  1  0  0  0  0
 15 16  1  0  0  0  0
 16 10  2  0  0  0  0
 17 13  2  0  0  0  0
M  END
>  <idnumber>
T5363619

>  <LogP>
2.875000000000000e+000

>  <rotating_bonds>
2.000000000000000e+000

>  <hb_acceptors>
3.000000000000000e+000

>  <hb_donors>
0.000000000000000e+000

>  <PSA>
5.402000000000000e+001

>  <clusterid>
424

>  <is_centroid>
@

>  <class1>
640

>  <class2>
632

>  <population1>
23901

>  <population2>
79489

>  <population>
1011

>  <cansmi>
c1ccc(nc1)/C=C/c1nc2c(s1)cccc2

>  <HBA2>
3

>  <HBD>
0

>  <logP>
3.8617

>  <TPSA>
54.02

>  <MW>
238.308

$$$$

 OpenBabel02121609142D

 10 10  0  0  0  0  0  0  0  0999 V2000
    0.5042    0.2708    0.0000 C   0  0  0  0  0  0  0  0  0  0  0  0
    1.2792   -0.3667    0.0000 N   0  0  0  0  0  0  0  0  0  0  0  0
    0.8750    1.2000    0.0000 S   0  0  0  0  0  0  0  0  0  0  0  0
   -0.4583    0.0208    0.0000 N   0  0  0  0  0  0  0  0  0  0  0  0
    2.1250    0.1708    0.0000 C   0  0  0  0  0  0  0  0  0  0  0  0
    1.8750    1.1375    0.0000 C   0  0  0  0  0  0  0  0  0  0  0  0
   -0.7250   -0.9417    0.0000 C   0  0  0  0  0  0  0  0  0  0  0  0
   -1.1583    0.7333    0.0000 C   0  0  0  0  0  0  0  0  0  0  0  0
   -1.6958   -1.1917    0.0000 C   0  0  0  0  0  0  0  0  0  0  0  0
   -2.1333    0.4833    0.0000 C   0  0  0  0  0  0  0  0  0  0  0  0
  2  1  2  0  0  0  0
  3  1  1  0  0  0  0
  4  1  1  0  0  0  0
  5  2  1  0  0  0  0
  5  6  2  0  0  0  0
  6  3  1  0  0  0  0
  7  4  1  0  0  0  0
  8  4  1  0  0  0  0
  9  7  1  0  0  0  0
 10  8  1  0  0  0  0
M  END
>  <idnumber>
T5369511

>  <LogP>
2.301000000000000e+000

>  <rotating_bonds>
3.000000000000000e+000

>  <hb_acceptors>
3.000000000000000e+000

>  <hb_donors>
0.000000000000000e+000

>  <PSA>
4.437000000000001e+001

>  <clusterid>
-648

>  <is_centroid>
@

>  <class1>
733

>  <population1>
49846

>  <population>
49846

>  <cansmi>
CCN(c1nccs1)CC

>  <HBA2>
3

>  <HBD>
0

>  <logP>
1.9893

>  <TPSA>
44.37

>  <MW>
156.249

$$$$

 OpenBabel02121609142D

 19 21  0  0  0  0  0  0  0  0999 V2000
    0.0000   -1.0750    0.0000 C   0  0  0  0  0  0  0  0  0  0  0  0
    0.0000   -0.0750    0.0000 C   0  0  0  0  0  0  0  0  0  0  0  0
   -0.8125   -1.6625    0.0000 O   0  0  0  0  0  0  0  0  0  0  0  0
    0.8625    0.4250    0.0000 N   0  0  0  0  0  0  0  0  0  0  0  0
    0.8625    1.4250    0.0000 C   0  0  3  0  0  0  0  0  0  0  0  0
    0.0000    1.9250    0.0000 C   0  0  0  0  0  0  0  0  0  0  0  0
    0.8042   -1.6625    0.0000 C   0  0  0  0  0  0  0  0  0  0  0  0
   -0.5083   -2.6125    0.0000 C   0  0  0  0  0  0  0  0  0  0  0  0
    0.4917   -2.6125    0.0000 C   0  0  0  0  0  0  0  0  0  0  0  0
    0.0000    2.9250    0.0000 C   0  0  0  0  0  0  0  0  0  0  0  0
   -0.8708    0.4250    0.0000 O   0  0  0  0  0  0  0  0  0  0  0  0
    0.8625    3.4250    0.0000 O   0  0  0  0  0  0  0  0  0  0  0  0
    1.7292    1.9250    0.0000 C   0  0  0  0  0  0  0  0  0  0  0  0
    1.7292    2.9250    0.0000 C   0  0  0  0  0  0  0  0  0  0  0  0
   -0.8708    1.4250    0.0000 C   0  0  0  0  0  0  0  0  0  0  0  0
   -1.0958   -3.4167    0.0000 C   0  0  0  0  0  0  0  0  0  0  0  0
   -0.8708    3.4250    0.0000 C   0  0  0  0  0  0  0  0  0  0  0  0
   -1.7333    1.9250    0.0000 C   0  0  0  0  0  0  0  0  0  0  0  0
   -1.7333    2.9250    0.0000 C   0  0  0  0  0  0  0  0  0  0  0  0
  2  1  1  0  0  0  0
  3  1  1  0  0  0  0
  4  2  1  0  0  0  0
  5  4  1  0  0  0  0
  6  5  1  0  0  0  0
  7  1  2  0  0  0  0
  8  3  1  0  0  0  0
  8  9  2  0  0  0  0
  9  7  1  0  0  0  0
 10  6  2  0  0  0  0
 10 12  1  0  0  0  0
 11  2  2  0  0  0  0
 12 14  1  0  0  0  0
 13  5  1  0  0  0  0
 14 13  1  0  0  0  0
 15  6  1  0  0  0  0
 16  8  1  0  0  0  0
 17 10  1  0  0  0  0
 17 19  2  0  0  0  0
 18 15  2  0  0  0  0
 19 18  1  0  0  0  0
M  END
>  <idnumber>
T5371149

>  <LogP>
2.368000000000000e+000

>  <rotating_bonds>
2.000000000000000e+000

>  <hb_acceptors>
2.000000000000000e+000

>  <hb_donors>
1.000000000000000e+000

>  <PSA>
5.146999999999999e+001

>  <clusterid>
-650

>  <is_centroid>
@

>  <class1>
766

>  <class2>
704

>  <population1>
1661

>  <population2>
51112

>  <population>
49

>  <cansmi>
Cc1ccc(o1)C(=O)NC1CCOc2c1cccc2

>  <HBA2>
4

>  <HBD>
1

>  <logP>
3.2325

>  <TPSA>
51.47

>  <MW>
257.285

$$$$

 OpenBabel02121609142D

 15 16  0  0  0  0  0  0  0  0999 V2000
   -0.8708    0.2500    0.0000 C   0  0  0  0  0  0  0  0  0  0  0  0
   -0.0083   -0.2417    0.0000 O   0  0  0  0  0  0  0  0  0  0  0  0
    0.8625    0.2500    0.0000 C   0  0  0  0  0  0  0  0  0  0  0  0
   -0.8708    1.2500    0.0000 N   0  0  0  0  0  0  0  0  0  0  0  0
   -1.7333   -0.2417    0.0000 N   0  0  0  0  0  0  0  0  0  0  0  0
    1.7292   -0.2417    0.0000 C   0  0  0  0  0  0  0  0  0  0  0  0
   -2.6000    1.2500    0.0000 C   0  0  0  0  0  0  0  0  0  0  0  0
   -2.6000    0.2500    0.0000 C   0  0  0  0  0  0  0  0  0  0  0  0
   -1.7333    1.7500    0.0000 C   0  0  0  0  0  0  0  0  0  0  0  0
    0.8625    1.2500    0.0000 C   0  0  0  0  0  0  0  0  0  0  0  0
    1.7292   -1.2417    0.0000 C   0  0  0  0  0  0  0  0  0  0  0  0
    2.5917    0.2500    0.0000 C   0  0  0  0  0  0  0  0  0  0  0  0
    2.5917   -1.7500    0.0000 C   0  0  0  0  0  0  0  0  0  0  0  0
    1.7292    1.7500    0.0000 C   0  0  0  0  0  0  0  0  0  0  0  0
    2.5917    1.2500    0.0000 C   0  0  0  0  0  0  0  0  0  0  0  0
  2  1  1  0  0  0  0
  3  2  1  0  0  0  0
  4  1  1  0  0  0  0
  5  1  2  0  0  0  0
  6  3  2  0  0  0  0
  7  8  2  0  0  0  0
  8  5  1  0  0  0  0
  9  4  2  0  0  0  0
  9  7  1  0  0  0  0
 10  3  1  0  0  0  0
 11  6  1  0  0  0  0
 12  6  1  0  0  0  0
 12 15  2  0  0  0  0
 13 11  1  0  0  0  0
 14 10  2  0  0  0  0
 15 14  1  0  0  0  0
M  END
>  <idnumber>
T5371231

>  <LogP>
2.814000000000000e+000

>  <rotating_bonds>
3.000000000000000e+000

>  <hb_acceptors>
2.000000000000000e+000

>  <hb_donors>
0.000000000000000e+000

>  <PSA>
3.501000000000000e+001

>  <clusterid>
-651

>  <is_centroid>
@

>  <class1>
625

>  <class2>
737

>  <population1>
877209

>  <population2>
30296

>  <population>
23887

>  <cansmi>
CCc1ccccc1Oc1ncccn1

>  <HBA2>
3

>  <HBD>
0

>  <logP>
2.8313

>  <TPSA>
35.01

>  <MW>
200.236

$$$$

 OpenBabel02121609142D

 19 21  0  0  0  0  0  0  0  0999 V2000
   -0.0083    0.0083    0.0000 C   0  0  0  0  0  0  0  0  0  0  0  0
   -0.8708    0.5000    0.0000 N   0  0  0  0  0  0  0  0  0  0  0  0
   -0.0083   -1.0000    0.0000 C   0  0  0  0  0  0  0  0  0  0  0  0
   -0.8708   -1.5000    0.0000 O   0  0  0  0  0  0  0  0  0  0  0  0
    0.8625    0.5000    0.0000 C   0  0  0  0  0  0  0  0  0  0  0  0
   -1.7333    0.0083    0.0000 C   0  0  0  0  0  0  0  0  0  0  0  0
   -1.7333   -1.0000    0.0000 C   0  0  0  0  0  0  0  0  0  0  0  0
    0.8625   -1.5000    0.0000 O   0  0  0  0  0  0  0  0  0  0  0  0
    0.8625    1.5000    0.0000 O   0  0  0  0  0  0  0  0  0  0  0  0
    1.7292    0.0083    0.0000 C   0  0  0  0  0  0  0  0  0  0  0  0
   -2.6000    0.5000    0.0000 C   0  0  0  0  0  0  0  0  0  0  0  0
   -2.6000   -1.5000    0.0000 C   0  0  0  0  0  0  0  0  0  0  0  0
    2.5917    0.5000    0.0000 C   0  0  0  0  0  0  0  0  0  0  0  0
    1.7292   -1.0000    0.0000 C   0  0  0  0  0  0  0  0  0  0  0  0
   -3.4708   -1.0000    0.0000 C   0  0  0  0  0  0  0  0  0  0  0  0
   -3.4708    0.0083    0.0000 C   0  0  0  0  0  0  0  0  0  0  0  0
    2.5917   -1.5000    0.0000 C   0  0  0  0  0  0  0  0  0  0  0  0
    3.4625    0.0083    0.0000 C   0  0  0  0  0  0  0  0  0  0  0  0
    3.4625   -1.0000    0.0000 C   0  0  0  0  0  0  0  0  0  0  0  0
  2  1  2  0  0  0  0
  3  1  1  0  0  0  0
  4  3  1  0  0  0  0
  5  1  1  0  0  0  0
  6  2  1  0  0  0  0
  6  7  2  0  0  0  0
  7  4  1  0  0  0  0
  8  3  2  0  0  0  0
  9  5  2  0  0  0  0
 10  5  1  0  0  0  0
 11  6  1  0  0  0  0
 12  7  1  0  0  0  0
 13 10  2  0  0  0  0
 14 10  1  0  0  0  0
 15 12  2  0  0  0  0
 16 11  2  0  0  0  0
 16 15  1  0  0  0  0
 17 14  2  0  0  0  0
 18 13  1  0  0  0  0
 18 19  2  0  0  0  0
 19 17  1  0  0  0  0
M  END
>  <idnumber>
T5371517

>  <LogP>
1.970000000000000e+000

>  <rotating_bonds>
2.000000000000000e+000

>  <hb_acceptors>
3.000000000000000e+000

>  <hb_donors>
0.000000000000000e+000

>  <PSA>
5.573000000000000e+001

>  <clusterid>
-656

>  <is_centroid>
@

>  <class1>
625

>  <class2>
971

>  <population1>
877209

>  <population2>
29

>  <population>
29

>  <cansmi>
O=c1oc2ccccc2nc1C(=O)c1ccccc1

>  <HBA2>
4

>  <HBD>
0

>  <logP>
2.419

>  <TPSA>
60.17

>  <MW>
251.237

$$$$

 OpenBabel02121609142D

 11 11  0  0  0  0  0  0  0  0999 V2000
    0.3167    0.0083    0.0000 N   0  0  0  0  0  0  0  0  0  0  0  0
    0.6792   -0.9250    0.0000 N   0  0  0  0  0  0  0  0  0  0  0  0
    1.0875    0.6458    0.0000 C   0  0  0  0  0  0  0  0  0  0  0  0
    1.9292    0.1083    0.0000 C   0  0  0  0  0  0  0  0  0  0  0  0
    1.6792   -0.8625    0.0000 C   0  0  0  0  0  0  0  0  0  0  0  0
   -0.6500    0.2583    0.0000 C   0  0  0  0  0  0  0  0  0  0  0  0
    1.0250    1.6375    0.0000 O   0  0  0  0  0  0  0  0  0  0  0  0
   -1.3583   -0.4542    0.0000 C   0  0  0  0  0  0  0  0  0  0  0  0
    2.3167   -1.6292    0.0000 C   0  0  0  0  0  0  0  0  0  0  0  0
   -1.0875   -1.4167    0.0000 C   0  0  0  0  0  0  0  0  0  0  0  0
   -2.3208   -0.2042    0.0000 C   0  0  0  0  0  0  0  0  0  0  0  0
  2  1  1  0  0  0  0
  3  1  1  0  0  0  0
  4  3  1  0  0  0  0
  5  2  2  0  0  0  0
  5  4  1  0  0  0  0
  6  1  1  0  0  0  0
  7  3  2  0  0  0  0
  8  6  1  0  0  0  0
  9  5  1  0  0  0  0
 10  8  1  0  0  0  0
 11  8  1  0  0  0  0
M  END
>  <idnumber>
T5372986

>  <LogP>
8.780000000000001e-001

>  <rotating_bonds>
2.000000000000000e+000

>  <hb_acceptors>
2.000000000000000e+000

>  <hb_donors>
0.000000000000000e+000

>  <PSA>
3.267000000000000e+001

>  <clusterid>
433

>  <is_centroid>
@

>  <class1>
861

>  <population1>
529

>  <population>
529

>  <cansmi>
CC(CN1N=C(CC1=O)C)C

>  <HBA2>
3

>  <HBD>
0

>  <logP>
0.6241

>  <TPSA>
32.67

>  <MW>
154.21

$$$$

 OpenBabel02121609142D

 11 11  0  0  0  0  0  0  0  0999 V2000
   -0.4750    0.1500    0.0000 N   0  0  0  0  0  0  0  0  0  0  0  0
    1.8792   -2.3917    0.0000 N   0  0  0  0  0  0  0  0  0  0  0  0
   -0.2583   -0.8250    0.0000 C   0  0  0  0  0  0  0  0  0  0  0  0
    0.7042   -1.1167    0.0000 C   0  0  0  0  0  0  0  0  0  0  0  0
    0.3042    0.7708    0.0000 C   0  0  0  0  0  0  0  0  0  0  0  0
   -1.4500    0.3708    0.0000 C   0  0  0  0  0  0  0  0  0  0  0  0
    0.9250   -2.0917    0.0000 C   0  0  0  0  0  0  0  0  0  0  0  0
   -1.8833    1.2708    0.0000 C   0  0  0  0  0  0  0  0  0  0  0  0
    0.3042    1.7708    0.0000 C   0  0  0  0  0  0  0  0  0  0  0  0
   -0.4750    2.3958    0.0000 C   0  0  0  0  0  0  0  0  0  0  0  0
   -1.4500    2.1708    0.0000 C   0  0  0  0  0  0  0  0  0  0  0  0
  2  7  1  0  0  0  0
  3  1  1  0  0  0  0
  4  3  1  0  0  0  0
  5  1  1  0  0  0  0
  6  1  1  0  0  0  0
  7  4  1  0  0  0  0
  8  6  1  0  0  0  0
  9  5  1  0  0  0  0
 10  9  1  0  0  0  0
 10 11  1  0  0  0  0
 11  8  1  0  0  0  0
M  END
>  <idnumber>
T5373049

>  <LogP>
1.672000000000000e+000

>  <rotating_bonds>
3.000000000000000e+000

>  <hb_acceptors>
2.000000000000000e+000

>  <hb_donors>
1.000000000000000e+000

>  <PSA>
2.926000000000000e+001

>  <clusterid>
-658

>  <is_centroid>
@

>  <class1>
702

>  <population1>
14026

>  <population>
14026

>  <cansmi>
NCCCN1CCCCCC1

>  <HBA2>
2

>  <HBD>
1

>  <logP>
1.8494

>  <TPSA>
29.26

>  <MW>
156.269

$$$$

 OpenBabel02121609142D

 14 15  0  0  0  0  0  0  0  0999 V2000
   -0.6375   -0.0542    0.0000 C   0  0  0  0  0  0  0  0  0  0  0  0
    1.0917   -0.0542    0.0000 C   0  0  0  0  0  0  0  0  0  0  0  0
    0.2292   -0.5542    0.0000 C   0  0  0  0  0  0  0  0  0  0  0  0
   -0.6375    0.9458    0.0000 C   0  0  0  0  0  0  0  0  0  0  0  0
    1.9542   -0.5542    0.0000 C   0  0  0  0  0  0  0  0  0  0  0  0
   -1.4208   -0.6792    0.0000 O   0  0  0  0  0  0  0  0  0  0  0  0
   -1.4208    1.5625    0.0000 O   0  0  0  0  0  0  0  0  0  0  0  0
    1.0917    0.9458    0.0000 C   0  0  0  0  0  0  0  0  0  0  0  0
    0.2292    1.4458    0.0000 C   0  0  0  0  0  0  0  0  0  0  0  0
    2.8250   -0.0542    0.0000 O   0  0  0  0  0  0  0  0  0  0  0  0
   -2.8333    0.4458    0.0000 C   0  0  0  0  0  0  0  0  0  0  0  0
   -2.3958   -0.4625    0.0000 C   0  0  0  0  0  0  0  0  0  0  0  0
   -2.3958    1.3458    0.0000 C   0  0  0  0  0  0  0  0  0  0  0  0
    1.9542   -1.5542    0.0000 C   0  0  0  0  0  0  0  0  0  0  0  0
  2  3  2  0  0  0  0
  2  8  1  0  0  0  0
  3  1  1  0  0  0  0
  4  1  2  0  0  0  0
  5  2  1  0  0  0  0
  6  1  1  0  0  0  0
  7  4  1  0  0  0  0
  8  9  2  0  0  0  0
  9  4  1  0  0  0  0
 10  5  2  0  0  0  0
 11 12  1  0  0  0  0
 12  6  1  0  0  0  0
 13  7  1  0  0  0  0
 13 11  1  0  0  0  0
 14  5  1  0  0  0  0
M  END
>  <idnumber>
T5373067

>  <LogP>
1.904000000000000e+000

>  <rotating_bonds>
1.000000000000000e+000

>  <hb_acceptors>
3.000000000000000e+000

>  <hb_donors>
0.000000000000000e+000

>  <PSA>
3.553000000000000e+001

>  <clusterid>
-660

>  <is_centroid>
@

>  <class1>
820

>  <population1>
6542

>  <population>
6542

>  <cansmi>
CC(=O)c1ccc2c(c1)OCCCO2

>  <HBA2>
3

>  <HBD>
0

>  <logP>
2.0505

>  <TPSA>
35.53

>  <MW>
192.211

$$$$

 OpenBabel02121609142D

 14 15  0  0  0  0  0  0  0  0999 V2000
    0.4292   -1.2500    0.0000 N   0  0  0  0  0  0  0  0  0  0  0  0
    0.4292   -3.2500    0.0000 N   0  0  0  0  0  0  0  0  0  0  0  0
   -1.3000    1.7583    0.0000 N   0  0  0  0  0  0  0  0  0  0  0  0
   -0.4333    0.2583    0.0000 C   0  0  0  0  0  0  0  0  0  0  0  0
    0.4292   -0.2500    0.0000 C   0  0  0  0  0  0  0  0  0  0  0  0
   -0.4333    1.2583    0.0000 C   0  0  0  0  0  0  0  0  0  0  0  0
   -0.4333   -1.7500    0.0000 C   0  0  0  0  0  0  0  0  0  0  0  0
    1.2917   -1.7500    0.0000 C   0  0  0  0  0  0  0  0  0  0  0  0
    1.2917   -2.7500    0.0000 C   0  0  0  0  0  0  0  0  0  0  0  0
   -0.4333   -2.7500    0.0000 C   0  0  0  0  0  0  0  0  0  0  0  0
   -1.3000    2.7583    0.0000 C   0  0  0  0  0  0  0  0  0  0  0  0
    0.4292    1.7583    0.0000 C   0  0  0  0  0  0  0  0  0  0  0  0
   -0.4333    3.2583    0.0000 C   0  0  0  0  0  0  0  0  0  0  0  0
    0.4292    2.7583    0.0000 C   0  0  0  0  0  0  0  0  0  0  0  0
  2  9  1  0  0  0  0
  3  6  2  0  0  0  0
  4  5  1  0  0  0  0
  5  1  1  0  0  0  0
  6  4  1  0  0  0  0
  7  1  1  0  0  0  0
  8  1  1  0  0  0  0
  9  8  1  0  0  0  0
 10  7  1  0  0  0  0
 10  2  1  0  0  0  0
 11  3  1  0  0  0  0
 11 13  2  0  0  0  0
 12  6  1  0  0  0  0
 13 14  1  0  0  0  0
 14 12  2  0  0  0  0
M  END
>  <idnumber>
T5373070

>  <LogP>
1.920000000000000e-001

>  <rotating_bonds>
3.000000000000000e+000

>  <hb_acceptors>
3.000000000000000e+000

>  <hb_donors>
1.000000000000000e+000

>  <PSA>
2.815999999999999e+001

>  <clusterid>
-661

>  <is_centroid>
@

>  <class1>
717

>  <class2>
632

>  <population1>
74368

>  <population2>
79489

>  <population>
6850

>  <cansmi>
N1CCN(CC1)CCc1ccccn1

>  <HBA2>
3

>  <HBD>
1

>  <logP>
0.796

>  <TPSA>
28.16

>  <MW>
191.273

$$$$

 OpenBabel02121609142D

 17 19  0  0  0  0  0  0  0  0999 V2000
   -0.7958   -1.3500    0.0000 C   0  0  0  0  0  0  0  0  0  0  0  0
    0.0667    0.1500    0.0000 C   0  0  0  0  0  0  0  0  0  0  0  0
   -0.7958   -0.3500    0.0000 C   0  0  0  0  0  0  0  0  0  0  0  0
    0.9375    1.6500    0.0000 N   0  0  0  0  0  0  0  0  0  0  0  0
    0.0667    1.1500    0.0000 C   0  0  0  0  0  0  0  0  0  0  0  0
   -1.6583   -1.8500    0.0000 N   0  0  0  0  0  0  0  0  0  0  0  0
    0.0667   -1.8500    0.0000 C   0  0  0  0  0  0  0  0  0  0  0  0
    0.9375   -0.3500    0.0000 C   0  0  0  0  0  0  0  0  0  0  0  0
    0.9375   -1.3500    0.0000 C   0  0  0  0  0  0  0  0  0  0  0  0
    0.0667   -2.8500    0.0000 O   0  0  0  0  0  0  0  0  0  0  0  0
    1.0417    2.6458    0.0000 C   0  0  0  0  0  0  0  0  0  0  0  0
    1.8542    1.2458    0.0000 C   0  0  0  0  0  0  0  0  0  0  0  0
   -1.6583    0.1500    0.0000 C   0  0  0  0  0  0  0  0  0  0  0  0
   -2.5250   -1.3500    0.0000 C   0  0  0  0  0  0  0  0  0  0  0  0
   -2.5250   -0.3500    0.0000 C   0  0  0  0  0  0  0  0  0  0  0  0
    2.0167    2.8583    0.0000 C   0  0  0  0  0  0  0  0  0  0  0  0
    2.5167    1.9875    0.0000 C   0  0  0  0  0  0  0  0  0  0  0  0
  2  3  2  0  0  0  0
  2  8  1  0  0  0  0
  3  1  1  0  0  0  0
  4  5  1  0  0  0  0
  5  2  1  0  0  0  0
  6  1  1  0  0  0  0
  7  1  2  0  0  0  0
  8  9  2  0  0  0  0
  9  7  1  0  0  0  0
 10  7  1  0  0  0  0
 11  4  1  0  0  0  0
 12  4  1  0  0  0  0
 13  3  1  0  0  0  0
 13 15  2  0  0  0  0
 14  6  2  0  0  0  0
 15 14  1  0  0  0  0
 16 11  1  0  0  0  0
 17 12  1  0  0  0  0
 17 16  1  0  0  0  0
M  END
>  <idnumber>
T5373968

>  <LogP>
2.545000000000000e+000

>  <rotating_bonds>
2.000000000000000e+000

>  <hb_acceptors>
3.000000000000000e+000

>  <hb_donors>
1.000000000000000e+000

>  <PSA>
3.636000000000000e+001

>  <clusterid>
-665

>  <is_centroid>
@

>  <class1>
642

>  <class2>
682

>  <population1>
51183

>  <population2>
20351

>  <population>
455

>  <cansmi>
Oc1ccc(c2c1nccc2)CN1CCCC1

>  <HBA2>
3

>  <HBD>
1

>  <logP>
2.4741

>  <TPSA>
36.36

>  <MW>
228.29

$$$$

 OpenBabel02121609142D

 11 11  0  0  0  0  0  0  0  0999 V2000
    0.0000    0.2500    0.0000 N   0  0  0  0  0  0  0  0  0  0  0  0
    0.0000   -0.7500    0.0000 C   0  0  0  0  0  0  0  0  0  0  0  0
   -0.8708   -2.2500    0.0000 N   0  0  0  0  0  0  0  0  0  0  0  0
    0.8625    0.7500    0.0000 C   0  0  0  0  0  0  0  0  0  0  0  0
   -0.8708    0.7500    0.0000 C   0  0  0  0  0  0  0  0  0  0  0  0
    0.0000   -1.7500    0.0000 C   0  0  0  0  0  0  0  0  0  0  0  0
   -1.0000   -0.7500    0.0000 C   0  0  0  0  0  0  0  0  0  0  0  0
    1.0000   -0.7500    0.0000 C   0  0  0  0  0  0  0  0  0  0  0  0
   -0.8708    1.7500    0.0000 C   0  0  0  0  0  0  0  0  0  0  0  0
    0.8625    1.7500    0.0000 C   0  0  0  0  0  0  0  0  0  0  0  0
    0.0000    2.2500    0.0000 C   0  0  0  0  0  0  0  0  0  0  0  0
  2  1  1  0  0  0  0
  3  6  1  0  0  0  0
  4  1  1  0  0  0  0
  5  1  1  0  0  0  0
  6  2  1  0  0  0  0
  7  2  1  0  0  0  0
  8  2  1  0  0  0  0
  9  5  1  0  0  0  0
 10  4  1  0  0  0  0
 10 11  1  0  0  0  0
 11  9  1  0  0  0  0
M  END
>  <idnumber>
T5373983

>  <LogP>
1.591000000000000e+000

>  <rotating_bonds>
2.000000000000000e+000

>  <hb_acceptors>
2.000000000000000e+000

>  <hb_donors>
1.000000000000000e+000

>  <PSA>
2.926000000000000e+001

>  <clusterid>
-666

>  <is_centroid>
@

>  <class1>
639

>  <population1>
59855

>  <population>
59855

>  <cansmi>
NCC(N1CCCCC1)(C)C

>  <HBA2>
2

>  <HBD>
1

>  <logP>
1.8478

>  <TPSA>
29.26

>  <MW>
156.269

$$$$

 OpenBabel02121609142D

 15 16  0  0  0  0  0  0  0  0999 V2000
   -0.5458    0.6833    0.0000 C   0  0  0  0  0  0  0  0  0  0  0  0
   -0.8500   -0.2667    0.0000 C   0  0  0  0  0  0  0  0  0  0  0  0
   -1.1333    1.4875    0.0000 S   0  0  0  0  0  0  0  0  0  0  0  0
   -0.1833   -1.0167    0.0000 N   0  0  0  0  0  0  0  0  0  0  0  0
    0.4042    0.9875    0.0000 C   0  0  0  0  0  0  0  0  0  0  0  0
   -0.5458    2.2958    0.0000 C   0  0  0  0  0  0  0  0  0  0  0  0
    0.4042    1.9875    0.0000 C   0  0  0  0  0  0  0  0  0  0  0  0
   -1.8333   -0.4792    0.0000 O   0  0  0  0  0  0  0  0  0  0  0  0
   -0.4958   -1.9667    0.0000 C   0  0  0  0  0  0  0  0  0  0  0  0
    0.7917   -0.8042    0.0000 C   0  0  0  0  0  0  0  0  0  0  0  0
    0.1792   -2.7042    0.0000 C   0  0  0  0  0  0  0  0  0  0  0  0
    1.4667   -1.5500    0.0000 C   0  0  0  0  0  0  0  0  0  0  0  0
    1.1542   -2.5000    0.0000 C   0  0  0  0  0  0  0  0  0  0  0  0
   -0.8500    3.2500    0.0000 C   0  0  0  0  0  0  0  0  0  0  0  0
    1.8250   -3.2417    0.0000 C   0  0  0  0  0  0  0  0  0  0  0  0
  2  1  1  0  0  0  0
  3  1  1  0  0  0  0
  4  2  1  0  0  0  0
  5  1  2  0  0  0  0
  6  3  1  0  0  0  0
  7  5  1  0  0  0  0
  7  6  2  0  0  0  0
  8  2  2  0  0  0  0
  9  4  1  0  0  0  0
 10  4  1  0  0  0  0
 11  9  1  0  0  0  0
 11 13  1  0  0  0  0
 12 10  1  0  0  0  0
 13 12  1  0  0  0  0
 14  6  1  0  0  0  0
 15 13  1  0  0  0  0
M  END
>  <idnumber>
T5374018

>  <LogP>
2.594000000000000e+000

>  <rotating_bonds>
1.000000000000000e+000

>  <hb_acceptors>
2.000000000000000e+000

>  <hb_donors>
0.000000000000000e+000

>  <PSA>
4.855000000000000e+001

>  <clusterid>
177

>  <is_centroid>
@

>  <class1>
645

>  <class2>
639

>  <population1>
105961

>  <population2>
59855

>  <population>
5372

>  <cansmi>
CC1CCN(CC1)C(=O)c1ccc(s1)C

>  <HBA2>
3

>  <HBD>
0

>  <logP>
2.8665

>  <TPSA>
48.55

>  <MW>
223.334

$$$$

 OpenBabel02121609142D

 20 21  0  0  0  0  0  0  0  0999 V2000
    1.4292    0.5000    0.0000 C   0  0  0  0  0  0  0  0  0  0  0  0
    1.4292   -0.5000    0.0000 C   0  0  3  0  0  0  0  0  0  0  0  0
    0.5667    1.0000    0.0000 C   0  0  0  0  0  0  0  0  0  0  0  0
    2.2917    1.0000    0.0000 C   0  0  0  0  0  0  0  0  0  0  0  0
    0.5667    2.0000    0.0000 C   0  0  0  0  0  0  0  0  0  0  0  0
    0.5667   -0.9917    0.0000 C   0  0  0  0  0  0  0  0  0  0  0  0
    2.2917    2.0000    0.0000 C   0  0  0  0  0  0  0  0  0  0  0  0
    1.4292    2.5000    0.0000 C   0  0  0  0  0  0  0  0  0  0  0  0
    2.2917   -0.9917    0.0000 N   0  0  0  0  0  0  0  0  0  0  0  0
    3.1625    0.5000    0.0000 O   0  0  0  0  0  0  0  0  0  0  0  0
   -3.1708    0.2708    0.0000 Cl  0  0  0  0  0  0  0  0  0  0  0  0
   -0.3000    0.5000    0.0000 C   0  0  0  0  0  0  0  0  0  0  0  0
   -0.3000   -0.5000    0.0000 C   0  0  0  0  0  0  0  0  0  0  0  0
    0.5667   -2.0000    0.0000 C   0  0  0  0  0  0  0  0  0  0  0  0
   -0.3000    2.5000    0.0000 C   0  0  0  0  0  0  0  0  0  0  0  0
   -1.1708    1.0000    0.0000 C   0  0  0  0  0  0  0  0  0  0  0  0
   -0.3000   -2.5000    0.0000 C   0  0  0  0  0  0  0  0  0  0  0  0
   -1.1708   -0.9917    0.0000 C   0  0  0  0  0  0  0  0  0  0  0  0
   -1.1708    2.0000    0.0000 C   0  0  0  0  0  0  0  0  0  0  0  0
   -1.1708   -2.0000    0.0000 C   0  0  0  0  0  0  0  0  0  0  0  0
  2  1  1  0  0  0  0
  3  1  2  0  0  0  0
  4  1  1  0  0  0  0
  5  3  1  0  0  0  0
  5  8  2  0  0  0  0
  6  2  1  0  0  0  0
  7  4  2  0  0  0  0
  8  7  1  0  0  0  0
  9  2  1  0  0  0  0
 10  4  1  0  0  0  0
 12  3  1  0  0  0  0
 13  6  1  0  0  0  0
 14  6  2  0  0  0  0
 15  5  1  0  0  0  0
 15 19  2  0  0  0  0
 16 12  2  0  0  0  0
 17 14  1  0  0  0  0
 18 13  2  0  0  0  0
 18 20  1  0  0  0  0
 19 16  1  0  0  0  0
 20 17  2  0  0  0  0
M  END
>  <idnumber>
T5375347

>  <LogP>
2.899000000000000e+000

>  <rotating_bonds>
2.000000000000000e+000

>  <hb_acceptors>
2.000000000000000e+000

>  <hb_donors>
2.000000000000000e+000

>  <PSA>
4.624999999999996e+001

>  <clusterid>
-671

>  <is_centroid>
@

>  <class1>
625

>  <class2>
796

>  <population1>
877209

>  <population2>
21922

>  <population>
21922

>  <cansmi>
Oc1ccc2c(c1C(c1ccccc1)N)cccc2.Cl

>  <HBA2>
2

>  <HBD>
3

>  <logP>
5.0958

>  <TPSA>
46.25

>  <MW>
285.768

$$$$

 OpenBabel02121609142D

 12 13  0  0  0  0  0  0  0  0999 V2000
   -0.3500   -0.8042    0.0000 N   0  0  0  0  0  0  0  0  0  0  0  0
    0.9875   -2.2917    0.0000 N   0  0  0  0  0  0  0  0  0  0  0  0
   -1.3000    1.6958    0.0000 O   0  0  0  0  0  0  0  0  0  0  0  0
   -1.0208   -0.0625    0.0000 C   0  0  0  0  0  0  0  0  0  0  0  0
   -0.7125    0.8875    0.0000 C   0  0  3  0  0  0  0  0  0  0  0  0
   -0.6625   -1.7542    0.0000 C   0  0  0  0  0  0  0  0  0  0  0  0
    0.6250   -0.6000    0.0000 C   0  0  0  0  0  0  0  0  0  0  0  0
    1.2917   -1.3417    0.0000 C   0  0  0  0  0  0  0  0  0  0  0  0
    0.0042   -2.5000    0.0000 C   0  0  0  0  0  0  0  0  0  0  0  0
   -0.7125    2.5083    0.0000 C   0  0  0  0  0  0  0  0  0  0  0  0
    0.2375    1.1958    0.0000 C   0  0  0  0  0  0  0  0  0  0  0  0
    0.2375    2.1958    0.0000 C   0  0  0  0  0  0  0  0  0  0  0  0
  2  8  1  0  0  0  0
  3  5  1  0  0  0  0
  4  1  1  0  0  0  0
  5  4  1  0  0  0  0
  6  1  1  0  0  0  0
  7  1  1  0  0  0  0
  8  7  1  0  0  0  0
  9  6  1  0  0  0  0
  9  2  1  0  0  0  0
 10  3  1  0  0  0  0
 11  5  1  0  0  0  0
 12 11  1  0  0  0  0
 12 10  1  0  0  0  0
M  END
>  <idnumber>
T5375438

>  <LogP>
1.760000000000000e-001

>  <rotating_bonds>
2.000000000000000e+000

>  <hb_acceptors>
3.000000000000000e+000

>  <hb_donors>
1.000000000000000e+000

>  <PSA>
2.450000000000000e+001

>  <clusterid>
-675

>  <is_centroid>
@

>  <class1>
717

>  <class2>
723

>  <population1>
74368

>  <population2>
9592

>  <population>
700

>  <cansmi>
N1CCN(CC1)CC1CCCO1

>  <HBA2>
3

>  <HBD>
1

>  <logP>
0.3373

>  <TPSA>
24.5

>  <MW>
170.252

$$$$

 OpenBabel02121609142D

 15 17  0  0  0  0  0  0  0  0999 V2000
    0.0292   -0.7500    0.0000 N   0  0  0  0  0  0  0  0  0  0  0  0
    0.0292    0.2583    0.0000 C   0  0  0  0  0  0  0  0  0  0  0  0
   -0.8375   -1.2500    0.0000 C   0  0  0  0  0  0  0  0  0  0  0  0
    0.9792    0.5625    0.0000 N   0  0  0  0  0  0  0  0  0  0  0  0
    0.9792   -1.0542    0.0000 N   0  0  0  0  0  0  0  0  0  0  0  0
   -0.8375    0.7500    0.0000 C   0  0  0  0  0  0  0  0  0  0  0  0
   -1.7083   -0.7500    0.0000 N   0  0  0  0  0  0  0  0  0  0  0  0
    1.5667   -0.2500    0.0000 C   0  0  0  0  0  0  0  0  0  0  0  0
   -1.7083    0.2583    0.0000 C   0  0  0  0  0  0  0  0  0  0  0  0
   -0.8375   -2.2500    0.0000 O   0  0  0  0  0  0  0  0  0  0  0  0
   -0.8375    1.7500    0.0000 C   0  0  0  0  0  0  0  0  0  0  0  0
    2.5667   -0.2500    0.0000 C   0  0  0  0  0  0  0  0  0  0  0  0
   -2.5708    0.7500    0.0000 C   0  0  0  0  0  0  0  0  0  0  0  0
   -1.7083    2.2500    0.0000 C   0  0  0  0  0  0  0  0  0  0  0  0
   -2.5708    1.7500    0.0000 C   0  0  0  0  0  0  0  0  0  0  0  0
  2  1  1  0  0  0  0
  3  1  1  0  0  0  0
  4  2  2  0  0  0  0
  5  1  1  0  0  0  0
  6  2  1  0  0  0  0
  6  9  2  0  0  0  0
  7  3  1  0  0  0  0
  8  5  2  0  0  0  0
  8  4  1  0  0  0  0
  9  7  1  0  0  0  0
 10  3  2  0  0  0  0
 11  6  1  0  0  0  0
 12  8  1  0  0  0  0
 13  9  1  0  0  0  0
 14 11  2  0  0  0  0
 14 15  1  0  0  0  0
 15 13  2  0  0  0  0
M  END
>  <idnumber>
T5378968

>  <LogP>
-7.070000000000001e-001

>  <rotating_bonds>
0.000000000000000e+000

>  <hb_acceptors>
3.000000000000000e+000

>  <hb_donors>
1.000000000000000e+000

>  <PSA>
5.981000000000002e+001

>  <clusterid>
-679

>  <is_centroid>
@

>  <class1>
693

>  <population1>
38

>  <population>
38

>  <cansmi>
Cc1nn2c(n1)c1ccccc1[nH]c2=O

>  <HBA2>
4

>  <HBD>
1

>  <logP>
0.8792

>  <TPSA>
63.05

>  <MW>
200.197

$$$$

 OpenBabel02121609142D

 13 14  0  0  0  0  0  0  0  0999 V2000
    0.3167    0.6208    0.0000 C   0  0  0  0  0  0  0  0  0  0  0  0
    1.8167    1.4833    0.0000 C   0  0  0  0  0  0  0  0  0  0  0  0
   -1.1833   -0.2417    0.0000 N   0  0  0  0  0  0  0  0  0  0  0  0
    0.8167    1.4833    0.0000 N   0  0  0  0  0  0  0  0  0  0  0  0
    2.6792    0.9833    0.0000 C   0  0  0  0  0  0  0  0  0  0  0  0
    2.6792    1.9833    0.0000 C   0  0  0  0  0  0  0  0  0  0  0  0
   -2.1833   -1.9792    0.0000 N   0  0  0  0  0  0  0  0  0  0  0  0
   -0.6833    0.6208    0.0000 C   0  0  0  0  0  0  0  0  0  0  0  0
    0.8167   -0.2417    0.0000 O   0  0  0  0  0  0  0  0  0  0  0  0
   -2.1833   -0.2417    0.0000 C   0  0  0  0  0  0  0  0  0  0  0  0
   -0.6833   -1.1125    0.0000 C   0  0  0  0  0  0  0  0  0  0  0  0
   -1.1833   -1.9792    0.0000 C   0  0  0  0  0  0  0  0  0  0  0  0
   -2.6833   -1.1125    0.0000 C   0  0  0  0  0  0  0  0  0  0  0  0
  2  4  1  0  0  0  0
  3  8  1  0  0  0  0
  4  1  1  0  0  0  0
  5  2  1  0  0  0  0
  5  6  1  0  0  0  0
  6  2  1  0  0  0  0
  7 12  1  0  0  0  0
  8  1  1  0  0  0  0
  9  1  2  0  0  0  0
 10  3  1  0  0  0  0
 11  3  1  0  0  0  0
 12 11  1  0  0  0  0
 13 10  1  0  0  0  0
 13  7  1  0  0  0  0
M  END
>  <idnumber>
T5380459

>  <LogP>
-6.140000000000000e-001

>  <rotating_bonds>
3.000000000000000e+000

>  <hb_acceptors>
3.000000000000000e+000

>  <hb_donors>
2.000000000000000e+000

>  <PSA>
4.437000000000001e+001

>  <clusterid>
-683

>  <is_centroid>
@

>  <class1>
675

>  <class2>
717

>  <population1>
33654

>  <population2>
74368

>  <population>
3323

>  <cansmi>
O=C(CN1CCNCC1)NC1CC1

>  <HBA2>
4

>  <HBD>
2

>  <logP>
-0.1722

>  <TPSA>
44.37

>  <MW>
183.251

$$$$

 OpenBabel02121609142D

 14 15  0  0  0  0  0  0  0  0999 V2000
   -0.5458    1.1583    0.0000 C   0  0  0  0  0  0  0  0  0  0  0  0
   -1.1333    1.9625    0.0000 S   0  0  0  0  0  0  0  0  0  0  0  0
   -0.8500    0.2083    0.0000 C   0  0  3  0  0  0  0  0  0  0  0  0
   -0.1833   -0.5375    0.0000 C   0  0  0  0  0  0  0  0  0  0  0  0
    0.4042    1.4625    0.0000 C   0  0  0  0  0  0  0  0  0  0  0  0
   -0.5458    2.7708    0.0000 C   0  0  0  0  0  0  0  0  0  0  0  0
    0.4042    2.4625    0.0000 C   0  0  0  0  0  0  0  0  0  0  0  0
   -0.4958   -1.4917    0.0000 C   0  0  0  0  0  0  0  0  0  0  0  0
    0.7917   -0.3292    0.0000 C   0  0  0  0  0  0  0  0  0  0  0  0
   -1.8333   -0.0042    0.0000 N   0  0  0  0  0  0  0  0  0  0  0  0
    1.1542   -2.0250    0.0000 C   0  0  0  0  0  0  0  0  0  0  0  0
    1.4667   -1.0750    0.0000 C   0  0  0  0  0  0  0  0  0  0  0  0
    0.1792   -2.2292    0.0000 C   0  0  0  0  0  0  0  0  0  0  0  0
    1.8250   -2.7667    0.0000 F   0  0  0  0  0  0  0  0  0  0  0  0
  2  1  1  0  0  0  0
  3  1  1  0  0  0  0
  4  3  1  0  0  0  0
  5  1  2  0  0  0  0
  6  2  1  0  0  0  0
  7  5  1  0  0  0  0
  7  6  2  0  0  0  0
  8  4  1  0  0  0  0
  9  4  2  0  0  0  0
 10  3  1  0  0  0  0
 11 12  2  0  0  0  0
 12  9  1  0  0  0  0
 13  8  2  0  0  0  0
 13 11  1  0  0  0  0
 14 11  1  0  0  0  0
M  END
>  <idnumber>
T5382014

>  <LogP>
2.231000000000000e+000

>  <rotating_bonds>
2.000000000000000e+000

>  <hb_acceptors>
3.000000000000000e+000

>  <hb_donors>
1.000000000000000e+000

>  <PSA>
5.426000000000001e+001

>  <clusterid>
-688

>  <is_centroid>
@

>  <class1>
645

>  <class2>
625

>  <population1>
105961

>  <population2>
877209

>  <population>
84604

>  <cansmi>
Fc1ccc(cc1)C(c1cccs1)N

>  <HBA2>
2

>  <HBD>
1

>  <logP>
3.6356

>  <TPSA>
54.26

>  <MW>
207.267

$$$$

 OpenBabel02121609142D

 12 13  0  0  0  0  0  0  0  0999 V2000
   -1.3958   -0.5000    0.0000 C   0  0  0  0  0  0  0  0  0  0  0  0
   -1.3958    0.5000    0.0000 C   0  0  0  0  0  0  0  0  0  0  0  0
   -2.3500   -0.8042    0.0000 O   0  0  0  0  0  0  0  0  0  0  0  0
   -2.3500    0.8125    0.0000 O   0  0  0  0  0  0  0  0  0  0  0  0
   -2.9375    0.0000    0.0000 C   0  0  0  0  0  0  0  0  0  0  0  0
   -0.5333   -1.0000    0.0000 C   0  0  0  0  0  0  0  0  0  0  0  0
   -0.5333    1.0000    0.0000 C   0  0  0  0  0  0  0  0  0  0  0  0
    0.3292   -0.5000    0.0000 C   0  0  0  0  0  0  0  0  0  0  0  0
    0.3292    0.5000    0.0000 C   0  0  0  0  0  0  0  0  0  0  0  0
    2.9292   -1.0000    0.0000 N   0  0  0  0  0  0  0  0  0  0  0  0
    2.0667   -0.5000    0.0000 C   0  0  0  0  0  0  0  0  0  0  0  0
    1.2000   -1.0000    0.0000 C   0  0  0  0  0  0  0  0  0  0  0  0
  2  1  2  0  0  0  0
  3  1  1  0  0  0  0
  4  2  1  0  0  0  0
  4  5  1  0  0  0  0
  5  3  1  0  0  0  0
  6  1  1  0  0  0  0
  7  2  1  0  0  0  0
  8  6  2  0  0  0  0
  9  8  1  0  0  0  0
  9  7  2  0  0  0  0
 10 11  1  0  0  0  0
 11 12  1  0  0  0  0
 12  8  1  0  0  0  0
M  END
>  <idnumber>
T5382021

>  <LogP>
9.980000000000000e-001

>  <rotating_bonds>
2.000000000000000e+000

>  <hb_acceptors>
3.000000000000000e+000

>  <hb_donors>
1.000000000000000e+000

>  <PSA>
4.448000000000000e+001

>  <clusterid>
-689

>  <is_centroid>
@

>  <class1>
811

>  <population1>
21222

>  <population>
21222

>  <cansmi>
NCCc1ccc2c(c1)OCO2

>  <HBA2>
3

>  <HBD>
1

>  <logP>
1.6168

>  <TPSA>
44.48

>  <MW>
165.189

$$$$

 OpenBabel02121609142D

 15 16  0  0  0  0  0  0  0  0999 V2000
   -0.4708   -0.7500    0.0000 C   0  0  0  0  0  0  0  0  0  0  0  0
   -0.4708    0.2583    0.0000 C   0  0  0  0  0  0  0  0  0  0  0  0
   -1.4208   -1.0542    0.0000 O   0  0  0  0  0  0  0  0  0  0  0  0
    1.2667   -0.7500    0.0000 C   0  0  0  0  0  0  0  0  0  0  0  0
    0.4000   -1.2417    0.0000 C   0  0  0  0  0  0  0  0  0  0  0  0
    1.2667    0.2583    0.0000 C   0  0  0  0  0  0  0  0  0  0  0  0
    0.4000    0.7500    0.0000 C   0  0  0  0  0  0  0  0  0  0  0  0
   -1.4208    0.5625    0.0000 C   0  0  0  0  0  0  0  0  0  0  0  0
   -2.0083   -0.2500    0.0000 C   0  0  3  0  0  0  0  0  0  0  0  0
    2.1292    0.7500    0.0000 O   0  0  0  0  0  0  0  0  0  0  0  0
    2.1292   -1.2417    0.0000 C   0  0  0  0  0  0  0  0  0  0  0  0
    2.1292   -2.2500    0.0000 N   0  0  0  0  0  0  0  0  0  0  0  0
   -3.0083   -0.2500    0.0000 C   0  0  0  0  0  0  0  0  0  0  0  0
    2.1292    1.7583    0.0000 C   0  0  0  0  0  0  0  0  0  0  0  0
    3.0000    2.2500    0.0000 C   0  0  0  0  0  0  0  0  0  0  0  0
  2  1  1  0  0  0  0
  3  1  1  0  0  0  0
  4  5  1  0  0  0  0
  5  1  2  0  0  0  0
  6  4  2  0  0  0  0
  6  7  1  0  0  0  0
  7  2  2  0  0  0  0
  8  2  1  0  0  0  0
  8  9  1  0  0  0  0
  9  3  1  0  0  0  0
 10  6  1  0  0  0  0
 11  4  1  0  0  0  0
 12 11  1  0  0  0  0
 13  9  1  0  0  0  0
 14 10  1  0  0  0  0
 15 14  1  0  0  0  0
M  END
>  <idnumber>
T5382032

>  <LogP>
2.285000000000000e+000

>  <rotating_bonds>
3.000000000000000e+000

>  <hb_acceptors>
3.000000000000000e+000

>  <hb_donors>
1.000000000000000e+000

>  <PSA>
4.448000000000000e+001

>  <clusterid>
-690

>  <is_centroid>
@

>  <class1>
803

>  <population1>
2603

>  <population>
2603

>  <cansmi>
CCOc1cc2CC(Oc2cc1CN)C

>  <HBA2>
3

>  <HBD>
1

>  <logP>
2.5677

>  <TPSA>
44.48

>  <MW>
207.269

$$$$

 OpenBabel02121609142D

 13 14  0  0  0  0  0  0  0  0999 V2000
   -1.3958   -0.5000    0.0000 C   0  0  0  0  0  0  0  0  0  0  0  0
    2.0667   -0.5000    0.0000 C   0  0  0  0  0  0  0  0  0  0  0  0
   -0.5333   -1.0000    0.0000 C   0  0  0  0  0  0  0  0  0  0  0  0
   -1.3958    0.5000    0.0000 C   0  0  0  0  0  0  0  0  0  0  0  0
    0.3292   -0.5000    0.0000 C   0  0  0  0  0  0  0  0  0  0  0  0
    2.9292   -1.0000    0.0000 O   0  0  0  0  0  0  0  0  0  0  0  0
    1.2000   -1.0000    0.0000 C   0  0  0  0  0  0  0  0  0  0  0  0
   -0.5333    1.0000    0.0000 C   0  0  0  0  0  0  0  0  0  0  0  0
    0.3292    0.5000    0.0000 C   0  0  0  0  0  0  0  0  0  0  0  0
    2.0667    0.5000    0.0000 O   0  0  0  0  0  0  0  0  0  0  0  0
   -2.3500   -0.8042    0.0000 C   0  0  0  0  0  0  0  0  0  0  0  0
   -2.9375    0.0000    0.0000 C   0  0  0  0  0  0  0  0  0  0  0  0
   -2.3500    0.8125    0.0000 C   0  0  0  0  0  0  0  0  0  0  0  0
  2  7  1  0  0  0  0
  3  1  1  0  0  0  0
  4  1  2  0  0  0  0
  5  3  2  0  0  0  0
  5  9  1  0  0  0  0
  6  2  2  0  0  0  0
  7  5  1  0  0  0  0
  8  4  1  0  0  0  0
  9  8  2  0  0  0  0
 10  2  1  0  0  0  0
 11  1  1  0  0  0  0
 12 11  1  0  0  0  0
 13  4  1  0  0  0  0
 13 12  1  0  0  0  0
M  END
>  <idnumber>
T5382819

>  <LogP>
2.427000000000000e+000

>  <rotating_bonds>
2.000000000000000e+000

>  <hb_acceptors>
2.000000000000000e+000

>  <hb_donors>
1.000000000000000e+000

>  <PSA>
3.730000000000000e+001

>  <clusterid>
-692

>  <is_centroid>
@

>  <class1>
644

>  <population1>
7036

>  <population>
7036

>  <cansmi>
OC(=O)Cc1ccc2c(c1)CCC2

>  <HBA2>
2

>  <HBD>
1

>  <logP>
1.8024

>  <TPSA>
37.3

>  <MW>
176.212

$$$$

 OpenBabel02121609142D

 17 19  0  0  0  0  0  0  0  0999 V2000
   -0.9208    1.1500    0.0000 C   0  0  0  0  0  0  0  0  0  0  0  0
    0.0792    1.1500    0.0000 C   0  0  0  0  0  0  0  0  0  0  0  0
   -1.5083    0.3458    0.0000 C   0  0  0  0  0  0  0  0  0  0  0  0
    0.5792    2.0208    0.0000 N   0  0  0  0  0  0  0  0  0  0  0  0
   -1.5083    1.9583    0.0000 S   0  0  0  0  0  0  0  0  0  0  0  0
    1.5792    2.0208    0.0000 C   0  0  0  0  0  0  0  0  0  0  0  0
   -2.4583    1.6500    0.0000 C   0  0  0  0  0  0  0  0  0  0  0  0
   -2.4583    0.6500    0.0000 C   0  0  0  0  0  0  0  0  0  0  0  0
    2.4417    2.5208    0.0000 C   0  0  0  0  0  0  0  0  0  0  0  0
    2.4417    1.5208    0.0000 C   0  0  0  0  0  0  0  0  0  0  0  0
    0.5792    0.2833    0.0000 O   0  0  0  0  0  0  0  0  0  0  0  0
   -1.1958   -0.6042    0.0000 C   0  0  0  0  0  0  0  0  0  0  0  0
   -1.8625   -1.3542    0.0000 C   0  0  0  0  0  0  0  0  0  0  0  0
   -0.2208   -0.8167    0.0000 C   0  0  0  0  0  0  0  0  0  0  0  0
    0.0917   -1.7667    0.0000 C   0  0  0  0  0  0  0  0  0  0  0  0
   -1.5583   -2.3042    0.0000 C   0  0  0  0  0  0  0  0  0  0  0  0
   -0.5750   -2.5125    0.0000 C   0  0  0  0  0  0  0  0  0  0  0  0
  2  1  1  0  0  0  0
  3  1  2  0  0  0  0
  4  2  1  0  0  0  0
  5  1  1  0  0  0  0
  6  4  1  0  0  0  0
  7  5  1  0  0  0  0
  7  8  2  0  0  0  0
  8  3  1  0  0  0  0
  9  6  1  0  0  0  0
 10  6  1  0  0  0  0
 10  9  1  0  0  0  0
 11  2  2  0  0  0  0
 12  3  1  0  0  0  0
 13 12  1  0  0  0  0
 14 12  2  0  0  0  0
 15 14  1  0  0  0  0
 16 13  2  0  0  0  0
 16 17  1  0  0  0  0
 17 15  2  0  0  0  0
M  END
>  <idnumber>
T5383417

>  <LogP>
2.481000000000000e+000

>  <rotating_bonds>
3.000000000000000e+000

>  <hb_acceptors>
2.000000000000000e+000

>  <hb_donors>
1.000000000000000e+000

>  <PSA>
5.734000000000000e+001

>  <clusterid>
-693

>  <is_centroid>
@

>  <class1>
675

>  <class2>
645

>  <class3>
625

>  <population1>
33654

>  <population2>
105961

>  <population3>
877209

>  <population>
2368

>  <cansmi>
O=C(c1sccc1c1ccccc1)NC1CC1

>  <HBA2>
3

>  <HBD>
1

>  <logP>
3.6982

>  <TPSA>
57.34

>  <MW>
243.324

$$$$

 OpenBabel02121609142D

 13 14  0  0  0  0  0  0  0  0999 V2000
    0.8625    0.0000    0.0000 C   0  0  3  0  0  0  0  0  0  0  0  0
    1.7292   -0.5000    0.0000 C   0  0  0  0  0  0  0  0  0  0  0  0
    0.0000    1.5000    0.0000 O   0  0  0  0  0  0  0  0  0  0  0  0
    0.0000   -0.5000    0.0000 C   0  0  0  0  0  0  0  0  0  0  0  0
   -0.8708    0.0000    0.0000 C   0  0  0  0  0  0  0  0  0  0  0  0
    0.8625    1.0000    0.0000 C   0  0  0  0  0  0  0  0  0  0  0  0
   -0.8708    1.0000    0.0000 C   0  0  0  0  0  0  0  0  0  0  0  0
    2.5917    0.0000    0.0000 O   0  0  0  0  0  0  0  0  0  0  0  0
    1.7292   -1.5000    0.0000 O   0  0  0  0  0  0  0  0  0  0  0  0
   -1.7333   -0.5000    0.0000 C   0  0  0  0  0  0  0  0  0  0  0  0
   -1.7333    1.5000    0.0000 C   0  0  0  0  0  0  0  0  0  0  0  0
   -2.6000    0.0000    0.0000 C   0  0  0  0  0  0  0  0  0  0  0  0
   -2.6000    1.0000    0.0000 C   0  0  0  0  0  0  0  0  0  0  0  0
  2  1  1  0  0  0  0
  3  6  1  0  0  0  0
  4  1  1  0  0  0  0
  5  4  1  0  0  0  0
  5  7  2  0  0  0  0
  6  1  1  0  0  0  0
  7  3  1  0  0  0  0
  8  2  2  0  0  0  0
  9  2  1  0  0  0  0
 10  5  1  0  0  0  0
 11  7  1  0  0  0  0
 12 10  2  0  0  0  0
 13 11  2  0  0  0  0
 13 12  1  0  0  0  0
M  END
>  <idnumber>
T5383674

>  <LogP>
1.638000000000000e+000

>  <rotating_bonds>
1.000000000000000e+000

>  <hb_acceptors>
3.000000000000000e+000

>  <hb_donors>
1.000000000000000e+000

>  <PSA>
4.652999999999997e+001

>  <clusterid>
-695

>  <is_centroid>
@

>  <class1>
766

>  <population1>
1661

>  <population>
1661

>  <cansmi>
OC(=O)C1COc2c(C1)cccc2

>  <HBA2>
3

>  <HBD>
1

>  <logP>
1.3223

>  <TPSA>
46.53

>  <MW>
178.185

$$$$

 OpenBabel02121609142D

 13 14  0  0  0  0  0  0  0  0999 V2000
    0.8625    0.0000    0.0000 C   0  0  0  0  0  0  0  0  0  0  0  0
    0.0000    0.5000    0.0000 C   0  0  0  0  0  0  0  0  0  0  0  0
    1.7292    0.5000    0.0000 C   0  0  0  0  0  0  0  0  0  0  0  0
    0.0000   -1.5000    0.0000 O   0  0  0  0  0  0  0  0  0  0  0  0
   -0.8708    0.0000    0.0000 C   0  0  0  0  0  0  0  0  0  0  0  0
    0.8625   -1.0000    0.0000 C   0  0  0  0  0  0  0  0  0  0  0  0
   -0.8708   -1.0000    0.0000 C   0  0  0  0  0  0  0  0  0  0  0  0
    1.7292    1.5000    0.0000 O   0  0  0  0  0  0  0  0  0  0  0  0
    2.5917    0.0000    0.0000 O   0  0  0  0  0  0  0  0  0  0  0  0
   -1.7333    0.5000    0.0000 C   0  0  0  0  0  0  0  0  0  0  0  0
   -1.7333   -1.5000    0.0000 C   0  0  0  0  0  0  0  0  0  0  0  0
   -2.6000    0.0000    0.0000 C   0  0  0  0  0  0  0  0  0  0  0  0
   -2.6000   -1.0000    0.0000 C   0  0  0  0  0  0  0  0  0  0  0  0
  2  1  2  0  0  0  0
  3  1  1  0  0  0  0
  4  6  1  0  0  0  0
  5  2  1  0  0  0  0
  5  7  2  0  0  0  0
  6  1  1  0  0  0  0
  7  4  1  0  0  0  0
  8  3  2  0  0  0  0
  9  3  1  0  0  0  0
 10  5  1  0  0  0  0
 11  7  1  0  0  0  0
 12 10  2  0  0  0  0
 12 13  1  0  0  0  0
 13 11  2  0  0  0  0
M  END
>  <idnumber>
T5383675

>  <LogP>
1.974000000000000e+000

>  <rotating_bonds>
1.000000000000000e+000

>  <hb_acceptors>
3.000000000000000e+000

>  <hb_donors>
1.000000000000000e+000

>  <PSA>
4.652999999999997e+001

>  <clusterid>
440

>  <is_centroid>
@

>  <class1>
694

>  <population1>
8594

>  <population>
8594

>  <cansmi>
OC(=O)C1=Cc2c(OC1)cccc2

>  <HBA2>
3

>  <HBD>
1

>  <logP>
1.547

>  <TPSA>
46.53

>  <MW>
176.169

$$$$

 OpenBabel02121609142D

 11 11  0  0  0  0  0  0  0  0999 V2000
    0.5042   -0.0667    0.0000 N   0  0  0  0  0  0  0  0  0  0  0  0
    0.8750    0.8625    0.0000 C   0  0  0  0  0  0  0  0  0  0  0  0
    1.2792   -0.7042    0.0000 C   0  0  0  0  0  0  0  0  0  0  0  0
    2.1250   -0.1667    0.0000 C   0  0  0  0  0  0  0  0  0  0  0  0
    1.8750    0.8000    0.0000 C   0  0  0  0  0  0  0  0  0  0  0  0
   -0.4583   -0.3167    0.0000 C   0  0  0  0  0  0  0  0  0  0  0  0
   -1.1583    0.3958    0.0000 C   0  0  0  0  0  0  0  0  0  0  0  0
   -0.8958    1.3583    0.0000 O   0  0  0  0  0  0  0  0  0  0  0  0
   -2.1333    0.1458    0.0000 N   0  0  0  0  0  0  0  0  0  0  0  0
    0.3375    1.7083    0.0000 C   0  0  0  0  0  0  0  0  0  0  0  0
    1.2167   -1.7000    0.0000 C   0  0  0  0  0  0  0  0  0  0  0  0
  2  1  1  0  0  0  0
  3  1  1  0  0  0  0
  4  3  2  0  0  0  0
  4  5  1  0  0  0  0
  5  2  2  0  0  0  0
  6  1  1  0  0  0  0
  7  6  1  0  0  0  0
  8  7  2  0  0  0  0
  9  7  1  0  0  0  0
 10  2  1  0  0  0  0
 11  3  1  0  0  0  0
M  END
>  <idnumber>
T5383704

>  <LogP>
8.610000000000001e-001

>  <rotating_bonds>
2.000000000000000e+000

>  <hb_acceptors>
1.000000000000000e+000

>  <hb_donors>
1.000000000000000e+000

>  <PSA>
4.802000000000000e+001

>  <clusterid>
-696

>  <is_centroid>
@

>  <class1>
635

>  <population1>
31512

>  <population>
31512

>  <cansmi>
NC(=O)Cn1c(C)ccc1C

>  <HBA2>
3

>  <HBD>
1

>  <logP>
1.2905

>  <TPSA>
48.02

>  <MW>
152.194

$$$$

 OpenBabel02121609142D

 13 14  0  0  0  0  0  0  0  0999 V2000
    0.1917   -1.1792    0.0000 N   0  0  0  0  0  0  0  0  0  0  0  0
    0.1417    1.4708    0.0000 N   0  0  0  0  0  0  0  0  0  0  0  0
   -0.4250   -3.0792    0.0000 N   0  0  0  0  0  0  0  0  0  0  0  0
    0.5000   -0.2292    0.0000 C   0  0  0  0  0  0  0  0  0  0  0  0
   -0.1708    0.5208    0.0000 C   0  0  0  0  0  0  0  0  0  0  0  0
    0.8625   -1.9167    0.0000 C   0  0  0  0  0  0  0  0  0  0  0  0
   -0.7875   -1.3875    0.0000 C   0  0  0  0  0  0  0  0  0  0  0  0
    1.0917    1.7750    0.0000 C   0  0  0  0  0  0  0  0  0  0  0  0
   -0.4458    2.2750    0.0000 C   0  0  0  0  0  0  0  0  0  0  0  0
   -1.0958   -2.3375    0.0000 C   0  0  0  0  0  0  0  0  0  0  0  0
    0.5500   -2.8667    0.0000 C   0  0  0  0  0  0  0  0  0  0  0  0
    0.1417    3.0833    0.0000 C   0  0  0  0  0  0  0  0  0  0  0  0
    1.0917    2.7750    0.0000 C   0  0  0  0  0  0  0  0  0  0  0  0
  2  5  1  0  0  0  0
  3 10  1  0  0  0  0
  4  1  1  0  0  0  0
  5  4  1  0  0  0  0
  6  1  1  0  0  0  0
  7  1  1  0  0  0  0
  8  2  1  0  0  0  0
  9  2  1  0  0  0  0
 10  7  1  0  0  0  0
 11  6  1  0  0  0  0
 11  3  1  0  0  0  0
 12  9  1  0  0  0  0
 13  8  1  0  0  0  0
 13 12  1  0  0  0  0
M  END
>  <idnumber>
T5384635

>  <LogP>
-2.800000000000000e-001

>  <rotating_bonds>
3.000000000000000e+000

>  <hb_acceptors>
3.000000000000000e+000

>  <hb_donors>
1.000000000000000e+000

>  <PSA>
1.851000000000000e+001

>  <clusterid>
-699

>  <is_centroid>
@

>  <class1>
717

>  <class2>
642

>  <population1>
74368

>  <population2>
51183

>  <population>
3510

>  <cansmi>
N1CCN(CC1)CCN1CCCC1

>  <HBA2>
3

>  <HBD>
1

>  <logP>
0.192

>  <TPSA>
18.51

>  <MW>
183.294

$$$$

 OpenBabel02121609142D

 15 15  0  0  0  0  0  0  0  0999 V2000
   -0.4333   -1.5667    0.0000 C   0  0  0  0  0  0  0  0  0  0  0  0
   -0.4333   -0.5667    0.0000 N   0  0  0  0  0  0  0  0  0  0  0  0
   -0.4333    2.4333    0.0000 C   0  0  0  0  0  0  0  0  0  0  0  0
    0.4292   -2.0667    0.0000 C   0  0  0  0  0  0  0  0  0  0  0  0
   -1.3000   -0.0667    0.0000 C   0  0  0  0  0  0  0  0  0  0  0  0
    0.4292   -0.0667    0.0000 C   0  0  0  0  0  0  0  0  0  0  0  0
   -0.4333    1.4333    0.0000 C   0  0  0  0  0  0  0  0  0  0  0  0
   -1.3000   -2.0667    0.0000 O   0  0  0  0  0  0  0  0  0  0  0  0
   -1.3000    2.9333    0.0000 O   0  0  0  0  0  0  0  0  0  0  0  0
   -1.3000    0.9333    0.0000 C   0  0  0  0  0  0  0  0  0  0  0  0
    0.4292    0.9333    0.0000 C   0  0  0  0  0  0  0  0  0  0  0  0
    0.4292    2.9333    0.0000 O   0  0  0  0  0  0  0  0  0  0  0  0
    1.2917   -2.5667    0.0000 C   0  0  0  0  0  0  0  0  0  0  0  0
    0.9292   -1.2000    0.0000 C   0  0  0  0  0  0  0  0  0  0  0  0
   -0.0708   -2.9292    0.0000 C   0  0  0  0  0  0  0  0  0  0  0  0
  2  1  1  0  0  0  0
  3  7  1  0  0  0  0
  4  1  1  0  0  0  0
  5  2  1  0  0  0  0
  6  2  1  0  0  0  0
  7 11  1  0  0  0  0
  8  1  2  0  0  0  0
  9  3  2  0  0  0  0
 10  5  1  0  0  0  0
 10  7  1  0  0  0  0
 11  6  1  0  0  0  0
 12  3  1  0  0  0  0
 13  4  1  0  0  0  0
 14  4  1  0  0  0  0
 15  4  1  0  0  0  0
M  END
>  <idnumber>
T5384645

>  <LogP>
-2.990000000000000e-001

>  <rotating_bonds>
2.000000000000000e+000

>  <hb_acceptors>
3.000000000000000e+000

>  <hb_donors>
1.000000000000000e+000

>  <PSA>
5.761000000000000e+001

>  <clusterid>
398

>  <is_centroid>
@

>  <class1>
639

>  <population1>
59855

>  <population>
59855

>  <cansmi>
O=C(C(C)(C)C)N1CCC(CC1)C(=O)O

>  <HBA2>
4

>  <HBD>
1

>  <logP>
1.2936

>  <TPSA>
57.61

>  <MW>
213.273

$$$$

 OpenBabel02121609142D

 17 18  0  0  0  0  0  0  0  0999 V2000
   -0.4333    0.7500    0.0000 N   0  0  0  0  0  0  0  0  0  0  0  0
    0.4292   -0.7500    0.0000 C   0  0  3  0  0  0  0  0  0  0  0  0
   -0.4333   -1.2500    0.0000 O   0  0  0  0  0  0  0  0  0  0  0  0
    0.4292    0.2500    0.0000 C   0  0  0  0  0  0  0  0  0  0  0  0
   -1.3000    0.2500    0.0000 C   0  0  0  0  0  0  0  0  0  0  0  0
   -1.3000   -0.7500    0.0000 C   0  0  0  0  0  0  0  0  0  0  0  0
   -0.4333    1.7500    0.0000 C   0  0  0  0  0  0  0  0  0  0  0  0
    1.2917   -1.2500    0.0000 C   0  0  0  0  0  0  0  0  0  0  0  0
   -1.3000    2.2500    0.0000 O   0  0  0  0  0  0  0  0  0  0  0  0
    1.2917   -2.2500    0.0000 O   0  0  0  0  0  0  0  0  0  0  0  0
    2.1625   -0.7500    0.0000 O   0  0  0  0  0  0  0  0  0  0  0  0
   -2.1708    0.7500    0.0000 C   0  0  0  0  0  0  0  0  0  0  0  0
    0.4292    2.2500    0.0000 C   0  0  0  0  0  0  0  0  0  0  0  0
   -2.1708   -1.2500    0.0000 C   0  0  0  0  0  0  0  0  0  0  0  0
    3.0292   -1.2500    0.0000 C   0  0  0  0  0  0  0  0  0  0  0  0
   -3.0333    0.2500    0.0000 C   0  0  0  0  0  0  0  0  0  0  0  0
   -3.0333   -0.7500    0.0000 C   0  0  0  0  0  0  0  0  0  0  0  0
  2  4  1  0  0  0  0
  2  3  1  0  0  0  0
  3  6  1  0  0  0  0
  4  1  1  0  0  0  0
  5  1  1  0  0  0  0
  6  5  2  0  0  0  0
  7  1  1  0  0  0  0
  8  2  1  0  0  0  0
  9  7  2  0  0  0  0
 10  8  2  0  0  0  0
 11  8  1  0  0  0  0
 12  5  1  0  0  0  0
 13  7  1  0  0  0  0
 14  6  1  0  0  0  0
 14 17  2  0  0  0  0
 15 11  1  0  0  0  0
 16 12  2  0  0  0  0
 17 16  1  0  0  0  0
M  END
>  <idnumber>
T5386549

>  <LogP>
9.180000000000002e-001

>  <rotating_bonds>
2.000000000000000e+000

>  <hb_acceptors>
3.000000000000000e+000

>  <hb_donors>
0.000000000000000e+000

>  <PSA>
5.584000000000000e+001

>  <clusterid>
-702

>  <is_centroid>
@

>  <class1>
824

>  <population1>
4751

>  <population>
4751

>  <cansmi>
COC(=O)C1Oc2ccccc2N(C1)C(=O)C

>  <HBA2>
5

>  <HBD>
0

>  <logP>
1.0385

>  <TPSA>
55.84

>  <MW>
235.236

$$$$

 OpenBabel02121609142D

 16 17  0  0  0  0  0  0  0  0999 V2000
   -0.5333    0.0458    0.0000 C   0  0  0  0  0  0  0  0  0  0  0  0
   -0.8458   -0.9125    0.0000 N   0  0  0  0  0  0  0  0  0  0  0  0
   -0.1708   -1.6542    0.0000 C   0  0  0  0  0  0  0  0  0  0  0  0
   -0.8958    3.3583    0.0000 S   0  0  0  0  0  0  0  0  0  0  0  0
   -0.8958    1.7333    0.0000 C   0  0  0  0  0  0  0  0  0  0  0  0
   -1.4833    2.5458    0.0000 C   0  0  0  0  0  0  0  0  0  0  0  0
    0.0542    3.0458    0.0000 C   0  0  0  0  0  0  0  0  0  0  0  0
    0.0542    2.0458    0.0000 C   0  0  0  0  0  0  0  0  0  0  0  0
    0.4417    0.2500    0.0000 O   0  0  0  0  0  0  0  0  0  0  0  0
   -0.4833   -2.6042    0.0000 C   0  0  0  0  0  0  0  0  0  0  0  0
   -1.2000    0.7833    0.0000 C   0  0  0  0  0  0  0  0  0  0  0  0
   -1.4583   -2.8125    0.0000 Cl  0  0  0  0  0  0  0  0  0  0  0  0
    0.8042   -1.4417    0.0000 C   0  0  0  0  0  0  0  0  0  0  0  0
    0.1875   -3.3500    0.0000 C   0  0  0  0  0  0  0  0  0  0  0  0
    1.4750   -2.1875    0.0000 C   0  0  0  0  0  0  0  0  0  0  0  0
    1.1667   -3.1417    0.0000 C   0  0  0  0  0  0  0  0  0  0  0  0
  2  1  1  0  0  0  0
  3  2  1  0  0  0  0
  4  6  1  0  0  0  0
  5 11  1  0  0  0  0
  6  5  2  0  0  0  0
  7  8  2  0  0  0  0
  7  4  1  0  0  0  0
  8  5  1  0  0  0  0
  9  1  2  0  0  0  0
 10  3  2  0  0  0  0
 11  1  1  0  0  0  0
 12 10  1  0  0  0  0
 13  3  1  0  0  0  0
 14 10  1  0  0  0  0
 14 16  2  0  0  0  0
 15 13  2  0  0  0  0
 16 15  1  0  0  0  0
M  END
>  <idnumber>
T5387273

>  <LogP>
2.466000000000000e+000

>  <rotating_bonds>
3.000000000000000e+000

>  <hb_acceptors>
3.000000000000000e+000

>  <hb_donors>
1.000000000000000e+000

>  <PSA>
5.734000000000000e+001

>  <clusterid>
-703

>  <is_centroid>
@

>  <class1>
645

>  <class2>
625

>  <population1>
105961

>  <population2>
877209

>  <population>
84604

>  <cansmi>
O=C(Nc1ccccc1Cl)Cc1ccsc1

>  <HBA2>
3

>  <HBD>
1

>  <logP>
3.6557

>  <TPSA>
57.34

>  <MW>
251.732

$$$$

 OpenBabel02121609142D

 12 12  0  0  0  0  0  0  0  0999 V2000
   -0.5625   -0.1375    0.0000 C   0  0  0  0  0  0  0  0  0  0  0  0
    0.2667   -0.6917    0.0000 C   0  0  0  0  0  0  0  0  0  0  0  0
    1.0542   -0.0750    0.0000 N   0  0  0  0  0  0  0  0  0  0  0  0
   -0.2875    0.8250    0.0000 C   0  0  0  0  0  0  0  0  0  0  0  0
    0.7042    0.8708    0.0000 C   0  0  0  0  0  0  0  0  0  0  0  0
   -1.5000   -0.4792    0.0000 C   0  0  0  0  0  0  0  0  0  0  0  0
   -1.6708   -1.4667    0.0000 O   0  0  0  0  0  0  0  0  0  0  0  0
   -2.2708    0.1583    0.0000 O   0  0  0  0  0  0  0  0  0  0  0  0
    2.0167   -0.3417    0.0000 C   0  0  0  0  0  0  0  0  0  0  0  0
    0.3042   -1.6917    0.0000 C   0  0  0  0  0  0  0  0  0  0  0  0
    1.2667    1.6958    0.0000 C   0  0  0  0  0  0  0  0  0  0  0  0
    2.2542   -1.3167    0.0000 C   0  0  0  0  0  0  0  0  0  0  0  0
  2  1  2  0  0  0  0
  3  2  1  0  0  0  0
  3  5  1  0  0  0  0
  4  1  1  0  0  0  0
  5  4  2  0  0  0  0
  6  1  1  0  0  0  0
  7  6  2  0  0  0  0
  8  6  1  0  0  0  0
  9  3  1  0  0  0  0
 10  2  1  0  0  0  0
 11  5  1  0  0  0  0
 12  9  1  0  0  0  0
M  END
>  <idnumber>
T5387915

>  <LogP>
2.353000000000000e+000

>  <rotating_bonds>
2.000000000000000e+000

>  <hb_acceptors>
2.000000000000000e+000

>  <hb_donors>
1.000000000000000e+000

>  <PSA>
4.223000000000000e+001

>  <clusterid>
115

>  <is_centroid>
@

>  <class1>
635

>  <population1>
31512

>  <population>
31512

>  <cansmi>
CCn1c(C)cc(c1C)C(=O)O

>  <HBA2>
3

>  <HBD>
1

>  <logP>
1.823

>  <TPSA>
42.23

>  <MW>
167.205

$$$$

 OpenBabel02121609142D

 14 15  0  0  0  0  0  0  0  0999 V2000
   -1.3000   -0.5000    0.0000 N   0  0  0  0  0  0  0  0  0  0  0  0
   -0.4333    0.0000    0.0000 C   0  0  0  0  0  0  0  0  0  0  0  0
   -2.1708    0.0000    0.0000 C   0  0  0  0  0  0  0  0  0  0  0  0
   -1.3000    1.5000    0.0000 O   0  0  0  0  0  0  0  0  0  0  0  0
    0.4292   -0.5000    0.0000 C   0  0  0  0  0  0  0  0  0  0  0  0
    1.2917    0.0000    0.0000 C   0  0  0  0  0  0  0  0  0  0  0  0
   -0.4333    1.0000    0.0000 C   0  0  0  0  0  0  0  0  0  0  0  0
    2.1625   -0.5000    0.0000 C   0  0  0  0  0  0  0  0  0  0  0  0
   -3.0333   -0.5000    0.0000 O   0  0  0  0  0  0  0  0  0  0  0  0
    1.2917    1.0000    0.0000 C   0  0  0  0  0  0  0  0  0  0  0  0
   -2.1708    1.0000    0.0000 C   0  0  0  0  0  0  0  0  0  0  0  0
    0.4292    1.5000    0.0000 C   0  0  0  0  0  0  0  0  0  0  0  0
    3.0292    0.0000    0.0000 O   0  0  0  0  0  0  0  0  0  0  0  0
    2.1625   -1.5000    0.0000 C   0  0  0  0  0  0  0  0  0  0  0  0
  2  1  1  0  0  0  0
  3  1  1  0  0  0  0
  4 11  1  0  0  0  0
  5  2  1  0  0  0  0
  6  5  2  0  0  0  0
  6 10  1  0  0  0  0
  7  2  2  0  0  0  0
  7  4  1  0  0  0  0
  8  6  1  0  0  0  0
  9  3  2  0  0  0  0
 10 12  2  0  0  0  0
 11  3  1  0  0  0  0
 12  7  1  0  0  0  0
 13  8  2  0  0  0  0
 14  8  1  0  0  0  0
M  END
>  <idnumber>
T5387916

>  <LogP>
7.689999999999999e-001

>  <rotating_bonds>
1.000000000000000e+000

>  <hb_acceptors>
3.000000000000000e+000

>  <hb_donors>
1.000000000000000e+000

>  <PSA>
5.540000000000000e+001

>  <clusterid>
-704

>  <is_centroid>
@

>  <class1>
822

>  <population1>
2937

>  <population>
2937

>  <cansmi>
O=C1COc2c(N1)cc(cc2)C(=O)C

>  <HBA2>
4

>  <HBD>
1

>  <logP>
1.3581

>  <TPSA>
55.4

>  <MW>
191.183

$$$$

 OpenBabel02121609142D

 17 18  0  0  0  0  0  0  0  0999 V2000
   -0.0583    1.5000    0.0000 C   0  0  0  0  0  0  0  0  0  0  0  0
   -1.0083    1.1958    0.0000 O   0  0  0  0  0  0  0  0  0  0  0  0
   -0.0583    2.5000    0.0000 C   0  0  0  0  0  0  0  0  0  0  0  0
   -1.5958    2.0000    0.0000 C   0  0  0  0  0  0  0  0  0  0  0  0
   -1.0083    2.8125    0.0000 C   0  0  0  0  0  0  0  0  0  0  0  0
    1.6792   -1.5000    0.0000 C   0  0  0  0  0  0  0  0  0  0  0  0
    0.8125    1.0000    0.0000 C   0  0  0  0  0  0  0  0  0  0  0  0
    0.8125    0.0000    0.0000 O   0  0  0  0  0  0  0  0  0  0  0  0
    0.8125   -2.0000    0.0000 O   0  0  0  0  0  0  0  0  0  0  0  0
    1.6792   -0.5000    0.0000 C   0  0  0  0  0  0  0  0  0  0  0  0
    2.5417   -2.0000    0.0000 N   0  0  0  0  0  0  0  0  0  0  0  0
    0.8125    3.0000    0.0000 C   0  0  0  0  0  0  0  0  0  0  0  0
   -2.5500    1.7083    0.0000 C   0  0  0  0  0  0  0  0  0  0  0  0
   -2.5500    2.2958    0.0000 C   0  0  0  0  0  0  0  0  0  0  0  0
    1.6792    2.5000    0.0000 C   0  0  0  0  0  0  0  0  0  0  0  0
    1.6792    1.5000    0.0000 C   0  0  0  0  0  0  0  0  0  0  0  0
    2.5417   -3.0000    0.0000 C   0  0  0  0  0  0  0  0  0  0  0  0
  2  1  1  0  0  0  0
  3  1  1  0  0  0  0
  4  2  1  0  0  0  0
  5  3  1  0  0  0  0
  5  4  1  0  0  0  0
  6 10  1  0  0  0  0
  7  1  2  0  0  0  0
  8  7  1  0  0  0  0
  9  6  2  0  0  0  0
 10  8  1  0  0  0  0
 11  6  1  0  0  0  0
 12  3  2  0  0  0  0
 13  4  1  0  0  0  0
 14  4  1  0  0  0  0
 15 16  2  0  0  0  0
 15 12  1  0  0  0  0
 16  7  1  0  0  0  0
 17 11  1  0  0  0  0
M  END
>  <idnumber>
T5389369

>  <LogP>
2.084000000000000e+000

>  <rotating_bonds>
3.000000000000000e+000

>  <hb_acceptors>
3.000000000000000e+000

>  <hb_donors>
1.000000000000000e+000

>  <PSA>
4.756000000000000e+001

>  <clusterid>
-707

>  <is_centroid>
@

>  <class1>
803

>  <population1>
2603

>  <population>
2603

>  <cansmi>
CNC(=O)COc1cccc2c1OC(C2)(C)C

>  <HBA2>
4

>  <HBD>
1

>  <logP>
1.9158

>  <TPSA>
47.56

>  <MW>
235.279

$$$$

 OpenBabel02121609142D

 14 15  0  0  0  0  0  0  0  0999 V2000
    0.7292   -0.8500    0.0000 N   0  0  0  0  0  0  0  0  0  0  0  0
    1.3167   -1.6542    0.0000 C   0  0  0  0  0  0  0  0  0  0  0  0
    1.3167   -0.0417    0.0000 N   0  0  0  0  0  0  0  0  0  0  0  0
    2.2667   -1.3500    0.0000 C   0  0  0  0  0  0  0  0  0  0  0  0
    2.2667   -0.3500    0.0000 C   0  0  0  0  0  0  0  0  0  0  0  0
   -0.2708   -0.8500    0.0000 C   0  0  0  0  0  0  0  0  0  0  0  0
    1.0042   -2.6042    0.0000 N   0  0  0  0  0  0  0  0  0  0  0  0
   -0.7708    0.0208    0.0000 C   0  0  0  0  0  0  0  0  0  0  0  0
   -1.7708    1.7500    0.0000 C   0  0  0  0  0  0  0  0  0  0  0  0
   -2.2708    2.6125    0.0000 Br  0  0  0  0  0  0  0  0  0  0  0  0
   -0.2708    0.8833    0.0000 C   0  0  0  0  0  0  0  0  0  0  0  0
   -1.7708    0.0208    0.0000 C   0  0  0  0  0  0  0  0  0  0  0  0
   -2.2708    0.8833    0.0000 C   0  0  0  0  0  0  0  0  0  0  0  0
   -0.7708    1.7500    0.0000 C   0  0  0  0  0  0  0  0  0  0  0  0
  2  1  1  0  0  0  0
  3  1  1  0  0  0  0
  4  2  2  0  0  0  0
  4  5  1  0  0  0  0
  5  3  2  0  0  0  0
  6  1  1  0  0  0  0
  7  2  1  0  0  0  0
  8  6  1  0  0  0  0
  9 13  2  0  0  0  0
 10  9  1  0  0  0  0
 11  8  1  0  0  0  0
 12  8  2  0  0  0  0
 13 12  1  0  0  0  0
 14 11  2  0  0  0  0
 14  9  1  0  0  0  0
M  END
>  <idnumber>
T5394152

>  <LogP>
2.103000000000000e+000

>  <rotating_bonds>
2.000000000000000e+000

>  <hb_acceptors>
2.000000000000000e+000

>  <hb_donors>
1.000000000000000e+000

>  <PSA>
4.384000000000000e+001

>  <clusterid>
-711

>  <is_centroid>
@

>  <class1>
631

>  <class2>
625

>  <population1>
41612

>  <population2>
877209

>  <population>
39300

>  <cansmi>
Brc1ccc(cc1)Cn1nccc1N

>  <HBA2>
3

>  <HBD>
1

>  <logP>
2.8573

>  <TPSA>
43.84

>  <MW>
252.111

$$$$

 OpenBabel02121609142D

 16 18  0  0  0  0  0  0  0  0999 V2000
   -0.3708    0.0000    0.0000 C   0  0  0  0  0  0  0  0  0  0  0  0
   -0.9583    0.8125    0.0000 N   0  0  0  0  0  0  0  0  0  0  0  0
    0.6292    0.0000    0.0000 C   0  0  0  0  0  0  0  0  0  0  0  0
   -0.9583   -0.8042    0.0000 N   0  0  0  0  0  0  0  0  0  0  0  0
    1.1292   -0.8625    0.0000 C   0  0  0  0  0  0  0  0  0  0  0  0
    2.1292   -0.8625    0.0000 N   0  0  0  0  0  0  0  0  0  0  0  0
    1.1292    0.8708    0.0000 C   0  0  0  0  0  0  0  0  0  0  0  0
   -1.9083    0.5000    0.0000 C   0  0  0  0  0  0  0  0  0  0  0  0
    2.6292    0.0000    0.0000 C   0  0  0  0  0  0  0  0  0  0  0  0
   -1.9083   -0.5000    0.0000 C   0  0  0  0  0  0  0  0  0  0  0  0
    2.1292    0.8708    0.0000 C   0  0  0  0  0  0  0  0  0  0  0  0
    3.6292    0.0000    0.0000 O   0  0  0  0  0  0  0  0  0  0  0  0
   -2.7708    1.0000    0.0000 C   0  0  0  0  0  0  0  0  0  0  0  0
   -2.7708   -1.0000    0.0000 C   0  0  0  0  0  0  0  0  0  0  0  0
   -3.6375   -0.5000    0.0000 C   0  0  0  0  0  0  0  0  0  0  0  0
   -3.6375    0.5000    0.0000 C   0  0  0  0  0  0  0  0  0  0  0  0
  2  1  2  0  0  0  0
  3  1  1  0  0  0  0
  4  1  1  0  0  0  0
  5  3  2  0  0  0  0
  6  5  1  0  0  0  0
  6  9  1  0  0  0  0
  7  3  1  0  0  0  0
  8  2  1  0  0  0  0
  8 10  2  0  0  0  0
  9 11  1  0  0  0  0
 10  4  1  0  0  0  0
 11  7  2  0  0  0  0
 12  9  2  0  0  0  0
 13  8  1  0  0  0  0
 14 10  1  0  0  0  0
 15 14  2  0  0  0  0
 16 13  2  0  0  0  0
 16 15  1  0  0  0  0
M  END
>  <idnumber>
T5395963

>  <LogP>
2.678000000000000e+000

>  <rotating_bonds>
1.000000000000000e+000

>  <hb_acceptors>
2.000000000000000e+000

>  <hb_donors>
2.000000000000000e+000

>  <PSA>
5.778000000000000e+001

>  <clusterid>
-714

>  <is_centroid>
@

>  <class1>
696

>  <class2>
685

>  <population1>
4759

>  <population2>
28767

>  <population>
42

>  <cansmi>
O=c1ccc(c[nH]1)c1nc2c([nH]1)cccc2

>  <HBA2>
2

>  <HBD>
2

>  <logP>
1.9182

>  <TPSA>
61.54

>  <MW>
211.219

$$$$

 OpenBabel02121609142D

  9  8  0  0  0  0  0  0  0  0999 V2000
    2.2250    0.3458    0.0000 C   0  0  0  0  0  0  0  0  0  0  0  0
    1.3250    0.7833    0.0000 N   0  0  0  0  0  0  0  0  0  0  0  0
    0.5000    0.2208    0.0000 C   0  0  0  0  0  0  0  0  0  0  0  0
    2.7875   -0.4792    0.0000 C   0  0  0  0  0  0  0  0  0  0  0  0
    3.2250    0.4208    0.0000 C   0  0  0  0  0  0  0  0  0  0  0  0
    0.5667   -0.7792    0.0000 O   0  0  0  0  0  0  0  0  0  0  0  0
   -3.2333    0.1583    0.0000 Cl  0  0  0  0  0  0  0  0  0  0  0  0
   -1.2333    0.0958    0.0000 N   0  0  0  0  0  0  0  0  0  0  0  0
   -0.4000    0.6583    0.0000 C   0  0  0  0  0  0  0  0  0  0  0  0
  2  1  1  0  0  0  0
  3  2  1  0  0  0  0
  4  1  1  0  0  0  0
  4  5  1  0  0  0  0
  5  1  1  0  0  0  0
  6  3  2  0  0  0  0
  8  9  1  0  0  0  0
  9  3  1  0  0  0  0
M  END
>  <idnumber>
T5395965

>  <saltdata>
HCl

>  <LogP>
-1.251000000000000e+000

>  <rotating_bonds>
2.000000000000000e+000

>  <hb_acceptors>
2.000000000000000e+000

>  <hb_donors>
2.000000000000000e+000

>  <PSA>
5.512000000000001e+001

>  <clusterid>
-715

>  <is_centroid>
@

>  <class1>
675

>  <population1>
33654

>  <population>
33654

>  <cansmi>
NCC(=O)NC1CC1.Cl

>  <HBA2>
3

>  <HBD>
3

>  <logP>
1.1169

>  <TPSA>
55.12

>  <MW>
150.607

$$$$

 OpenBabel02121609142D

 11 11  0  0  0  0  0  0  0  0999 V2000
   -0.4333    0.0000    0.0000 N   0  0  0  0  0  0  0  0  0  0  0  0
   -0.4333   -2.0000    0.0000 N   0  0  0  0  0  0  0  0  0  0  0  0
    0.4292   -1.4917    0.0000 C   0  0  0  0  0  0  0  0  0  0  0  0
   -1.3000   -1.4917    0.0000 C   0  0  0  0  0  0  0  0  0  0  0  0
   -1.3000   -0.4917    0.0000 C   0  0  0  0  0  0  0  0  0  0  0  0
    0.4292   -0.4917    0.0000 C   0  0  0  0  0  0  0  0  0  0  0  0
    1.2917    3.0000    0.0000 N   0  0  0  0  0  0  0  0  0  0  0  0
   -0.4333    1.0000    0.0000 C   0  0  0  0  0  0  0  0  0  0  0  0
    0.4292    1.5000    0.0000 C   0  0  0  0  0  0  0  0  0  0  0  0
   -0.4333   -3.0000    0.0000 C   0  0  0  0  0  0  0  0  0  0  0  0
    0.4292    2.5000    0.0000 C   0  0  0  0  0  0  0  0  0  0  0  0
  2  3  1  0  0  0  0
  3  6  1  0  0  0  0
  4  5  1  0  0  0  0
  4  2  1  0  0  0  0
  5  1  1  0  0  0  0
  6  1  1  0  0  0  0
  7 11  1  0  0  0  0
  8  1  1  0  0  0  0
  9  8  1  0  0  0  0
 10  2  1  0  0  0  0
 11  9  1  0  0  0  0
M  END
>  <idnumber>
T5400165

>  <LogP>
-1.005000000000000e+000

>  <rotating_bonds>
3.000000000000000e+000

>  <hb_acceptors>
3.000000000000000e+000

>  <hb_donors>
1.000000000000000e+000

>  <PSA>
3.250000000000000e+001

>  <clusterid>
-717

>  <is_centroid>
@

>  <class1>
717

>  <population1>
74368

>  <population>
74368

>  <cansmi>
NCCCN1CCN(CC1)C

>  <HBA2>
3

>  <HBD>
1

>  <logP>
0.1587

>  <TPSA>
32.5

>  <MW>
157.257

$$$$

 OpenBabel02121609142D

 16 16  0  0  0  0  0  0  0  0999 V2000
    0.5417    0.4458    0.0000 N   0  0  0  0  0  0  0  0  0  0  0  0
    1.1292   -0.3625    0.0000 C   0  0  0  0  0  0  0  0  0  0  0  0
    0.5417   -1.1750    0.0000 O   0  0  0  0  0  0  0  0  0  0  0  0
   -0.4083    0.1375    0.0000 C   0  0  0  0  0  0  0  0  0  0  0  0
   -0.4083   -0.8625    0.0000 C   0  0  0  0  0  0  0  0  0  0  0  0
    2.1292   -0.3625    0.0000 C   0  0  3  0  0  0  0  0  0  0  0  0
    2.6292    0.5083    0.0000 C   0  0  0  0  0  0  0  0  0  0  0  0
    2.6292   -1.2292    0.0000 N   0  0  0  0  0  0  0  0  0  0  0  0
   -4.1458   -0.1917    0.0000 Cl  0  0  0  0  0  0  0  0  0  0  0  0
   -1.2708    0.6375    0.0000 C   0  0  0  0  0  0  0  0  0  0  0  0
   -1.2708   -1.3625    0.0000 C   0  0  0  0  0  0  0  0  0  0  0  0
    3.6292    0.5083    0.0000 C   0  0  0  0  0  0  0  0  0  0  0  0
    4.1292   -0.3625    0.0000 C   0  0  0  0  0  0  0  0  0  0  0  0
    4.1292    1.3708    0.0000 C   0  0  0  0  0  0  0  0  0  0  0  0
   -2.1375   -0.8625    0.0000 C   0  0  0  0  0  0  0  0  0  0  0  0
   -2.1375    0.1375    0.0000 C   0  0  0  0  0  0  0  0  0  0  0  0
  2  1  2  0  0  0  0
  3  2  1  0  0  0  0
  4  1  1  0  0  0  0
  5  4  2  0  0  0  0
  5  3  1  0  0  0  0
  6  2  1  0  0  0  0
  7  6  1  0  0  0  0
  8  6  1  0  0  0  0
 10  4  1  0  0  0  0
 11  5  1  0  0  0  0
 11 15  2  0  0  0  0
 12  7  1  0  0  0  0
 13 12  1  0  0  0  0
 14 12  1  0  0  0  0
 15 16  1  0  0  0  0
 16 10  2  0  0  0  0
M  END
>  <idnumber>
T5403837

>  <saltdata>
HCl

>  <LogP>
2.133000000000000e+000

>  <rotating_bonds>
3.000000000000000e+000

>  <hb_acceptors>
2.000000000000000e+000

>  <hb_donors>
1.000000000000000e+000

>  <PSA>
5.205000000000000e+001

>  <clusterid>
-721

>  <is_centroid>
@

>  <class1>
752

>  <population1>
4005

>  <population>
4005

>  <cansmi>
CC(CC(c1nc2c(o1)cccc2)N)C.Cl

>  <HBA2>
3

>  <HBD>
2

>  <logP>
4.376

>  <TPSA>
52.05

>  <MW>
240.729

$$$$

 OpenBabel02121609142D

 17 19  0  0  0  0  0  0  0  0999 V2000
   -0.6208    0.0000    0.0000 C   0  0  0  0  0  0  0  0  0  0  0  0
   -1.2083    0.8125    0.0000 N   0  0  0  0  0  0  0  0  0  0  0  0
   -1.2083   -0.8042    0.0000 O   0  0  0  0  0  0  0  0  0  0  0  0
    0.3792    0.0000    0.0000 N   0  0  0  0  0  0  0  0  0  0  0  0
   -2.1583    0.5000    0.0000 C   0  0  0  0  0  0  0  0  0  0  0  0
   -2.1583   -0.5000    0.0000 C   0  0  0  0  0  0  0  0  0  0  0  0
    2.3792    0.0000    0.0000 N   0  0  0  0  0  0  0  0  0  0  0  0
    0.8792   -0.8625    0.0000 C   0  0  0  0  0  0  0  0  0  0  0  0
    0.8792    0.8708    0.0000 C   0  0  0  0  0  0  0  0  0  0  0  0
    1.8792   -0.8625    0.0000 C   0  0  0  0  0  0  0  0  0  0  0  0
    1.8792    0.8708    0.0000 C   0  0  0  0  0  0  0  0  0  0  0  0
    3.3792    0.0000    0.0000 C   0  0  0  0  0  0  0  0  0  0  0  0
   -3.0208    1.0000    0.0000 C   0  0  0  0  0  0  0  0  0  0  0  0
   -3.0208   -1.0000    0.0000 C   0  0  0  0  0  0  0  0  0  0  0  0
    3.8792    0.8708    0.0000 C   0  0  0  0  0  0  0  0  0  0  0  0
   -3.8958   -0.5000    0.0000 C   0  0  0  0  0  0  0  0  0  0  0  0
   -3.8958    0.5000    0.0000 C   0  0  0  0  0  0  0  0  0  0  0  0
  2  1  2  0  0  0  0
  3  1  1  0  0  0  0
  4  1  1  0  0  0  0
  5  2  1  0  0  0  0
  5  6  2  0  0  0  0
  6  3  1  0  0  0  0
  7 11  1  0  0  0  0
  8  4  1  0  0  0  0
  9  4  1  0  0  0  0
 10  8  1  0  0  0  0
 10  7  1  0  0  0  0
 11  9  1  0  0  0  0
 12  7  1  0  0  0  0
 13  5  1  0  0  0  0
 14  6  1  0  0  0  0
 15 12  1  0  0  0  0
 16 14  2  0  0  0  0
 17 13  2  0  0  0  0
 17 16  1  0  0  0  0
M  END
>  <idnumber>
T5403867

>  <LogP>
1.878000000000000e+000

>  <rotating_bonds>
2.000000000000000e+000

>  <hb_acceptors>
3.000000000000000e+000

>  <hb_donors>
0.000000000000000e+000

>  <PSA>
3.251000000000000e+001

>  <clusterid>
451

>  <is_centroid>
@

>  <class1>
717

>  <class2>
752

>  <population1>
74368

>  <population2>
4005

>  <population>
164

>  <cansmi>
CCN1CCN(CC1)c1nc2c(o1)cccc2

>  <HBA2>
4

>  <HBD>
0

>  <logP>
1.9726

>  <TPSA>
32.51

>  <MW>
231.294

$$$$

 OpenBabel02121609142D

 17 18  0  0  0  0  0  0  0  0999 V2000
    1.2917   -0.0167    0.0000 C   0  0  0  0  0  0  0  0  0  0  0  0
    0.4292   -0.5167    0.0000 C   0  0  0  0  0  0  0  0  0  0  0  0
    2.1625   -0.5167    0.0000 C   0  0  0  0  0  0  0  0  0  0  0  0
    1.2917   -2.0167    0.0000 C   0  0  0  0  0  0  0  0  0  0  0  0
   -0.4333   -0.0167    0.0000 N   0  0  0  0  0  0  0  0  0  0  0  0
   -2.1708    0.9833    0.0000 N   0  0  0  0  0  0  0  0  0  0  0  0
    0.4292   -1.5167    0.0000 C   0  0  0  0  0  0  0  0  0  0  0  0
    3.0292   -0.0167    0.0000 O   0  0  0  0  0  0  0  0  0  0  0  0
    2.1625   -1.5167    0.0000 C   0  0  0  0  0  0  0  0  0  0  0  0
   -1.3000    1.4833    0.0000 C   0  0  0  0  0  0  0  0  0  0  0  0
   -0.4333    0.9833    0.0000 C   0  0  0  0  0  0  0  0  0  0  0  0
    1.5917   -2.9750    0.0000 C   0  0  0  0  0  0  0  0  0  0  0  0
    1.0000   -2.9750    0.0000 C   0  0  0  0  0  0  0  0  0  0  0  0
   -3.0333    1.4833    0.0000 C   0  0  0  0  0  0  0  0  0  0  0  0
   -1.3000    2.4833    0.0000 C   0  0  0  0  0  0  0  0  0  0  0  0
   -3.0333    2.4833    0.0000 C   0  0  0  0  0  0  0  0  0  0  0  0
   -2.1708    2.9833    0.0000 C   0  0  0  0  0  0  0  0  0  0  0  0
  2  1  2  0  0  0  0
  3  1  1  0  0  0  0
  4  9  1  0  0  0  0
  5  2  1  0  0  0  0
  6 10  2  0  0  0  0
  7  2  1  0  0  0  0
  7  4  1  0  0  0  0
  8  3  2  0  0  0  0
  9  3  1  0  0  0  0
 10 11  1  0  0  0  0
 11  5  1  0  0  0  0
 12  4  1  0  0  0  0
 13  4  1  0  0  0  0
 14  6  1  0  0  0  0
 14 16  2  0  0  0  0
 15 10  1  0  0  0  0
 16 17  1  0  0  0  0
 17 15  2  0  0  0  0
M  END
>  <idnumber>
T5405918

>  <LogP>
1.876000000000000e+000

>  <rotating_bonds>
3.000000000000000e+000

>  <hb_acceptors>
3.000000000000000e+000

>  <hb_donors>
1.000000000000000e+000

>  <PSA>
4.199000000000000e+001

>  <clusterid>
-724

>  <is_centroid>
@

>  <class1>
906

>  <class2>
632

>  <population1>
1170

>  <population2>
79489

>  <population>
55

>  <cansmi>
O=C1C=C(NCc2ccccn2)CC(C1)(C)C

>  <HBA2>
3

>  <HBD>
1

>  <logP>
2.8351

>  <TPSA>
41.99

>  <MW>
230.306

$$$$

 OpenBabel02121609142D

 13 13  0  0  0  0  0  0  0  0999 V2000
    1.0000    1.0000    0.0000 O   0  0  0  0  0  0  0  0  0  0  0  0
    0.1292   -0.5000    0.0000 C   0  0  0  0  0  0  0  0  0  0  0  0
    0.1292    0.5000    0.0000 C   0  0  0  0  0  0  0  0  0  0  0  0
    1.0000   -1.0000    0.0000 C   0  0  0  0  0  0  0  0  0  0  0  0
    1.8625   -0.5000    0.0000 C   0  0  3  0  0  0  0  0  0  0  0  0
    1.8625    0.5000    0.0000 C   0  0  0  0  0  0  0  0  0  0  0  0
   -3.6000   -0.1250    0.0000 Cl  0  0  0  0  0  0  0  0  0  0  0  0
    3.5917   -0.5000    0.0000 N   0  0  0  0  0  0  0  0  0  0  0  0
    2.7292   -1.0000    0.0000 C   0  0  0  0  0  0  0  0  0  0  0  0
   -0.7333   -1.0000    0.0000 C   0  0  0  0  0  0  0  0  0  0  0  0
   -0.7333    1.0000    0.0000 C   0  0  0  0  0  0  0  0  0  0  0  0
   -1.6000   -0.5000    0.0000 C   0  0  0  0  0  0  0  0  0  0  0  0
   -1.6000    0.5000    0.0000 C   0  0  0  0  0  0  0  0  0  0  0  0
  2  3  2  0  0  0  0
  2  4  1  0  0  0  0
  3  1  1  0  0  0  0
  4  5  1  0  0  0  0
  5  6  1  0  0  0  0
  6  1  1  0  0  0  0
  8  9  1  0  0  0  0
  9  5  1  0  0  0  0
 10  2  1  0  0  0  0
 10 12  2  0  0  0  0
 11  3  1  0  0  0  0
 12 13  1  0  0  0  0
 13 11  2  0  0  0  0
M  END
>  <idnumber>
T5408176

>  <saltdata>
HCl

>  <LogP>
1.237000000000000e+000

>  <rotating_bonds>
1.000000000000000e+000

>  <hb_acceptors>
2.000000000000000e+000

>  <hb_donors>
1.000000000000000e+000

>  <PSA>
3.525000000000000e+001

>  <clusterid>
-727

>  <is_centroid>
@

>  <class1>
766

>  <population1>
1661

>  <population>
1661

>  <cansmi>
NCC1COc2c(C1)cccc2.Cl

>  <HBA2>
2

>  <HBD>
2

>  <logP>
2.6987

>  <TPSA>
35.25

>  <MW>
199.677

$$$$

 OpenBabel02121609142D

 12 13  0  0  0  0  0  0  0  0999 V2000
    0.4292   -0.5000    0.0000 C   0  0  0  0  0  0  0  0  0  0  0  0
    0.4292    1.5000    0.0000 N   0  0  0  0  0  0  0  0  0  0  0  0
    1.2917    0.0000    0.0000 O   0  0  0  0  0  0  0  0  0  0  0  0
   -0.4333    0.0000    0.0000 C   0  0  0  0  0  0  0  0  0  0  0  0
    1.2917    1.0000    0.0000 C   0  0  0  0  0  0  0  0  0  0  0  0
   -0.4333    1.0000    0.0000 C   0  0  0  0  0  0  0  0  0  0  0  0
    0.4292   -1.5000    0.0000 O   0  0  0  0  0  0  0  0  0  0  0  0
   -1.3000   -0.5000    0.0000 C   0  0  0  0  0  0  0  0  0  0  0  0
    2.1625    1.5000    0.0000 C   0  0  0  0  0  0  0  0  0  0  0  0
   -1.3000    1.5000    0.0000 C   0  0  0  0  0  0  0  0  0  0  0  0
   -2.1708    0.0000    0.0000 C   0  0  0  0  0  0  0  0  0  0  0  0
   -2.1708    1.0000    0.0000 C   0  0  0  0  0  0  0  0  0  0  0  0
  2  6  1  0  0  0  0
  3  1  1  0  0  0  0
  4  1  1  0  0  0  0
  5  3  1  0  0  0  0
  5  2  2  0  0  0  0
  6  4  2  0  0  0  0
  7  1  2  0  0  0  0
  8  4  1  0  0  0  0
  9  5  1  0  0  0  0
 10  6  1  0  0  0  0
 10 12  2  0  0  0  0
 11  8  2  0  0  0  0
 12 11  1  0  0  0  0
M  END
>  <idnumber>
T5409542

>  <LogP>
9.550000000000004e-001

>  <rotating_bonds>
0.000000000000000e+000

>  <hb_acceptors>
2.000000000000000e+000

>  <hb_donors>
0.000000000000000e+000

>  <PSA>
3.866000000000000e+001

>  <clusterid>
-728

>  <is_centroid>
@

>  <class1>
657

>  <population1>
69

>  <population>
69

>  <cansmi>
Cc1nc2ccccc2c(=O)o1

>  <HBA2>
3

>  <HBD>
0

>  <logP>
1.4964

>  <TPSA>
43.1

>  <MW>
161.157

$$$$

 OpenBabel02121609142D

 12 13  0  0  0  0  0  0  0  0999 V2000
    0.4542   -0.8417    0.0000 N   0  0  0  0  0  0  0  0  0  0  0  0
    1.4292   -0.6167    0.0000 C   0  0  0  0  0  0  0  0  0  0  0  0
   -0.3250   -0.2167    0.0000 C   0  0  0  0  0  0  0  0  0  0  0  0
    0.4542    1.4083    0.0000 S   0  0  0  0  0  0  0  0  0  0  0  0
   -0.3250    0.7833    0.0000 C   0  0  0  0  0  0  0  0  0  0  0  0
    1.8625    0.2833    0.0000 C   0  0  0  0  0  0  0  0  0  0  0  0
    2.0542   -1.4000    0.0000 O   0  0  0  0  0  0  0  0  0  0  0  0
    1.4292    1.1833    0.0000 C   0  0  0  0  0  0  0  0  0  0  0  0
   -1.1958   -0.7167    0.0000 C   0  0  0  0  0  0  0  0  0  0  0  0
   -1.1958    1.2833    0.0000 C   0  0  0  0  0  0  0  0  0  0  0  0
   -2.0583   -0.2167    0.0000 C   0  0  0  0  0  0  0  0  0  0  0  0
   -2.0583    0.7833    0.0000 C   0  0  0  0  0  0  0  0  0  0  0  0
  2  1  1  0  0  0  0
  3  1  1  0  0  0  0
  4  5  1  0  0  0  0
  5  3  2  0  0  0  0
  6  2  1  0  0  0  0
  7  2  2  0  0  0  0
  8  6  1  0  0  0  0
  8  4  1  0  0  0  0
  9  3  1  0  0  0  0
 10  5  1  0  0  0  0
 10 12  2  0  0  0  0
 11  9  2  0  0  0  0
 12 11  1  0  0  0  0
M  END
>  <idnumber>
T5410452

>  <LogP>
1.636000000000000e+000

>  <rotating_bonds>
0.000000000000000e+000

>  <hb_acceptors>
2.000000000000000e+000

>  <hb_donors>
1.000000000000000e+000

>  <PSA>
5.440000000000001e+001

>  <clusterid>
-729

>  <is_centroid>
@

>  <class1>
700

>  <population1>
119

>  <population>
119

>  <cansmi>
O=C1CCSc2c(N1)cccc2

>  <HBA2>
3

>  <HBD>
1

>  <logP>
2.2589

>  <TPSA>
54.4

>  <MW>
179.239

$$$$

 OpenBabel02121609142D

 17 19  0  0  0  0  0  0  0  0999 V2000
   -0.1750   -0.3417    0.0000 C   0  0  0  0  0  0  0  0  0  0  0  0
   -0.7625    0.4708    0.0000 N   0  0  0  0  0  0  0  0  0  0  0  0
   -0.7625   -1.1500    0.0000 N   0  0  0  0  0  0  0  0  0  0  0  0
    1.3250    0.5250    0.0000 C   0  0  0  0  0  0  0  0  0  0  0  0
    2.3167    0.6333    0.0000 N   0  0  0  0  0  0  0  0  0  0  0  0
    0.8250   -0.3417    0.0000 C   0  0  0  0  0  0  0  0  0  0  0  0
   -1.7125   -0.8417    0.0000 C   0  0  0  0  0  0  0  0  0  0  0  0
   -1.7125    0.1583    0.0000 C   0  0  0  0  0  0  0  0  0  0  0  0
    0.9167    1.4375    0.0000 S   0  0  0  0  0  0  0  0  0  0  0  0
    2.5292    1.6083    0.0000 C   0  0  0  0  0  0  0  0  0  0  0  0
    1.6625    2.1083    0.0000 C   0  0  0  0  0  0  0  0  0  0  0  0
   -0.4583   -2.1042    0.0000 C   0  0  0  0  0  0  0  0  0  0  0  0
   -2.5833   -1.3417    0.0000 C   0  0  0  0  0  0  0  0  0  0  0  0
   -2.5833    0.6583    0.0000 C   0  0  0  0  0  0  0  0  0  0  0  0
    3.4417    2.0208    0.0000 C   0  0  0  0  0  0  0  0  0  0  0  0
   -3.4458   -0.8417    0.0000 C   0  0  0  0  0  0  0  0  0  0  0  0
   -3.4458    0.1583    0.0000 C   0  0  0  0  0  0  0  0  0  0  0  0
  2  1  2  0  0  0  0
  3  1  1  0  0  0  0
  4  6  1  0  0  0  0
  5  4  2  0  0  0  0
  6  1  1  0  0  0  0
  7  3  1  0  0  0  0
  8  2  1  0  0  0  0
  8  7  2  0  0  0  0
  9  4  1  0  0  0  0
 10  5  1  0  0  0  0
 10 11  2  0  0  0  0
 11  9  1  0  0  0  0
 12  3  1  0  0  0  0
 13  7  1  0  0  0  0
 14  8  1  0  0  0  0
 15 10  1  0  0  0  0
 16 13  2  0  0  0  0
 17 14  2  0  0  0  0
 17 16  1  0  0  0  0
M  END
>  <idnumber>
T5410466

>  <LogP>
2.491000000000000e+000

>  <rotating_bonds>
2.000000000000000e+000

>  <hb_acceptors>
3.000000000000000e+000

>  <hb_donors>
0.000000000000000e+000

>  <PSA>
5.895000000000000e+001

>  <clusterid>
-730

>  <is_centroid>
@

>  <class1>
733

>  <class2>
685

>  <population1>
49846

>  <population2>
28767

>  <population>
762

>  <cansmi>
Cc1csc(n1)Cc1nc2c(n1C)cccc2

>  <HBA2>
4

>  <HBD>
0

>  <logP>
2.929

>  <TPSA>
58.95

>  <MW>
243.327

$$$$

 OpenBabel02121609142D

 15 17  0  0  0  0  0  0  0  0999 V2000
    0.5125    0.0208    0.0000 N   0  0  0  0  0  0  0  0  0  0  0  0
   -0.4375   -0.2875    0.0000 N   0  0  0  0  0  0  0  0  0  0  0  0
   -0.4375   -1.2875    0.0000 C   0  0  0  0  0  0  0  0  0  0  0  0
    0.5125   -1.6000    0.0000 C   0  0  0  0  0  0  0  0  0  0  0  0
    1.1000   -0.7875    0.0000 C   0  0  0  0  0  0  0  0  0  0  0  0
    2.1000   -0.7875    0.0000 C   0  0  0  0  0  0  0  0  0  0  0  0
    2.9667   -1.2875    0.0000 C   0  0  0  0  0  0  0  0  0  0  0  0
    2.9667   -0.2875    0.0000 C   0  0  0  0  0  0  0  0  0  0  0  0
   -1.2458    0.3000    0.0000 C   0  0  0  0  0  0  0  0  0  0  0  0
   -1.2458   -1.8750    0.0000 N   0  0  0  0  0  0  0  0  0  0  0  0
   -2.1625   -0.1042    0.0000 C   0  0  0  0  0  0  0  0  0  0  0  0
   -1.1458    1.2958    0.0000 C   0  0  0  0  0  0  0  0  0  0  0  0
   -1.9583    1.8833    0.0000 C   0  0  0  0  0  0  0  0  0  0  0  0
   -2.9708    0.4833    0.0000 C   0  0  0  0  0  0  0  0  0  0  0  0
   -2.8708    1.4750    0.0000 C   0  0  0  0  0  0  0  0  0  0  0  0
  2  1  1  0  0  0  0
  3  2  1  0  0  0  0
  3  4  2  0  0  0  0
  4  5  1  0  0  0  0
  5  1  2  0  0  0  0
  6  5  1  0  0  0  0
  7  6  1  0  0  0  0
  7  8  1  0  0  0  0
  8  6  1  0  0  0  0
  9  2  1  0  0  0  0
 10  3  1  0  0  0  0
 11  9  2  0  0  0  0
 12  9  1  0  0  0  0
 13 12  2  0  0  0  0
 14 11  1  0  0  0  0
 14 15  2  0  0  0  0
 15 13  1  0  0  0  0
M  END
>  <idnumber>
T5410480

>  <LogP>
2.125000000000000e+000

>  <rotating_bonds>
2.000000000000000e+000

>  <hb_acceptors>
2.000000000000000e+000

>  <hb_donors>
1.000000000000000e+000

>  <PSA>
4.384000000000000e+001

>  <clusterid>
-732

>  <is_centroid>
@

>  <class1>
675

>  <class2>
631

>  <class3>
625

>  <population1>
33654

>  <population2>
41612

>  <population3>
877209

>  <population>
1398

>  <cansmi>
Nc1cc(nn1c1ccccc1)C1CC1

>  <HBA2>
3

>  <HBD>
1

>  <logP>
2.9131

>  <TPSA>
43.84

>  <MW>
199.252

$$$$

 OpenBabel02121609142D

 15 17  0  0  0  0  0  0  0  0999 V2000
   -0.1708    0.9583    0.0000 N   0  0  0  0  0  0  0  0  0  0  0  0
   -0.7583    0.1458    0.0000 C   0  0  3  0  0  0  0  0  0  0  0  0
   -1.7083    0.4583    0.0000 S   0  0  0  0  0  0  0  0  0  0  0  0
   -0.7583    1.7625    0.0000 C   0  0  0  0  0  0  0  0  0  0  0  0
    0.8292    0.9583    0.0000 C   0  0  0  0  0  0  0  0  0  0  0  0
    1.7000    0.4583    0.0000 C   0  0  0  0  0  0  0  0  0  0  0  0
    1.7000    1.4583    0.0000 C   0  0  0  0  0  0  0  0  0  0  0  0
   -1.7083    1.4583    0.0000 C   0  0  0  0  0  0  0  0  0  0  0  0
   -0.4458   -0.8042    0.0000 C   0  0  0  0  0  0  0  0  0  0  0  0
   -0.4458    2.7125    0.0000 O   0  0  0  0  0  0  0  0  0  0  0  0
   -1.1125   -1.5500    0.0000 C   0  0  0  0  0  0  0  0  0  0  0  0
    0.5292   -1.0167    0.0000 C   0  0  0  0  0  0  0  0  0  0  0  0
    0.8417   -1.9667    0.0000 C   0  0  0  0  0  0  0  0  0  0  0  0
   -0.8083   -2.5000    0.0000 C   0  0  0  0  0  0  0  0  0  0  0  0
    0.1750   -2.7042    0.0000 C   0  0  0  0  0  0  0  0  0  0  0  0
  2  1  1  0  0  0  0
  3  2  1  0  0  0  0
  4  1  1  0  0  0  0
  5  1  1  0  0  0  0
  6  5  1  0  0  0  0
  6  7  1  0  0  0  0
  7  5  1  0  0  0  0
  8  4  1  0  0  0  0
  8  3  1  0  0  0  0
  9  2  1  0  0  0  0
 10  4  2  0  0  0  0
 11  9  1  0  0  0  0
 12  9  2  0  0  0  0
 13 12  1  0  0  0  0
 14 11  2  0  0  0  0
 14 15  1  0  0  0  0
 15 13  2  0  0  0  0
M  END
>  <idnumber>
T5416326

>  <LogP>
1.815000000000000e+000

>  <rotating_bonds>
2.000000000000000e+000

>  <hb_acceptors>
2.000000000000000e+000

>  <hb_donors>
0.000000000000000e+000

>  <PSA>
4.561000000000000e+001

>  <clusterid>
458

>  <is_centroid>
@

>  <class1>
701

>  <class2>
675

>  <class3>
625

>  <population1>
10103

>  <population2>
33654

>  <population3>
877209

>  <population>
76

>  <cansmi>
O=C1CSC(N1C1CC1)c1ccccc1

>  <HBA2>
3

>  <HBD>
0

>  <logP>
2.3609

>  <TPSA>
45.61

>  <MW>
219.303

$$$$

 OpenBabel02121609142D

 18 20  0  0  0  0  0  0  0  0999 V2000
   -0.0833    0.2875    0.0000 N   0  0  0  0  0  0  0  0  0  0  0  0
    0.8667    0.5958    0.0000 C   0  0  0  0  0  0  0  0  0  0  0  0
   -0.6708    1.0958    0.0000 C   0  0  0  0  0  0  0  0  0  0  0  0
   -0.0833    1.9083    0.0000 C   0  0  0  0  0  0  0  0  0  0  0  0
    0.8667    1.5958    0.0000 C   0  0  0  0  0  0  0  0  0  0  0  0
   -0.3958   -0.6667    0.0000 C   0  0  0  0  0  0  0  0  0  0  0  0
    1.6750    0.0083    0.0000 O   0  0  0  0  0  0  0  0  0  0  0  0
   -1.6708    1.0958    0.0000 O   0  0  0  0  0  0  0  0  0  0  0  0
   -1.3708   -0.8667    0.0000 C   0  0  0  0  0  0  0  0  0  0  0  0
    0.2750   -1.4042    0.0000 C   0  0  0  0  0  0  0  0  0  0  0  0
   -1.6833   -1.8250    0.0000 C   0  0  0  0  0  0  0  0  0  0  0  0
   -0.0333   -2.3542    0.0000 C   0  0  0  0  0  0  0  0  0  0  0  0
   -1.0125   -2.5667    0.0000 C   0  0  0  0  0  0  0  0  0  0  0  0
    0.5042    2.7125    0.0000 C   0  0  0  0  0  0  0  0  0  0  0  0
   -1.0333    2.2125    0.0000 C   0  0  0  0  0  0  0  0  0  0  0  0
   -1.3208   -3.5167    0.0000 C   0  0  0  0  0  0  0  0  0  0  0  0
   -1.0333    3.2125    0.0000 C   0  0  0  0  0  0  0  0  0  0  0  0
   -0.0833    3.5208    0.0000 C   0  0  0  0  0  0  0  0  0  0  0  0
  2  1  1  0  0  0  0
  3  1  1  0  0  0  0
  4  3  1  0  0  0  0
  5  2  1  0  0  0  0
  5  4  1  0  0  0  0
  6  1  1  0  0  0  0
  7  2  2  0  0  0  0
  8  3  2  0  0  0  0
  9  6  2  0  0  0  0
 10  6  1  0  0  0  0
 11  9  1  0  0  0  0
 11 13  2  0  0  0  0
 12 10  2  0  0  0  0
 13 12  1  0  0  0  0
 14  4  1  0  0  0  0
 15  4  1  0  0  0  0
 16 13  1  0  0  0  0
 17 15  1  0  0  0  0
 18 14  1  0  0  0  0
 18 17  1  0  0  0  0
M  END
>  <idnumber>
T5416841

>  <LogP>
1.894000000000000e+000

>  <rotating_bonds>
1.000000000000000e+000

>  <hb_acceptors>
2.000000000000000e+000

>  <hb_donors>
0.000000000000000e+000

>  <PSA>
3.738000000000000e+001

>  <clusterid>
459

>  <is_centroid>
@

>  <class1>
676

>  <class2>
625

>  <population1>
401

>  <population2>
877209

>  <population>
338

>  <cansmi>
Cc1ccc(cc1)N1C(=O)CC2(C1=O)CCCC2

>  <HBA2>
3

>  <HBD>
0

>  <logP>
2.8837

>  <TPSA>
37.38

>  <MW>
243.301

$$$$

 OpenBabel02121609142D

 13 14  0  0  0  0  0  0  0  0999 V2000
    0.8250    0.3208    0.0000 C   0  0  0  0  0  0  0  0  0  0  0  0
    1.4125   -0.4875    0.0000 N   0  0  0  0  0  0  0  0  0  0  0  0
    2.3625   -0.1792    0.0000 C   0  0  0  0  0  0  0  0  0  0  0  0
    1.4125    1.1333    0.0000 C   0  0  0  0  0  0  0  0  0  0  0  0
    2.3625    0.8208    0.0000 C   0  0  0  0  0  0  0  0  0  0  0  0
   -0.6083   -0.5792    0.0000 N   0  0  0  0  0  0  0  0  0  0  0  0
   -0.1750    0.3208    0.0000 C   0  0  3  0  0  0  0  0  0  0  0  0
    1.1042   -1.4417    0.0000 C   0  0  0  0  0  0  0  0  0  0  0  0
   -1.5833   -0.8042    0.0000 C   0  0  0  0  0  0  0  0  0  0  0  0
   -0.6083    1.2208    0.0000 C   0  0  0  0  0  0  0  0  0  0  0  0
   -2.3708   -0.1792    0.0000 C   0  0  0  0  0  0  0  0  0  0  0  0
   -1.5833    1.4458    0.0000 C   0  0  0  0  0  0  0  0  0  0  0  0
   -2.3708    0.8208    0.0000 C   0  0  0  0  0  0  0  0  0  0  0  0
  2  1  1  0  0  0  0
  3  2  1  0  0  0  0
  3  5  2  0  0  0  0
  4  1  2  0  0  0  0
  5  4  1  0  0  0  0
  6  7  1  0  0  0  0
  7  1  1  0  0  0  0
  8  2  1  0  0  0  0
  9  6  1  0  0  0  0
 10  7  1  0  0  0  0
 11  9  1  0  0  0  0
 12 10  1  0  0  0  0
 13 12  1  0  0  0  0
 13 11  1  0  0  0  0
M  END
>  <idnumber>
T5421501

>  <LogP>
2.124000000000000e+000

>  <rotating_bonds>
1.000000000000000e+000

>  <hb_acceptors>
1.000000000000000e+000

>  <hb_donors>
1.000000000000000e+000

>  <PSA>
1.696000000000000e+001

>  <clusterid>
460

>  <is_centroid>
@

>  <class1>
702

>  <class2>
635

>  <population1>
14026

>  <population2>
31512

>  <population>
333

>  <cansmi>
Cn1cccc1C1CCCCCN1

>  <HBA2>
2

>  <HBD>
1

>  <logP>
2.5586

>  <TPSA>
16.96

>  <MW>
178.274

$$$$

 OpenBabel02121609142D

 13 14  0  0  0  0  0  0  0  0999 V2000
   -1.4500    0.3583    0.0000 C   0  0  0  0  0  0  0  0  0  0  0  0
   -2.0375   -0.4542    0.0000 N   0  0  0  0  0  0  0  0  0  0  0  0
   -1.4500   -1.2625    0.0000 C   0  0  0  0  0  0  0  0  0  0  0  0
   -0.5000    0.0458    0.0000 C   0  0  3  0  0  0  0  0  0  0  0  0
   -0.5000   -0.9542    0.0000 C   0  0  0  0  0  0  0  0  0  0  0  0
   -1.7583    1.3083    0.0000 O   0  0  0  0  0  0  0  0  0  0  0  0
   -1.7583   -2.2125    0.0000 O   0  0  0  0  0  0  0  0  0  0  0  0
    0.3125    0.6333    0.0000 C   0  0  0  0  0  0  0  0  0  0  0  0
    1.2250    0.2333    0.0000 C   0  0  0  0  0  0  0  0  0  0  0  0
    0.2042    1.6333    0.0000 C   0  0  0  0  0  0  0  0  0  0  0  0
    1.0167    2.2208    0.0000 C   0  0  0  0  0  0  0  0  0  0  0  0
    2.0292    0.8208    0.0000 C   0  0  0  0  0  0  0  0  0  0  0  0
    1.9292    1.8125    0.0000 C   0  0  0  0  0  0  0  0  0  0  0  0
  2  1  1  0  0  0  0
  3  2  1  0  0  0  0
  3  5  1  0  0  0  0
  4  1  1  0  0  0  0
  5  4  1  0  0  0  0
  6  1  2  0  0  0  0
  7  3  2  0  0  0  0
  8  4  1  0  0  0  0
  9  8  1  0  0  0  0
 10  8  2  0  0  0  0
 11 10  1  0  0  0  0
 12  9  2  0  0  0  0
 12 13  1  0  0  0  0
 13 11  2  0  0  0  0
M  END
>  <idnumber>
T5422625

>  <LogP>
3.860000000000000e-001

>  <rotating_bonds>
1.000000000000000e+000

>  <hb_acceptors>
2.000000000000000e+000

>  <hb_donors>
1.000000000000000e+000

>  <PSA>
4.616999999999997e+001

>  <clusterid>
-742

>  <is_centroid>
@

>  <class1>
705

>  <class2>
625

>  <population1>
4908

>  <population2>
877209

>  <population>
4348

>  <cansmi>
O=C1NC(=O)CC1c1ccccc1

>  <HBA2>
3

>  <HBD>
1

>  <logP>
1.1455

>  <TPSA>
46.17

>  <MW>
175.184

$$$$

 OpenBabel02121609142D

 12 13  0  0  0  0  0  0  0  0999 V2000
   -1.6333   -0.1542    0.0000 N   0  0  0  0  0  0  0  0  0  0  0  0
   -1.0458    0.6500    0.0000 C   0  0  0  0  0  0  0  0  0  0  0  0
   -1.0458   -0.9667    0.0000 C   0  0  0  0  0  0  0  0  0  0  0  0
   -0.0958    0.3458    0.0000 C   0  0  0  0  0  0  0  0  0  0  0  0
   -0.0958   -0.6542    0.0000 C   0  0  0  0  0  0  0  0  0  0  0  0
   -1.3583    1.6000    0.0000 O   0  0  0  0  0  0  0  0  0  0  0  0
   -1.3583   -1.9167    0.0000 O   0  0  0  0  0  0  0  0  0  0  0  0
   -0.2000    1.3333    0.0000 C   0  0  0  0  0  0  0  0  0  0  0  0
    0.8167   -0.0667    0.0000 C   0  0  0  0  0  0  0  0  0  0  0  0
    1.6292    0.5208    0.0000 C   0  0  0  0  0  0  0  0  0  0  0  0
    0.6125    1.9250    0.0000 C   0  0  0  0  0  0  0  0  0  0  0  0
    1.5250    1.5208    0.0000 C   0  0  0  0  0  0  0  0  0  0  0  0
  2  1  1  0  0  0  0
  3  1  1  0  0  0  0
  4  2  1  0  0  0  0
  5  3  1  0  0  0  0
  5  4  1  0  0  0  0
  6  2  2  0  0  0  0
  7  3  2  0  0  0  0
  8  4  1  0  0  0  0
  9  4  1  0  0  0  0
 10  9  1  0  0  0  0
 11  8  1  0  0  0  0
 11 12  1  0  0  0  0
 12 10  1  0  0  0  0
M  END
>  <idnumber>
T5422628

>  <LogP>
8.190000000000002e-001

>  <rotating_bonds>
0.000000000000000e+000

>  <hb_acceptors>
2.000000000000000e+000

>  <hb_donors>
1.000000000000000e+000

>  <PSA>
4.616999999999997e+001

>  <clusterid>
213

>  <is_centroid>
@

>  <class1>
703

>  <population1>
340

>  <population>
340

>  <cansmi>
O=C1NC(=O)C2(C1)CCCCC2

>  <HBA2>
3

>  <HBD>
1

>  <logP>
1.3122

>  <TPSA>
46.17

>  <MW>
167.205

$$$$

 OpenBabel02121609142D

 19 21  0  0  0  0  0  0  0  0999 V2000
    0.7667    0.0000    0.0000 S   0  0  0  0  0  0  0  0  0  0  0  0
   -0.1000    0.5000    0.0000 N   0  0  0  0  0  0  0  0  0  0  0  0
   -0.9708    0.0000    0.0000 C   0  0  3  0  0  0  0  0  0  0  0  0
   -1.8333    0.5000    0.0000 C   0  0  0  0  0  0  0  0  0  0  0  0
   -1.8333    1.5083    0.0000 N   0  0  0  0  0  0  0  0  0  0  0  0
   -0.1000    1.5083    0.0000 C   0  0  0  0  0  0  0  0  0  0  0  0
    1.2667    0.8708    0.0000 O   0  0  0  0  0  0  0  0  0  0  0  0
    0.2667   -0.8625    0.0000 O   0  0  0  0  0  0  0  0  0  0  0  0
    1.6292   -0.4917    0.0000 C   0  0  0  0  0  0  0  0  0  0  0  0
   -2.7833    0.1958    0.0000 C   0  0  0  0  0  0  0  0  0  0  0  0
   -0.9708    2.0000    0.0000 C   0  0  0  0  0  0  0  0  0  0  0  0
   -2.7833    1.8125    0.0000 C   0  0  0  0  0  0  0  0  0  0  0  0
   -3.3708    1.0000    0.0000 C   0  0  0  0  0  0  0  0  0  0  0  0
   -0.9708   -0.9917    0.0000 C   0  0  0  0  0  0  0  0  0  0  0  0
    1.6292   -1.5000    0.0000 C   0  0  0  0  0  0  0  0  0  0  0  0
    2.5000    0.0000    0.0000 C   0  0  0  0  0  0  0  0  0  0  0  0
    3.3667   -0.4917    0.0000 C   0  0  0  0  0  0  0  0  0  0  0  0
    2.5000   -2.0000    0.0000 C   0  0  0  0  0  0  0  0  0  0  0  0
    3.3667   -1.5000    0.0000 C   0  0  0  0  0  0  0  0  0  0  0  0
  2  1  1  0  0  0  0
  3  2  1  0  0  0  0
  4  3  1  0  0  0  0
  5 11  1  0  0  0  0
  5  4  1  0  0  0  0
  6  2  1  0  0  0  0
  7  1  2  0  0  0  0
  8  1  2  0  0  0  0
  9  1  1  0  0  0  0
 10  4  2  0  0  0  0
 11  6  1  0  0  0  0
 12  5  1  0  0  0  0
 12 13  2  0  0  0  0
 13 10  1  0  0  0  0
 14  3  1  0  0  0  0
 15  9  1  0  0  0  0
 16  9  2  0  0  0  0
 17 16  1  0  0  0  0
 18 15  2  0  0  0  0
 18 19  1  0  0  0  0
 19 17  2  0  0  0  0
M  END
>  <idnumber>
T5422959

>  <LogP>
2.779000000000000e+000

>  <rotating_bonds>
1.000000000000000e+000

>  <hb_acceptors>
3.000000000000000e+000

>  <hb_donors>
0.000000000000000e+000

>  <PSA>
5.069000000000001e+001

>  <clusterid>
-743

>  <is_centroid>
@

>  <class1>
625

>  <class2>
838

>  <population1>
877209

>  <population2>
232

>  <population>
197

>  <cansmi>
CC1c2cccn2CCN1S(=O)(=O)c1ccccc1

>  <HBA2>
4

>  <HBD>
0

>  <logP>
3.2723

>  <TPSA>
50.69

>  <MW>
276.354

$$$$

 OpenBabel02121609142D

 17 19  0  0  0  0  0  0  0  0999 V2000
   -0.2833    0.2583    0.0000 N   0  0  0  0  0  0  0  0  0  0  0  0
    0.0250   -0.6917    0.0000 C   0  0  0  0  0  0  0  0  0  0  0  0
   -1.2333    0.5708    0.0000 C   0  0  0  0  0  0  0  0  0  0  0  0
    1.0042   -0.9042    0.0000 C   0  0  0  0  0  0  0  0  0  0  0  0
    0.3042    1.0708    0.0000 C   0  0  0  0  0  0  0  0  0  0  0  0
    1.6750   -0.1542    0.0000 N   0  0  0  0  0  0  0  0  0  0  0  0
   -0.6458   -1.4375    0.0000 O   0  0  0  0  0  0  0  0  0  0  0  0
   -1.2333    1.5708    0.0000 C   0  0  0  0  0  0  0  0  0  0  0  0
   -0.2833    1.8750    0.0000 C   0  0  0  0  0  0  0  0  0  0  0  0
    2.2917   -2.0625    0.0000 N   0  0  0  0  0  0  0  0  0  0  0  0
    1.3125   -1.8542    0.0000 C   0  0  0  0  0  0  0  0  0  0  0  0
   -2.1000    0.0708    0.0000 C   0  0  0  0  0  0  0  0  0  0  0  0
    2.6542   -0.3667    0.0000 C   0  0  0  0  0  0  0  0  0  0  0  0
    2.9625   -1.3167    0.0000 C   0  0  0  0  0  0  0  0  0  0  0  0
   -2.1000    2.0708    0.0000 C   0  0  0  0  0  0  0  0  0  0  0  0
   -2.9708    0.5708    0.0000 C   0  0  0  0  0  0  0  0  0  0  0  0
   -2.9708    1.5708    0.0000 C   0  0  0  0  0  0  0  0  0  0  0  0
  2  1  1  0  0  0  0
  3  1  1  0  0  0  0
  4  2  1  0  0  0  0
  5  1  1  0  0  0  0
  6  4  2  0  0  0  0
  7  2  2  0  0  0  0
  8  3  2  0  0  0  0
  9  5  1  0  0  0  0
  9  8  1  0  0  0  0
 10 11  2  0  0  0  0
 11  4  1  0  0  0  0
 12  3  1  0  0  0  0
 13  6  1  0  0  0  0
 13 14  2  0  0  0  0
 14 10  1  0  0  0  0
 15  8  1  0  0  0  0
 15 17  2  0  0  0  0
 16 12  2  0  0  0  0
 17 16  1  0  0  0  0
M  END
>  <idnumber>
T5425770

>  <LogP>
5.750000000000001e-001

>  <rotating_bonds>
1.000000000000000e+000

>  <hb_acceptors>
3.000000000000000e+000

>  <hb_donors>
0.000000000000000e+000

>  <PSA>
4.609000000000000e+001

>  <clusterid>
461

>  <is_centroid>
@

>  <class1>
815

>  <class2>
732

>  <population1>
7310

>  <population2>
13534

>  <population>
30

>  <cansmi>
O=C(N1CCc2c1cccc2)c1cnccn1

>  <HBA2>
4

>  <HBD>
0

>  <logP>
1.7445

>  <TPSA>
46.09

>  <MW>
225.246

$$$$

 OpenBabel02121609142D

 11 10  0  0  0  0  0  0  0  0999 V2000
    1.0000   -0.7250    0.0000 C   0  0  0  0  0  0  0  0  0  0  0  0
    1.8625   -0.2167    0.0000 N   0  0  0  0  0  0  0  0  0  0  0  0
    0.1292   -0.2167    0.0000 N   0  0  0  0  0  0  0  0  0  0  0  0
    1.0000    1.2750    0.0000 C   0  0  0  0  0  0  0  0  0  0  0  0
    1.8625    0.7750    0.0000 C   0  0  0  0  0  0  0  0  0  0  0  0
    0.1292    0.7750    0.0000 C   0  0  0  0  0  0  0  0  0  0  0  0
    1.0000   -1.7250    0.0000 S   0  0  0  0  0  0  0  0  0  0  0  0
   -1.8708    0.2208    0.0000 I   0  0  0  0  0  0  0  0  0  0  0  0
    0.7042    2.2333    0.0000 C   0  0  0  0  0  0  0  0  0  0  0  0
    1.2917    2.2333    0.0000 C   0  0  0  0  0  0  0  0  0  0  0  0
    1.8625   -2.2250    0.0000 C   0  0  0  0  0  0  0  0  0  0  0  0
  2  1  2  0  0  0  0
  3  1  1  0  0  0  0
  4  6  1  0  0  0  0
  5  2  1  0  0  0  0
  5  4  1  0  0  0  0
  6  3  1  0  0  0  0
  7  1  1  0  0  0  0
  9  4  1  0  0  0  0
 10  4  1  0  0  0  0
 11  7  1  0  0  0  0
M  END
>  <idnumber>
T5427447

>  <saltdata>
HI

>  <LogP>
6.500000000000000e-001

>  <rotating_bonds>
1.000000000000000e+000

>  <hb_acceptors>
3.000000000000000e+000

>  <hb_donors>
1.000000000000000e+000

>  <PSA>
4.969000000000001e+001

>  <clusterid>
463

>  <is_centroid>
@

>  <class1>
847

>  <population1>
123

>  <population>
123

>  <cansmi>
CSC1=NCC(CN1)(C)C.I

>  <HBA2>
3

>  <HBD>
2

>  <logP>
2.0974

>  <TPSA>
49.69

>  <MW>
286.177

$$$$

 OpenBabel02121609142D

 12 12  0  0  0  0  0  0  0  0999 V2000
    1.8792    0.0000    0.0000 C   0  0  0  0  0  0  0  0  0  0  0  0
    1.2917    0.8125    0.0000 N   0  0  0  0  0  0  0  0  0  0  0  0
    1.2917   -0.8042    0.0000 N   0  0  0  0  0  0  0  0  0  0  0  0
    0.3417    0.5000    0.0000 C   0  0  3  0  0  0  0  0  0  0  0  0
    0.3417   -0.5000    0.0000 C   0  0  3  0  0  0  0  0  0  0  0  0
    2.8792    0.0000    0.0000 S   0  0  0  0  0  0  0  0  0  0  0  0
   -3.3875    0.0833    0.0000 I   0  0  0  0  0  0  0  0  0  0  0  0
   -0.5208    1.0000    0.0000 C   0  0  0  0  0  0  0  0  0  0  0  0
   -0.5208   -1.0000    0.0000 C   0  0  0  0  0  0  0  0  0  0  0  0
    3.3792    0.8708    0.0000 C   0  0  0  0  0  0  0  0  0  0  0  0
   -1.3875   -0.5000    0.0000 C   0  0  0  0  0  0  0  0  0  0  0  0
   -1.3875    0.5000    0.0000 C   0  0  0  0  0  0  0  0  0  0  0  0
  2  1  2  0  0  0  0
  3  1  1  0  0  0  0
  4  2  1  0  0  0  0
  4  5  1  0  0  0  0
  5  3  1  0  0  0  0
  6  1  1  0  0  0  0
  8  4  1  0  0  0  0
  9  5  1  0  0  0  0
 10  6  1  0  0  0  0
 11  9  1  0  0  0  0
 12  8  1  0  0  0  0
 12 11  1  0  0  0  0
M  END
>  <idnumber>
T5427448

>  <saltdata>
HI

>  <LogP>
4.850000000000000e-001

>  <rotating_bonds>
1.000000000000000e+000

>  <hb_acceptors>
3.000000000000000e+000

>  <hb_donors>
1.000000000000000e+000

>  <PSA>
4.969000000000001e+001

>  <clusterid>
-747

>  <is_centroid>
@

>  <class1>
706

>  <population1>
54

>  <population>
54

>  <cansmi>
CSC1=NC2C(N1)CCCC2.I

>  <HBA2>
3

>  <HBD>
2

>  <logP>
2.3824

>  <TPSA>
49.69

>  <MW>
298.188

$$$$

 OpenBabel02121609142D

 16 17  0  0  0  0  0  0  0  0999 V2000
    0.8625   -0.5000    0.0000 C   0  0  0  0  0  0  0  0  0  0  0  0
    0.8625    0.5000    0.0000 C   0  0  0  0  0  0  0  0  0  0  0  0
   -0.8708    0.5000    0.0000 C   0  0  0  0  0  0  0  0  0  0  0  0
    0.0000    1.0000    0.0000 C   0  0  0  0  0  0  0  0  0  0  0  0
    0.0000   -1.0000    0.0000 O   0  0  0  0  0  0  0  0  0  0  0  0
   -0.8708   -0.5000    0.0000 C   0  0  0  0  0  0  0  0  0  0  0  0
    1.7292   -1.0000    0.0000 C   0  0  0  0  0  0  0  0  0  0  0  0
   -1.7333    1.0000    0.0000 C   0  0  0  0  0  0  0  0  0  0  0  0
    0.0000    2.0000    0.0000 O   0  0  0  0  0  0  0  0  0  0  0  0
    1.7292   -2.0000    0.0000 O   0  0  0  0  0  0  0  0  0  0  0  0
   -1.7333   -1.0000    0.0000 C   0  0  0  0  0  0  0  0  0  0  0  0
   -2.6000    0.5000    0.0000 C   0  0  0  0  0  0  0  0  0  0  0  0
    2.5917   -0.5000    0.0000 O   0  0  0  0  0  0  0  0  0  0  0  0
   -2.6000   -0.5000    0.0000 C   0  0  0  0  0  0  0  0  0  0  0  0
   -3.4708    1.0000    0.0000 C   0  0  0  0  0  0  0  0  0  0  0  0
    3.4625   -1.0000    0.0000 C   0  0  0  0  0  0  0  0  0  0  0  0
  2  1  2  0  0  0  0
  3  6  2  0  0  0  0
  4  2  1  0  0  0  0
  4  3  1  0  0  0  0
  5  1  1  0  0  0  0
  6  5  1  0  0  0  0
  7  1  1  0  0  0  0
  8  3  1  0  0  0  0
  8 12  2  0  0  0  0
  9  4  2  0  0  0  0
 10  7  2  0  0  0  0
 11  6  1  0  0  0  0
 12 14  1  0  0  0  0
 13  7  1  0  0  0  0
 14 11  2  0  0  0  0
 15 12  1  0  0  0  0
 16 13  1  0  0  0  0
M  END
>  <idnumber>
T5428471

>  <LogP>
1.850000000000000e+000

>  <rotating_bonds>
2.000000000000000e+000

>  <hb_acceptors>
3.000000000000000e+000

>  <hb_donors>
0.000000000000000e+000

>  <PSA>
5.259999999999999e+001

>  <clusterid>
-748

>  <is_centroid>
@

>  <class1>
819

>  <population1>
2257

>  <population>
2257

>  <cansmi>
COC(=O)c1cc(=O)c2c(o1)ccc(c2)C

>  <HBA2>
4

>  <HBD>
0

>  <logP>
1.888

>  <TPSA>
56.51

>  <MW>
218.205

$$$$

 OpenBabel02121609142D

 12 13  0  0  0  0  0  0  0  0999 V2000
    0.7292    0.4500    0.0000 N   0  0  0  0  0  0  0  0  0  0  0  0
    1.3167   -0.3542    0.0000 C   0  0  0  0  0  0  0  0  0  0  0  0
    1.3167    1.2583    0.0000 N   0  0  0  0  0  0  0  0  0  0  0  0
    2.2667    0.9500    0.0000 N   0  0  0  0  0  0  0  0  0  0  0  0
    2.2667   -0.0500    0.0000 N   0  0  0  0  0  0  0  0  0  0  0  0
   -0.2708    0.4500    0.0000 C   0  0  0  0  0  0  0  0  0  0  0  0
    1.0042   -1.3125    0.0000 O   0  0  0  0  0  0  0  0  0  0  0  0
   -0.7708    1.3208    0.0000 C   0  0  0  0  0  0  0  0  0  0  0  0
   -0.7708   -0.4167    0.0000 C   0  0  0  0  0  0  0  0  0  0  0  0
   -1.7708   -0.4167    0.0000 C   0  0  0  0  0  0  0  0  0  0  0  0
   -1.7708    1.3208    0.0000 C   0  0  0  0  0  0  0  0  0  0  0  0
   -2.2708    0.4500    0.0000 C   0  0  0  0  0  0  0  0  0  0  0  0
  2  1  1  0  0  0  0
  3  1  1  0  0  0  0
  4  3  2  0  0  0  0
  5  2  1  0  0  0  0
  5  4  1  0  0  0  0
  6  1  1  0  0  0  0
  7  2  2  0  0  0  0
  8  6  1  0  0  0  0
  9  6  2  0  0  0  0
 10  9  1  0  0  0  0
 11  8  2  0  0  0  0
 11 12  1  0  0  0  0
 12 10  2  0  0  0  0
M  END
>  <idnumber>
T5429084

>  <LogP>
8.660000000000002e-001

>  <rotating_bonds>
1.000000000000000e+000

>  <hb_acceptors>
3.000000000000000e+000

>  <hb_donors>
1.000000000000000e+000

>  <PSA>
5.706000000000000e+001

>  <clusterid>
-750

>  <is_centroid>
@

>  <class1>
707

>  <class2>
625

>  <population1>
453

>  <population2>
877209

>  <population>
404

>  <cansmi>
O=c1[nH]nnn1c1ccccc1

>  <HBA2>
4

>  <HBD>
1

>  <logP>
-0.0444

>  <TPSA>
63.57

>  <MW>
162.149

$$$$

 OpenBabel02121609142D

 12 13  0  0  0  0  0  0  0  0999 V2000
    0.2917   -0.8042    0.0000 O   0  0  0  0  0  0  0  0  0  0  0  0
    0.8792    0.0000    0.0000 C   0  0  3  0  0  0  0  0  0  0  0  0
    1.8792    0.0000    0.0000 C   0  0  0  0  0  0  0  0  0  0  0  0
   -0.6583   -0.5000    0.0000 C   0  0  0  0  0  0  0  0  0  0  0  0
    0.2917    0.8125    0.0000 C   0  0  0  0  0  0  0  0  0  0  0  0
   -0.6583    0.5000    0.0000 C   0  0  0  0  0  0  0  0  0  0  0  0
    2.3792    0.8708    0.0000 O   0  0  0  0  0  0  0  0  0  0  0  0
    2.3792   -0.8625    0.0000 O   0  0  0  0  0  0  0  0  0  0  0  0
   -1.5208   -1.0000    0.0000 C   0  0  0  0  0  0  0  0  0  0  0  0
   -1.5208    1.0000    0.0000 C   0  0  0  0  0  0  0  0  0  0  0  0
   -2.3875   -0.5000    0.0000 C   0  0  0  0  0  0  0  0  0  0  0  0
   -2.3875    0.5000    0.0000 C   0  0  0  0  0  0  0  0  0  0  0  0
  2  1  1  0  0  0  0
  3  2  1  0  0  0  0
  4  1  1  0  0  0  0
  5  2  1  0  0  0  0
  5  6  1  0  0  0  0
  6  4  2  0  0  0  0
  7  3  2  0  0  0  0
  8  3  1  0  0  0  0
  9  4  1  0  0  0  0
 10  6  1  0  0  0  0
 10 12  2  0  0  0  0
 11  9  2  0  0  0  0
 12 11  1  0  0  0  0
M  END
>  <idnumber>
T5429641

>  <LogP>
1.151000000000000e+000

>  <rotating_bonds>
1.000000000000000e+000

>  <hb_acceptors>
3.000000000000000e+000

>  <hb_donors>
1.000000000000000e+000

>  <PSA>
4.652999999999997e+001

>  <clusterid>
466

>  <is_centroid>
@

>  <class1>
803

>  <population1>
2603

>  <population>
2603

>  <cansmi>
OC(=O)C1Cc2c(O1)cccc2

>  <HBA2>
3

>  <HBD>
1

>  <logP>
1.0747

>  <TPSA>
46.53

>  <MW>
164.158

$$$$

 OpenBabel02121609142D

 17 18  0  0  0  0  0  0  0  0999 V2000
    0.8625    0.7500    0.0000 N   0  0  0  0  0  0  0  0  0  0  0  0
    0.0000    0.2500    0.0000 C   0  0  3  0  0  0  0  0  0  0  0  0
    0.0000   -0.7500    0.0000 C   0  0  0  0  0  0  0  0  0  0  0  0
   -0.8708    0.7500    0.0000 C   0  0  0  0  0  0  0  0  0  0  0  0
    1.7292    0.2500    0.0000 C   0  0  0  0  0  0  0  0  0  0  0  0
    0.8625    1.7500    0.0000 C   0  0  0  0  0  0  0  0  0  0  0  0
   -0.8708   -1.2500    0.0000 C   0  0  0  0  0  0  0  0  0  0  0  0
   -0.8708    1.7500    0.0000 C   0  0  0  0  0  0  0  0  0  0  0  0
    2.5917    0.7500    0.0000 O   0  0  0  0  0  0  0  0  0  0  0  0
    0.0000    2.2500    0.0000 C   0  0  0  0  0  0  0  0  0  0  0  0
   -1.7333   -0.7500    0.0000 O   0  0  0  0  0  0  0  0  0  0  0  0
   -0.8708   -2.2500    0.0000 O   0  0  0  0  0  0  0  0  0  0  0  0
   -1.7333    0.2500    0.0000 C   0  0  0  0  0  0  0  0  0  0  0  0
    1.7292   -0.7500    0.0000 C   0  0  0  0  0  0  0  0  0  0  0  0
   -1.7333    2.2500    0.0000 C   0  0  0  0  0  0  0  0  0  0  0  0
   -2.6000    0.7500    0.0000 C   0  0  0  0  0  0  0  0  0  0  0  0
   -2.6000    1.7500    0.0000 C   0  0  0  0  0  0  0  0  0  0  0  0
  2  1  1  0  0  0  0
  3  2  1  0  0  0  0
  4  2  1  0  0  0  0
  4  8  2  0  0  0  0
  5  1  1  0  0  0  0
  6  1  1  0  0  0  0
  7  3  1  0  0  0  0
  8 10  1  0  0  0  0
  9  5  2  0  0  0  0
 10  6  1  0  0  0  0
 11  7  2  0  0  0  0
 12  7  1  0  0  0  0
 13  4  1  0  0  0  0
 14  5  1  0  0  0  0
 15  8  1  0  0  0  0
 16 13  2  0  0  0  0
 17 15  2  0  0  0  0
 17 16  1  0  0  0  0
M  END
>  <idnumber>
T5429657

>  <LogP>
8.170000000000002e-001

>  <rotating_bonds>
2.000000000000000e+000

>  <hb_acceptors>
3.000000000000000e+000

>  <hb_donors>
1.000000000000000e+000

>  <PSA>
5.761000000000000e+001

>  <clusterid>
468

>  <is_centroid>
@

>  <class1>
750

>  <population1>
7929

>  <population>
7929

>  <cansmi>
OC(=O)CC1N(CCc2c1cccc2)C(=O)C

>  <HBA2>
4

>  <HBD>
1

>  <logP>
1.5449

>  <TPSA>
57.61

>  <MW>
233.263

$$$$

 OpenBabel02121609142D

 11 11  0  0  0  0  0  0  0  0999 V2000
    0.9000    0.0083    0.0000 C   0  0  0  0  0  0  0  0  0  0  0  0
    0.9000    1.0083    0.0000 C   0  0  0  0  0  0  0  0  0  0  0  0
   -0.0500    1.3125    0.0000 S   0  0  0  0  0  0  0  0  0  0  0  0
   -0.0500   -0.3042    0.0000 C   0  0  0  0  0  0  0  0  0  0  0  0
   -0.6375    0.5000    0.0000 C   0  0  0  0  0  0  0  0  0  0  0  0
    1.7667   -0.5000    0.0000 C   0  0  3  0  0  0  0  0  0  0  0  0
    2.6292    0.0083    0.0000 N   0  0  0  0  0  0  0  0  0  0  0  0
    1.7667    1.5000    0.0000 C   0  0  0  0  0  0  0  0  0  0  0  0
    2.6292    1.0083    0.0000 C   0  0  0  0  0  0  0  0  0  0  0  0
   -2.6375    0.3000    0.0000 Cl  0  0  0  0  0  0  0  0  0  0  0  0
    1.7667   -1.5000    0.0000 C   0  0  0  0  0  0  0  0  0  0  0  0
  2  1  2  0  0  0  0
  3  2  1  0  0  0  0
  3  5  1  0  0  0  0
  4  1  1  0  0  0  0
  5  4  2  0  0  0  0
  6  1  1  0  0  0  0
  7  6  1  0  0  0  0
  8  2  1  0  0  0  0
  8  9  1  0  0  0  0
  9  7  1  0  0  0  0
 11  6  1  0  0  0  0
M  END
>  <idnumber>
T5429664

>  <LogP>
1.760000000000000e+000

>  <rotating_bonds>
0.000000000000000e+000

>  <hb_acceptors>
2.000000000000000e+000

>  <hb_donors>
1.000000000000000e+000

>  <PSA>
4.027000000000000e+001

>  <clusterid>
467

>  <is_centroid>
@

>  <class1>
709

>  <population1>
2293

>  <population>
2293

>  <cansmi>
CC1NCCc2c1ccs2.Cl

>  <HBA2>
2

>  <HBD>
2

>  <logP>
3.0856

>  <TPSA>
40.27

>  <MW>
189.706

$$$$

 OpenBabel02121609142D

 15 15  0  0  0  0  0  0  0  0999 V2000
    0.2250   -0.6417    0.0000 C   0  0  0  0  0  0  0  0  0  0  0  0
   -0.9583    0.6250    0.0000 N   0  0  0  0  0  0  0  0  0  0  0  0
    0.4417   -1.6167    0.0000 N   0  0  0  0  0  0  0  0  0  0  0  0
   -1.9333    2.6500    0.0000 N   0  0  0  0  0  0  0  0  0  0  0  0
   -0.7333   -0.3500    0.0000 C   0  0  0  0  0  0  0  0  0  0  0  0
    0.9542    0.0375    0.0000 O   0  0  0  0  0  0  0  0  0  0  0  0
    1.4042   -1.9125    0.0000 C   0  0  0  0  0  0  0  0  0  0  0  0
   -0.1708    1.2500    0.0000 C   0  0  0  0  0  0  0  0  0  0  0  0
   -0.1708    2.2500    0.0000 C   0  0  0  0  0  0  0  0  0  0  0  0
   -0.9583    2.8750    0.0000 C   0  0  0  0  0  0  0  0  0  0  0  0
   -1.9333    0.8500    0.0000 C   0  0  0  0  0  0  0  0  0  0  0  0
   -2.3625    1.7500    0.0000 C   0  0  0  0  0  0  0  0  0  0  0  0
    2.3542   -2.2042    0.0000 C   0  0  0  0  0  0  0  0  0  0  0  0
    1.6917   -0.9542    0.0000 C   0  0  0  0  0  0  0  0  0  0  0  0
    1.1042   -2.8667    0.0000 C   0  0  0  0  0  0  0  0  0  0  0  0
  2  5  1  0  0  0  0
  3  1  1  0  0  0  0
  4 12  1  0  0  0  0
  5  1  1  0  0  0  0
  6  1  2  0  0  0  0
  7  3  1  0  0  0  0
  8  2  1  0  0  0  0
  9  8  1  0  0  0  0
 10  9  1  0  0  0  0
 10  4  1  0  0  0  0
 11  2  1  0  0  0  0
 12 11  1  0  0  0  0
 13  7  1  0  0  0  0
 14  7  1  0  0  0  0
 15  7  1  0  0  0  0
M  END
>  <idnumber>
T5430890

>  <LogP>
4.280000000000001e-001

>  <rotating_bonds>
3.000000000000000e+000

>  <hb_acceptors>
3.000000000000000e+000

>  <hb_donors>
2.000000000000000e+000

>  <PSA>
4.437000000000001e+001

>  <clusterid>
-752

>  <is_centroid>
@

>  <class1>
834

>  <population1>
2002

>  <population>
2002

>  <cansmi>
O=C(NC(C)(C)C)CN1CCNCCC1

>  <HBA2>
4

>  <HBD>
2

>  <logP>
0.854

>  <TPSA>
44.37

>  <MW>
213.32

$$$$

 OpenBabel02121609142D

 13 14  0  0  0  0  0  0  0  0999 V2000
    1.0417    0.8125    0.0000 C   0  0  0  0  0  0  0  0  0  0  0  0
    0.0917    0.5000    0.0000 C   0  0  0  0  0  0  0  0  0  0  0  0
    0.0917   -0.5000    0.0000 C   0  0  0  0  0  0  0  0  0  0  0  0
    1.0417   -0.8042    0.0000 C   0  0  3  0  0  0  0  0  0  0  0  0
    1.6292    0.0000    0.0000 C   0  0  0  0  0  0  0  0  0  0  0  0
   -0.7708    1.0000    0.0000 C   0  0  0  0  0  0  0  0  0  0  0  0
   -0.7708   -1.0000    0.0000 C   0  0  0  0  0  0  0  0  0  0  0  0
    1.3542    1.7625    0.0000 O   0  0  0  0  0  0  0  0  0  0  0  0
   -1.6375    0.5000    0.0000 C   0  0  0  0  0  0  0  0  0  0  0  0
   -1.6375   -0.5000    0.0000 C   0  0  0  0  0  0  0  0  0  0  0  0
   -0.7708   -2.0000    0.0000 F   0  0  0  0  0  0  0  0  0  0  0  0
   -0.7708    2.0000    0.0000 O   0  0  0  0  0  0  0  0  0  0  0  0
    1.3542   -1.7542    0.0000 C   0  0  0  0  0  0  0  0  0  0  0  0
  2  1  1  0  0  0  0
  3  2  1  0  0  0  0
  4  5  1  0  0  0  0
  4  3  1  0  0  0  0
  5  1  1  0  0  0  0
  6  2  2  0  0  0  0
  7  3  2  0  0  0  0
  7 10  1  0  0  0  0
  8  1  2  0  0  0  0
  9  6  1  0  0  0  0
 10  9  2  0  0  0  0
 11  7  1  0  0  0  0
 12  6  1  0  0  0  0
 13  4  1  0  0  0  0
M  END
>  <idnumber>
T5431729

>  <LogP>
2.838000000000000e+000

>  <rotating_bonds>
0.000000000000000e+000

>  <hb_acceptors>
3.000000000000000e+000

>  <hb_donors>
1.000000000000000e+000

>  <PSA>
3.730000000000000e+001

>  <clusterid>
-755

>  <is_centroid>
@

>  <class1>
840

>  <population1>
683

>  <population>
683

>  <cansmi>
CC1CC(=O)c2c1c(F)ccc2O

>  <HBA2>
2

>  <HBD>
1

>  <logP>
2.2212

>  <TPSA>
37.3

>  <MW>
180.176

$$$$

 OpenBabel02121609142D

 12 13  0  0  0  0  0  0  0  0999 V2000
    0.8625    0.2500    0.0000 C   0  0  0  0  0  0  0  0  0  0  0  0
    0.0000    0.7500    0.0000 C   0  0  0  0  0  0  0  0  0  0  0  0
    0.0000   -1.2500    0.0000 O   0  0  0  0  0  0  0  0  0  0  0  0
    2.5917    1.2500    0.0000 N   0  0  0  0  0  0  0  0  0  0  0  0
    1.7292    0.7500    0.0000 C   0  0  0  0  0  0  0  0  0  0  0  0
   -0.8708    0.2500    0.0000 C   0  0  0  0  0  0  0  0  0  0  0  0
   -0.8708   -0.7500    0.0000 C   0  0  0  0  0  0  0  0  0  0  0  0
    0.8625   -0.7500    0.0000 C   0  0  0  0  0  0  0  0  0  0  0  0
   -1.7333    0.7500    0.0000 C   0  0  0  0  0  0  0  0  0  0  0  0
   -1.7333   -1.2500    0.0000 C   0  0  0  0  0  0  0  0  0  0  0  0
   -2.6000    0.2500    0.0000 C   0  0  0  0  0  0  0  0  0  0  0  0
   -2.6000   -0.7500    0.0000 C   0  0  0  0  0  0  0  0  0  0  0  0
  2  1  2  0  0  0  0
  3  8  1  0  0  0  0
  4  5  3  0  0  0  0
  5  1  1  0  0  0  0
  6  2  1  0  0  0  0
  6  7  2  0  0  0  0
  7  3  1  0  0  0  0
  8  1  1  0  0  0  0
  9  6  1  0  0  0  0
 10  7  1  0  0  0  0
 11  9  2  0  0  0  0
 11 12  1  0  0  0  0
 12 10  2  0  0  0  0
M  END
>  <idnumber>
T5431731

>  <LogP>
1.844000000000000e+000

>  <rotating_bonds>
1.000000000000000e+000

>  <hb_acceptors>
2.000000000000000e+000

>  <hb_donors>
0.000000000000000e+000

>  <PSA>
3.302000000000000e+001

>  <clusterid>
-756

>  <is_centroid>
@

>  <class1>
694

>  <population1>
8594

>  <population>
8594

>  <cansmi>
N#CC1=Cc2c(OC1)cccc2

>  <HBA2>
2

>  <HBD>
0

>  <logP>
1.98598

>  <TPSA>
33.02

>  <MW>
157.169

$$$$

 OpenBabel02121609142D

 11 12  0  0  0  0  0  0  0  0999 V2000
   -0.1000    0.6208    0.0000 N   0  0  0  0  0  0  0  0  0  0  0  0
   -0.1000   -0.3792    0.0000 C   0  0  0  0  0  0  0  0  0  0  0  0
   -1.0500   -0.6875    0.0000 C   0  0  0  0  0  0  0  0  0  0  0  0
   -1.0500    0.9333    0.0000 C   0  0  0  0  0  0  0  0  0  0  0  0
   -1.6375    0.1208    0.0000 C   0  0  0  0  0  0  0  0  0  0  0  0
    0.7667   -0.8792    0.0000 C   0  0  3  0  0  0  0  0  0  0  0  0
    1.6292   -0.3792    0.0000 N   0  0  0  0  0  0  0  0  0  0  0  0
    0.7667    1.1208    0.0000 C   0  0  0  0  0  0  0  0  0  0  0  0
    1.6292    0.6208    0.0000 C   0  0  0  0  0  0  0  0  0  0  0  0
   -1.3583    1.8833    0.0000 C   0  0  0  0  0  0  0  0  0  0  0  0
    0.7667   -1.8792    0.0000 C   0  0  0  0  0  0  0  0  0  0  0  0
  2  1  1  0  0  0  0
  3  2  2  0  0  0  0
  4  1  1  0  0  0  0
  5  4  2  0  0  0  0
  5  3  1  0  0  0  0
  6  2  1  0  0  0  0
  6  7  1  0  0  0  0
  7  9  1  0  0  0  0
  8  1  1  0  0  0  0
  9  8  1  0  0  0  0
 10  4  1  0  0  0  0
 11  6  1  0  0  0  0
M  END
>  <idnumber>
T5432836

>  <LogP>
1.465000000000000e+000

>  <rotating_bonds>
0.000000000000000e+000

>  <hb_acceptors>
1.000000000000000e+000

>  <hb_donors>
1.000000000000000e+000

>  <PSA>
1.696000000000000e+001

>  <clusterid>
-757

>  <is_centroid>
@

>  <class1>
838

>  <population1>
232

>  <population>
232

>  <cansmi>
CC1NCCn2c1ccc2C

>  <HBA2>
2

>  <HBD>
1

>  <logP>
1.7895

>  <TPSA>
16.96

>  <MW>
150.221

$$$$

 OpenBabel02121609142D

 14 15  0  0  0  0  0  0  0  0999 V2000
    1.7292    0.4500    0.0000 N   0  0  0  0  0  0  0  0  0  0  0  0
    2.3167   -0.3542    0.0000 C   0  0  0  0  0  0  0  0  0  0  0  0
   -3.2708    0.4500    0.0000 N   0  0  0  0  0  0  0  0  0  0  0  0
    0.7292    0.4500    0.0000 C   0  0  0  0  0  0  0  0  0  0  0  0
   -2.2708    0.4500    0.0000 C   0  0  0  0  0  0  0  0  0  0  0  0
    2.0042   -1.3125    0.0000 O   0  0  0  0  0  0  0  0  0  0  0  0
    0.2292    1.3208    0.0000 C   0  0  0  0  0  0  0  0  0  0  0  0
    0.2292   -0.4167    0.0000 C   0  0  0  0  0  0  0  0  0  0  0  0
   -1.2708    0.4500    0.0000 C   0  0  0  0  0  0  0  0  0  0  0  0
    2.3167    1.2583    0.0000 C   0  0  0  0  0  0  0  0  0  0  0  0
   -0.7708   -0.4167    0.0000 C   0  0  0  0  0  0  0  0  0  0  0  0
   -0.7708    1.3208    0.0000 C   0  0  0  0  0  0  0  0  0  0  0  0
    3.2667   -0.0500    0.0000 C   0  0  0  0  0  0  0  0  0  0  0  0
    3.2667    0.9500    0.0000 C   0  0  0  0  0  0  0  0  0  0  0  0
  2  1  1  0  0  0  0
  3  5  3  0  0  0  0
  4  1  1  0  0  0  0
  5  9  1  0  0  0  0
  6  2  2  0  0  0  0
  7  4  1  0  0  0  0
  8  4  2  0  0  0  0
  9 11  2  0  0  0  0
 10  1  1  0  0  0  0
 11  8  1  0  0  0  0
 12  7  2  0  0  0  0
 12  9  1  0  0  0  0
 13  2  1  0  0  0  0
 13 14  1  0  0  0  0
 14 10  1  0  0  0  0
M  END
>  <idnumber>
T5432839

>  <LogP>
1.860000000000000e+000

>  <rotating_bonds>
2.000000000000000e+000

>  <hb_acceptors>
2.000000000000000e+000

>  <hb_donors>
0.000000000000000e+000

>  <PSA>
4.410000000000000e+001

>  <clusterid>
-759

>  <is_centroid>
@

>  <class1>
673

>  <class2>
625

>  <population1>
18691

>  <population2>
877209

>  <population>
17790

>  <cansmi>
N#Cc1ccc(cc1)N1CCCC1=O

>  <HBA2>
3

>  <HBD>
0

>  <logP>
1.75008

>  <TPSA>
44.1

>  <MW>
186.21

$$$$

 OpenBabel02121609142D

 11 11  0  0  0  0  0  0  0  0999 V2000
   -0.0083    0.7500    0.0000 C   0  0  0  0  0  0  0  0  0  0  0  0
   -0.8708    0.2500    0.0000 C   0  0  0  0  0  0  0  0  0  0  0  0
    0.8625    0.2500    0.0000 C   0  0  0  0  0  0  0  0  0  0  0  0
   -0.8708   -0.7500    0.0000 N   0  0  0  0  0  0  0  0  0  0  0  0
    0.8625   -0.7500    0.0000 C   0  0  0  0  0  0  0  0  0  0  0  0
   -0.0083   -1.2500    0.0000 C   0  0  0  0  0  0  0  0  0  0  0  0
   -1.7333    0.7500    0.0000 O   0  0  0  0  0  0  0  0  0  0  0  0
   -0.0083    1.7500    0.0000 C   0  0  0  0  0  0  0  0  0  0  0  0
    1.7292    0.7500    0.0000 C   0  0  0  0  0  0  0  0  0  0  0  0
    0.8625    2.2500    0.0000 N   0  0  0  0  0  0  0  0  0  0  0  0
   -0.0083   -2.2500    0.0000 C   0  0  0  0  0  0  0  0  0  0  0  0
  2  1  1  0  0  0  0
  3  1  2  0  0  0  0
  4  2  1  0  0  0  0
  4  6  1  0  0  0  0
  5  3  1  0  0  0  0
  6  5  2  0  0  0  0
  7  2  2  0  0  0  0
  8  1  1  0  0  0  0
  9  3  1  0  0  0  0
 10  8  1  0  0  0  0
 11  6  1  0  0  0  0
M  END
>  <idnumber>
T5432853

>  <LogP>
-6.719999999999999e-001

>  <rotating_bonds>
1.000000000000000e+000

>  <hb_acceptors>
2.000000000000000e+000

>  <hb_donors>
2.000000000000000e+000

>  <PSA>
5.512000000000001e+001

>  <clusterid>
-760

>  <is_centroid>
@

>  <class1>
696

>  <population1>
4759

>  <population>
4759

>  <cansmi>
Cc1cc(C)[nH]c(=O)c1CN

>  <HBA2>
2

>  <HBD>
2

>  <logP>
1.1507

>  <TPSA>
58.88

>  <MW>
152.194

$$$$

 OpenBabel02121609142D

 15 16  0  0  0  0  0  0  0  0999 V2000
   -0.4333    0.2500    0.0000 N   0  0  0  0  0  0  0  0  0  0  0  0
    0.4292    0.7500    0.0000 C   0  0  0  0  0  0  0  0  0  0  0  0
    1.2917    0.2500    0.0000 C   0  0  0  0  0  0  0  0  0  0  0  0
    2.1625   -1.2500    0.0000 N   0  0  0  0  0  0  0  0  0  0  0  0
   -1.3000    0.7500    0.0000 C   0  0  0  0  0  0  0  0  0  0  0  0
   -0.4333   -0.7500    0.0000 C   0  0  0  0  0  0  0  0  0  0  0  0
    1.2917   -0.7500    0.0000 C   0  0  0  0  0  0  0  0  0  0  0  0
    0.4292    1.7500    0.0000 C   0  0  0  0  0  0  0  0  0  0  0  0
    2.1625    0.7500    0.0000 C   0  0  0  0  0  0  0  0  0  0  0  0
    2.1625   -2.2500    0.0000 C   0  0  0  0  0  0  0  0  0  0  0  0
   -1.3000   -1.2500    0.0000 C   0  0  0  0  0  0  0  0  0  0  0  0
   -2.1708    0.2500    0.0000 C   0  0  0  0  0  0  0  0  0  0  0  0
    1.2917    2.2500    0.0000 C   0  0  0  0  0  0  0  0  0  0  0  0
    2.1625    1.7500    0.0000 C   0  0  0  0  0  0  0  0  0  0  0  0
   -2.1708   -0.7500    0.0000 C   0  0  0  0  0  0  0  0  0  0  0  0
  2  1  1  0  0  0  0
  3  2  2  0  0  0  0
  4  7  1  0  0  0  0
  5  1  1  0  0  0  0
  6  1  1  0  0  0  0
  7  3  1  0  0  0  0
  8  2  1  0  0  0  0
  9  3  1  0  0  0  0
  9 14  2  0  0  0  0
 10  4  1  0  0  0  0
 11  6  1  0  0  0  0
 12  5  1  0  0  0  0
 12 15  1  0  0  0  0
 13  8  2  0  0  0  0
 14 13  1  0  0  0  0
 15 11  1  0  0  0  0
M  END
>  <idnumber>
T5437438

>  <LogP>
2.868000000000000e+000

>  <rotating_bonds>
3.000000000000000e+000

>  <hb_acceptors>
2.000000000000000e+000

>  <hb_donors>
1.000000000000000e+000

>  <PSA>
1.527000000000000e+001

>  <clusterid>
473

>  <is_centroid>
@

>  <class1>
639

>  <class2>
625

>  <population1>
59855

>  <population2>
877209

>  <population>
54917

>  <cansmi>
CNCc1ccccc1N1CCCCC1

>  <HBA2>
2

>  <HBD>
1

>  <logP>
2.8522

>  <TPSA>
15.27

>  <MW>
204.311

$$$$

 OpenBabel02121609142D

 15 16  0  0  0  0  0  0  0  0999 V2000
   -0.4333    0.2500    0.0000 N   0  0  0  0  0  0  0  0  0  0  0  0
    0.4292    0.7500    0.0000 C   0  0  0  0  0  0  0  0  0  0  0  0
    1.2917    0.2500    0.0000 C   0  0  0  0  0  0  0  0  0  0  0  0
   -2.1708   -0.7500    0.0000 O   0  0  0  0  0  0  0  0  0  0  0  0
    2.1625   -1.2500    0.0000 N   0  0  0  0  0  0  0  0  0  0  0  0
   -1.3000    0.7500    0.0000 C   0  0  0  0  0  0  0  0  0  0  0  0
   -0.4333   -0.7500    0.0000 C   0  0  0  0  0  0  0  0  0  0  0  0
    1.2917   -0.7500    0.0000 C   0  0  0  0  0  0  0  0  0  0  0  0
    0.4292    1.7500    0.0000 C   0  0  0  0  0  0  0  0  0  0  0  0
    2.1625    0.7500    0.0000 C   0  0  0  0  0  0  0  0  0  0  0  0
   -1.3000   -1.2500    0.0000 C   0  0  0  0  0  0  0  0  0  0  0  0
   -2.1708    0.2500    0.0000 C   0  0  0  0  0  0  0  0  0  0  0  0
    2.1625   -2.2500    0.0000 C   0  0  0  0  0  0  0  0  0  0  0  0
    1.2917    2.2500    0.0000 C   0  0  0  0  0  0  0  0  0  0  0  0
    2.1625    1.7500    0.0000 C   0  0  0  0  0  0  0  0  0  0  0  0
  2  1  1  0  0  0  0
  3  2  2  0  0  0  0
  4 11  1  0  0  0  0
  5  8  1  0  0  0  0
  6  1  1  0  0  0  0
  7  1  1  0  0  0  0
  8  3  1  0  0  0  0
  9  2  1  0  0  0  0
 10  3  1  0  0  0  0
 10 15  2  0  0  0  0
 11  7  1  0  0  0  0
 12  6  1  0  0  0  0
 12  4  1  0  0  0  0
 13  5  1  0  0  0  0
 14  9  2  0  0  0  0
 15 14  1  0  0  0  0
M  END
>  <idnumber>
T5437455

>  <LogP>
1.330000000000000e+000

>  <rotating_bonds>
3.000000000000000e+000

>  <hb_acceptors>
3.000000000000000e+000

>  <hb_donors>
1.000000000000000e+000

>  <PSA>
2.450000000000000e+001

>  <clusterid>
-764

>  <is_centroid>
@

>  <class1>
786

>  <class2>
625

>  <population1>
48067

>  <population2>
877209

>  <population>
45066

>  <cansmi>
CNCc1ccccc1N1CCOCC1

>  <HBA2>
3

>  <HBD>
1

>  <logP>
1.6985

>  <TPSA>
24.5

>  <MW>
206.284

$$$$

 OpenBabel02121609142D

 15 16  0  0  0  0  0  0  0  0999 V2000
    0.0000    1.7500    0.0000 N   0  0  0  0  0  0  0  0  0  0  0  0
    0.0000    0.7500    0.0000 C   0  0  0  0  0  0  0  0  0  0  0  0
    0.0000    3.7500    0.0000 O   0  0  0  0  0  0  0  0  0  0  0  0
    0.8625    0.2500    0.0000 C   0  0  0  0  0  0  0  0  0  0  0  0
   -0.8708    0.2500    0.0000 C   0  0  0  0  0  0  0  0  0  0  0  0
    0.8625   -0.7500    0.0000 C   0  0  0  0  0  0  0  0  0  0  0  0
   -0.8708   -0.7500    0.0000 C   0  0  0  0  0  0  0  0  0  0  0  0
    0.8625   -2.7500    0.0000 N   0  0  0  0  0  0  0  0  0  0  0  0
    0.0000   -1.2500    0.0000 C   0  0  0  0  0  0  0  0  0  0  0  0
    0.8625    2.2500    0.0000 C   0  0  0  0  0  0  0  0  0  0  0  0
   -0.8708    2.2500    0.0000 C   0  0  0  0  0  0  0  0  0  0  0  0
   -0.8708    3.2500    0.0000 C   0  0  0  0  0  0  0  0  0  0  0  0
    0.8625    3.2500    0.0000 C   0  0  0  0  0  0  0  0  0  0  0  0
    0.0000   -2.2500    0.0000 C   0  0  0  0  0  0  0  0  0  0  0  0
    0.8625   -3.7500    0.0000 C   0  0  0  0  0  0  0  0  0  0  0  0
  2  1  1  0  0  0  0
  3 12  1  0  0  0  0
  4  2  1  0  0  0  0
  5  2  2  0  0  0  0
  6  4  2  0  0  0  0
  7  5  1  0  0  0  0
  8 14  1  0  0  0  0
  9  7  2  0  0  0  0
  9  6  1  0  0  0  0
 10  1  1  0  0  0  0
 11  1  1  0  0  0  0
 12 11  1  0  0  0  0
 13 10  1  0  0  0  0
 13  3  1  0  0  0  0
 14  9  1  0  0  0  0
 15  8  1  0  0  0  0
M  END
>  <idnumber>
T5437458

>  <LogP>
1.330000000000000e+000

>  <rotating_bonds>
3.000000000000000e+000

>  <hb_acceptors>
3.000000000000000e+000

>  <hb_donors>
1.000000000000000e+000

>  <PSA>
2.450000000000000e+001

>  <clusterid>
-765

>  <is_centroid>
@

>  <class1>
786

>  <class2>
625

>  <population1>
48067

>  <population2>
877209

>  <population>
45066

>  <cansmi>
CNCc1ccc(cc1)N1CCOCC1

>  <HBA2>
3

>  <HBD>
1

>  <logP>
1.6985

>  <TPSA>
24.5

>  <MW>
206.284

$$$$

 OpenBabel02121609142D

 12 13  0  0  0  0  0  0  0  0999 V2000
   -0.7125    0.8875    0.0000 C   0  0  0  0  0  0  0  0  0  0  0  0
   -0.3500   -0.8042    0.0000 N   0  0  0  0  0  0  0  0  0  0  0  0
   -0.7125    2.5083    0.0000 S   0  0  0  0  0  0  0  0  0  0  0  0
   -1.3000    1.6958    0.0000 C   0  0  0  0  0  0  0  0  0  0  0  0
    0.2375    1.1958    0.0000 C   0  0  0  0  0  0  0  0  0  0  0  0
    0.9875   -2.2917    0.0000 N   0  0  0  0  0  0  0  0  0  0  0  0
   -1.0208   -0.0625    0.0000 C   0  0  0  0  0  0  0  0  0  0  0  0
    0.2375    2.1958    0.0000 C   0  0  0  0  0  0  0  0  0  0  0  0
    0.6250   -0.6000    0.0000 C   0  0  0  0  0  0  0  0  0  0  0  0
   -0.6625   -1.7542    0.0000 C   0  0  0  0  0  0  0  0  0  0  0  0
    0.0042   -2.5000    0.0000 C   0  0  0  0  0  0  0  0  0  0  0  0
    1.2917   -1.3417    0.0000 C   0  0  0  0  0  0  0  0  0  0  0  0
  2  7  1  0  0  0  0
  3  4  1  0  0  0  0
  4  1  2  0  0  0  0
  5  1  1  0  0  0  0
  6 11  1  0  0  0  0
  7  1  1  0  0  0  0
  8  5  2  0  0  0  0
  8  3  1  0  0  0  0
  9  2  1  0  0  0  0
 10  2  1  0  0  0  0
 11 10  1  0  0  0  0
 12  9  1  0  0  0  0
 12  6  1  0  0  0  0
M  END
>  <idnumber>
T5437459

>  <LogP>
1.521000000000000e+000

>  <rotating_bonds>
2.000000000000000e+000

>  <hb_acceptors>
3.000000000000000e+000

>  <hb_donors>
1.000000000000000e+000

>  <PSA>
4.351000000000000e+001

>  <clusterid>
-766

>  <is_centroid>
@

>  <class1>
645

>  <class2>
717

>  <population1>
105961

>  <population2>
74368

>  <population>
9228

>  <cansmi>
N1CCN(CC1)Cc1cscc1

>  <HBA2>
3

>  <HBD>
1

>  <logP>
1.42

>  <TPSA>
43.51

>  <MW>
182.286

$$$$

 OpenBabel02121609142D

 13 14  0  0  0  0  0  0  0  0999 V2000
   -0.3500   -0.8042    0.0000 C   0  0  0  0  0  0  0  0  0  0  0  0
   -1.0208   -0.0625    0.0000 C   0  0  0  0  0  0  0  0  0  0  0  0
   -0.7125    0.8875    0.0000 C   0  0  0  0  0  0  0  0  0  0  0  0
    0.6250   -0.6000    0.0000 C   0  0  0  0  0  0  0  0  0  0  0  0
   -1.3000    1.6958    0.0000 S   0  0  0  0  0  0  0  0  0  0  0  0
   -0.7125    2.5083    0.0000 C   0  0  0  0  0  0  0  0  0  0  0  0
    0.2375    1.1958    0.0000 C   0  0  0  0  0  0  0  0  0  0  0  0
    0.2375    2.1958    0.0000 C   0  0  0  0  0  0  0  0  0  0  0  0
    0.9375    0.3500    0.0000 O   0  0  0  0  0  0  0  0  0  0  0  0
   -0.6625   -1.7542    0.0000 C   0  0  0  0  0  0  0  0  0  0  0  0
    1.2917   -1.3417    0.0000 C   0  0  0  0  0  0  0  0  0  0  0  0
    0.0042   -2.5000    0.0000 C   0  0  0  0  0  0  0  0  0  0  0  0
    0.9875   -2.2917    0.0000 C   0  0  0  0  0  0  0  0  0  0  0  0
  2  1  2  0  0  0  0
  3  2  1  0  0  0  0
  4  1  1  0  0  0  0
  5  3  1  0  0  0  0
  6  5  1  0  0  0  0
  7  3  2  0  0  0  0
  8  7  1  0  0  0  0
  8  6  2  0  0  0  0
  9  4  2  0  0  0  0
 10  1  1  0  0  0  0
 11  4  1  0  0  0  0
 11 13  1  0  0  0  0
 12 10  1  0  0  0  0
 13 12  1  0  0  0  0
M  END
>  <idnumber>
T5437487

>  <LogP>
2.854000000000000e+000

>  <rotating_bonds>
1.000000000000000e+000

>  <hb_acceptors>
2.000000000000000e+000

>  <hb_donors>
0.000000000000000e+000

>  <PSA>
4.531000000000000e+001

>  <clusterid>
-768

>  <is_centroid>
@

>  <class1>
645

>  <class2>
839

>  <population1>
105961

>  <population2>
1494

>  <population>
95

>  <cansmi>
O=C1CCCC/C/1=C/c1cccs1

>  <HBA2>
2

>  <HBD>
0

>  <logP>
3.2746

>  <TPSA>
45.31

>  <MW>
192.277

$$$$

 OpenBabel02121609142D

 19 21  0  0  0  0  0  0  0  0999 V2000
    0.3167   -0.7542    0.0000 N   0  0  0  0  0  0  0  0  0  0  0  0
    1.2667   -0.4417    0.0000 N   0  0  0  0  0  0  0  0  0  0  0  0
   -0.2708    0.0583    0.0000 C   0  0  3  0  0  0  0  0  0  0  0  0
    1.2667    0.5583    0.0000 C   0  0  0  0  0  0  0  0  0  0  0  0
   -1.2708    0.0583    0.0000 C   0  0  0  0  0  0  0  0  0  0  0  0
    0.3167    0.8625    0.0000 C   0  0  0  0  0  0  0  0  0  0  0  0
   -1.8583   -0.7542    0.0000 O   0  0  0  0  0  0  0  0  0  0  0  0
    0.0042   -1.7042    0.0000 C   0  0  0  0  0  0  0  0  0  0  0  0
    2.0667    1.1458    0.0000 C   0  0  0  0  0  0  0  0  0  0  0  0
   -2.8083   -0.4417    0.0000 C   0  0  0  0  0  0  0  0  0  0  0  0
   -1.8583    0.8625    0.0000 C   0  0  0  0  0  0  0  0  0  0  0  0
   -2.8083    0.5583    0.0000 C   0  0  0  0  0  0  0  0  0  0  0  0
    2.0667    2.1458    0.0000 O   0  0  0  0  0  0  0  0  0  0  0  0
    3.0292    0.8333    0.0000 C   0  0  0  0  0  0  0  0  0  0  0  0
    0.6750   -2.4500    0.0000 O   0  0  0  0  0  0  0  0  0  0  0  0
    3.0292    2.4583    0.0000 C   0  0  0  0  0  0  0  0  0  0  0  0
    3.6167    1.6458    0.0000 C   0  0  0  0  0  0  0  0  0  0  0  0
   -3.6208   -1.0292    0.0000 Cl  0  0  0  0  0  0  0  0  0  0  0  0
   -0.9708   -1.9125    0.0000 C   0  0  0  0  0  0  0  0  0  0  0  0
  2  1  1  0  0  0  0
  3  1  1  0  0  0  0
  4  2  2  0  0  0  0
  4  6  1  0  0  0  0
  5  3  1  0  0  0  0
  6  3  1  0  0  0  0
  7  5  1  0  0  0  0
  8  1  1  0  0  0  0
  9  4  1  0  0  0  0
 10  7  1  0  0  0  0
 11  5  2  0  0  0  0
 12 11  1  0  0  0  0
 12 10  2  0  0  0  0
 13  9  1  0  0  0  0
 14  9  2  0  0  0  0
 15  8  2  0  0  0  0
 16 13  1  0  0  0  0
 17 14  1  0  0  0  0
 17 16  2  0  0  0  0
 18 10  1  0  0  0  0
 19  8  1  0  0  0  0
M  END
>  <idnumber>
T5438160

>  <LogP>
2.222000000000000e+000

>  <rotating_bonds>
2.000000000000000e+000

>  <hb_acceptors>
3.000000000000000e+000

>  <hb_donors>
0.000000000000000e+000

>  <PSA>
5.895000000000000e+001

>  <clusterid>
-770

>  <is_centroid>
@

>  <class1>
663

>  <class2>
704

>  <class3>
704

>  <population1>
5869

>  <population2>
51112

>  <population3>
51112

>  <population>
1694

>  <cansmi>
CC(=O)N1N=C(CC1c1ccc(o1)Cl)c1ccco1

>  <HBA2>
5

>  <HBD>
0

>  <logP>
2.5971

>  <TPSA>
58.95

>  <MW>
278.691

$$$$

 OpenBabel02121609142D

 20 21  0  0  0  0  0  0  0  0999 V2000
   -0.4333    1.7750    0.0000 C   0  0  0  0  0  0  0  0  0  0  0  0
    0.4292    1.2750    0.0000 C   0  0  0  0  0  0  0  0  0  0  0  0
    1.2917    1.7750    0.0000 C   0  0  0  0  0  0  0  0  0  0  0  0
   -1.3000    1.2750    0.0000 N   0  0  0  0  0  0  0  0  0  0  0  0
    0.4292    3.2750    0.0000 C   0  0  0  0  0  0  0  0  0  0  0  0
   -0.4333   -3.2250    0.0000 C   0  0  0  0  0  0  0  0  0  0  0  0
   -1.3000   -2.7250    0.0000 N   0  0  0  0  0  0  0  0  0  0  0  0
   -0.4333    2.7750    0.0000 C   0  0  0  0  0  0  0  0  0  0  0  0
    2.1625    1.2750    0.0000 O   0  0  0  0  0  0  0  0  0  0  0  0
   -0.4333   -4.2250    0.0000 O   0  0  0  0  0  0  0  0  0  0  0  0
    1.2917    2.7750    0.0000 C   0  0  0  0  0  0  0  0  0  0  0  0
   -1.3000    0.2750    0.0000 C   0  0  0  0  0  0  0  0  0  0  0  0
   -1.3000   -1.7250    0.0000 C   0  0  0  0  0  0  0  0  0  0  0  0
   -0.4333   -0.2167    0.0000 C   0  0  0  0  0  0  0  0  0  0  0  0
   -0.4333   -1.2250    0.0000 C   0  0  0  0  0  0  0  0  0  0  0  0
   -2.1708   -0.2167    0.0000 C   0  0  0  0  0  0  0  0  0  0  0  0
   -2.1708   -1.2250    0.0000 C   0  0  0  0  0  0  0  0  0  0  0  0
    0.7250    4.2167    0.0000 C   0  0  0  0  0  0  0  0  0  0  0  0
    0.1375    4.2167    0.0000 C   0  0  0  0  0  0  0  0  0  0  0  0
    0.4292   -2.7250    0.0000 C   0  0  0  0  0  0  0  0  0  0  0  0
  2  1  2  0  0  0  0
  3  2  1  0  0  0  0
  3 11  1  0  0  0  0
  4  1  1  0  0  0  0
  5  8  1  0  0  0  0
  6  7  1  0  0  0  0
  7 13  1  0  0  0  0
  8  1  1  0  0  0  0
  9  3  2  0  0  0  0
 10  6  2  0  0  0  0
 11  5  1  0  0  0  0
 12  4  1  0  0  0  0
 13 17  2  0  0  0  0
 13 15  1  0  0  0  0
 14 12  1  0  0  0  0
 15 14  2  0  0  0  0
 16 12  2  0  0  0  0
 17 16  1  0  0  0  0
 18  5  1  0  0  0  0
 19  5  1  0  0  0  0
 20  6  1  0  0  0  0
M  END
>  <idnumber>
T5438167

>  <LogP>
2.436000000000000e+000

>  <rotating_bonds>
3.000000000000000e+000

>  <hb_acceptors>
3.000000000000000e+000

>  <hb_donors>
2.000000000000000e+000

>  <PSA>
5.820000000000000e+001

>  <clusterid>
-771

>  <is_centroid>
@

>  <class1>
625

>  <class2>
906

>  <population1>
877209

>  <population2>
1170

>  <population>
992

>  <cansmi>
CC(=O)Nc1ccc(cc1)NC1=CC(=O)CC(C1)(C)C

>  <HBA2>
4

>  <HBD>
2

>  <logP>
3.4759

>  <TPSA>
58.2

>  <MW>
272.342

$$$$

 OpenBabel02121609142D

 21 23  0  0  0  0  0  0  0  0999 V2000
   -0.8708    0.2500    0.0000 C   0  0  0  0  0  0  0  0  0  0  0  0
   -0.8708   -0.7500    0.0000 N   0  0  0  0  0  0  0  0  0  0  0  0
   -1.7333   -1.2500    0.0000 C   0  0  0  0  0  0  0  0  0  0  0  0
    0.0000    0.7500    0.0000 C   0  0  0  0  0  0  0  0  0  0  0  0
   -1.7333    0.7500    0.0000 C   0  0  0  0  0  0  0  0  0  0  0  0
   -2.6000    0.2500    0.0000 C   0  0  0  0  0  0  0  0  0  0  0  0
   -2.6000   -0.7500    0.0000 C   0  0  0  0  0  0  0  0  0  0  0  0
    0.8625    0.2500    0.0000 N   0  0  0  0  0  0  0  0  0  0  0  0
   -1.7333   -2.2500    0.0000 O   0  0  0  0  0  0  0  0  0  0  0  0
    0.0000    1.7500    0.0000 O   0  0  0  0  0  0  0  0  0  0  0  0
    1.7292    0.7500    0.0000 C   0  0  0  0  0  0  0  0  0  0  0  0
    3.4625    1.7500    0.0000 C   0  0  0  0  0  0  0  0  0  0  0  0
    1.7292    1.7500    0.0000 C   0  0  0  0  0  0  0  0  0  0  0  0
    2.5917    0.2500    0.0000 C   0  0  0  0  0  0  0  0  0  0  0  0
    2.5917    2.2583    0.0000 C   0  0  0  0  0  0  0  0  0  0  0  0
    3.4625    0.7500    0.0000 C   0  0  0  0  0  0  0  0  0  0  0  0
   -3.4708    0.7500    0.0000 C   0  0  0  0  0  0  0  0  0  0  0  0
   -3.4708   -1.2500    0.0000 C   0  0  0  0  0  0  0  0  0  0  0  0
    4.3292    2.2583    0.0000 C   0  0  0  0  0  0  0  0  0  0  0  0
   -4.3333    0.2500    0.0000 C   0  0  0  0  0  0  0  0  0  0  0  0
   -4.3333   -0.7500    0.0000 C   0  0  0  0  0  0  0  0  0  0  0  0
  2  1  1  0  0  0  0
  3  2  1  0  0  0  0
  3  7  1  0  0  0  0
  4  1  1  0  0  0  0
  5  1  2  0  0  0  0
  6  5  1  0  0  0  0
  7  6  2  0  0  0  0
  8  4  1  0  0  0  0
  9  3  2  0  0  0  0
 10  4  2  0  0  0  0
 11  8  1  0  0  0  0
 12 16  2  0  0  0  0
 12 15  1  0  0  0  0
 13 11  1  0  0  0  0
 14 11  2  0  0  0  0
 15 13  2  0  0  0  0
 16 14  1  0  0  0  0
 17  6  1  0  0  0  0
 18  7  1  0  0  0  0
 19 12  1  0  0  0  0
 20 17  2  0  0  0  0
 21 20  1  0  0  0  0
 21 18  2  0  0  0  0
M  END
>  <idnumber>
T5438751

>  <LogP>
2.403000000000000e+000

>  <rotating_bonds>
2.000000000000000e+000

>  <hb_acceptors>
2.000000000000000e+000

>  <hb_donors>
2.000000000000000e+000

>  <PSA>
5.820000000000000e+001

>  <clusterid>
-773

>  <is_centroid>
@

>  <class1>
625

>  <class2>
650

>  <population1>
877209

>  <population2>
168

>  <population>
168

>  <cansmi>
Cc1ccc(cc1)NC(=O)c1cc2ccccc2c(=O)[nH]1

>  <HBA2>
3

>  <HBD>
2

>  <logP>
3.1618

>  <TPSA>
61.96

>  <MW>
278.305

$$$$

 OpenBabel02121609142D

 20 22  0  0  0  0  0  0  0  0999 V2000
   -1.3000   -1.2500    0.0000 N   0  0  0  0  0  0  0  0  0  0  0  0
   -0.4333   -0.7500    0.0000 C   0  0  0  0  0  0  0  0  0  0  0  0
   -1.3000    0.7500    0.0000 N   0  0  0  0  0  0  0  0  0  0  0  0
   -0.4333    0.2500    0.0000 C   0  0  0  0  0  0  0  0  0  0  0  0
   -2.1708   -0.7500    0.0000 C   0  0  0  0  0  0  0  0  0  0  0  0
   -2.1708    0.2500    0.0000 C   0  0  0  0  0  0  0  0  0  0  0  0
    0.4292    0.7500    0.0000 C   0  0  0  0  0  0  0  0  0  0  0  0
    1.2917    0.2500    0.0000 C   0  0  0  0  0  0  0  0  0  0  0  0
    0.4292   -1.2500    0.0000 O   0  0  0  0  0  0  0  0  0  0  0  0
   -1.3000   -2.2500    0.0000 C   0  0  0  0  0  0  0  0  0  0  0  0
    2.1625    0.7500    0.0000 C   0  0  0  0  0  0  0  0  0  0  0  0
   -3.0333   -1.2500    0.0000 C   0  0  0  0  0  0  0  0  0  0  0  0
   -3.0333    0.7500    0.0000 C   0  0  0  0  0  0  0  0  0  0  0  0
    2.1625    1.7583    0.0000 C   0  0  0  0  0  0  0  0  0  0  0  0
    3.0292    0.2500    0.0000 C   0  0  0  0  0  0  0  0  0  0  0  0
   -3.9000   -0.7500    0.0000 C   0  0  0  0  0  0  0  0  0  0  0  0
   -3.9000    0.2500    0.0000 C   0  0  0  0  0  0  0  0  0  0  0  0
    3.8917    0.7500    0.0000 C   0  0  0  0  0  0  0  0  0  0  0  0
    3.0292    2.2500    0.0000 C   0  0  0  0  0  0  0  0  0  0  0  0
    3.8917    1.7583    0.0000 C   0  0  0  0  0  0  0  0  0  0  0  0
  2  1  1  0  0  0  0
  3  6  1  0  0  0  0
  4  2  1  0  0  0  0
  4  3  2  0  0  0  0
  5  1  1  0  0  0  0
  6  5  2  0  0  0  0
  7  4  1  0  0  0  0
  8  7  2  0  0  0  0
  9  2  2  0  0  0  0
 10  1  1  0  0  0  0
 11  8  1  0  0  0  0
 12  5  1  0  0  0  0
 13  6  1  0  0  0  0
 13 17  2  0  0  0  0
 14 11  2  0  0  0  0
 15 11  1  0  0  0  0
 16 12  2  0  0  0  0
 17 16  1  0  0  0  0
 18 15  2  0  0  0  0
 19 14  1  0  0  0  0
 19 20  2  0  0  0  0
 20 18  1  0  0  0  0
M  END
>  <idnumber>
T5439693

>  <LogP>
2.813000000000000e+000

>  <rotating_bonds>
2.000000000000000e+000

>  <hb_acceptors>
2.000000000000000e+000

>  <hb_donors>
0.000000000000000e+000

>  <PSA>
3.267000000000000e+001

>  <clusterid>
478

>  <is_centroid>
@

>  <class1>
625

>  <class2>
802

>  <population1>
877209

>  <population2>
1299

>  <population>
1299

>  <cansmi>
O=c1c(/C=C/c2ccccc2)nc2c(n1C)cccc2

>  <HBA2>
3

>  <HBD>
0

>  <logP>
3.1039

>  <TPSA>
34.89

>  <MW>
262.306

$$$$

 OpenBabel02121609142D

 11 11  0  0  0  0  0  0  0  0999 V2000
    0.0000   -0.2500    0.0000 C   0  0  0  0  0  0  0  0  0  0  0  0
    0.8625    0.2500    0.0000 N   0  0  0  0  0  0  0  0  0  0  0  0
   -0.8708    1.2500    0.0000 N   0  0  0  0  0  0  0  0  0  0  0  0
   -0.8708    0.2500    0.0000 C   0  0  0  0  0  0  0  0  0  0  0  0
    0.0000   -1.2500    0.0000 N   0  0  0  0  0  0  0  0  0  0  0  0
    0.8625    1.2500    0.0000 C   0  0  0  0  0  0  0  0  0  0  0  0
    0.0000    1.7500    0.0000 C   0  0  0  0  0  0  0  0  0  0  0  0
   -0.8708   -1.7500    0.0000 C   0  0  0  0  0  0  0  0  0  0  0  0
    0.8625   -1.7500    0.0000 C   0  0  0  0  0  0  0  0  0  0  0  0
   -1.7333   -0.2500    0.0000 C   0  0  0  0  0  0  0  0  0  0  0  0
    1.7292    1.7500    0.0000 C   0  0  0  0  0  0  0  0  0  0  0  0
  2  1  1  0  0  0  0
  3  4  1  0  0  0  0
  4  1  2  0  0  0  0
  5  1  1  0  0  0  0
  6  2  2  0  0  0  0
  6  7  1  0  0  0  0
  7  3  2  0  0  0  0
  8  5  1  0  0  0  0
  9  5  1  0  0  0  0
 10  4  1  0  0  0  0
 11  6  1  0  0  0  0
M  END
>  <idnumber>
T5441132

>  <LogP>
1.592000000000000e+000

>  <rotating_bonds>
1.000000000000000e+000

>  <hb_acceptors>
3.000000000000000e+000

>  <hb_donors>
0.000000000000000e+000

>  <PSA>
2.902000000000000e+001

>  <clusterid>
-774

>  <is_centroid>
@

>  <class1>
815

>  <population1>
7310

>  <population>
7310

>  <cansmi>
Cc1cnc(c(n1)N(C)C)C

>  <HBA2>
3

>  <HBD>
0

>  <logP>
1.1594

>  <TPSA>
29.02

>  <MW>
151.209

$$$$

 OpenBabel02121609142D

 18 19  0  0  0  0  0  0  0  0999 V2000
    0.4292   -0.2500    0.0000 C   0  0  0  0  0  0  0  0  0  0  0  0
   -1.3000   -1.2500    0.0000 C   0  0  0  0  0  0  0  0  0  0  0  0
   -1.3000   -0.2500    0.0000 N   0  0  0  0  0  0  0  0  0  0  0  0
    0.4292   -1.2500    0.0000 C   0  0  0  0  0  0  0  0  0  0  0  0
   -0.4333    0.2500    0.0000 C   0  0  3  0  0  0  0  0  0  0  0  0
   -0.4333   -1.7500    0.0000 N   0  0  0  0  0  0  0  0  0  0  0  0
    1.2917    0.2500    0.0000 C   0  0  0  0  0  0  0  0  0  0  0  0
   -2.1708   -1.7500    0.0000 O   0  0  0  0  0  0  0  0  0  0  0  0
   -0.4333    1.2500    0.0000 C   0  0  0  0  0  0  0  0  0  0  0  0
    1.2917    1.2500    0.0000 O   0  0  0  0  0  0  0  0  0  0  0  0
   -0.4333   -2.7500    0.0000 C   0  0  0  0  0  0  0  0  0  0  0  0
    2.1625   -0.2500    0.0000 C   0  0  0  0  0  0  0  0  0  0  0  0
   -1.3000    1.7500    0.0000 C   0  0  0  0  0  0  0  0  0  0  0  0
    0.4292    1.7500    0.0000 C   0  0  0  0  0  0  0  0  0  0  0  0
    0.4292   -3.2500    0.0000 C   0  0  0  0  0  0  0  0  0  0  0  0
    0.4292    2.7500    0.0000 C   0  0  0  0  0  0  0  0  0  0  0  0
   -1.3000    2.7500    0.0000 C   0  0  0  0  0  0  0  0  0  0  0  0
   -0.4333    3.2500    0.0000 C   0  0  0  0  0  0  0  0  0  0  0  0
  2  3  1  0  0  0  0
  3  5  1  0  0  0  0
  4  1  2  0  0  0  0
  5  1  1  0  0  0  0
  6  4  1  0  0  0  0
  6  2  1  0  0  0  0
  7  1  1  0  0  0  0
  8  2  2  0  0  0  0
  9  5  1  0  0  0  0
 10  7  2  0  0  0  0
 11  6  1  0  0  0  0
 12  7  1  0  0  0  0
 13  9  2  0  0  0  0
 14  9  1  0  0  0  0
 15 11  1  0  0  0  0
 16 14  2  0  0  0  0
 17 13  1  0  0  0  0
 17 18  2  0  0  0  0
 18 16  1  0  0  0  0
M  END
>  <idnumber>
T5441171

>  <LogP>
2.139000000000000e+000

>  <rotating_bonds>
3.000000000000000e+000

>  <hb_acceptors>
2.000000000000000e+000

>  <hb_donors>
1.000000000000000e+000

>  <PSA>
4.941000000000003e+001

>  <clusterid>
480

>  <is_centroid>
@

>  <class1>
843

>  <class2>
625

>  <population1>
25773

>  <population2>
877209

>  <population>
21178

>  <cansmi>
CCN1C=C(C(=O)C)C(NC1=O)c1ccccc1

>  <HBA2>
4

>  <HBD>
1

>  <logP>
2.5124

>  <TPSA>
49.41

>  <MW>
244.289

$$$$

 OpenBabel02121609142D

 12 13  0  0  0  0  0  0  0  0999 V2000
    1.1292    0.0000    0.0000 N   0  0  0  0  0  0  0  0  0  0  0  0
    0.5417   -0.8042    0.0000 C   0  0  0  0  0  0  0  0  0  0  0  0
    0.5417    0.8125    0.0000 C   0  0  3  0  0  0  0  0  0  0  0  0
   -0.4083   -0.5000    0.0000 C   0  0  0  0  0  0  0  0  0  0  0  0
   -0.4083    0.5000    0.0000 C   0  0  0  0  0  0  0  0  0  0  0  0
    0.8542   -1.7542    0.0000 O   0  0  0  0  0  0  0  0  0  0  0  0
    0.8542    1.7625    0.0000 O   0  0  0  0  0  0  0  0  0  0  0  0
    2.1292    0.0000    0.0000 C   0  0  0  0  0  0  0  0  0  0  0  0
   -1.2708   -1.0000    0.0000 C   0  0  0  0  0  0  0  0  0  0  0  0
   -1.2708    1.0000    0.0000 C   0  0  0  0  0  0  0  0  0  0  0  0
   -2.1375    0.5000    0.0000 C   0  0  0  0  0  0  0  0  0  0  0  0
   -2.1375   -0.5000    0.0000 C   0  0  0  0  0  0  0  0  0  0  0  0
  2  1  1  0  0  0  0
  3  1  1  0  0  0  0
  4  2  1  0  0  0  0
  5  3  1  0  0  0  0
  5  4  2  0  0  0  0
  6  2  2  0  0  0  0
  7  3  1  0  0  0  0
  8  1  1  0  0  0  0
  9  4  1  0  0  0  0
 10  5  1  0  0  0  0
 11 10  2  0  0  0  0
 11 12  1  0  0  0  0
 12  9  2  0  0  0  0
M  END
>  <idnumber>
T5441180

>  <LogP>
4.460000000000000e-001

>  <rotating_bonds>
0.000000000000000e+000

>  <hb_acceptors>
2.000000000000000e+000

>  <hb_donors>
1.000000000000000e+000

>  <PSA>
4.053999999999999e+001

>  <clusterid>
-776

>  <is_centroid>
@

>  <class1>
721

>  <population1>
7864

>  <population>
7864

>  <cansmi>
O=C1c2ccccc2C(N1C)O

>  <HBA2>
3

>  <HBD>
1

>  <logP>
0.701

>  <TPSA>
40.54

>  <MW>
163.173

$$$$

 OpenBabel02121609142D

 14 15  0  0  0  0  0  0  0  0999 V2000
    1.2917    0.0000    0.0000 N   0  0  0  0  0  0  0  0  0  0  0  0
    1.2917    1.0000    0.0000 C   0  0  0  0  0  0  0  0  0  0  0  0
    0.4292   -0.5000    0.0000 C   0  0  0  0  0  0  0  0  0  0  0  0
   -0.4333    0.0000    0.0000 C   0  0  0  0  0  0  0  0  0  0  0  0
    0.4292    1.5000    0.0000 N   0  0  0  0  0  0  0  0  0  0  0  0
   -0.4333    1.0000    0.0000 C   0  0  0  0  0  0  0  0  0  0  0  0
    2.1625    1.5000    0.0000 O   0  0  0  0  0  0  0  0  0  0  0  0
    0.4292   -1.5000    0.0000 O   0  0  0  0  0  0  0  0  0  0  0  0
    2.1625   -0.5000    0.0000 C   0  0  0  0  0  0  0  0  0  0  0  0
   -1.3000   -0.5000    0.0000 C   0  0  0  0  0  0  0  0  0  0  0  0
   -1.3000    1.5000    0.0000 C   0  0  0  0  0  0  0  0  0  0  0  0
    2.1625   -1.5000    0.0000 C   0  0  0  0  0  0  0  0  0  0  0  0
   -2.1708    0.0000    0.0000 C   0  0  0  0  0  0  0  0  0  0  0  0
   -2.1708    1.0000    0.0000 C   0  0  0  0  0  0  0  0  0  0  0  0
  2  1  1  0  0  0  0
  3  1  1  0  0  0  0
  4  3  1  0  0  0  0
  5  2  1  0  0  0  0
  5  6  1  0  0  0  0
  6  4  2  0  0  0  0
  7  2  2  0  0  0  0
  8  3  2  0  0  0  0
  9  1  1  0  0  0  0
 10  4  1  0  0  0  0
 11  6  1  0  0  0  0
 11 14  2  0  0  0  0
 12  9  1  0  0  0  0
 13 10  2  0  0  0  0
 14 13  1  0  0  0  0
M  END
>  <idnumber>
T5442563

>  <LogP>
1.913000000000000e+000

>  <rotating_bonds>
1.000000000000000e+000

>  <hb_acceptors>
2.000000000000000e+000

>  <hb_donors>
1.000000000000000e+000

>  <PSA>
4.941000000000003e+001

>  <clusterid>
125

>  <is_centroid>
@

>  <class1>
655

>  <population1>
569

>  <population>
569

>  <cansmi>
CCn1c(=O)[nH]c2c(c1=O)cccc2

>  <HBA2>
3

>  <HBD>
1

>  <logP>
0.7097

>  <TPSA>
54.86

>  <MW>
190.199

$$$$

 OpenBabel02121609142D

 13 14  0  0  0  0  0  0  0  0999 V2000
    0.8250    0.4708    0.0000 C   0  0  0  0  0  0  0  0  0  0  0  0
    0.3542   -0.4167    0.0000 C   0  0  0  0  0  0  0  0  0  0  0  0
   -0.0583    0.0000    0.0000 C   0  0  0  0  0  0  0  0  0  0  0  0
    0.8917   -1.2625    0.0000 O   0  0  0  0  0  0  0  0  0  0  0  0
    1.2042    0.1208    0.0000 O   0  0  0  0  0  0  0  0  0  0  0  0
    0.8250    1.4708    0.0000 C   0  0  0  0  0  0  0  0  0  0  0  0
    1.8250    0.4708    0.0000 C   0  0  0  0  0  0  0  0  0  0  0  0
    1.8250    1.4708    0.0000 C   0  0  0  0  0  0  0  0  0  0  0  0
   -0.9083    0.5333    0.0000 C   0  0  0  0  0  0  0  0  0  0  0  0
   -0.1000   -0.9917    0.0000 C   0  0  0  0  0  0  0  0  0  0  0  0
   -0.9833   -1.4625    0.0000 C   0  0  0  0  0  0  0  0  0  0  0  0
   -1.7958    0.0708    0.0000 C   0  0  0  0  0  0  0  0  0  0  0  0
   -1.8333   -0.9292    0.0000 C   0  0  0  0  0  0  0  0  0  0  0  0
  2  1  1  0  0  0  0
  3  1  1  0  0  0  0
  4  2  2  0  0  0  0
  5  2  1  0  0  0  0
  6  1  1  0  0  0  0
  6  8  1  0  0  0  0
  7  1  1  0  0  0  0
  8  7  1  0  0  0  0
  9  3  1  0  0  0  0
 10  3  2  0  0  0  0
 11 10  1  0  0  0  0
 12  9  2  0  0  0  0
 12 13  1  0  0  0  0
 13 11  2  0  0  0  0
M  END
>  <idnumber>
T5442579

>  <LogP>
2.317000000000000e+000

>  <rotating_bonds>
2.000000000000000e+000

>  <hb_acceptors>
2.000000000000000e+000

>  <hb_donors>
1.000000000000000e+000

>  <PSA>
3.730000000000000e+001

>  <clusterid>
483

>  <is_centroid>
@

>  <class1>
722

>  <class2>
625

>  <population1>
1463

>  <population2>
877209

>  <population>
1259

>  <cansmi>
OC(=O)C1(CCC1)c1ccccc1

>  <HBA2>
2

>  <HBD>
1

>  <logP>
2.1929

>  <TPSA>
37.3

>  <MW>
176.212

$$$$

 OpenBabel02121609142D

 20 23  0  0  0  0  0  0  0  0999 V2000
    0.2750   -1.6792    0.0000 C   0  0  3  0  0  0  0  0  0  0  0  0
   -0.5583   -1.1667    0.0000 C   0  0  0  0  0  0  0  0  0  0  0  0
    0.2167   -2.6250    0.0000 C   0  0  0  0  0  0  0  0  0  0  0  0
    0.8500   -2.5917    0.0000 C   0  0  0  0  0  0  0  0  0  0  0  0
    1.1292   -1.1167    0.0000 C   0  0  0  0  0  0  0  0  0  0  0  0
   -0.4583   -0.2042    0.0000 N   0  0  0  0  0  0  0  0  0  0  0  0
    1.6417   -1.5250    0.0000 C   0  0  3  0  0  0  0  0  0  0  0  0
    1.1417   -3.0792    0.0000 C   0  0  3  0  0  0  0  0  0  0  0  0
    2.1042   -1.7625    0.0000 C   0  0  3  0  0  0  0  0  0  0  0  0
   -1.3500   -1.7167    0.0000 O   0  0  0  0  0  0  0  0  0  0  0  0
   -2.1125    2.6083    0.0000 N   0  0  0  0  0  0  0  0  0  0  0  0
    0.9292   -1.7792    0.0000 C   0  0  0  0  0  0  0  0  0  0  0  0
    1.5667   -2.4917    0.0000 C   0  0  0  0  0  0  0  0  0  0  0  0
    2.0667   -2.6625    0.0000 C   0  0  0  0  0  0  0  0  0  0  0  0
   -1.2875    1.1833    0.0000 C   0  0  0  0  0  0  0  0  0  0  0  0
   -1.3083    0.2333    0.0000 C   0  0  0  0  0  0  0  0  0  0  0  0
   -2.1125    1.6583    0.0000 C   0  0  0  0  0  0  0  0  0  0  0  0
   -1.2875    3.0875    0.0000 C   0  0  0  0  0  0  0  0  0  0  0  0
   -0.4583    1.6583    0.0000 C   0  0  0  0  0  0  0  0  0  0  0  0
   -0.4583    2.6083    0.0000 C   0  0  0  0  0  0  0  0  0  0  0  0
  2  1  1  0  0  0  0
  3  1  1  0  0  0  0
  4  1  1  0  0  0  0
  5  1  1  0  0  0  0
  6  2  1  0  0  0  0
  7  4  1  0  0  0  0
  8  3  1  0  0  0  0
  8 14  1  0  0  0  0
  8 12  1  0  0  0  0
  9  5  1  0  0  0  0
 10  2  2  0  0  0  0
 11 17  1  0  0  0  0
 11 18  2  0  0  0  0
 12  7  1  0  0  0  0
 13  9  1  0  0  0  0
 13  7  1  0  0  0  0
 14  9  1  0  0  0  0
 15 16  1  0  0  0  0
 16  6  1  0  0  0  0
 17 15  2  0  0  0  0
 18 20  1  0  0  0  0
 19 15  1  0  0  0  0
 20 19  2  0  0  0  0
M  END
>  <idnumber>
T5445640

>  <LogP>
2.112000000000000e+000

>  <rotating_bonds>
3.000000000000000e+000

>  <hb_acceptors>
2.000000000000000e+000

>  <hb_donors>
1.000000000000000e+000

>  <PSA>
4.199000000000000e+001

>  <clusterid>
-781

>  <is_centroid>
@

>  <class1>
809

>  <class2>
632

>  <population1>
8162

>  <population2>
79489

>  <population>
345

>  <cansmi>
O=C(C12CC3CC(C2)CC(C1)C3)NCc1cccnc1

>  <HBA2>
3

>  <HBD>
1

>  <logP>
3.3051

>  <TPSA>
41.99

>  <MW>
270.369

$$$$

 OpenBabel02121609142D

 11 12  0  0  0  0  0  0  0  0999 V2000
   -0.5333    0.1208    0.0000 C   0  0  0  0  0  0  0  0  0  0  0  0
   -0.5333   -0.8792    0.0000 C   0  0  0  0  0  0  0  0  0  0  0  0
   -1.4833   -1.1875    0.0000 O   0  0  0  0  0  0  0  0  0  0  0  0
   -1.4833    0.4333    0.0000 C   0  0  0  0  0  0  0  0  0  0  0  0
    0.3292   -1.3792    0.0000 C   0  0  0  0  0  0  0  0  0  0  0  0
    0.3292    0.6208    0.0000 C   0  0  0  0  0  0  0  0  0  0  0  0
   -2.0708   -0.3792    0.0000 C   0  0  0  0  0  0  0  0  0  0  0  0
   -1.7958    1.3833    0.0000 O   0  0  0  0  0  0  0  0  0  0  0  0
    1.2000   -0.8792    0.0000 C   0  0  0  0  0  0  0  0  0  0  0  0
    1.2000    0.1208    0.0000 C   0  0  0  0  0  0  0  0  0  0  0  0
    2.0667   -1.3792    0.0000 O   0  0  0  0  0  0  0  0  0  0  0  0
  2  1  2  0  0  0  0
  3  2  1  0  0  0  0
  4  1  1  0  0  0  0
  5  2  1  0  0  0  0
  5  9  2  0  0  0  0
  6  1  1  0  0  0  0
  7  4  1  0  0  0  0
  7  3  1  0  0  0  0
  8  4  2  0  0  0  0
  9 10  1  0  0  0  0
 10  6  2  0  0  0  0
 11  9  1  0  0  0  0
M  END
>  <idnumber>
T5445989

>  <LogP>
1.084000000000000e+000

>  <rotating_bonds>
0.000000000000000e+000

>  <hb_acceptors>
3.000000000000000e+000

>  <hb_donors>
1.000000000000000e+000

>  <PSA>
4.652999999999997e+001

>  <clusterid>
-785

>  <is_centroid>
@

>  <class1>
724

>  <population1>
72

>  <population>
72

>  <cansmi>
Oc1ccc2c(c1)OCC2=O

>  <HBA2>
3

>  <HBD>
1

>  <logP>
0.9673

>  <TPSA>
46.53

>  <MW>
150.131

$$$$

 OpenBabel02121609142D

 16 17  0  0  0  0  0  0  0  0999 V2000
    0.4292    1.2500    0.0000 N   0  0  0  0  0  0  0  0  0  0  0  0
   -0.4333    1.7500    0.0000 C   0  0  0  0  0  0  0  0  0  0  0  0
    0.4292   -2.7500    0.0000 C   0  0  0  0  0  0  0  0  0  0  0  0
    0.4292    0.2500    0.0000 C   0  0  0  0  0  0  0  0  0  0  0  0
    0.4292   -1.7500    0.0000 C   0  0  0  0  0  0  0  0  0  0  0  0
   -1.3000    1.2500    0.0000 O   0  0  0  0  0  0  0  0  0  0  0  0
    1.2917   -3.2500    0.0000 O   0  0  0  0  0  0  0  0  0  0  0  0
   -0.4333   -0.2500    0.0000 C   0  0  0  0  0  0  0  0  0  0  0  0
    1.2917   -0.2500    0.0000 C   0  0  0  0  0  0  0  0  0  0  0  0
   -0.4333   -1.2500    0.0000 C   0  0  0  0  0  0  0  0  0  0  0  0
    1.2917   -1.2500    0.0000 C   0  0  0  0  0  0  0  0  0  0  0  0
   -0.4333   -3.2500    0.0000 O   0  0  0  0  0  0  0  0  0  0  0  0
    1.2917    1.7500    0.0000 C   0  0  0  0  0  0  0  0  0  0  0  0
   -0.4333    2.7500    0.0000 C   0  0  0  0  0  0  0  0  0  0  0  0
    1.2917    2.7500    0.0000 C   0  0  0  0  0  0  0  0  0  0  0  0
    0.4292    3.2500    0.0000 C   0  0  0  0  0  0  0  0  0  0  0  0
  2  1  1  0  0  0  0
  3  5  1  0  0  0  0
  4  1  1  0  0  0  0
  5 11  1  0  0  0  0
  6  2  2  0  0  0  0
  7  3  2  0  0  0  0
  8  4  2  0  0  0  0
  9  4  1  0  0  0  0
 10  8  1  0  0  0  0
 10  5  2  0  0  0  0
 11  9  2  0  0  0  0
 12  3  1  0  0  0  0
 13  1  1  0  0  0  0
 14  2  1  0  0  0  0
 14 16  1  0  0  0  0
 15 13  1  0  0  0  0
 16 15  1  0  0  0  0
M  END
>  <idnumber>
T5446015

>  <LogP>
2.564000000000000e+000

>  <rotating_bonds>
2.000000000000000e+000

>  <hb_acceptors>
3.000000000000000e+000

>  <hb_donors>
1.000000000000000e+000

>  <PSA>
5.761000000000000e+001

>  <clusterid>
-786

>  <is_centroid>
@

>  <class1>
725

>  <class2>
625

>  <population1>
303

>  <population2>
877209

>  <population>
283

>  <cansmi>
O=C1CCCCN1c1ccc(cc1)C(=O)O

>  <HBA2>
4

>  <HBD>
1

>  <logP>
1.9667

>  <TPSA>
57.61

>  <MW>
219.237

$$$$

 OpenBabel02121609142D

 19 20  0  0  0  0  0  0  0  0999 V2000
   -0.4250   -2.7042    0.0000 C   0  0  0  0  0  0  0  0  0  0  0  0
    0.1417    1.8375    0.0000 C   0  0  0  0  0  0  0  0  0  0  0  0
    0.8042    1.0958    0.0000 N   0  0  0  0  0  0  0  0  0  0  0  0
   -0.1208   -1.7542    0.0000 C   0  0  0  0  0  0  0  0  0  0  0  0
    0.2417   -3.4542    0.0000 N   0  0  0  0  0  0  0  0  0  0  0  0
   -1.4083   -2.9167    0.0000 O   0  0  0  0  0  0  0  0  0  0  0  0
   -0.8375    1.6333    0.0000 O   0  0  0  0  0  0  0  0  0  0  0  0
    0.4500    2.7875    0.0000 C   0  0  0  0  0  0  0  0  0  0  0  0
    0.8625   -1.5500    0.0000 C   0  0  0  0  0  0  0  0  0  0  0  0
   -0.7875   -1.0167    0.0000 C   0  0  0  0  0  0  0  0  0  0  0  0
    0.5000    0.1458    0.0000 C   0  0  0  0  0  0  0  0  0  0  0  0
   -0.4833   -0.0625    0.0000 C   0  0  0  0  0  0  0  0  0  0  0  0
    1.1667   -0.6000    0.0000 C   0  0  0  0  0  0  0  0  0  0  0  0
    1.2167   -3.2417    0.0000 C   0  0  0  0  0  0  0  0  0  0  0  0
   -0.0708   -4.4042    0.0000 C   0  0  0  0  0  0  0  0  0  0  0  0
    1.4000    3.1083    0.0000 C   0  0  0  0  0  0  0  0  0  0  0  0
   -0.1375    3.6083    0.0000 C   0  0  0  0  0  0  0  0  0  0  0  0
    0.4500    4.4042    0.0000 C   0  0  0  0  0  0  0  0  0  0  0  0
    1.4000    4.0917    0.0000 C   0  0  0  0  0  0  0  0  0  0  0  0
  2  3  1  0  0  0  0
  3 11  1  0  0  0  0
  4  1  1  0  0  0  0
  5  1  1  0  0  0  0
  6  1  2  0  0  0  0
  7  2  2  0  0  0  0
  8  2  1  0  0  0  0
  9  4  1  0  0  0  0
 10  4  2  0  0  0  0
 11 12  2  0  0  0  0
 12 10  1  0  0  0  0
 13  9  2  0  0  0  0
 13 11  1  0  0  0  0
 14  5  1  0  0  0  0
 15  5  1  0  0  0  0
 16  8  1  0  0  0  0
 17  8  1  0  0  0  0
 18 17  1  0  0  0  0
 19 16  1  0  0  0  0
 19 18  1  0  0  0  0
M  END
>  <idnumber>
T5446181

>  <LogP>
1.567000000000000e+000

>  <rotating_bonds>
3.000000000000000e+000

>  <hb_acceptors>
2.000000000000000e+000

>  <hb_donors>
1.000000000000000e+000

>  <PSA>
4.941000000000003e+001

>  <clusterid>
487

>  <is_centroid>
@

>  <class1>
674

>  <class2>
625

>  <population1>
16474

>  <population2>
877209

>  <population>
13629

>  <cansmi>
CN(C(=O)c1ccc(cc1)NC(=O)C1CCCC1)C

>  <HBA2>
4

>  <HBD>
1

>  <logP>
2.5901

>  <TPSA>
49.41

>  <MW>
260.332

$$$$

 OpenBabel02121609142D

 16 18  0  0  0  0  0  0  0  0999 V2000
   -0.3000    0.6208    0.0000 C   0  0  0  0  0  0  0  0  0  0  0  0
    2.1917   -0.2500    0.0000 C   0  0  3  0  0  0  0  0  0  0  0  0
   -0.8875    1.4333    0.0000 N   0  0  0  0  0  0  0  0  0  0  0  0
    0.7000    0.6208    0.0000 N   0  0  0  0  0  0  0  0  0  0  0  0
    1.2000   -0.2500    0.0000 C   0  0  0  0  0  0  0  0  0  0  0  0
    3.0667    0.2500    0.0000 C   0  0  0  0  0  0  0  0  0  0  0  0
   -0.8875   -0.1917    0.0000 N   0  0  0  0  0  0  0  0  0  0  0  0
    3.0667   -0.7500    0.0000 C   0  0  3  0  0  0  0  0  0  0  0  0
   -1.8458    1.1208    0.0000 C   0  0  0  0  0  0  0  0  0  0  0  0
   -1.8458    0.1208    0.0000 C   0  0  0  0  0  0  0  0  0  0  0  0
    0.7000   -1.1125    0.0000 O   0  0  0  0  0  0  0  0  0  0  0  0
    3.5667   -1.6125    0.0000 C   0  0  0  0  0  0  0  0  0  0  0  0
   -2.7083    1.6208    0.0000 C   0  0  0  0  0  0  0  0  0  0  0  0
   -2.7083   -0.3792    0.0000 C   0  0  0  0  0  0  0  0  0  0  0  0
   -3.5708    0.1208    0.0000 C   0  0  0  0  0  0  0  0  0  0  0  0
   -3.5708    1.1208    0.0000 C   0  0  0  0  0  0  0  0  0  0  0  0
  2  5  1  0  0  0  0
  3  1  2  0  0  0  0
  4  1  1  0  0  0  0
  5  4  1  0  0  0  0
  6  2  1  0  0  0  0
  7  1  1  0  0  0  0
  8  2  1  0  0  0  0
  8  6  1  0  0  0  0
  9  3  1  0  0  0  0
  9 10  2  0  0  0  0
 10  7  1  0  0  0  0
 11  5  2  0  0  0  0
 12  8  1  0  0  0  0
 13  9  1  0  0  0  0
 14 10  1  0  0  0  0
 15 14  2  0  0  0  0
 16 13  2  0  0  0  0
 16 15  1  0  0  0  0
M  END
>  <idnumber>
T5446732

>  <LogP>
2.285000000000000e+000

>  <rotating_bonds>
2.000000000000000e+000

>  <hb_acceptors>
2.000000000000000e+000

>  <hb_donors>
2.000000000000000e+000

>  <PSA>
5.778000000000000e+001

>  <clusterid>
323

>  <is_centroid>
@

>  <class1>
675

>  <class2>
685

>  <population1>
33654

>  <population2>
28767

>  <population>
409

>  <cansmi>
CC1CC1C(=O)Nc1nc2c([nH]1)cccc2

>  <HBA2>
3

>  <HBD>
2

>  <logP>
2.2304

>  <TPSA>
57.78

>  <MW>
215.251

$$$$

 OpenBabel02121609142D

 19 21  0  0  0  0  0  0  0  0999 V2000
   -2.1708   -0.7500    0.0000 N   0  0  0  0  0  0  0  0  0  0  0  0
   -1.3000    0.7500    0.0000 N   0  0  0  0  0  0  0  0  0  0  0  0
   -2.1708    0.2500    0.0000 C   0  0  0  0  0  0  0  0  0  0  0  0
   -1.3000   -1.2500    0.0000 C   0  0  0  0  0  0  0  0  0  0  0  0
   -0.4333   -0.7500    0.0000 C   0  0  0  0  0  0  0  0  0  0  0  0
   -0.4333    0.2500    0.0000 C   0  0  0  0  0  0  0  0  0  0  0  0
   -3.0333   -1.2500    0.0000 C   0  0  0  0  0  0  0  0  0  0  0  0
   -3.0333    0.7500    0.0000 C   0  0  0  0  0  0  0  0  0  0  0  0
    0.4292    0.7500    0.0000 N   0  0  0  0  0  0  0  0  0  0  0  0
   -1.3000   -2.2500    0.0000 O   0  0  0  0  0  0  0  0  0  0  0  0
   -3.9000   -0.7500    0.0000 C   0  0  0  0  0  0  0  0  0  0  0  0
   -3.9000    0.2500    0.0000 C   0  0  0  0  0  0  0  0  0  0  0  0
    1.2917    0.2500    0.0000 C   0  0  0  0  0  0  0  0  0  0  0  0
    2.1625    0.7500    0.0000 C   0  0  0  0  0  0  0  0  0  0  0  0
    2.1625    1.7500    0.0000 C   0  0  0  0  0  0  0  0  0  0  0  0
    3.0292    0.2500    0.0000 C   0  0  0  0  0  0  0  0  0  0  0  0
    3.8917    0.7500    0.0000 C   0  0  0  0  0  0  0  0  0  0  0  0
    3.0292    2.2500    0.0000 C   0  0  0  0  0  0  0  0  0  0  0  0
    3.8917    1.7500    0.0000 C   0  0  0  0  0  0  0  0  0  0  0  0
  2  3  2  0  0  0  0
  2  6  1  0  0  0  0
  3  1  1  0  0  0  0
  4  1  1  0  0  0  0
  5  4  1  0  0  0  0
  6  5  2  0  0  0  0
  7  1  1  0  0  0  0
  8  3  1  0  0  0  0
  8 12  2  0  0  0  0
  9  6  1  0  0  0  0
 10  4  2  0  0  0  0
 11  7  2  0  0  0  0
 12 11  1  0  0  0  0
 13  9  1  0  0  0  0
 14 13  1  0  0  0  0
 15 14  2  0  0  0  0
 16 14  1  0  0  0  0
 17 16  2  0  0  0  0
 18 15  1  0  0  0  0
 18 19  2  0  0  0  0
 19 17  1  0  0  0  0
M  END
>  <idnumber>
T5447567

>  <LogP>
1.684000000000000e+000

>  <rotating_bonds>
3.000000000000000e+000

>  <hb_acceptors>
3.000000000000000e+000

>  <hb_donors>
1.000000000000000e+000

>  <PSA>
4.470000000000000e+001

>  <clusterid>
488

>  <is_centroid>
@

>  <class1>
625

>  <class2>
806

>  <population1>
877209

>  <population2>
5354

>  <population>
3644

>  <cansmi>
O=c1cc(NCc2ccccc2)nc2n1cccc2

>  <HBA2>
4

>  <HBD>
1

>  <logP>
2.3796

>  <TPSA>
46.4

>  <MW>
251.283

$$$$

 OpenBabel02121609142D

 15 16  0  0  0  0  0  0  0  0999 V2000
   -1.7333    0.0000    0.0000 C   0  0  3  0  0  0  0  0  0  0  0  0
   -0.8708   -0.5000    0.0000 C   0  0  0  0  0  0  0  0  0  0  0  0
   -1.7333    1.0000    0.0000 C   0  0  3  0  0  0  0  0  0  0  0  0
    0.8625   -0.5000    0.0000 N   0  0  0  0  0  0  0  0  0  0  0  0
   -0.8708    1.5000    0.0000 C   0  0  0  0  0  0  0  0  0  0  0  0
    0.0000    0.0000    0.0000 C   0  0  3  0  0  0  0  0  0  0  0  0
    1.7292    0.0000    0.0000 C   0  0  0  0  0  0  0  0  0  0  0  0
    0.0000    1.0000    0.0000 C   0  0  0  0  0  0  0  0  0  0  0  0
    3.4625    0.0000    0.0000 O   0  0  0  0  0  0  0  0  0  0  0  0
    2.5917   -0.5000    0.0000 C   0  0  3  0  0  0  0  0  0  0  0  0
   -2.6000   -0.5000    0.0000 C   0  0  0  0  0  0  0  0  0  0  0  0
   -2.6000    1.5000    0.0000 C   0  0  0  0  0  0  0  0  0  0  0  0
    2.5917   -1.5000    0.0000 C   0  0  0  0  0  0  0  0  0  0  0  0
   -3.4708    0.0000    0.0000 C   0  0  0  0  0  0  0  0  0  0  0  0
   -3.4708    1.0000    0.0000 C   0  0  0  0  0  0  0  0  0  0  0  0
  2  1  1  0  0  0  0
  3  1  1  0  0  0  0
  4  6  1  0  0  0  0
  5  3  1  0  0  0  0
  6  2  1  0  0  0  0
  6  8  1  0  0  0  0
  7  4  1  0  0  0  0
  8  5  1  0  0  0  0
  9 10  1  0  0  0  0
 10  7  1  0  0  0  0
 11  1  1  0  0  0  0
 12  3  1  0  0  0  0
 12 15  1  0  0  0  0
 13 10  1  0  0  0  0
 14 11  1  0  0  0  0
 15 14  1  0  0  0  0
M  END
>  <idnumber>
T5448089

>  <LogP>
2.781000000000000e+000

>  <rotating_bonds>
3.000000000000000e+000

>  <hb_acceptors>
2.000000000000000e+000

>  <hb_donors>
2.000000000000000e+000

>  <PSA>
3.226000000000001e+001

>  <clusterid>
-788

>  <is_centroid>
@

>  <class1>
691

>  <population1>
133

>  <population>
133

>  <cansmi>
CC(CNC1CCC2C(C1)CCCC2)O

>  <HBA2>
2

>  <HBD>
2

>  <logP>
2.7066

>  <TPSA>
32.26

>  <MW>
211.344

$$$$

 OpenBabel02121609142D

 13 14  0  0  0  0  0  0  0  0999 V2000
    1.1000    0.0000    0.0000 N   0  0  0  0  0  0  0  0  0  0  0  0
    0.5125   -0.8042    0.0000 C   0  0  0  0  0  0  0  0  0  0  0  0
    0.5125    0.8125    0.0000 C   0  0  0  0  0  0  0  0  0  0  0  0
   -0.4375    0.5000    0.0000 C   0  0  0  0  0  0  0  0  0  0  0  0
   -0.4375   -0.5000    0.0000 C   0  0  0  0  0  0  0  0  0  0  0  0
    2.1000    0.0000    0.0000 C   0  0  0  0  0  0  0  0  0  0  0  0
    2.9667    0.5000    0.0000 C   0  0  0  0  0  0  0  0  0  0  0  0
    2.9667   -0.5000    0.0000 C   0  0  0  0  0  0  0  0  0  0  0  0
   -1.2458    1.0958    0.0000 C   0  0  0  0  0  0  0  0  0  0  0  0
    0.8167   -1.7542    0.0000 C   0  0  0  0  0  0  0  0  0  0  0  0
   -2.1625    0.6833    0.0000 N   0  0  0  0  0  0  0  0  0  0  0  0
    0.8167    1.7625    0.0000 C   0  0  0  0  0  0  0  0  0  0  0  0
   -2.9708    1.2708    0.0000 C   0  0  0  0  0  0  0  0  0  0  0  0
  2  1  1  0  0  0  0
  3  1  1  0  0  0  0
  4  3  2  0  0  0  0
  4  5  1  0  0  0  0
  5  2  2  0  0  0  0
  6  1  1  0  0  0  0
  7  6  1  0  0  0  0
  8  6  1  0  0  0  0
  8  7  1  0  0  0  0
  9  4  1  0  0  0  0
 10  2  1  0  0  0  0
 11  9  1  0  0  0  0
 12  3  1  0  0  0  0
 13 11  1  0  0  0  0
M  END
>  <idnumber>
T5448115

>  <LogP>
1.884000000000000e+000

>  <rotating_bonds>
3.000000000000000e+000

>  <hb_acceptors>
1.000000000000000e+000

>  <hb_donors>
1.000000000000000e+000

>  <PSA>
1.696000000000000e+001

>  <clusterid>
-789

>  <is_centroid>
@

>  <class1>
675

>  <class2>
635

>  <population1>
33654

>  <population2>
31512

>  <population>
1809

>  <cansmi>
CNCc1cc(n(c1C)C1CC1)C

>  <HBA2>
2

>  <HBD>
1

>  <logP>
2.5501

>  <TPSA>
16.96

>  <MW>
178.274

$$$$

 OpenBabel02121609142D

 17 19  0  0  0  0  0  0  0  0999 V2000
    0.9292    0.9333    0.0000 N   0  0  0  0  0  0  0  0  0  0  0  0
    0.0667    1.4333    0.0000 C   0  0  0  0  0  0  0  0  0  0  0  0
    0.0667   -0.5667    0.0000 C   0  0  0  0  0  0  0  0  0  0  0  0
    0.9292   -0.0667    0.0000 C   0  0  0  0  0  0  0  0  0  0  0  0
   -0.8000   -2.0667    0.0000 C   0  0  0  0  0  0  0  0  0  0  0  0
    0.0667   -1.5667    0.0000 N   0  0  0  0  0  0  0  0  0  0  0  0
    0.9292    2.9333    0.0000 S   0  0  0  0  0  0  0  0  0  0  0  0
   -1.8000   -2.0667    0.0000 C   0  0  0  0  0  0  0  0  0  0  0  0
   -1.3000   -2.9292    0.0000 C   0  0  0  0  0  0  0  0  0  0  0  0
    0.0667    2.4333    0.0000 C   0  0  0  0  0  0  0  0  0  0  0  0
   -0.8000   -0.0667    0.0000 O   0  0  0  0  0  0  0  0  0  0  0  0
    1.7917    1.4333    0.0000 C   0  0  0  0  0  0  0  0  0  0  0  0
    1.7917    2.4333    0.0000 C   0  0  0  0  0  0  0  0  0  0  0  0
   -0.8000    0.9333    0.0000 C   0  0  0  0  0  0  0  0  0  0  0  0
   -0.8000    2.9333    0.0000 C   0  0  0  0  0  0  0  0  0  0  0  0
   -1.6708    1.4333    0.0000 C   0  0  0  0  0  0  0  0  0  0  0  0
   -1.6708    2.4333    0.0000 C   0  0  0  0  0  0  0  0  0  0  0  0
  2  1  1  0  0  0  0
  3  4  1  0  0  0  0
  4  1  1  0  0  0  0
  5  6  1  0  0  0  0
  6  3  1  0  0  0  0
  7 13  1  0  0  0  0
  8  5  1  0  0  0  0
  8  9  1  0  0  0  0
  9  5  1  0  0  0  0
 10  2  2  0  0  0  0
 10  7  1  0  0  0  0
 11  3  2  0  0  0  0
 12  1  1  0  0  0  0
 13 12  1  0  0  0  0
 14  2  1  0  0  0  0
 15 10  1  0  0  0  0
 15 17  2  0  0  0  0
 16 14  2  0  0  0  0
 17 16  1  0  0  0  0
M  END
>  <idnumber>
T5448428

>  <LogP>
2.181000000000000e+000

>  <rotating_bonds>
3.000000000000000e+000

>  <hb_acceptors>
3.000000000000000e+000

>  <hb_donors>
1.000000000000000e+000

>  <PSA>
5.763999999999999e+001

>  <clusterid>
-790

>  <is_centroid>
@

>  <class1>
675

>  <class2>
690

>  <population1>
33654

>  <population2>
2083

>  <population>
43

>  <cansmi>
O=C(CN1CCSc2c1cccc2)NC1CC1

>  <HBA2>
4

>  <HBD>
1

>  <logP>
2.3332

>  <TPSA>
57.64

>  <MW>
248.344

$$$$

 OpenBabel02121609142D

 17 18  0  0  0  0  0  0  0  0999 V2000
    0.4292   -0.5000    0.0000 N   0  0  0  0  0  0  0  0  0  0  0  0
   -0.4333    0.0083    0.0000 C   0  0  0  0  0  0  0  0  0  0  0  0
   -1.3000    1.5000    0.0000 N   0  0  0  0  0  0  0  0  0  0  0  0
   -0.4333    1.0000    0.0000 C   0  0  0  0  0  0  0  0  0  0  0  0
    0.4292   -1.5000    0.0000 C   0  0  0  0  0  0  0  0  0  0  0  0
    1.2917    0.0083    0.0000 C   0  0  0  0  0  0  0  0  0  0  0  0
   -1.3000   -0.5000    0.0000 O   0  0  0  0  0  0  0  0  0  0  0  0
   -3.0333    2.5000    0.0000 N   0  0  0  0  0  0  0  0  0  0  0  0
    1.2917   -1.9917    0.0000 C   0  0  3  0  0  0  0  0  0  0  0  0
    2.1625   -0.5000    0.0000 C   0  0  3  0  0  0  0  0  0  0  0  0
    2.1625   -1.5000    0.0000 C   0  0  0  0  0  0  0  0  0  0  0  0
   -1.3000    2.5000    0.0000 C   0  0  0  0  0  0  0  0  0  0  0  0
   -2.1708    1.0000    0.0000 C   0  0  0  0  0  0  0  0  0  0  0  0
   -3.0333    1.5000    0.0000 C   0  0  0  0  0  0  0  0  0  0  0  0
   -2.1708    3.0000    0.0000 C   0  0  0  0  0  0  0  0  0  0  0  0
    1.2917   -2.9917    0.0000 C   0  0  0  0  0  0  0  0  0  0  0  0
    3.0292    0.0083    0.0000 C   0  0  0  0  0  0  0  0  0  0  0  0
  2  1  1  0  0  0  0
  3  4  1  0  0  0  0
  4  2  1  0  0  0  0
  5  1  1  0  0  0  0
  6  1  1  0  0  0  0
  7  2  2  0  0  0  0
  8 14  1  0  0  0  0
  9  5  1  0  0  0  0
  9 11  1  0  0  0  0
 10  6  1  0  0  0  0
 11 10  1  0  0  0  0
 12  3  1  0  0  0  0
 13  3  1  0  0  0  0
 14 13  1  0  0  0  0
 15 12  1  0  0  0  0
 15  8  1  0  0  0  0
 16  9  1  0  0  0  0
 17 10  1  0  0  0  0
M  END
>  <idnumber>
T5449389

>  <LogP>
1.414000000000000e+000

>  <rotating_bonds>
2.000000000000000e+000

>  <hb_acceptors>
3.000000000000000e+000

>  <hb_donors>
1.000000000000000e+000

>  <PSA>
3.558000000000000e+001

>  <clusterid>
489

>  <is_centroid>
@

>  <class1>
717

>  <class2>
639

>  <population1>
74368

>  <population2>
59855

>  <population>
1964

>  <cansmi>
CC1CC(C)CN(C1)C(=O)CN1CCNCC1

>  <HBA2>
4

>  <HBD>
1

>  <logP>
0.6007

>  <TPSA>
35.58

>  <MW>
239.357

$$$$

 OpenBabel02121609142D

 22 25  0  0  0  0  0  0  0  0999 V2000
    1.1792   -1.3667    0.0000 C   0  0  0  0  0  0  0  0  0  0  0  0
    0.2000   -1.1542    0.0000 C   0  0  0  0  0  0  0  0  0  0  0  0
   -0.1083   -0.2042    0.0000 N   0  0  0  0  0  0  0  0  0  0  0  0
    1.9167   -0.7000    0.0000 N   0  0  0  0  0  0  0  0  0  0  0  0
   -1.0583    0.1000    0.0000 C   0  0  0  0  0  0  0  0  0  0  0  0
    2.5792   -2.1750    0.0000 N   0  0  0  0  0  0  0  0  0  0  0  0
    2.7875   -1.2000    0.0000 C   0  0  0  0  0  0  0  0  0  0  0  0
    1.5792   -2.2792    0.0000 C   0  0  0  0  0  0  0  0  0  0  0  0
    0.4792    0.6000    0.0000 C   0  0  0  0  0  0  0  0  0  0  0  0
   -0.4708   -1.9042    0.0000 O   0  0  0  0  0  0  0  0  0  0  0  0
    1.8167    0.2958    0.0000 C   0  0  0  0  0  0  0  0  0  0  0  0
   -1.0583    1.1000    0.0000 C   0  0  0  0  0  0  0  0  0  0  0  0
   -0.1083    1.4083    0.0000 C   0  0  0  0  0  0  0  0  0  0  0  0
   -1.9250   -0.4000    0.0000 C   0  0  0  0  0  0  0  0  0  0  0  0
   -1.9250    1.6000    0.0000 C   0  0  0  0  0  0  0  0  0  0  0  0
    2.6250    0.8833    0.0000 C   0  0  0  0  0  0  0  0  0  0  0  0
    0.9042    0.7083    0.0000 C   0  0  0  0  0  0  0  0  0  0  0  0
   -2.7958    0.1000    0.0000 C   0  0  0  0  0  0  0  0  0  0  0  0
   -2.7958    1.1000    0.0000 C   0  0  0  0  0  0  0  0  0  0  0  0
    0.8000    1.6958    0.0000 C   0  0  0  0  0  0  0  0  0  0  0  0
    2.5167    1.8833    0.0000 C   0  0  0  0  0  0  0  0  0  0  0  0
    1.6042    2.2833    0.0000 C   0  0  0  0  0  0  0  0  0  0  0  0
  2  1  1  0  0  0  0
  3  2  1  0  0  0  0
  4  1  1  0  0  0  0
  5  3  1  0  0  0  0
  6  8  1  0  0  0  0
  6  7  2  0  0  0  0
  7  4  1  0  0  0  0
  8  1  2  0  0  0  0
  9  3  1  0  0  0  0
 10  2  2  0  0  0  0
 11  4  1  0  0  0  0
 12  5  2  0  0  0  0
 13  9  1  0  0  0  0
 13 12  1  0  0  0  0
 14  5  1  0  0  0  0
 15 12  1  0  0  0  0
 15 19  2  0  0  0  0
 16 11  1  0  0  0  0
 17 11  2  0  0  0  0
 18 14  2  0  0  0  0
 19 18  1  0  0  0  0
 20 17  1  0  0  0  0
 21 16  2  0  0  0  0
 21 22  1  0  0  0  0
 22 20  2  0  0  0  0
M  END
>  <idnumber>
T5450367

>  <LogP>
2.716000000000000e+000

>  <rotating_bonds>
2.000000000000000e+000

>  <hb_acceptors>
2.000000000000000e+000

>  <hb_donors>
0.000000000000000e+000

>  <PSA>
3.813000000000000e+001

>  <clusterid>
-792

>  <is_centroid>
@

>  <class1>
686

>  <class2>
732

>  <class3>
625

>  <population1>
31113

>  <population2>
13534

>  <population3>
877209

>  <population>
173

>  <cansmi>
O=C(N1CCc2c1cccc2)c1cncn1c1ccccc1

>  <HBA2>
4

>  <HBD>
0

>  <logP>
3.1402

>  <TPSA>
38.13

>  <MW>
289.331

$$$$

 OpenBabel02121609142D

 18 19  0  0  0  0  0  0  0  0999 V2000
   -0.1208    0.0583    0.0000 N   0  0  0  0  0  0  0  0  0  0  0  0
   -0.7083    0.8625    0.0000 C   0  0  0  0  0  0  0  0  0  0  0  0
   -0.7083   -0.7542    0.0000 C   0  0  0  0  0  0  0  0  0  0  0  0
   -1.6583   -0.4417    0.0000 C   0  0  0  0  0  0  0  0  0  0  0  0
   -1.6583    0.5583    0.0000 C   0  0  0  0  0  0  0  0  0  0  0  0
    0.8792    0.0583    0.0000 C   0  0  0  0  0  0  0  0  0  0  0  0
    1.3792   -0.8125    0.0000 C   0  0  0  0  0  0  0  0  0  0  0  0
   -0.3958    1.8208    0.0000 O   0  0  0  0  0  0  0  0  0  0  0  0
   -0.3958   -1.7042    0.0000 O   0  0  0  0  0  0  0  0  0  0  0  0
    2.3792   -0.8125    0.0000 C   0  0  0  0  0  0  0  0  0  0  0  0
    0.8792   -1.6750    0.0000 O   0  0  0  0  0  0  0  0  0  0  0  0
   -2.5208   -0.9417    0.0000 C   0  0  0  0  0  0  0  0  0  0  0  0
   -2.5208    1.0583    0.0000 C   0  0  0  0  0  0  0  0  0  0  0  0
    2.3792    0.1875    0.0000 C   0  0  0  0  0  0  0  0  0  0  0  0
    2.3792   -1.8125    0.0000 C   0  0  0  0  0  0  0  0  0  0  0  0
    3.3792   -0.8125    0.0000 C   0  0  0  0  0  0  0  0  0  0  0  0
   -3.3875    0.5583    0.0000 C   0  0  0  0  0  0  0  0  0  0  0  0
   -3.3875   -0.4417    0.0000 C   0  0  0  0  0  0  0  0  0  0  0  0
  2  1  1  0  0  0  0
  3  1  1  0  0  0  0
  4  3  1  0  0  0  0
  5  2  1  0  0  0  0
  5  4  2  0  0  0  0
  6  1  1  0  0  0  0
  7  6  1  0  0  0  0
  8  2  2  0  0  0  0
  9  3  2  0  0  0  0
 10  7  1  0  0  0  0
 11  7  2  0  0  0  0
 12  4  1  0  0  0  0
 13  5  1  0  0  0  0
 14 10  1  0  0  0  0
 15 10  1  0  0  0  0
 16 10  1  0  0  0  0
 17 13  2  0  0  0  0
 17 18  1  0  0  0  0
 18 12  2  0  0  0  0
M  END
>  <idnumber>
T5451590

>  <LogP>
2.465000000000000e+000

>  <rotating_bonds>
3.000000000000000e+000

>  <hb_acceptors>
3.000000000000000e+000

>  <hb_donors>
0.000000000000000e+000

>  <PSA>
5.445000000000000e+001

>  <clusterid>
490

>  <is_centroid>
@

>  <class1>
661

>  <population1>
7628

>  <population>
7628

>  <cansmi>
O=C(C(C)(C)C)CN1C(=O)c2c(C1=O)cccc2

>  <HBA2>
4

>  <HBD>
0

>  <logP>
1.8357

>  <TPSA>
54.45

>  <MW>
245.274

$$$$

 OpenBabel02121609142D

 18 20  0  0  0  0  0  0  0  0999 V2000
    0.0000    0.0000    0.0000 N   0  0  0  0  0  0  0  0  0  0  0  0
   -0.8708   -0.5000    0.0000 C   0  0  0  0  0  0  0  0  0  0  0  0
   -1.7333    0.0000    0.0000 C   0  0  0  0  0  0  0  0  0  0  0  0
   -0.8708    1.5000    0.0000 N   0  0  0  0  0  0  0  0  0  0  0  0
    0.0000    1.0000    0.0000 C   0  0  0  0  0  0  0  0  0  0  0  0
   -1.7333    1.0000    0.0000 C   0  0  0  0  0  0  0  0  0  0  0  0
    0.8625   -0.5000    0.0000 C   0  0  0  0  0  0  0  0  0  0  0  0
   -0.8708   -1.5000    0.0000 O   0  0  0  0  0  0  0  0  0  0  0  0
   -2.6000   -0.5000    0.0000 C   0  0  0  0  0  0  0  0  0  0  0  0
    1.7292    0.0000    0.0000 C   0  0  0  0  0  0  0  0  0  0  0  0
   -2.6000    1.5000    0.0000 C   0  0  0  0  0  0  0  0  0  0  0  0
    2.5917   -0.5000    0.0000 C   0  0  0  0  0  0  0  0  0  0  0  0
    1.7292    1.0000    0.0000 C   0  0  0  0  0  0  0  0  0  0  0  0
   -3.4708    0.0000    0.0000 C   0  0  0  0  0  0  0  0  0  0  0  0
   -3.4708    1.0000    0.0000 C   0  0  0  0  0  0  0  0  0  0  0  0
    2.5917    1.5000    0.0000 C   0  0  0  0  0  0  0  0  0  0  0  0
    3.4625    0.0000    0.0000 C   0  0  0  0  0  0  0  0  0  0  0  0
    3.4625    1.0000    0.0000 C   0  0  0  0  0  0  0  0  0  0  0  0
  2  1  1  0  0  0  0
  3  2  1  0  0  0  0
  4  5  2  0  0  0  0
  5  1  1  0  0  0  0
  6  4  1  0  0  0  0
  6  3  2  0  0  0  0
  7  1  1  0  0  0  0
  8  2  2  0  0  0  0
  9  3  1  0  0  0  0
 10  7  1  0  0  0  0
 11  6  1  0  0  0  0
 12 10  1  0  0  0  0
 13 10  2  0  0  0  0
 14  9  2  0  0  0  0
 15 11  2  0  0  0  0
 15 14  1  0  0  0  0
 16 13  1  0  0  0  0
 17 12  2  0  0  0  0
 17 18  1  0  0  0  0
 18 16  2  0  0  0  0
M  END
>  <idnumber>
T5453011

>  <LogP>
2.289000000000000e+000

>  <rotating_bonds>
2.000000000000000e+000

>  <hb_acceptors>
2.000000000000000e+000

>  <hb_donors>
0.000000000000000e+000

>  <PSA>
3.267000000000000e+001

>  <clusterid>
491

>  <is_centroid>
@

>  <class1>
625

>  <class2>
648

>  <population1>
877209

>  <population2>
19152

>  <population>
19152

>  <cansmi>
O=c1n(cnc2c1cccc2)Cc1ccccc1

>  <HBA2>
3

>  <HBD>
0

>  <logP>
2.4448

>  <TPSA>
34.89

>  <MW>
236.269

$$$$

 OpenBabel02121609142D

 18 20  0  0  0  0  0  0  0  0999 V2000
   -0.6208   -0.3625    0.0000 C   0  0  0  0  0  0  0  0  0  0  0  0
   -1.2083    0.4458    0.0000 N   0  0  0  0  0  0  0  0  0  0  0  0
    0.3792   -0.3625    0.0000 N   0  0  0  0  0  0  0  0  0  0  0  0
   -1.2083   -1.1750    0.0000 N   0  0  0  0  0  0  0  0  0  0  0  0
    0.8792    0.5000    0.0000 C   0  0  0  0  0  0  0  0  0  0  0  0
   -2.1583    0.1375    0.0000 C   0  0  0  0  0  0  0  0  0  0  0  0
   -2.1583   -0.8625    0.0000 C   0  0  0  0  0  0  0  0  0  0  0  0
    0.3792    1.3708    0.0000 O   0  0  0  0  0  0  0  0  0  0  0  0
    1.8792    0.5000    0.0000 C   0  0  3  0  0  0  0  0  0  0  0  0
    3.3792    1.3708    0.0000 C   0  0  0  0  0  0  0  0  0  0  0  0
    3.8792    0.5000    0.0000 C   0  0  0  0  0  0  0  0  0  0  0  0
    2.3792    1.3708    0.0000 C   0  0  0  0  0  0  0  0  0  0  0  0
   -3.0208    0.6375    0.0000 C   0  0  0  0  0  0  0  0  0  0  0  0
   -3.0208   -1.3625    0.0000 C   0  0  0  0  0  0  0  0  0  0  0  0
    3.3792   -0.3625    0.0000 C   0  0  0  0  0  0  0  0  0  0  0  0
    2.3792   -0.3625    0.0000 C   0  0  0  0  0  0  0  0  0  0  0  0
   -3.8958   -0.8625    0.0000 C   0  0  0  0  0  0  0  0  0  0  0  0
   -3.8958    0.1375    0.0000 C   0  0  0  0  0  0  0  0  0  0  0  0
  2  1  2  0  0  0  0
  3  1  1  0  0  0  0
  4  1  1  0  0  0  0
  5  3  1  0  0  0  0
  6  2  1  0  0  0  0
  6  7  2  0  0  0  0
  7  4  1  0  0  0  0
  8  5  2  0  0  0  0
  9  5  1  0  0  0  0
 10 12  1  0  0  0  0
 10 11  2  0  0  0  0
 11 15  1  0  0  0  0
 12  9  1  0  0  0  0
 13  6  1  0  0  0  0
 14  7  1  0  0  0  0
 15 16  1  0  0  0  0
 16  9  1  0  0  0  0
 17 14  2  0  0  0  0
 18 13  2  0  0  0  0
 18 17  1  0  0  0  0
M  END
>  <idnumber>
T5453164

>  <LogP>
2.959000000000000e+000

>  <rotating_bonds>
2.000000000000000e+000

>  <hb_acceptors>
2.000000000000000e+000

>  <hb_donors>
2.000000000000000e+000

>  <PSA>
5.778000000000000e+001

>  <clusterid>
-793

>  <is_centroid>
@

>  <class1>
810

>  <class2>
685

>  <population1>
20527

>  <population2>
28767

>  <population>
241

>  <cansmi>
O=C(C1CCC=CC1)Nc1nc2c([nH]1)cccc2

>  <HBA2>
3

>  <HBD>
2

>  <logP>
2.9307

>  <TPSA>
57.78

>  <MW>
241.288

$$$$

 OpenBabel02121609142D

 15 16  0  0  0  0  0  0  0  0999 V2000
    0.0125    0.5208    0.0000 C   0  0  0  0  0  0  0  0  0  0  0  0
    0.6792   -0.2292    0.0000 N   0  0  0  0  0  0  0  0  0  0  0  0
    0.3167    1.4708    0.0000 C   0  0  0  0  0  0  0  0  0  0  0  0
   -0.2708    2.2750    0.0000 S   0  0  0  0  0  0  0  0  0  0  0  0
    0.3667   -1.1792    0.0000 C   0  0  0  0  0  0  0  0  0  0  0  0
    1.2667    1.7750    0.0000 C   0  0  0  0  0  0  0  0  0  0  0  0
   -0.9708    0.3083    0.0000 O   0  0  0  0  0  0  0  0  0  0  0  0
    0.3167    3.0833    0.0000 C   0  0  0  0  0  0  0  0  0  0  0  0
   -0.6083   -1.3875    0.0000 C   0  0  0  0  0  0  0  0  0  0  0  0
    1.2667    2.7750    0.0000 C   0  0  0  0  0  0  0  0  0  0  0  0
   -1.2750   -0.6417    0.0000 Br  0  0  0  0  0  0  0  0  0  0  0  0
    1.0417   -1.9167    0.0000 C   0  0  0  0  0  0  0  0  0  0  0  0
   -0.9208   -2.3375    0.0000 C   0  0  0  0  0  0  0  0  0  0  0  0
    0.7292   -2.8667    0.0000 C   0  0  0  0  0  0  0  0  0  0  0  0
   -0.2458   -3.0792    0.0000 C   0  0  0  0  0  0  0  0  0  0  0  0
  2  1  1  0  0  0  0
  3  1  1  0  0  0  0
  4  3  1  0  0  0  0
  5  2  1  0  0  0  0
  6  3  2  0  0  0  0
  7  1  2  0  0  0  0
  8  4  1  0  0  0  0
  9  5  2  0  0  0  0
 10  6  1  0  0  0  0
 10  8  2  0  0  0  0
 11  9  1  0  0  0  0
 12  5  1  0  0  0  0
 13  9  1  0  0  0  0
 13 15  2  0  0  0  0
 14 12  2  0  0  0  0
 15 14  1  0  0  0  0
M  END
>  <idnumber>
T5453376

>  <LogP>
2.635000000000000e+000

>  <rotating_bonds>
2.000000000000000e+000

>  <hb_acceptors>
2.000000000000000e+000

>  <hb_donors>
1.000000000000000e+000

>  <PSA>
5.734000000000000e+001

>  <clusterid>
-794

>  <is_centroid>
@

>  <class1>
645

>  <class2>
625

>  <population1>
105961

>  <population2>
877209

>  <population>
84604

>  <cansmi>
O=C(c1cccs1)Nc1ccccc1Br

>  <HBA2>
3

>  <HBD>
1

>  <logP>
3.8359

>  <TPSA>
57.34

>  <MW>
282.156

$$$$

 OpenBabel02121609142D

 13 14  0  0  0  0  0  0  0  0999 V2000
    1.1292   -0.0542    0.0000 N   0  0  0  0  0  0  0  0  0  0  0  0
    0.1792    0.2583    0.0000 C   0  0  0  0  0  0  0  0  0  0  0  0
    1.7167    0.7583    0.0000 N   0  0  0  0  0  0  0  0  0  0  0  0
    0.1792    1.2583    0.0000 C   0  0  0  0  0  0  0  0  0  0  0  0
   -0.6875   -0.2417    0.0000 N   0  0  0  0  0  0  0  0  0  0  0  0
    1.1292    1.5625    0.0000 C   0  0  0  0  0  0  0  0  0  0  0  0
   -0.6875    1.7583    0.0000 C   0  0  0  0  0  0  0  0  0  0  0  0
    1.4375   -1.0042    0.0000 C   0  0  0  0  0  0  0  0  0  0  0  0
   -1.5583    0.2583    0.0000 C   0  0  0  0  0  0  0  0  0  0  0  0
   -1.5583    1.2583    0.0000 C   0  0  0  0  0  0  0  0  0  0  0  0
   -2.4208    1.7583    0.0000 N   0  0  0  0  0  0  0  0  0  0  0  0
    0.7667   -1.7500    0.0000 C   0  0  0  0  0  0  0  0  0  0  0  0
    2.4167   -1.2125    0.0000 C   0  0  0  0  0  0  0  0  0  0  0  0
  2  1  1  0  0  0  0
  3  1  1  0  0  0  0
  4  2  2  0  0  0  0
  5  2  1  0  0  0  0
  6  3  2  0  0  0  0
  6  4  1  0  0  0  0
  7  4  1  0  0  0  0
  7 10  2  0  0  0  0
  8  1  1  0  0  0  0
  9  5  2  0  0  0  0
 10  9  1  0  0  0  0
 11 10  1  0  0  0  0
 12  8  1  0  0  0  0
 13  8  1  0  0  0  0
M  END
>  <idnumber>
T5455178

>  <LogP>
1.418000000000000e+000

>  <rotating_bonds>
1.000000000000000e+000

>  <hb_acceptors>
3.000000000000000e+000

>  <hb_donors>
1.000000000000000e+000

>  <PSA>
5.673000000000000e+001

>  <clusterid>
-796

>  <is_centroid>
@

>  <class1>
726

>  <population1>
3632

>  <population>
3632

>  <cansmi>
Nc1cnc2c(c1)cnn2C(C)C

>  <HBA2>
4

>  <HBD>
1

>  <logP>
2.1756

>  <TPSA>
56.73

>  <MW>
176.218

$$$$

 OpenBabel02121609142D

 14 15  0  0  0  0  0  0  0  0999 V2000
    0.5917    0.4625    0.0000 C   0  0  0  0  0  0  0  0  0  0  0  0
    0.5792   -0.5375    0.0000 C   0  0  0  0  0  0  0  0  0  0  0  0
    0.0167   -0.3542    0.0000 C   0  0  0  0  0  0  0  0  0  0  0  0
    1.4417   -1.0500    0.0000 O   0  0  0  0  0  0  0  0  0  0  0  0
    1.3000    0.1625    0.0000 O   0  0  0  0  0  0  0  0  0  0  0  0
    0.0042    1.2750    0.0000 C   0  0  0  0  0  0  0  0  0  0  0  0
    1.5417    0.7750    0.0000 C   0  0  0  0  0  0  0  0  0  0  0  0
   -0.9750   -0.2625    0.0000 C   0  0  0  0  0  0  0  0  0  0  0  0
    0.4417   -1.2625    0.0000 C   0  0  0  0  0  0  0  0  0  0  0  0
    1.5417    1.7750    0.0000 C   0  0  0  0  0  0  0  0  0  0  0  0
    0.5917    2.0833    0.0000 C   0  0  0  0  0  0  0  0  0  0  0  0
   -0.1375   -2.0792    0.0000 C   0  0  0  0  0  0  0  0  0  0  0  0
   -1.5500   -1.0792    0.0000 C   0  0  0  0  0  0  0  0  0  0  0  0
   -1.1333   -1.9875    0.0000 C   0  0  0  0  0  0  0  0  0  0  0  0
  2  1  1  0  0  0  0
  3  1  1  0  0  0  0
  4  2  2  0  0  0  0
  5  2  1  0  0  0  0
  6  1  1  0  0  0  0
  7  1  1  0  0  0  0
  8  3  1  0  0  0  0
  9  3  2  0  0  0  0
 10  7  1  0  0  0  0
 10 11  1  0  0  0  0
 11  6  1  0  0  0  0
 12  9  1  0  0  0  0
 13  8  2  0  0  0  0
 13 14  1  0  0  0  0
 14 12  2  0  0  0  0
M  END
>  <idnumber>
T5455337

>  <LogP>
2.875999999999999e+000

>  <rotating_bonds>
2.000000000000000e+000

>  <hb_acceptors>
2.000000000000000e+000

>  <hb_donors>
1.000000000000000e+000

>  <PSA>
3.730000000000000e+001

>  <clusterid>
-800

>  <is_centroid>
@

>  <class1>
674

>  <class2>
625

>  <population1>
16474

>  <population2>
877209

>  <population>
13629

>  <cansmi>
OC(=O)C1(CCCC1)c1ccccc1

>  <HBA2>
2

>  <HBD>
1

>  <logP>
2.583

>  <TPSA>
37.3

>  <MW>
190.238

$$$$

 OpenBabel02121609142D

 15 16  0  0  0  0  0  0  0  0999 V2000
   -0.9083    1.5958    0.0000 N   0  0  0  0  0  0  0  0  0  0  0  0
    0.0000    0.1583    0.0000 C   0  0  0  0  0  0  0  0  0  0  0  0
    0.0000    1.1583    0.0000 C   0  0  3  0  0  0  0  0  0  0  0  0
    0.8625   -0.3417    0.0000 C   0  0  0  0  0  0  0  0  0  0  0  0
   -0.8708   -0.3417    0.0000 C   0  0  0  0  0  0  0  0  0  0  0  0
    0.0000   -1.8417    0.0000 C   0  0  0  0  0  0  0  0  0  0  0  0
    0.8625   -1.3417    0.0000 C   0  0  0  0  0  0  0  0  0  0  0  0
   -0.8708   -1.3417    0.0000 C   0  0  0  0  0  0  0  0  0  0  0  0
    0.0000   -2.8417    0.0000 O   0  0  0  0  0  0  0  0  0  0  0  0
   -1.1250    2.5708    0.0000 C   0  0  0  0  0  0  0  0  0  0  0  0
    0.9000    1.5958    0.0000 C   0  0  0  0  0  0  0  0  0  0  0  0
    0.8625   -3.3417    0.0000 C   0  0  0  0  0  0  0  0  0  0  0  0
   -0.5000    3.3458    0.0000 C   0  0  0  0  0  0  0  0  0  0  0  0
    1.1167    2.5708    0.0000 C   0  0  0  0  0  0  0  0  0  0  0  0
    0.5000    3.3458    0.0000 C   0  0  0  0  0  0  0  0  0  0  0  0
  2  3  1  0  0  0  0
  3  1  1  0  0  0  0
  4  2  1  0  0  0  0
  5  2  2  0  0  0  0
  6  8  2  0  0  0  0
  6  7  1  0  0  0  0
  7  4  2  0  0  0  0
  8  5  1  0  0  0  0
  9  6  1  0  0  0  0
 10  1  1  0  0  0  0
 11  3  1  0  0  0  0
 12  9  1  0  0  0  0
 13 10  1  0  0  0  0
 14 11  1  0  0  0  0
 14 15  1  0  0  0  0
 15 13  1  0  0  0  0
M  END
>  <idnumber>
T5462355

>  <LogP>
2.971000000000000e+000

>  <rotating_bonds>
2.000000000000000e+000

>  <hb_acceptors>
2.000000000000000e+000

>  <hb_donors>
1.000000000000000e+000

>  <PSA>
2.126000000000000e+001

>  <clusterid>
-805

>  <is_centroid>
@

>  <class1>
702

>  <class2>
625

>  <population1>
14026

>  <population2>
877209

>  <population>
12779

>  <cansmi>
COc1ccc(cc1)C1CCCCCN1

>  <HBA2>
2

>  <HBD>
1

>  <logP>
3.2287

>  <TPSA>
21.26

>  <MW>
205.296

$$$$

 OpenBabel02121609142D

 16 17  0  0  0  0  0  0  0  0999 V2000
   -0.8500    0.7833    0.0000 C   0  0  0  0  0  0  0  0  0  0  0  0
   -0.5458    1.7333    0.0000 C   0  0  0  0  0  0  0  0  0  0  0  0
   -1.1333    2.5458    0.0000 N   0  0  0  0  0  0  0  0  0  0  0  0
   -0.1833    0.0458    0.0000 N   0  0  0  0  0  0  0  0  0  0  0  0
    0.1792   -1.6542    0.0000 C   0  0  0  0  0  0  0  0  0  0  0  0
   -0.4958   -0.9125    0.0000 C   0  0  0  0  0  0  0  0  0  0  0  0
    0.4042    2.0458    0.0000 C   0  0  0  0  0  0  0  0  0  0  0  0
   -0.5458    3.3583    0.0000 C   0  0  0  0  0  0  0  0  0  0  0  0
   -1.8333    0.5750    0.0000 O   0  0  0  0  0  0  0  0  0  0  0  0
   -0.1333   -2.6042    0.0000 C   0  0  0  0  0  0  0  0  0  0  0  0
    0.4042    3.0458    0.0000 C   0  0  0  0  0  0  0  0  0  0  0  0
   -1.1083   -2.8125    0.0000 Cl  0  0  0  0  0  0  0  0  0  0  0  0
    1.1542   -1.4417    0.0000 C   0  0  0  0  0  0  0  0  0  0  0  0
    0.5375   -3.3500    0.0000 C   0  0  0  0  0  0  0  0  0  0  0  0
    1.8250   -2.1875    0.0000 C   0  0  0  0  0  0  0  0  0  0  0  0
    1.5167   -3.1417    0.0000 C   0  0  0  0  0  0  0  0  0  0  0  0
  2  1  1  0  0  0  0
  3  2  1  0  0  0  0
  4  1  1  0  0  0  0
  5  6  1  0  0  0  0
  6  4  1  0  0  0  0
  7  2  2  0  0  0  0
  8  3  1  0  0  0  0
  9  1  2  0  0  0  0
 10  5  2  0  0  0  0
 11  7  1  0  0  0  0
 11  8  2  0  0  0  0
 12 10  1  0  0  0  0
 13  5  1  0  0  0  0
 14 10  1  0  0  0  0
 14 16  2  0  0  0  0
 15 13  2  0  0  0  0
 16 15  1  0  0  0  0
M  END
>  <idnumber>
T5462804

>  <LogP>
2.744000000000000e+000

>  <rotating_bonds>
3.000000000000000e+000

>  <hb_acceptors>
2.000000000000000e+000

>  <hb_donors>
2.000000000000000e+000

>  <PSA>
4.489000000000003e+001

>  <clusterid>
-807

>  <is_centroid>
@

>  <class1>
625

>  <class2>
635

>  <population1>
877209

>  <population2>
31512

>  <population>
24537

>  <cansmi>
Clc1ccccc1CNC(=O)c1[nH]ccc1

>  <HBA2>
2

>  <HBD>
2

>  <logP>
2.989

>  <TPSA>
44.89

>  <MW>
234.682

$$$$

 OpenBabel02121609142D

 12 13  0  0  0  0  0  0  0  0999 V2000
   -0.8708   -1.0000    0.0000 N   0  0  0  0  0  0  0  0  0  0  0  0
    0.0000   -0.5000    0.0000 C   0  0  0  0  0  0  0  0  0  0  0  0
   -1.7333   -0.5000    0.0000 C   0  0  0  0  0  0  0  0  0  0  0  0
   -0.8708    1.0000    0.0000 O   0  0  0  0  0  0  0  0  0  0  0  0
    0.0000    0.5000    0.0000 C   0  0  0  0  0  0  0  0  0  0  0  0
    0.8625   -1.0000    0.0000 C   0  0  0  0  0  0  0  0  0  0  0  0
   -2.6000   -1.0000    0.0000 O   0  0  0  0  0  0  0  0  0  0  0  0
   -1.7333    0.5000    0.0000 C   0  0  0  0  0  0  0  0  0  0  0  0
    0.8625    1.0000    0.0000 C   0  0  0  0  0  0  0  0  0  0  0  0
    1.7292   -0.5000    0.0000 C   0  0  0  0  0  0  0  0  0  0  0  0
    1.7292    0.5000    0.0000 C   0  0  0  0  0  0  0  0  0  0  0  0
    2.5917   -1.0000    0.0000 Cl  0  0  0  0  0  0  0  0  0  0  0  0
  2  1  1  0  0  0  0
  3  1  1  0  0  0  0
  4  8  1  0  0  0  0
  5  2  2  0  0  0  0
  5  4  1  0  0  0  0
  6  2  1  0  0  0  0
  7  3  2  0  0  0  0
  8  3  1  0  0  0  0
  9  5  1  0  0  0  0
 10  6  2  0  0  0  0
 11 10  1  0  0  0  0
 11  9  2  0  0  0  0
 12 10  1  0  0  0  0
M  END
>  <idnumber>
T5463083

>  <LogP>
1.783000000000000e+000

>  <rotating_bonds>
0.000000000000000e+000

>  <hb_acceptors>
3.000000000000000e+000

>  <hb_donors>
1.000000000000000e+000

>  <PSA>
3.833000000000000e+001

>  <clusterid>
-808

>  <is_centroid>
@

>  <class1>
822

>  <population1>
2937

>  <population>
2937

>  <cansmi>
Clc1cc2NC(=O)COc2cc1

>  <HBA2>
3

>  <HBD>
1

>  <logP>
1.8089

>  <TPSA>
38.33

>  <MW>
183.592

$$$$

 OpenBabel02121609142D

 11 11  0  0  0  0  0  0  0  0999 V2000
   -0.4375   -0.0917    0.0000 C   0  0  0  0  0  0  0  0  0  0  0  0
   -0.1708    0.8708    0.0000 C   0  0  0  0  0  0  0  0  0  0  0  0
    0.3917   -0.6500    0.0000 C   0  0  0  0  0  0  0  0  0  0  0  0
    0.8292    0.9083    0.0000 O   0  0  0  0  0  0  0  0  0  0  0  0
    1.1792   -0.0292    0.0000 C   0  0  0  0  0  0  0  0  0  0  0  0
   -1.3750   -0.4417    0.0000 C   0  0  0  0  0  0  0  0  0  0  0  0
   -1.5458   -1.4250    0.0000 O   0  0  0  0  0  0  0  0  0  0  0  0
   -2.1458    0.2000    0.0000 O   0  0  0  0  0  0  0  0  0  0  0  0
   -0.7833    1.6583    0.0000 C   0  0  0  0  0  0  0  0  0  0  0  0
    0.4292   -1.6500    0.0000 C   0  0  0  0  0  0  0  0  0  0  0  0
    2.1417   -0.3042    0.0000 C   0  0  0  0  0  0  0  0  0  0  0  0
  2  1  2  0  0  0  0
  3  1  1  0  0  0  0
  4  2  1  0  0  0  0
  5  3  2  0  0  0  0
  5  4  1  0  0  0  0
  6  1  1  0  0  0  0
  7  6  2  0  0  0  0
  8  6  1  0  0  0  0
  9  2  1  0  0  0  0
 10  3  1  0  0  0  0
 11  5  1  0  0  0  0
M  END
>  <idnumber>
T5465784

>  <LogP>
1.908000000000000e+000

>  <rotating_bonds>
1.000000000000000e+000

>  <hb_acceptors>
2.000000000000000e+000

>  <hb_donors>
1.000000000000000e+000

>  <PSA>
5.044000000000000e+001

>  <clusterid>
-809

>  <is_centroid>
@

>  <class1>
704

>  <population1>
51112

>  <population>
51112

>  <cansmi>
OC(=O)c1c(C)oc(c1C)C

>  <HBA2>
3

>  <HBD>
1

>  <logP>
1.903

>  <TPSA>
50.44

>  <MW>
154.163

$$$$

 OpenBabel02121609142D

 15 17  0  0  0  0  0  0  0  0999 V2000
   -1.2208    1.2250    0.0000 N   0  0  0  0  0  0  0  0  0  0  0  0
   -1.2208   -0.3917    0.0000 C   0  0  0  0  0  0  0  0  0  0  0  0
   -1.8083    0.4208    0.0000 C   0  0  0  0  0  0  0  0  0  0  0  0
   -0.2625   -0.0792    0.0000 C   0  0  0  0  0  0  0  0  0  0  0  0
   -0.2625    0.9208    0.0000 C   0  0  0  0  0  0  0  0  0  0  0  0
    0.6000   -0.5792    0.0000 C   0  0  0  0  0  0  0  0  0  0  0  0
    0.6000    1.4208    0.0000 C   0  0  0  0  0  0  0  0  0  0  0  0
    1.4667   -0.0792    0.0000 C   0  0  0  0  0  0  0  0  0  0  0  0
    1.4667    0.9208    0.0000 C   0  0  0  0  0  0  0  0  0  0  0  0
   -1.6208   -1.3042    0.0000 C   0  0  0  0  0  0  0  0  0  0  0  0
   -2.7958    0.3125    0.0000 C   0  0  0  0  0  0  0  0  0  0  0  0
    3.2000   -0.0792    0.0000 N   0  0  0  0  0  0  0  0  0  0  0  0
    2.3292   -0.5792    0.0000 C   0  0  0  0  0  0  0  0  0  0  0  0
   -2.6208   -1.4125    0.0000 C   0  0  0  0  0  0  0  0  0  0  0  0
   -3.2083   -0.6042    0.0000 C   0  0  0  0  0  0  0  0  0  0  0  0
  2  3  2  0  0  0  0
  2  4  1  0  0  0  0
  3  1  1  0  0  0  0
  4  5  2  0  0  0  0
  5  1  1  0  0  0  0
  6  4  1  0  0  0  0
  6  8  2  0  0  0  0
  7  5  1  0  0  0  0
  8  9  1  0  0  0  0
  9  7  2  0  0  0  0
 10  2  1  0  0  0  0
 10 14  1  0  0  0  0
 11  3  1  0  0  0  0
 12 13  1  0  0  0  0
 13  8  1  0  0  0  0
 14 15  1  0  0  0  0
 15 11  1  0  0  0  0
M  END
>  <idnumber>
T5466487

>  <LogP>
2.656000000000000e+000

>  <rotating_bonds>
1.000000000000000e+000

>  <hb_acceptors>
1.000000000000000e+000

>  <hb_donors>
2.000000000000000e+000

>  <PSA>
4.181000000000000e+001

>  <clusterid>
-811

>  <is_centroid>
@

>  <class1>
830

>  <population1>
426

>  <population>
426

>  <cansmi>
NCc1ccc2c(c1)c1CCCCc1[nH]2

>  <HBA2>
1

>  <HBD>
2

>  <logP>
3.2057

>  <TPSA>
41.81

>  <MW>
200.28

$$$$

 OpenBabel02121609142D

 17 19  0  0  0  0  0  0  0  0999 V2000
    1.1292   -0.8417    0.0000 N   0  0  0  0  0  0  0  0  0  0  0  0
   -0.4083   -0.3417    0.0000 N   0  0  0  0  0  0  0  0  0  0  0  0
    0.5417   -0.0292    0.0000 C   0  0  0  0  0  0  0  0  0  0  0  0
    0.5417   -1.6542    0.0000 C   0  0  0  0  0  0  0  0  0  0  0  0
   -0.4083   -1.3417    0.0000 C   0  0  0  0  0  0  0  0  0  0  0  0
   -1.2750    0.1583    0.0000 C   0  0  0  0  0  0  0  0  0  0  0  0
   -1.2750   -1.8417    0.0000 C   0  0  0  0  0  0  0  0  0  0  0  0
    0.8500    0.9208    0.0000 C   0  0  0  0  0  0  0  0  0  0  0  0
   -2.1458   -0.3417    0.0000 C   0  0  0  0  0  0  0  0  0  0  0  0
   -2.1458   -1.3417    0.0000 C   0  0  0  0  0  0  0  0  0  0  0  0
    0.8500   -2.6042    0.0000 C   0  0  0  0  0  0  0  0  0  0  0  0
    1.8292   -2.8125    0.0000 O   0  0  0  0  0  0  0  0  0  0  0  0
    1.8292    1.1250    0.0000 C   0  0  0  0  0  0  0  0  0  0  0  0
    0.1792    1.6583    0.0000 C   0  0  0  0  0  0  0  0  0  0  0  0
    0.4917    2.6083    0.0000 C   0  0  0  0  0  0  0  0  0  0  0  0
    2.1292    2.0833    0.0000 C   0  0  0  0  0  0  0  0  0  0  0  0
    1.4667    2.8208    0.0000 C   0  0  0  0  0  0  0  0  0  0  0  0
  2  3  1  0  0  0  0
  2  5  1  0  0  0  0
  3  1  2  0  0  0  0
  4  1  1  0  0  0  0
  5  4  2  0  0  0  0
  6  2  1  0  0  0  0
  7  5  1  0  0  0  0
  8  3  1  0  0  0  0
  9  6  2  0  0  0  0
  9 10  1  0  0  0  0
 10  7  2  0  0  0  0
 11  4  1  0  0  0  0
 12 11  1  0  0  0  0
 13  8  1  0  0  0  0
 14  8  2  0  0  0  0
 15 14  1  0  0  0  0
 16 13  2  0  0  0  0
 16 17  1  0  0  0  0
 17 15  2  0  0  0  0
M  END
>  <idnumber>
T5474702

>  <LogP>
2.266000000000000e+000

>  <rotating_bonds>
2.000000000000000e+000

>  <hb_acceptors>
3.000000000000000e+000

>  <hb_donors>
1.000000000000000e+000

>  <PSA>
3.753000000000000e+001

>  <clusterid>
-820

>  <is_centroid>
@

>  <class1>
972

>  <class2>
625

>  <population1>
159

>  <population2>
877209

>  <population>
127

>  <cansmi>
OCc1nc(n2c1cccc2)c1ccccc1

>  <HBA2>
3

>  <HBD>
1

>  <logP>
2.4936

>  <TPSA>
37.53

>  <MW>
224.258

$$$$

 OpenBabel02121609142D

 12 13  0  0  0  0  0  0  0  0999 V2000
    1.2917    0.0000    0.0000 N   0  0  0  0  0  0  0  0  0  0  0  0
    0.4292   -0.5000    0.0000 C   0  0  0  0  0  0  0  0  0  0  0  0
    1.2917    1.0000    0.0000 C   0  0  0  0  0  0  0  0  0  0  0  0
   -0.4333    0.0000    0.0000 C   0  0  0  0  0  0  0  0  0  0  0  0
   -0.4333    1.0000    0.0000 C   0  0  0  0  0  0  0  0  0  0  0  0
    0.4292    1.5000    0.0000 C   0  0  0  0  0  0  0  0  0  0  0  0
    0.4292   -1.5000    0.0000 O   0  0  0  0  0  0  0  0  0  0  0  0
    2.1625    1.5000    0.0000 O   0  0  0  0  0  0  0  0  0  0  0  0
   -1.3000    1.5000    0.0000 C   0  0  0  0  0  0  0  0  0  0  0  0
   -1.3000   -0.5000    0.0000 C   0  0  0  0  0  0  0  0  0  0  0  0
   -2.1708    1.0000    0.0000 C   0  0  0  0  0  0  0  0  0  0  0  0
   -2.1708    0.0000    0.0000 C   0  0  0  0  0  0  0  0  0  0  0  0
  2  1  1  0  0  0  0
  3  1  1  0  0  0  0
  4  2  1  0  0  0  0
  5  6  1  0  0  0  0
  5  4  2  0  0  0  0
  6  3  1  0  0  0  0
  7  2  2  0  0  0  0
  8  3  2  0  0  0  0
  9  5  1  0  0  0  0
 10  4  1  0  0  0  0
 11  9  2  0  0  0  0
 11 12  1  0  0  0  0
 12 10  2  0  0  0  0
M  END
>  <idnumber>
T5477168

>  <LogP>
1.037000000000000e+000

>  <rotating_bonds>
0.000000000000000e+000

>  <hb_acceptors>
2.000000000000000e+000

>  <hb_donors>
1.000000000000000e+000

>  <PSA>
4.616999999999997e+001

>  <clusterid>
-823

>  <is_centroid>
@

>  <class1>
915

>  <population1>
2013

>  <population>
2013

>  <cansmi>
O=C1NC(=O)c2c(C1)cccc2

>  <HBA2>
3

>  <HBD>
1

>  <logP>
0.8279

>  <TPSA>
46.17

>  <MW>
161.157

$$$$

 OpenBabel02121609142D

 14 15  0  0  0  0  0  0  0  0999 V2000
   -0.8708   -0.5000    0.0000 C   0  0  0  0  0  0  0  0  0  0  0  0
    0.0000   -1.0000    0.0000 N   0  0  0  0  0  0  0  0  0  0  0  0
   -1.7333   -1.0000    0.0000 O   0  0  0  0  0  0  0  0  0  0  0  0
   -0.8708    2.5000    0.0000 N   0  0  0  0  0  0  0  0  0  0  0  0
   -0.8708    0.5000    0.0000 C   0  0  0  0  0  0  0  0  0  0  0  0
    0.0000   -2.0000    0.0000 C   0  0  0  0  0  0  0  0  0  0  0  0
    0.8625   -0.5000    0.0000 C   0  0  0  0  0  0  0  0  0  0  0  0
   -1.7333    2.0000    0.0000 C   0  0  0  0  0  0  0  0  0  0  0  0
    0.0000    2.0000    0.0000 C   0  0  0  0  0  0  0  0  0  0  0  0
   -1.7333    1.0000    0.0000 C   0  0  0  0  0  0  0  0  0  0  0  0
    0.0000    1.0000    0.0000 C   0  0  0  0  0  0  0  0  0  0  0  0
    1.7292   -1.0000    0.0000 C   0  0  0  0  0  0  0  0  0  0  0  0
    0.8625   -2.5000    0.0000 C   0  0  0  0  0  0  0  0  0  0  0  0
    1.7292   -2.0000    0.0000 C   0  0  0  0  0  0  0  0  0  0  0  0
  2  1  1  0  0  0  0
  3  1  2  0  0  0  0
  4  9  1  0  0  0  0
  5  1  1  0  0  0  0
  6  2  1  0  0  0  0
  7  2  1  0  0  0  0
  8 10  1  0  0  0  0
  8  4  1  0  0  0  0
  9 11  1  0  0  0  0
 10  5  1  0  0  0  0
 11  5  1  0  0  0  0
 12  7  1  0  0  0  0
 13  6  1  0  0  0  0
 13 14  1  0  0  0  0
 14 12  1  0  0  0  0
M  END
>  <idnumber>
T5477183

>  <LogP>
-4.070000000000000e-001

>  <rotating_bonds>
1.000000000000000e+000

>  <hb_acceptors>
2.000000000000000e+000

>  <hb_donors>
1.000000000000000e+000

>  <PSA>
3.234000000000000e+001

>  <clusterid>
495

>  <is_centroid>
@

>  <class1>
639

>  <class2>
639

>  <population1>
59855

>  <population2>
59855

>  <population>
59855

>  <cansmi>
O=C(N1CCCCC1)C1CCNCC1

>  <HBA2>
3

>  <HBD>
1

>  <logP>
1.2652

>  <TPSA>
32.34

>  <MW>
196.289

$$$$

 OpenBabel02121609142D

 11 12  0  0  0  0  0  0  0  0999 V2000
    0.0792   -0.2500    0.0000 C   0  0  0  0  0  0  0  0  0  0  0  0
    0.5792    0.6208    0.0000 N   0  0  0  0  0  0  0  0  0  0  0  0
    1.5792    0.6208    0.0000 C   0  0  0  0  0  0  0  0  0  0  0  0
    2.4417    0.1208    0.0000 C   0  0  0  0  0  0  0  0  0  0  0  0
    2.4417    1.1208    0.0000 C   0  0  0  0  0  0  0  0  0  0  0  0
    0.5792   -1.1125    0.0000 O   0  0  0  0  0  0  0  0  0  0  0  0
   -0.9208   -0.2500    0.0000 C   0  0  0  0  0  0  0  0  0  0  0  0
   -1.5083    0.5625    0.0000 C   0  0  0  0  0  0  0  0  0  0  0  0
   -1.5083   -1.0542    0.0000 C   0  0  0  0  0  0  0  0  0  0  0  0
   -2.4583   -0.7500    0.0000 C   0  0  0  0  0  0  0  0  0  0  0  0
   -2.4583    0.2500    0.0000 C   0  0  0  0  0  0  0  0  0  0  0  0
  2  1  1  0  0  0  0
  3  2  1  0  0  0  0
  4  3  1  0  0  0  0
  4  5  1  0  0  0  0
  5  3  1  0  0  0  0
  6  1  2  0  0  0  0
  7  1  1  0  0  0  0
  8  7  1  0  0  0  0
  9  7  1  0  0  0  0
 10  9  1  0  0  0  0
 11  8  1  0  0  0  0
 11 10  1  0  0  0  0
M  END
>  <idnumber>
T5483109

>  <LogP>
7.480000000000000e-001

>  <rotating_bonds>
2.000000000000000e+000

>  <hb_acceptors>
1.000000000000000e+000

>  <hb_donors>
1.000000000000000e+000

>  <PSA>
2.910000000000000e+001

>  <clusterid>
-827

>  <is_centroid>
@

>  <class1>
675

>  <class2>
674

>  <population1>
33654

>  <population2>
16474

>  <population>
277

>  <cansmi>
O=C(C1CCCC1)NC1CC1

>  <HBA2>
2

>  <HBD>
1

>  <logP>
1.8461

>  <TPSA>
29.1

>  <MW>
153.221

$$$$

 OpenBabel02121609142D

 14 15  0  0  0  0  0  0  0  0999 V2000
    0.1167   -0.5167    0.0000 N   0  0  0  0  0  0  0  0  0  0  0  0
    0.4125    0.4333    0.0000 C   0  0  0  0  0  0  0  0  0  0  0  0
   -1.2833   -0.6292    0.0000 N   0  0  0  0  0  0  0  0  0  0  0  0
   -0.4333   -0.0917    0.0000 C   0  0  0  0  0  0  0  0  0  0  0  0
   -0.4750   -2.4292    0.0000 N   0  0  0  0  0  0  0  0  0  0  0  0
   -0.8583   -0.7417    0.0000 C   0  0  0  0  0  0  0  0  0  0  0  0
    0.7917   -1.2542    0.0000 C   0  0  0  0  0  0  0  0  0  0  0  0
    1.2792    0.9333    0.0000 C   0  0  0  0  0  0  0  0  0  0  0  0
   -0.4583    0.9333    0.0000 C   0  0  0  0  0  0  0  0  0  0  0  0
    0.5000   -2.2042    0.0000 C   0  0  0  0  0  0  0  0  0  0  0  0
   -1.1583   -1.6917    0.0000 C   0  0  0  0  0  0  0  0  0  0  0  0
   -0.4583    1.9333    0.0000 C   0  0  0  0  0  0  0  0  0  0  0  0
    1.2792    1.9333    0.0000 C   0  0  0  0  0  0  0  0  0  0  0  0
    0.4125    2.4333    0.0000 C   0  0  0  0  0  0  0  0  0  0  0  0
  2  1  1  0  0  0  0
  3  4  3  0  0  0  0
  4  2  1  0  0  0  0
  5 10  1  0  0  0  0
  6  1  1  0  0  0  0
  7  1  1  0  0  0  0
  8  2  1  0  0  0  0
  9  2  1  0  0  0  0
 10  7  1  0  0  0  0
 11  6  1  0  0  0  0
 11  5  1  0  0  0  0
 12  9  1  0  0  0  0
 13  8  1  0  0  0  0
 13 14  1  0  0  0  0
 14 12  1  0  0  0  0
M  END
>  <idnumber>
T5483332

>  <LogP>
1.096000000000000e+000

>  <rotating_bonds>
2.000000000000000e+000

>  <hb_acceptors>
3.000000000000000e+000

>  <hb_donors>
1.000000000000000e+000

>  <PSA>
3.906000000000000e+001

>  <clusterid>
-830

>  <is_centroid>
@

>  <class1>
797

>  <class2>
717

>  <population1>
40410

>  <population2>
74368

>  <population>
1983

>  <cansmi>
N#CC1(CCCCC1)N1CCNCC1

>  <HBA2>
3

>  <HBD>
1

>  <logP>
1.38478

>  <TPSA>
39.06

>  <MW>
193.289

$$$$

 OpenBabel02121609142D

 19 21  0  0  0  0  0  0  0  0999 V2000
   -0.2750    0.7875    0.0000 C   0  0  3  0  0  0  0  0  0  0  0  0
    0.2417   -0.1250    0.0000 N   0  0  0  0  0  0  0  0  0  0  0  0
    1.1042    1.8083    0.0000 C   0  0  3  0  0  0  0  0  0  0  0  0
   -0.2708    2.3083    0.0000 C   0  0  3  0  0  0  0  0  0  0  0  0
   -0.9208    2.6208    0.0000 C   0  0  3  0  0  0  0  0  0  0  0  0
    0.7667    0.8750    0.0000 C   0  0  0  0  0  0  0  0  0  0  0  0
   -1.2458    1.5958    0.0000 C   0  0  0  0  0  0  0  0  0  0  0  0
   -0.7083    1.2500    0.0000 C   0  0  0  0  0  0  0  0  0  0  0  0
    2.6417   -3.1750    0.0000 N   0  0  0  0  0  0  0  0  0  0  0  0
   -0.3083    3.1833    0.0000 C   0  0  0  0  0  0  0  0  0  0  0  0
    0.7375    2.4375    0.0000 C   0  0  0  0  0  0  0  0  0  0  0  0
    0.2292    2.6958    0.0000 C   0  0  0  0  0  0  0  0  0  0  0  0
    1.2167   -0.5292    0.0000 C   0  0  0  0  0  0  0  0  0  0  0  0
   -3.1875    0.2833    0.0000 Cl  0  0  0  0  0  0  0  0  0  0  0  0
    1.7750   -1.4042    0.0000 C   0  0  0  0  0  0  0  0  0  0  0  0
    1.6750   -3.1042    0.0000 C   0  0  0  0  0  0  0  0  0  0  0  0
    3.1792   -2.3667    0.0000 C   0  0  0  0  0  0  0  0  0  0  0  0
    1.2417   -2.2292    0.0000 C   0  0  0  0  0  0  0  0  0  0  0  0
    2.7542   -1.4875    0.0000 C   0  0  0  0  0  0  0  0  0  0  0  0
  2  1  1  0  0  0  0
  3  6  1  0  0  0  0
  3 11  1  0  0  0  0
  3 12  1  0  0  0  0
  4  8  1  0  0  0  0
  5  7  1  0  0  0  0
  6  1  1  0  0  0  0
  7  1  1  0  0  0  0
  8  1  1  0  0  0  0
  9 17  2  0  0  0  0
 10  4  1  0  0  0  0
 10  5  1  0  0  0  0
 11  4  1  0  0  0  0
 12  5  1  0  0  0  0
 13  2  1  0  0  0  0
 15 13  1  0  0  0  0
 16 18  2  0  0  0  0
 16  9  1  0  0  0  0
 17 19  1  0  0  0  0
 18 15  1  0  0  0  0
 19 15  2  0  0  0  0
M  END
>  <idnumber>
T5487197

>  <LogP>
2.672000000000000e+000

>  <rotating_bonds>
3.000000000000000e+000

>  <hb_acceptors>
2.000000000000000e+000

>  <hb_donors>
1.000000000000000e+000

>  <PSA>
2.492000000000000e+001

>  <clusterid>
-832

>  <is_centroid>
@

>  <class1>
809

>  <class2>
632

>  <population1>
8162

>  <population2>
79489

>  <population>
345

>  <cansmi>
C1C2CC3CC1CC(C2)(C3)NCc1ccncc1.Cl

>  <HBA2>
2

>  <HBD>
2

>  <logP>
4.3329

>  <TPSA>
24.92

>  <MW>
278.82

$$$$

 OpenBabel02121609142D

 16 18  0  0  0  0  0  0  0  0999 V2000
   -0.5708    0.0000    0.0000 N   0  0  0  0  0  0  0  0  0  0  0  0
    0.0167   -0.8042    0.0000 N   0  0  0  0  0  0  0  0  0  0  0  0
    0.0167    0.8125    0.0000 N   0  0  0  0  0  0  0  0  0  0  0  0
    0.9667   -0.5000    0.0000 C   0  0  0  0  0  0  0  0  0  0  0  0
    0.9667    0.5000    0.0000 C   0  0  0  0  0  0  0  0  0  0  0  0
    1.8292   -1.0000    0.0000 C   0  0  0  0  0  0  0  0  0  0  0  0
    1.8292    1.0000    0.0000 C   0  0  0  0  0  0  0  0  0  0  0  0
    2.7000   -0.5000    0.0000 C   0  0  0  0  0  0  0  0  0  0  0  0
    2.7000    0.5000    0.0000 C   0  0  0  0  0  0  0  0  0  0  0  0
   -1.5708    0.0000    0.0000 C   0  0  0  0  0  0  0  0  0  0  0  0
    3.5667   -1.0000    0.0000 N   0  0  0  0  0  0  0  0  0  0  0  0
   -2.0708    0.8708    0.0000 C   0  0  0  0  0  0  0  0  0  0  0  0
   -2.0708   -0.8625    0.0000 C   0  0  0  0  0  0  0  0  0  0  0  0
   -3.0708   -0.8625    0.0000 C   0  0  0  0  0  0  0  0  0  0  0  0
   -3.0708    0.8708    0.0000 C   0  0  0  0  0  0  0  0  0  0  0  0
   -3.5708    0.0000    0.0000 C   0  0  0  0  0  0  0  0  0  0  0  0
  2  1  1  0  0  0  0
  3  1  1  0  0  0  0
  4  2  2  0  0  0  0
  5  3  2  0  0  0  0
  5  4  1  0  0  0  0
  6  4  1  0  0  0  0
  7  5  1  0  0  0  0
  8  6  2  0  0  0  0
  8  9  1  0  0  0  0
  9  7  2  0  0  0  0
 10  1  1  0  0  0  0
 11  8  1  0  0  0  0
 12 10  1  0  0  0  0
 13 10  2  0  0  0  0
 14 13  1  0  0  0  0
 15 12  2  0  0  0  0
 15 16  1  0  0  0  0
 16 14  2  0  0  0  0
M  END
>  <idnumber>
T5487227

>  <LogP>
2.938000000000000e+000

>  <rotating_bonds>
1.000000000000000e+000

>  <hb_acceptors>
3.000000000000000e+000

>  <hb_donors>
1.000000000000000e+000

>  <PSA>
5.673000000000000e+001

>  <clusterid>
-833

>  <is_centroid>
@

>  <class1>
625

>  <class2>
659

>  <population1>
877209

>  <population2>
49

>  <population>
49

>  <cansmi>
Nc1ccc2c(c1)nn(n2)c1ccccc1

>  <HBA2>
4

>  <HBD>
1

>  <logP>
2.5839

>  <TPSA>
56.73

>  <MW>
210.235

$$$$

 OpenBabel02121609142D

 20 22  0  0  0  0  0  0  0  0999 V2000
    0.4292   -0.5000    0.0000 C   0  0  0  0  0  0  0  0  0  0  0  0
    1.2917   -1.0000    0.0000 N   0  0  0  0  0  0  0  0  0  0  0  0
    0.4292    0.5000    0.0000 N   0  0  0  0  0  0  0  0  0  0  0  0
   -2.1708    1.0000    0.0000 C   0  0  0  0  0  0  0  0  0  0  0  0
   -1.3000    0.5000    0.0000 C   0  0  0  0  0  0  0  0  0  0  0  0
   -2.1708    2.0000    0.0000 C   0  0  0  0  0  0  0  0  0  0  0  0
   -0.4333    1.0000    0.0000 C   0  0  0  0  0  0  0  0  0  0  0  0
   -0.4333   -1.0000    0.0000 O   0  0  0  0  0  0  0  0  0  0  0  0
   -3.0333    0.5000    0.0000 O   0  0  0  0  0  0  0  0  0  0  0  0
    2.1625   -0.5000    0.0000 C   0  0  0  0  0  0  0  0  0  0  0  0
    1.2917   -1.9917    0.0000 C   0  0  0  0  0  0  0  0  0  0  0  0
   -3.0333    2.5000    0.0000 O   0  0  0  0  0  0  0  0  0  0  0  0
   -1.3000    2.5000    0.0000 C   0  0  0  0  0  0  0  0  0  0  0  0
   -0.4333    2.0000    0.0000 C   0  0  0  0  0  0  0  0  0  0  0  0
    2.1625   -2.5000    0.0000 C   0  0  0  0  0  0  0  0  0  0  0  0
    3.0292   -1.0000    0.0000 C   0  0  0  0  0  0  0  0  0  0  0  0
    3.0292   -1.9917    0.0000 C   0  0  0  0  0  0  0  0  0  0  0  0
   -3.9000    1.0000    0.0000 C   0  0  0  0  0  0  0  0  0  0  0  0
   -3.9000    2.0000    0.0000 C   0  0  0  0  0  0  0  0  0  0  0  0
    3.8917   -2.5000    0.0000 C   0  0  0  0  0  0  0  0  0  0  0  0
  2  1  1  0  0  0  0
  3  1  1  0  0  0  0
  4  5  1  0  0  0  0
  4  6  2  0  0  0  0
  5  7  2  0  0  0  0
  6 13  1  0  0  0  0
  7  3  1  0  0  0  0
  8  1  2  0  0  0  0
  9  4  1  0  0  0  0
 10  2  1  0  0  0  0
 11  2  1  0  0  0  0
 12  6  1  0  0  0  0
 13 14  2  0  0  0  0
 14  7  1  0  0  0  0
 15 11  1  0  0  0  0
 16 10  1  0  0  0  0
 17 15  1  0  0  0  0
 17 16  1  0  0  0  0
 18  9  1  0  0  0  0
 19 12  1  0  0  0  0
 19 18  1  0  0  0  0
 20 17  1  0  0  0  0
M  END
>  <idnumber>
T5490282

>  <LogP>
2.422000000000000e+000

>  <rotating_bonds>
1.000000000000000e+000

>  <hb_acceptors>
3.000000000000000e+000

>  <hb_donors>
1.000000000000000e+000

>  <PSA>
5.080000000000000e+001

>  <clusterid>
-836

>  <is_centroid>
@

>  <class1>
639

>  <class2>
730

>  <population1>
59855

>  <population2>
20896

>  <population>
1196

>  <cansmi>
CC1CCN(CC1)C(=O)Nc1ccc2c(c1)OCCO2

>  <HBA2>
5

>  <HBD>
1

>  <logP>
2.7325

>  <TPSA>
50.8

>  <MW>
276.331

$$$$

 OpenBabel02121609142D

 21 23  0  0  0  0  0  0  0  0999 V2000
   -0.0083    0.2500    0.0000 C   0  0  0  0  0  0  0  0  0  0  0  0
    0.8625   -0.2500    0.0000 N   0  0  0  0  0  0  0  0  0  0  0  0
   -0.0083    1.2500    0.0000 C   0  0  0  0  0  0  0  0  0  0  0  0
    1.7292   -1.7500    0.0000 C   0  0  3  0  0  0  0  0  0  0  0  0
    0.8625   -1.2417    0.0000 C   0  0  0  0  0  0  0  0  0  0  0  0
    1.7292   -2.7417    0.0000 C   0  0  0  0  0  0  0  0  0  0  0  0
   -0.8708    1.7500    0.0000 C   0  0  0  0  0  0  0  0  0  0  0  0
   -0.8708   -0.2500    0.0000 O   0  0  0  0  0  0  0  0  0  0  0  0
    2.5917   -3.2500    0.0000 O   0  0  0  0  0  0  0  0  0  0  0  0
   -0.8708    2.7583    0.0000 C   0  0  0  0  0  0  0  0  0  0  0  0
    1.7292    0.2500    0.0000 C   0  0  0  0  0  0  0  0  0  0  0  0
    0.8625   -3.2500    0.0000 O   0  0  0  0  0  0  0  0  0  0  0  0
    0.8625    1.7500    0.0000 C   0  0  0  0  0  0  0  0  0  0  0  0
    2.5917   -1.2417    0.0000 C   0  0  0  0  0  0  0  0  0  0  0  0
    2.5917   -0.2500    0.0000 C   0  0  0  0  0  0  0  0  0  0  0  0
   -1.7333    1.2500    0.0000 C   0  0  0  0  0  0  0  0  0  0  0  0
    0.8625    2.7583    0.0000 C   0  0  0  0  0  0  0  0  0  0  0  0
   -0.0083    3.2500    0.0000 C   0  0  0  0  0  0  0  0  0  0  0  0
   -1.7333    3.2500    0.0000 C   0  0  0  0  0  0  0  0  0  0  0  0
   -2.6000    1.7500    0.0000 C   0  0  0  0  0  0  0  0  0  0  0  0
   -2.6000    2.7583    0.0000 C   0  0  0  0  0  0  0  0  0  0  0  0
  2  1  1  0  0  0  0
  3  1  1  0  0  0  0
  4  5  1  0  0  0  0
  4 14  1  0  0  0  0
  5  2  1  0  0  0  0
  6  4  1  0  0  0  0
  7  3  2  0  0  0  0
  8  1  2  0  0  0  0
  9  6  2  0  0  0  0
 10  7  1  0  0  0  0
 10 18  2  0  0  0  0
 11  2  1  0  0  0  0
 12  6  1  0  0  0  0
 13  3  1  0  0  0  0
 14 15  1  0  0  0  0
 15 11  1  0  0  0  0
 16  7  1  0  0  0  0
 17 13  2  0  0  0  0
 18 17  1  0  0  0  0
 19 10  1  0  0  0  0
 19 21  2  0  0  0  0
 20 16  2  0  0  0  0
 21 20  1  0  0  0  0
M  END
>  <idnumber>
T5491184

>  <LogP>
2.351999999999999e+000

>  <rotating_bonds>
2.000000000000000e+000

>  <hb_acceptors>
3.000000000000000e+000

>  <hb_donors>
1.000000000000000e+000

>  <PSA>
5.761000000000000e+001

>  <clusterid>
-837

>  <is_centroid>
@

>  <class1>
796

>  <class2>
639

>  <population1>
21922

>  <population2>
59855

>  <population>
1232

>  <cansmi>
OC(=O)C1CCCN(C1)C(=O)c1cccc2c1cccc2

>  <HBA2>
4

>  <HBD>
1

>  <logP>
2.7145

>  <TPSA>
57.61

>  <MW>
283.322

$$$$

 OpenBabel02121609142D

 15 16  0  0  0  0  0  0  0  0999 V2000
   -0.0333   -0.4042    0.0000 C   0  0  0  0  0  0  0  0  0  0  0  0
   -0.6208   -1.2167    0.0000 O   0  0  0  0  0  0  0  0  0  0  0  0
   -0.3375    0.5458    0.0000 C   0  0  3  0  0  0  0  0  0  0  0  0
    0.3292    1.2875    0.0000 N   0  0  0  0  0  0  0  0  0  0  0  0
    0.9250   -0.7167    0.0000 C   0  0  0  0  0  0  0  0  0  0  0  0
   -0.0333   -2.0250    0.0000 C   0  0  0  0  0  0  0  0  0  0  0  0
    0.9250   -1.7167    0.0000 C   0  0  0  0  0  0  0  0  0  0  0  0
    1.6667    2.7708    0.0000 O   0  0  0  0  0  0  0  0  0  0  0  0
   -1.9833    0.0083    0.0000 N   0  0  0  0  0  0  0  0  0  0  0  0
   -1.3208    0.7500    0.0000 C   0  0  0  0  0  0  0  0  0  0  0  0
    1.3125    1.0833    0.0000 C   0  0  0  0  0  0  0  0  0  0  0  0
    0.0250    2.2375    0.0000 C   0  0  0  0  0  0  0  0  0  0  0  0
   -0.3375   -2.9750    0.0000 C   0  0  0  0  0  0  0  0  0  0  0  0
    0.6917    2.9833    0.0000 C   0  0  0  0  0  0  0  0  0  0  0  0
    1.9792    1.8208    0.0000 C   0  0  0  0  0  0  0  0  0  0  0  0
  2  1  1  0  0  0  0
  3  1  1  0  0  0  0
  4  3  1  0  0  0  0
  5  1  2  0  0  0  0
  6  2  1  0  0  0  0
  6  7  2  0  0  0  0
  7  5  1  0  0  0  0
  8 14  1  0  0  0  0
  9 10  1  0  0  0  0
 10  3  1  0  0  0  0
 11  4  1  0  0  0  0
 12  4  1  0  0  0  0
 13  6  1  0  0  0  0
 14 12  1  0  0  0  0
 15 11  1  0  0  0  0
 15  8  1  0  0  0  0
M  END
>  <idnumber>
T5491222

>  <LogP>
7.959999999999999e-001

>  <rotating_bonds>
3.000000000000000e+000

>  <hb_acceptors>
3.000000000000000e+000

>  <hb_donors>
1.000000000000000e+000

>  <PSA>
5.163000000000000e+001

>  <clusterid>
-840

>  <is_centroid>
@

>  <class1>
704

>  <class2>
786

>  <population1>
51112

>  <population2>
48067

>  <population>
1574

>  <cansmi>
NCC(c1ccc(o1)C)N1CCOCC1

>  <HBA2>
4

>  <HBD>
1

>  <logP>
1.5582

>  <TPSA>
51.63

>  <MW>
210.273

$$$$

 OpenBabel02121609142D

 15 15  0  0  0  0  0  0  0  0999 V2000
    0.1292   -0.5000    0.0000 C   0  0  0  0  0  0  0  0  0  0  0  0
    1.0000   -1.0000    0.0000 N   0  0  0  0  0  0  0  0  0  0  0  0
   -0.7333   -1.0000    0.0000 O   0  0  0  0  0  0  0  0  0  0  0  0
    0.1292    2.5000    0.0000 N   0  0  0  0  0  0  0  0  0  0  0  0
    0.1292    0.5083    0.0000 C   0  0  0  0  0  0  0  0  0  0  0  0
    2.7292   -2.0000    0.0000 O   0  0  0  0  0  0  0  0  0  0  0  0
   -2.7333   -0.1042    0.0000 Cl  0  0  0  0  0  0  0  0  0  0  0  0
    1.0000   -2.0000    0.0000 C   0  0  0  0  0  0  0  0  0  0  0  0
    1.8625   -0.5000    0.0000 C   0  0  0  0  0  0  0  0  0  0  0  0
    1.0000    2.0000    0.0000 C   0  0  0  0  0  0  0  0  0  0  0  0
   -0.7333    2.0000    0.0000 C   0  0  0  0  0  0  0  0  0  0  0  0
    2.7292   -1.0000    0.0000 C   0  0  0  0  0  0  0  0  0  0  0  0
    1.8625   -2.5000    0.0000 C   0  0  0  0  0  0  0  0  0  0  0  0
    1.0000    1.0000    0.0000 C   0  0  0  0  0  0  0  0  0  0  0  0
   -0.7333    1.0000    0.0000 C   0  0  0  0  0  0  0  0  0  0  0  0
  2  1  1  0  0  0  0
  3  1  2  0  0  0  0
  4 11  1  0  0  0  0
  5  1  1  0  0  0  0
  6 12  1  0  0  0  0
  8  2  1  0  0  0  0
  9  2  1  0  0  0  0
 10 14  1  0  0  0  0
 10  4  1  0  0  0  0
 11 15  1  0  0  0  0
 12  9  1  0  0  0  0
 13  8  1  0  0  0  0
 13  6  1  0  0  0  0
 14  5  1  0  0  0  0
 15  5  1  0  0  0  0
M  END
>  <idnumber>
T5491234

>  <LogP>
-1.201000000000000e+000

>  <rotating_bonds>
1.000000000000000e+000

>  <hb_acceptors>
3.000000000000000e+000

>  <hb_donors>
1.000000000000000e+000

>  <PSA>
4.156999999999997e+001

>  <clusterid>
-841

>  <is_centroid>
@

>  <class1>
639

>  <class2>
786

>  <population1>
59855

>  <population2>
48067

>  <population>
1756

>  <cansmi>
O=C(N1CCOCC1)C1CCNCC1.Cl

>  <HBA2>
4

>  <HBD>
2

>  <logP>
0.9135

>  <TPSA>
41.57

>  <MW>
234.723

$$$$

 OpenBabel02121609142D

 11 12  0  0  0  0  0  0  0  0999 V2000
    0.3250   -0.1792    0.0000 N   0  0  0  0  0  0  0  0  0  0  0  0
    1.2750   -0.4875    0.0000 C   0  0  0  0  0  0  0  0  0  0  0  0
    1.2750    1.1333    0.0000 N   0  0  0  0  0  0  0  0  0  0  0  0
    1.8625    0.3208    0.0000 N   0  0  0  0  0  0  0  0  0  0  0  0
    0.3250    0.8208    0.0000 C   0  0  0  0  0  0  0  0  0  0  0  0
    1.5792   -1.4417    0.0000 O   0  0  0  0  0  0  0  0  0  0  0  0
   -0.4583   -0.8042    0.0000 C   0  0  0  0  0  0  0  0  0  0  0  0
   -0.4583    1.4458    0.0000 C   0  0  0  0  0  0  0  0  0  0  0  0
   -1.4333   -0.5792    0.0000 C   0  0  0  0  0  0  0  0  0  0  0  0
   -1.4333    1.2208    0.0000 C   0  0  0  0  0  0  0  0  0  0  0  0
   -1.8708    0.3208    0.0000 C   0  0  0  0  0  0  0  0  0  0  0  0
  2  1  1  0  0  0  0
  3  5  2  0  0  0  0
  4  2  1  0  0  0  0
  4  3  1  0  0  0  0
  5  1  1  0  0  0  0
  6  2  2  0  0  0  0
  7  1  1  0  0  0  0
  8  5  1  0  0  0  0
  9  7  1  0  0  0  0
 10  8  1  0  0  0  0
 10 11  1  0  0  0  0
 11  9  1  0  0  0  0
M  END
>  <idnumber>
T5491239

>  <LogP>
1.184000000000000e+000

>  <rotating_bonds>
0.000000000000000e+000

>  <hb_acceptors>
2.000000000000000e+000

>  <hb_donors>
1.000000000000000e+000

>  <PSA>
4.470000000000000e+001

>  <clusterid>
-842

>  <is_centroid>
@

>  <class1>
734

>  <population1>
103

>  <population>
103

>  <cansmi>
O=c1[nH]nc2n1CCCCC2

>  <HBA2>
3

>  <HBD>
1

>  <logP>
0.2978

>  <TPSA>
50.68

>  <MW>
153.182

$$$$

 OpenBabel02121609142D

 19 21  0  0  0  0  0  0  0  0999 V2000
   -1.3000   -0.2417    0.0000 N   0  0  0  0  0  0  0  0  0  0  0  0
    0.4292   -0.2417    0.0000 C   0  0  0  0  0  0  0  0  0  0  0  0
    1.2917    0.2583    0.0000 N   0  0  0  0  0  0  0  0  0  0  0  0
   -0.4333    0.2583    0.0000 C   0  0  0  0  0  0  0  0  0  0  0  0
    2.1625   -0.2417    0.0000 C   0  0  0  0  0  0  0  0  0  0  0  0
   -2.1708    0.2583    0.0000 C   0  0  0  0  0  0  0  0  0  0  0  0
    3.0292    0.2583    0.0000 N   0  0  0  0  0  0  0  0  0  0  0  0
    0.4292   -1.2500    0.0000 O   0  0  0  0  0  0  0  0  0  0  0  0
   -0.4333    1.2500    0.0000 C   0  0  0  0  0  0  0  0  0  0  0  0
   -2.1708    1.2500    0.0000 C   0  0  0  0  0  0  0  0  0  0  0  0
   -1.3000    1.7500    0.0000 C   0  0  0  0  0  0  0  0  0  0  0  0
    3.8917   -0.2417    0.0000 C   0  0  0  0  0  0  0  0  0  0  0  0
   -3.0333   -0.2417    0.0000 C   0  0  0  0  0  0  0  0  0  0  0  0
    2.1625   -1.2500    0.0000 C   0  0  0  0  0  0  0  0  0  0  0  0
   -3.0333    1.7500    0.0000 C   0  0  0  0  0  0  0  0  0  0  0  0
    3.8917   -1.2500    0.0000 C   0  0  0  0  0  0  0  0  0  0  0  0
   -3.9000    0.2583    0.0000 C   0  0  0  0  0  0  0  0  0  0  0  0
    3.0292   -1.7500    0.0000 C   0  0  0  0  0  0  0  0  0  0  0  0
   -3.9000    1.2500    0.0000 C   0  0  0  0  0  0  0  0  0  0  0  0
  2  4  1  0  0  0  0
  3  2  1  0  0  0  0
  4  1  2  0  0  0  0
  5  3  1  0  0  0  0
  6  1  1  0  0  0  0
  7  5  2  0  0  0  0
  8  2  2  0  0  0  0
  9  4  1  0  0  0  0
  9 11  2  0  0  0  0
 10  6  2  0  0  0  0
 11 10  1  0  0  0  0
 12  7  1  0  0  0  0
 12 16  2  0  0  0  0
 13  6  1  0  0  0  0
 14  5  1  0  0  0  0
 15 10  1  0  0  0  0
 15 19  2  0  0  0  0
 16 18  1  0  0  0  0
 17 13  2  0  0  0  0
 18 14  2  0  0  0  0
 19 17  1  0  0  0  0
M  END
>  <idnumber>
T5492131

>  <LogP>
2.541000000000000e+000

>  <rotating_bonds>
2.000000000000000e+000

>  <hb_acceptors>
3.000000000000000e+000

>  <hb_donors>
1.000000000000000e+000

>  <PSA>
5.488000000000000e+001

>  <clusterid>
-843

>  <is_centroid>
@

>  <class1>
632

>  <class2>
682

>  <population1>
79489

>  <population2>
20351

>  <population>
20351

>  <cansmi>
O=C(c1ccc2c(n1)cccc2)Nc1ccccn1

>  <HBA2>
4

>  <HBD>
1

>  <logP>
2.9551

>  <TPSA>
54.88

>  <MW>
249.267

$$$$

 OpenBabel02121609142D

 19 21  0  0  0  0  0  0  0  0999 V2000
   -0.4333    0.5000    0.0000 N   0  0  0  0  0  0  0  0  0  0  0  0
   -0.4333   -0.5000    0.0000 C   0  0  0  0  0  0  0  0  0  0  0  0
    0.4292   -1.0000    0.0000 C   0  0  0  0  0  0  0  0  0  0  0  0
   -1.3000    1.0000    0.0000 C   0  0  0  0  0  0  0  0  0  0  0  0
    1.2917   -0.5000    0.0000 C   0  0  0  0  0  0  0  0  0  0  0  0
    2.1625   -1.0000    0.0000 N   0  0  0  0  0  0  0  0  0  0  0  0
    0.4292   -2.0000    0.0000 C   0  0  0  0  0  0  0  0  0  0  0  0
    2.1625   -2.0000    0.0000 C   0  0  0  0  0  0  0  0  0  0  0  0
    1.2917   -2.5000    0.0000 C   0  0  0  0  0  0  0  0  0  0  0  0
   -1.3000   -1.0000    0.0000 O   0  0  0  0  0  0  0  0  0  0  0  0
   -1.3000    2.0000    0.0000 C   0  0  0  0  0  0  0  0  0  0  0  0
    3.0292   -2.5000    0.0000 O   0  0  0  0  0  0  0  0  0  0  0  0
    0.4292    1.0000    0.0000 C   0  0  0  0  0  0  0  0  0  0  0  0
   -2.1708    0.5000    0.0000 C   0  0  0  0  0  0  0  0  0  0  0  0
    0.4292    2.0000    0.0000 C   0  0  0  0  0  0  0  0  0  0  0  0
   -0.4333    2.5000    0.0000 C   0  0  0  0  0  0  0  0  0  0  0  0
   -2.1708    2.5000    0.0000 C   0  0  0  0  0  0  0  0  0  0  0  0
   -3.0333    1.0000    0.0000 C   0  0  0  0  0  0  0  0  0  0  0  0
   -3.0333    2.0000    0.0000 C   0  0  0  0  0  0  0  0  0  0  0  0
  2  1  1  0  0  0  0
  3  2  1  0  0  0  0
  4  1  1  0  0  0  0
  5  3  2  0  0  0  0
  6  5  1  0  0  0  0
  6  8  1  0  0  0  0
  7  3  1  0  0  0  0
  8  9  1  0  0  0  0
  9  7  2  0  0  0  0
 10  2  2  0  0  0  0
 11  4  2  0  0  0  0
 11 16  1  0  0  0  0
 12  8  2  0  0  0  0
 13  1  1  0  0  0  0
 14  4  1  0  0  0  0
 15 13  1  0  0  0  0
 16 15  1  0  0  0  0
 17 11  1  0  0  0  0
 17 19  2  0  0  0  0
 18 14  2  0  0  0  0
 19 18  1  0  0  0  0
M  END
>  <idnumber>
T5498301

>  <LogP>
2.308000000000000e+000

>  <rotating_bonds>
1.000000000000000e+000

>  <hb_acceptors>
2.000000000000000e+000

>  <hb_donors>
1.000000000000000e+000

>  <PSA>
4.941000000000003e+001

>  <clusterid>
-845

>  <is_centroid>
@

>  <class1>
814

>  <class2>
696

>  <population1>
5317

>  <population2>
4759

>  <population>
19

>  <cansmi>
O=C(N1CCCc2c1cccc2)c1ccc(=O)[nH]c1

>  <HBA2>
3

>  <HBD>
1

>  <logP>
2.0329

>  <TPSA>
53.17

>  <MW>
254.284

$$$$

 OpenBabel02121609142D

 15 17  0  0  0  0  0  0  0  0999 V2000
    1.6917    0.0083    0.0000 N   0  0  0  0  0  0  0  0  0  0  0  0
    0.7792   -0.3917    0.0000 C   0  0  0  0  0  0  0  0  0  0  0  0
    2.3625   -0.7292    0.0000 C   0  0  0  0  0  0  0  0  0  0  0  0
    1.8625   -1.6000    0.0000 S   0  0  0  0  0  0  0  0  0  0  0  0
    0.8792   -1.3917    0.0000 C   0  0  0  0  0  0  0  0  0  0  0  0
   -0.0875    0.1083    0.0000 C   0  0  0  0  0  0  0  0  0  0  0  0
   -0.9583   -0.3917    0.0000 C   0  0  0  0  0  0  0  0  0  0  0  0
   -1.8208    0.1083    0.0000 C   0  0  0  0  0  0  0  0  0  0  0  0
   -1.8208    1.1083    0.0000 C   0  0  0  0  0  0  0  0  0  0  0  0
   -2.7708    1.4125    0.0000 N   0  0  0  0  0  0  0  0  0  0  0  0
   -0.0875    1.1083    0.0000 C   0  0  0  0  0  0  0  0  0  0  0  0
   -0.9583    1.6083    0.0000 C   0  0  0  0  0  0  0  0  0  0  0  0
   -3.3583    0.6083    0.0000 C   0  0  0  0  0  0  0  0  0  0  0  0
   -2.7708   -0.2042    0.0000 C   0  0  0  0  0  0  0  0  0  0  0  0
    3.3542   -0.6292    0.0000 C   0  0  0  0  0  0  0  0  0  0  0  0
  2  1  1  0  0  0  0
  3  1  2  0  0  0  0
  4  3  1  0  0  0  0
  5  2  2  0  0  0  0
  5  4  1  0  0  0  0
  6  2  1  0  0  0  0
  7  6  2  0  0  0  0
  8  7  1  0  0  0  0
  8  9  2  0  0  0  0
  9 12  1  0  0  0  0
 10  9  1  0  0  0  0
 10 13  1  0  0  0  0
 11  6  1  0  0  0  0
 12 11  2  0  0  0  0
 13 14  1  0  0  0  0
 14  8  1  0  0  0  0
 15  3  1  0  0  0  0
M  END
>  <idnumber>
T5499694

>  <LogP>
2.927000000000000e+000

>  <rotating_bonds>
1.000000000000000e+000

>  <hb_acceptors>
3.000000000000000e+000

>  <hb_donors>
1.000000000000000e+000

>  <PSA>
5.316000000000000e+001

>  <clusterid>
-846

>  <is_centroid>
@

>  <class1>
732

>  <class2>
733

>  <population1>
13534

>  <population2>
49846

>  <population>
759

>  <cansmi>
Cc1scc(n1)c1ccc2c(c1)CCN2

>  <HBA2>
3

>  <HBD>
1

>  <logP>
3.2245

>  <TPSA>
53.16

>  <MW>
216.302

$$$$

 OpenBabel02121609142D

 15 16  0  0  0  0  0  0  0  0999 V2000
    1.5625   -0.5542    0.0000 N   0  0  0  0  0  0  0  0  0  0  0  0
    0.6125   -0.2417    0.0000 C   0  0  0  0  0  0  0  0  0  0  0  0
    0.6125    0.7583    0.0000 C   0  0  0  0  0  0  0  0  0  0  0  0
    1.8667   -1.5042    0.0000 C   0  0  0  0  0  0  0  0  0  0  0  0
   -1.9875    1.2583    0.0000 C   0  0  0  0  0  0  0  0  0  0  0  0
    2.1500    0.2583    0.0000 C   0  0  0  0  0  0  0  0  0  0  0  0
   -1.1208    0.7583    0.0000 C   0  0  0  0  0  0  0  0  0  0  0  0
   -0.2583    1.2583    0.0000 C   0  0  0  0  0  0  0  0  0  0  0  0
   -0.2583   -0.7417    0.0000 C   0  0  0  0  0  0  0  0  0  0  0  0
    1.5625    1.0625    0.0000 C   0  0  0  0  0  0  0  0  0  0  0  0
   -1.1208   -0.2417    0.0000 C   0  0  0  0  0  0  0  0  0  0  0  0
    2.8500   -1.7125    0.0000 O   0  0  0  0  0  0  0  0  0  0  0  0
   -2.8583    0.7583    0.0000 O   0  0  0  0  0  0  0  0  0  0  0  0
   -1.9875    2.2583    0.0000 O   0  0  0  0  0  0  0  0  0  0  0  0
    1.2000   -2.2500    0.0000 C   0  0  0  0  0  0  0  0  0  0  0  0
  2  1  1  0  0  0  0
  3  2  2  0  0  0  0
  4  1  1  0  0  0  0
  5  7  1  0  0  0  0
  6  1  1  0  0  0  0
  7 11  1  0  0  0  0
  8  3  1  0  0  0  0
  8  7  2  0  0  0  0
  9  2  1  0  0  0  0
 10  6  1  0  0  0  0
 10  3  1  0  0  0  0
 11  9  2  0  0  0  0
 12  4  2  0  0  0  0
 13  5  2  0  0  0  0
 14  5  1  0  0  0  0
 15  4  1  0  0  0  0
M  END
>  <idnumber>
T5499733

>  <LogP>
1.265000000000000e+000

>  <rotating_bonds>
1.000000000000000e+000

>  <hb_acceptors>
3.000000000000000e+000

>  <hb_donors>
1.000000000000000e+000

>  <PSA>
5.761000000000000e+001

>  <clusterid>
506

>  <is_centroid>
@

>  <class1>
732

>  <population1>
13534

>  <population>
13534

>  <cansmi>
OC(=O)c1ccc2c(c1)CCN2C(=O)C

>  <HBA2>
4

>  <HBD>
1

>  <logP>
1.3588

>  <TPSA>
57.61

>  <MW>
205.21

$$$$

 OpenBabel02121609142D

 22 24  0  0  0  0  0  0  0  0999 V2000
    0.4292    1.2500    0.0000 N   0  0  0  0  0  0  0  0  0  0  0  0
   -0.4333   -0.2500    0.0000 C   0  0  0  0  0  0  0  0  0  0  0  0
   -0.4333   -1.2500    0.0000 N   0  0  0  0  0  0  0  0  0  0  0  0
    0.4292    0.2500    0.0000 C   0  0  0  0  0  0  0  0  0  0  0  0
    1.2917    1.7500    0.0000 C   0  0  0  0  0  0  0  0  0  0  0  0
    0.4292    3.2500    0.0000 N   0  0  0  0  0  0  0  0  0  0  0  0
   -0.4333    1.7500    0.0000 C   0  0  0  0  0  0  0  0  0  0  0  0
    1.2917    2.7500    0.0000 C   0  0  0  0  0  0  0  0  0  0  0  0
   -0.4333    2.7500    0.0000 C   0  0  0  0  0  0  0  0  0  0  0  0
   -1.3000    0.2500    0.0000 O   0  0  0  0  0  0  0  0  0  0  0  0
    2.1625    1.2500    0.0000 O   0  0  0  0  0  0  0  0  0  0  0  0
    0.4292   -1.7417    0.0000 C   0  0  3  0  0  0  0  0  0  0  0  0
   -1.3000   -1.7500    0.0000 C   0  0  3  0  0  0  0  0  0  0  0  0
   -1.3000    1.2500    0.0000 C   0  0  0  0  0  0  0  0  0  0  0  0
   -0.4333   -3.2500    0.0000 C   0  0  0  0  0  0  0  0  0  0  0  0
    0.4292   -2.7417    0.0000 C   0  0  0  0  0  0  0  0  0  0  0  0
   -1.3000   -2.7500    0.0000 C   0  0  0  0  0  0  0  0  0  0  0  0
   -1.3000    3.2500    0.0000 C   0  0  0  0  0  0  0  0  0  0  0  0
    1.2917   -1.2500    0.0000 C   0  0  0  0  0  0  0  0  0  0  0  0
   -2.1708   -1.2500    0.0000 C   0  0  0  0  0  0  0  0  0  0  0  0
   -2.1708    1.7500    0.0000 C   0  0  0  0  0  0  0  0  0  0  0  0
   -2.1708    2.7500    0.0000 C   0  0  0  0  0  0  0  0  0  0  0  0
  2  4  1  0  0  0  0
  3  2  1  0  0  0  0
  4  1  1  0  0  0  0
  5  1  1  0  0  0  0
  6  9  1  0  0  0  0
  7  1  1  0  0  0  0
  8  5  1  0  0  0  0
  8  6  2  0  0  0  0
  9  7  2  0  0  0  0
 10  2  2  0  0  0  0
 11  5  2  0  0  0  0
 12  3  1  0  0  0  0
 13  3  1  0  0  0  0
 14  7  1  0  0  0  0
 15 17  1  0  0  0  0
 15 16  1  0  0  0  0
 16 12  1  0  0  0  0
 17 13  1  0  0  0  0
 18  9  1  0  0  0  0
 18 22  2  0  0  0  0
 19 12  1  0  0  0  0
 20 13  1  0  0  0  0
 21 14  2  0  0  0  0
 22 21  1  0  0  0  0
M  END
>  <idnumber>
T5499827

>  <LogP>
2.234000000000000e+000

>  <rotating_bonds>
2.000000000000000e+000

>  <hb_acceptors>
3.000000000000000e+000

>  <hb_donors>
0.000000000000000e+000

>  <PSA>
5.298000000000000e+001

>  <clusterid>
258

>  <is_centroid>
@

>  <class1>
639

>  <class2>
802

>  <population1>
59855

>  <population2>
1299

>  <population>
57

>  <cansmi>
CC1CCCC(N1C(=O)Cn1c(=O)cnc2c1cccc2)C

>  <HBA2>
5

>  <HBD>
0

>  <logP>
2.1239

>  <TPSA>
55.2

>  <MW>
299.368

$$$$

 OpenBabel02121609142D

 12 13  0  0  0  0  0  0  0  0999 V2000
   -0.3500   -0.8042    0.0000 N   0  0  0  0  0  0  0  0  0  0  0  0
   -0.7125    0.8875    0.0000 C   0  0  0  0  0  0  0  0  0  0  0  0
   -1.3000    1.6958    0.0000 O   0  0  0  0  0  0  0  0  0  0  0  0
    0.9875   -2.2917    0.0000 N   0  0  0  0  0  0  0  0  0  0  0  0
    0.2375    1.1958    0.0000 C   0  0  0  0  0  0  0  0  0  0  0  0
   -0.7125    2.5083    0.0000 C   0  0  0  0  0  0  0  0  0  0  0  0
   -1.0208   -0.0625    0.0000 C   0  0  0  0  0  0  0  0  0  0  0  0
    0.2375    2.1958    0.0000 C   0  0  0  0  0  0  0  0  0  0  0  0
    0.6250   -0.6000    0.0000 C   0  0  0  0  0  0  0  0  0  0  0  0
   -0.6625   -1.7542    0.0000 C   0  0  0  0  0  0  0  0  0  0  0  0
    0.0042   -2.5000    0.0000 C   0  0  0  0  0  0  0  0  0  0  0  0
    1.2917   -1.3417    0.0000 C   0  0  0  0  0  0  0  0  0  0  0  0
  2  7  1  0  0  0  0
  3  2  1  0  0  0  0
  4 11  1  0  0  0  0
  5  2  2  0  0  0  0
  6  3  1  0  0  0  0
  7  1  1  0  0  0  0
  8  5  1  0  0  0  0
  8  6  2  0  0  0  0
  9  1  1  0  0  0  0
 10  1  1  0  0  0  0
 11 10  1  0  0  0  0
 12  9  1  0  0  0  0
 12  4  1  0  0  0  0
M  END
>  <idnumber>
T5501885

>  <LogP>
1.051000000000000e+000

>  <rotating_bonds>
2.000000000000000e+000

>  <hb_acceptors>
2.000000000000000e+000

>  <hb_donors>
1.000000000000000e+000

>  <PSA>
2.841000000000000e+001

>  <clusterid>
-851

>  <is_centroid>
@

>  <class1>
704

>  <class2>
717

>  <population1>
51112

>  <population2>
74368

>  <population>
4190

>  <cansmi>
N1CCN(CC1)Cc1ccco1

>  <HBA2>
3

>  <HBD>
1

>  <logP>
0.9515

>  <TPSA>
28.41

>  <MW>
166.22

$$$$

 OpenBabel02121609142D

 18 20  0  0  0  0  0  0  0  0999 V2000
   -0.7958    0.2708    0.0000 N   0  0  0  0  0  0  0  0  0  0  0  0
   -0.2083    1.0833    0.0000 C   0  0  0  0  0  0  0  0  0  0  0  0
   -0.2083   -0.5375    0.0000 C   0  0  0  0  0  0  0  0  0  0  0  0
    0.7417    0.7708    0.0000 O   0  0  0  0  0  0  0  0  0  0  0  0
    0.7417   -0.2292    0.0000 C   0  0  0  0  0  0  0  0  0  0  0  0
    0.1542   -2.2292    0.0000 N   0  0  0  0  0  0  0  0  0  0  0  0
   -0.5208   -1.4917    0.0000 C   0  0  0  0  0  0  0  0  0  0  0  0
   -0.5208    2.0333    0.0000 C   0  0  0  0  0  0  0  0  0  0  0  0
    1.4917   -3.7167    0.0000 N   0  0  0  0  0  0  0  0  0  0  0  0
   -0.1583   -3.1792    0.0000 C   0  0  0  0  0  0  0  0  0  0  0  0
    1.1292   -2.0250    0.0000 C   0  0  0  0  0  0  0  0  0  0  0  0
    1.8000   -2.7667    0.0000 C   0  0  0  0  0  0  0  0  0  0  0  0
    0.5125   -3.9292    0.0000 C   0  0  0  0  0  0  0  0  0  0  0  0
    0.1542    2.7708    0.0000 C   0  0  0  0  0  0  0  0  0  0  0  0
   -1.4958    2.2375    0.0000 C   0  0  0  0  0  0  0  0  0  0  0  0
   -1.8083    3.1875    0.0000 C   0  0  0  0  0  0  0  0  0  0  0  0
   -0.1583    3.7333    0.0000 C   0  0  0  0  0  0  0  0  0  0  0  0
   -1.1333    3.9333    0.0000 C   0  0  0  0  0  0  0  0  0  0  0  0
  2  1  2  0  0  0  0
  3  1  1  0  0  0  0
  4  2  1  0  0  0  0
  5  3  2  0  0  0  0
  5  4  1  0  0  0  0
  6  7  1  0  0  0  0
  7  3  1  0  0  0  0
  8  2  1  0  0  0  0
  9 12  1  0  0  0  0
 10  6  1  0  0  0  0
 11  6  1  0  0  0  0
 12 11  1  0  0  0  0
 13 10  1  0  0  0  0
 13  9  1  0  0  0  0
 14  8  1  0  0  0  0
 15  8  2  0  0  0  0
 16 15  1  0  0  0  0
 17 14  2  0  0  0  0
 17 18  1  0  0  0  0
 18 16  2  0  0  0  0
M  END
>  <idnumber>
T5502487

>  <LogP>
1.652000000000000e+000

>  <rotating_bonds>
3.000000000000000e+000

>  <hb_acceptors>
3.000000000000000e+000

>  <hb_donors>
1.000000000000000e+000

>  <PSA>
4.130000000000000e+001

>  <clusterid>
-852

>  <is_centroid>
@

>  <class1>
717

>  <class2>
789

>  <class3>
625

>  <population1>
74368

>  <population2>
4296

>  <population3>
877209

>  <population>
538

>  <cansmi>
N1CCN(CC1)Cc1coc(n1)c1ccccc1

>  <HBA2>
4

>  <HBD>
1

>  <logP>
2.0135

>  <TPSA>
41.3

>  <MW>
243.304

$$$$

 OpenBabel02121609142D

 21 24  0  0  0  0  0  0  0  0999 V2000
   -0.2625    2.0000    0.0000 C   0  0  0  0  0  0  0  0  0  0  0  0
   -0.2625    1.0000    0.0000 C   0  0  0  0  0  0  0  0  0  0  0  0
   -1.2208    2.3125    0.0000 N   0  0  0  0  0  0  0  0  0  0  0  0
    1.4667    1.0000    0.0000 C   0  0  0  0  0  0  0  0  0  0  0  0
    0.6000    0.5000    0.0000 C   0  0  0  0  0  0  0  0  0  0  0  0
   -1.2208    0.6958    0.0000 C   0  0  0  0  0  0  0  0  0  0  0  0
   -1.8083    1.5000    0.0000 C   0  0  0  0  0  0  0  0  0  0  0  0
    0.6000    2.5000    0.0000 C   0  0  0  0  0  0  0  0  0  0  0  0
    1.4667    2.0000    0.0000 C   0  0  0  0  0  0  0  0  0  0  0  0
    2.3292   -0.5000    0.0000 N   0  0  0  0  0  0  0  0  0  0  0  0
    2.3292    0.5000    0.0000 C   0  0  0  0  0  0  0  0  0  0  0  0
    2.3292   -2.5000    0.0000 O   0  0  0  0  0  0  0  0  0  0  0  0
    2.3292    2.5000    0.0000 O   0  0  0  0  0  0  0  0  0  0  0  0
   -1.6208   -0.2167    0.0000 C   0  0  0  0  0  0  0  0  0  0  0  0
   -2.7958    1.3958    0.0000 C   0  0  0  0  0  0  0  0  0  0  0  0
    1.4667   -1.0000    0.0000 C   0  0  0  0  0  0  0  0  0  0  0  0
    3.2000   -1.0000    0.0000 C   0  0  0  0  0  0  0  0  0  0  0  0
    3.2000   -2.0000    0.0000 C   0  0  0  0  0  0  0  0  0  0  0  0
    1.4667   -2.0000    0.0000 C   0  0  0  0  0  0  0  0  0  0  0  0
   -2.6208   -0.3250    0.0000 C   0  0  0  0  0  0  0  0  0  0  0  0
   -3.2083    0.4833    0.0000 C   0  0  0  0  0  0  0  0  0  0  0  0
  2  1  1  0  0  0  0
  3  1  1  0  0  0  0
  4  9  2  0  0  0  0
  5  2  2  0  0  0  0
  5  4  1  0  0  0  0
  6  2  1  0  0  0  0
  7  3  1  0  0  0  0
  7  6  2  0  0  0  0
  8  1  2  0  0  0  0
  9  8  1  0  0  0  0
 10 11  1  0  0  0  0
 11  4  1  0  0  0  0
 12 18  1  0  0  0  0
 13  9  1  0  0  0  0
 14  6  1  0  0  0  0
 15  7  1  0  0  0  0
 16 10  1  0  0  0  0
 17 10  1  0  0  0  0
 18 17  1  0  0  0  0
 19 16  1  0  0  0  0
 19 12  1  0  0  0  0
 20 14  2  0  0  0  0
 21 15  2  0  0  0  0
 21 20  1  0  0  0  0
M  END
>  <idnumber>
T5504270

>  <LogP>
2.546000000000000e+000

>  <rotating_bonds>
2.000000000000000e+000

>  <hb_acceptors>
3.000000000000000e+000

>  <hb_donors>
2.000000000000000e+000

>  <PSA>
4.849000000000000e+001

>  <clusterid>
-856

>  <is_centroid>
@

>  <class1>
837

>  <class2>
786

>  <population1>
1053

>  <population2>
48067

>  <population>
49

>  <cansmi>
Oc1cc2[nH]c3c(c2cc1CN1CCOCC1)cccc3

>  <HBA2>
3

>  <HBD>
2

>  <logP>
2.7968

>  <TPSA>
48.49

>  <MW>
282.337

$$$$

 OpenBabel02121609142D

 18 20  0  0  0  0  0  0  0  0999 V2000
    0.8167    2.6000    0.0000 C   0  0  0  0  0  0  0  0  0  0  0  0
    0.3167    1.7333    0.0000 N   0  0  0  0  0  0  0  0  0  0  0  0
   -0.6833    0.0000    0.0000 N   0  0  0  0  0  0  0  0  0  0  0  0
    1.8167    2.6000    0.0000 C   0  0  0  0  0  0  0  0  0  0  0  0
    2.6792    2.1000    0.0000 C   0  0  0  0  0  0  0  0  0  0  0  0
    2.6792    3.1083    0.0000 C   0  0  0  0  0  0  0  0  0  0  0  0
   -1.1833   -0.8625    0.0000 C   0  0  0  0  0  0  0  0  0  0  0  0
    0.8167    0.8708    0.0000 C   0  0  0  0  0  0  0  0  0  0  0  0
   -0.6833    1.7333    0.0000 C   0  0  0  0  0  0  0  0  0  0  0  0
    0.3167    0.0000    0.0000 C   0  0  0  0  0  0  0  0  0  0  0  0
   -1.1833    0.8708    0.0000 C   0  0  0  0  0  0  0  0  0  0  0  0
    0.3167    3.4708    0.0000 O   0  0  0  0  0  0  0  0  0  0  0  0
   -2.1833   -0.8625    0.0000 C   0  0  0  0  0  0  0  0  0  0  0  0
   -0.6833   -1.7292    0.0000 C   0  0  0  0  0  0  0  0  0  0  0  0
   -2.1833   -2.5917    0.0000 C   0  0  0  0  0  0  0  0  0  0  0  0
   -2.6833   -1.7292    0.0000 C   0  0  0  0  0  0  0  0  0  0  0  0
   -1.1833   -2.5917    0.0000 C   0  0  0  0  0  0  0  0  0  0  0  0
   -2.6833   -3.4625    0.0000 O   0  0  0  0  0  0  0  0  0  0  0  0
  2  1  1  0  0  0  0
  3 11  1  0  0  0  0
  3 10  1  0  0  0  0
  4  1  1  0  0  0  0
  5  4  1  0  0  0  0
  5  6  1  0  0  0  0
  6  4  1  0  0  0  0
  7  3  1  0  0  0  0
  8  2  1  0  0  0  0
  9  2  1  0  0  0  0
 10  8  1  0  0  0  0
 11  9  1  0  0  0  0
 12  1  2  0  0  0  0
 13  7  2  0  0  0  0
 14  7  1  0  0  0  0
 15 17  1  0  0  0  0
 16 13  1  0  0  0  0
 16 15  2  0  0  0  0
 17 14  2  0  0  0  0
 18 15  1  0  0  0  0
M  END
>  <idnumber>
T5506014

>  <LogP>
-1.860000000000000e-001

>  <rotating_bonds>
2.000000000000000e+000

>  <hb_acceptors>
3.000000000000000e+000

>  <hb_donors>
1.000000000000000e+000

>  <PSA>
4.378000000000000e+001

>  <clusterid>
-859

>  <is_centroid>
@

>  <class1>
675

>  <class2>
717

>  <class3>
625

>  <population1>
33654

>  <population2>
74368

>  <population3>
877209

>  <population>
2797

>  <cansmi>
O=C(C1CC1)N1CCN(CC1)c1ccc(cc1)O

>  <HBA2>
4

>  <HBD>
1

>  <logP>
1.4537

>  <TPSA>
43.78

>  <MW>
246.305

$$$$

 OpenBabel02121609142D

 13 14  0  0  0  0  0  0  0  0999 V2000
   -0.2375   -0.3000    0.0000 C   0  0  0  0  0  0  0  0  0  0  0  0
   -0.8250   -1.1042    0.0000 S   0  0  0  0  0  0  0  0  0  0  0  0
   -0.5500    0.6500    0.0000 C   0  0  0  0  0  0  0  0  0  0  0  0
   -0.2375   -1.9167    0.0000 C   0  0  0  0  0  0  0  0  0  0  0  0
    0.1167    1.3958    0.0000 C   0  0  0  0  0  0  0  0  0  0  0  0
    0.7125   -0.6042    0.0000 C   0  0  0  0  0  0  0  0  0  0  0  0
    0.7125   -1.6042    0.0000 C   0  0  0  0  0  0  0  0  0  0  0  0
   -0.0875    2.3708    0.0000 O   0  0  0  0  0  0  0  0  0  0  0  0
   -1.5250    0.8583    0.0000 O   0  0  0  0  0  0  0  0  0  0  0  0
    1.1167    1.2958    0.0000 C   0  0  0  0  0  0  0  0  0  0  0  0
    0.7792    2.8708    0.0000 C   0  0  0  0  0  0  0  0  0  0  0  0
    1.5167    2.2083    0.0000 C   0  0  0  0  0  0  0  0  0  0  0  0
   -0.5500   -2.8667    0.0000 Cl  0  0  0  0  0  0  0  0  0  0  0  0
  2  1  1  0  0  0  0
  3  1  1  0  0  0  0
  4  2  1  0  0  0  0
  4  7  2  0  0  0  0
  5  3  1  0  0  0  0
  6  1  2  0  0  0  0
  7  6  1  0  0  0  0
  8  5  1  0  0  0  0
  9  3  2  0  0  0  0
 10  5  2  0  0  0  0
 11  8  1  0  0  0  0
 12 10  1  0  0  0  0
 12 11  2  0  0  0  0
 13  4  1  0  0  0  0
M  END
>  <idnumber>
T5508308

>  <LogP>
2.890000000000000e+000

>  <rotating_bonds>
2.000000000000000e+000

>  <hb_acceptors>
3.000000000000000e+000

>  <hb_donors>
0.000000000000000e+000

>  <PSA>
5.845000000000000e+001

>  <clusterid>
-862

>  <is_centroid>
@

>  <class1>
704

>  <class2>
645

>  <population1>
51112

>  <population2>
105961

>  <population>
4970

>  <cansmi>
Clc1ccc(s1)C(=O)c1ccco1

>  <HBA2>
3

>  <HBD>
0

>  <logP>
3.2255

>  <TPSA>
58.45

>  <MW>
212.653

$$$$

 OpenBabel02121609142D

 11 11  0  0  0  0  0  0  0  0999 V2000
    0.0000   -0.2500    0.0000 C   0  0  0  0  0  0  0  0  0  0  0  0
   -0.8708    0.2500    0.0000 C   0  0  0  0  0  0  0  0  0  0  0  0
   -0.8708    1.2500    0.0000 N   0  0  0  0  0  0  0  0  0  0  0  0
    0.0000   -1.2500    0.0000 C   0  0  0  0  0  0  0  0  0  0  0  0
    0.8625    0.2500    0.0000 C   0  0  0  0  0  0  0  0  0  0  0  0
    0.0000    1.7500    0.0000 C   0  0  0  0  0  0  0  0  0  0  0  0
    0.8625    1.2500    0.0000 C   0  0  0  0  0  0  0  0  0  0  0  0
   -0.8708   -1.7500    0.0000 O   0  0  0  0  0  0  0  0  0  0  0  0
    0.0000    2.7500    0.0000 O   0  0  0  0  0  0  0  0  0  0  0  0
    0.8625   -1.7500    0.0000 O   0  0  0  0  0  0  0  0  0  0  0  0
    0.8625   -2.7500    0.0000 C   0  0  0  0  0  0  0  0  0  0  0  0
  2  1  2  0  0  0  0
  3  2  1  0  0  0  0
  3  6  1  0  0  0  0
  4  1  1  0  0  0  0
  5  1  1  0  0  0  0
  6  7  1  0  0  0  0
  7  5  2  0  0  0  0
  8  4  2  0  0  0  0
  9  6  2  0  0  0  0
 10  4  1  0  0  0  0
 11 10  1  0  0  0  0
M  END
>  <idnumber>
T5508309

>  <LogP>
-2.460000000000000e-001

>  <rotating_bonds>
2.000000000000000e+000

>  <hb_acceptors>
2.000000000000000e+000

>  <hb_donors>
1.000000000000000e+000

>  <PSA>
5.540000000000000e+001

>  <clusterid>
-863

>  <is_centroid>
@

>  <class1>
696

>  <population1>
4759

>  <population>
4759

>  <cansmi>
COC(=O)c1ccc(=O)[nH]c1

>  <HBA2>
3

>  <HBD>
1

>  <logP>
0.1615

>  <TPSA>
59.16

>  <MW>
153.135

$$$$

 OpenBabel02121609142D

 15 15  0  0  0  0  0  0  0  0999 V2000
    0.5292   -1.2500    0.0000 C   0  0  0  0  0  0  0  0  0  0  0  0
    0.5292   -0.2500    0.0000 C   0  0  0  0  0  0  0  0  0  0  0  0
   -0.4208   -1.5542    0.0000 O   0  0  0  0  0  0  0  0  0  0  0  0
    1.4000   -1.7500    0.0000 C   0  0  0  0  0  0  0  0  0  0  0  0
    2.2667   -1.2500    0.0000 C   0  0  0  0  0  0  0  0  0  0  0  0
    1.4000    0.2500    0.0000 C   0  0  0  0  0  0  0  0  0  0  0  0
    2.2667   -0.2500    0.0000 C   0  0  0  0  0  0  0  0  0  0  0  0
   -0.4208    0.0625    0.0000 C   0  0  0  0  0  0  0  0  0  0  0  0
   -1.0083   -0.7417    0.0000 C   0  0  3  0  0  0  0  0  0  0  0  0
    3.1292   -1.7500    0.0000 N   0  0  0  0  0  0  0  0  0  0  0  0
    3.1292    0.2500    0.0000 O   0  0  0  0  0  0  0  0  0  0  0  0
   -4.0083   -0.4250    0.0000 Cl  0  0  0  0  0  0  0  0  0  0  0  0
   -2.0083   -0.7417    0.0000 C   0  0  0  0  0  0  0  0  0  0  0  0
    3.1292    1.2583    0.0000 C   0  0  0  0  0  0  0  0  0  0  0  0
    4.0000    1.7500    0.0000 C   0  0  0  0  0  0  0  0  0  0  0  0
  2  1  1  0  0  0  0
  3  1  1  0  0  0  0
  4  1  2  0  0  0  0
  5  4  1  0  0  0  0
  6  2  2  0  0  0  0
  7  5  2  0  0  0  0
  7  6  1  0  0  0  0
  8  2  1  0  0  0  0
  8  9  1  0  0  0  0
  9  3  1  0  0  0  0
 10  5  1  0  0  0  0
 11  7  1  0  0  0  0
 13  9  1  0  0  0  0
 14 11  1  0  0  0  0
 15 14  1  0  0  0  0
M  END
>  <idnumber>
T5508317

>  <LogP>
2.396000000000000e+000

>  <rotating_bonds>
2.000000000000000e+000

>  <hb_acceptors>
3.000000000000000e+000

>  <hb_donors>
1.000000000000000e+000

>  <PSA>
4.448000000000000e+001

>  <clusterid>
-864

>  <is_centroid>
@

>  <class1>
803

>  <population1>
2603

>  <population>
2603

>  <cansmi>
CCOc1cc2CC(Oc2cc1N)C.Cl

>  <HBA2>
3

>  <HBD>
2

>  <logP>
3.3741

>  <TPSA>
44.48

>  <MW>
229.703

$$$$

 OpenBabel02121609142D

 13 14  0  0  0  0  0  0  0  0999 V2000
    0.0000    0.0000    0.0000 C   0  0  0  0  0  0  0  0  0  0  0  0
    0.8625   -0.5000    0.0000 N   0  0  0  0  0  0  0  0  0  0  0  0
   -0.8708   -0.5000    0.0000 N   0  0  0  0  0  0  0  0  0  0  0  0
    0.0000   -1.9917    0.0000 C   0  0  0  0  0  0  0  0  0  0  0  0
    0.0000    1.0000    0.0000 C   0  0  0  0  0  0  0  0  0  0  0  0
   -0.8708   -1.5000    0.0000 C   0  0  0  0  0  0  0  0  0  0  0  0
    0.8625   -1.5000    0.0000 C   0  0  0  0  0  0  0  0  0  0  0  0
    0.0000   -2.9917    0.0000 N   0  0  0  0  0  0  0  0  0  0  0  0
    0.8625    1.5000    0.0000 C   0  0  0  0  0  0  0  0  0  0  0  0
   -0.8708    1.5000    0.0000 C   0  0  0  0  0  0  0  0  0  0  0  0
   -0.8708    2.5000    0.0000 C   0  0  0  0  0  0  0  0  0  0  0  0
    0.8625    2.5000    0.0000 C   0  0  0  0  0  0  0  0  0  0  0  0
    0.0000    3.0000    0.0000 C   0  0  0  0  0  0  0  0  0  0  0  0
  2  1  1  0  0  0  0
  3  1  2  0  0  0  0
  4  6  2  0  0  0  0
  4  7  1  0  0  0  0
  5  1  1  0  0  0  0
  6  3  1  0  0  0  0
  7  2  2  0  0  0  0
  8  4  1  0  0  0  0
  9  5  1  0  0  0  0
 10  5  2  0  0  0  0
 11 10  1  0  0  0  0
 12  9  2  0  0  0  0
 12 13  1  0  0  0  0
 13 11  2  0  0  0  0
M  END
>  <idnumber>
T5508320

>  <LogP>
1.774000000000000e+000

>  <rotating_bonds>
1.000000000000000e+000

>  <hb_acceptors>
3.000000000000000e+000

>  <hb_donors>
1.000000000000000e+000

>  <PSA>
5.180000000000000e+001

>  <clusterid>
-865

>  <is_centroid>
@

>  <class1>
625

>  <class2>
737

>  <population1>
877209

>  <population2>
30296

>  <population>
23887

>  <cansmi>
Nc1cnc(nc1)c1ccccc1

>  <HBA2>
3

>  <HBD>
1

>  <logP>
2.307

>  <TPSA>
51.8

>  <MW>
171.199

$$$$

 OpenBabel02121609142D

 18 20  0  0  0  0  0  0  0  0999 V2000
   -0.7958   -0.0667    0.0000 C   0  0  0  0  0  0  0  0  0  0  0  0
   -1.3000    1.8458    0.0000 C   0  0  3  0  0  0  0  0  0  0  0  0
   -1.6000    2.9125    0.0000 C   0  0  3  0  0  0  0  0  0  0  0  0
   -1.3208    0.8000    0.0000 C   0  0  0  0  0  0  0  0  0  0  0  0
   -1.0125   -1.0417    0.0000 N   0  0  0  0  0  0  0  0  0  0  0  0
   -0.3250    1.9083    0.0000 C   0  0  0  0  0  0  0  0  0  0  0  0
   -1.1208    3.3458    0.0000 C   0  0  0  0  0  0  0  0  0  0  0  0
    0.1875    0.0583    0.0000 O   0  0  0  0  0  0  0  0  0  0  0  0
   -0.1083    2.8208    0.0000 C   0  0  3  0  0  0  0  0  0  0  0  0
   -0.9125    3.9958    0.0000 C   0  0  0  0  0  0  0  0  0  0  0  0
   -0.3750   -1.8000    0.0000 C   0  0  3  0  0  0  0  0  0  0  0  0
    0.1042    3.7208    0.0000 C   0  0  0  0  0  0  0  0  0  0  0  0
    0.9375   -3.2625    0.0000 C   0  0  3  0  0  0  0  0  0  0  0  0
   -0.6833   -2.7292    0.0000 C   0  0  0  0  0  0  0  0  0  0  0  0
    0.5792   -1.5917    0.0000 C   0  0  0  0  0  0  0  0  0  0  0  0
   -0.0208   -3.4667    0.0000 C   0  0  0  0  0  0  0  0  0  0  0  0
    1.2417   -2.3250    0.0000 C   0  0  0  0  0  0  0  0  0  0  0  0
    1.5917   -3.9917    0.0000 O   0  0  0  0  0  0  0  0  0  0  0  0
  2  4  1  0  0  0  0
  3  2  1  0  0  0  0
  4  1  1  0  0  0  0
  5  1  1  0  0  0  0
  6  2  1  0  0  0  0
  7  3  1  0  0  0  0
  8  1  2  0  0  0  0
  9  6  1  0  0  0  0
  9  7  1  0  0  0  0
 10  3  1  0  0  0  0
 10 12  1  0  0  0  0
 11  5  1  0  0  0  0
 12  9  1  0  0  0  0
 13 17  1  0  0  0  0
 14 11  1  0  0  0  0
 15 11  1  0  0  0  0
 16 14  1  0  0  0  0
 16 13  1  0  0  0  0
 17 15  1  0  0  0  0
 18 13  1  0  0  0  0
M  END
>  <idnumber>
T5508819

>  <LogP>
1.271000000000000e+000

>  <rotating_bonds>
3.000000000000000e+000

>  <hb_acceptors>
2.000000000000000e+000

>  <hb_donors>
2.000000000000000e+000

>  <PSA>
4.933000000000001e+001

>  <clusterid>
-866

>  <is_centroid>
@

>  <class1>
831

>  <class2>
797

>  <population1>
1775

>  <population2>
40410

>  <population>
1775

>  <cansmi>
OC1CCC(CC1)NC(=O)CC1CC2CC1CC2

>  <HBA2>
3

>  <HBD>
2

>  <logP>
2.6233

>  <TPSA>
49.33

>  <MW>
251.365

$$$$

 OpenBabel02121609142D

 20 22  0  0  0  0  0  0  0  0999 V2000
   -0.2833    1.3708    0.0000 N   0  0  0  0  0  0  0  0  0  0  0  0
    0.0250    0.4208    0.0000 C   0  0  0  0  0  0  0  0  0  0  0  0
    1.0042    0.2125    0.0000 C   0  0  0  0  0  0  0  0  0  0  0  0
   -1.2333    1.6833    0.0000 C   0  0  0  0  0  0  0  0  0  0  0  0
    1.3125   -0.7375    0.0000 C   0  0  0  0  0  0  0  0  0  0  0  0
    0.3042    2.1833    0.0000 C   0  0  0  0  0  0  0  0  0  0  0  0
   -0.6458   -0.3250    0.0000 O   0  0  0  0  0  0  0  0  0  0  0  0
    2.2917   -0.9417    0.0000 N   0  0  0  0  0  0  0  0  0  0  0  0
   -1.2333    2.6833    0.0000 C   0  0  0  0  0  0  0  0  0  0  0  0
   -0.2833    2.9875    0.0000 C   0  0  0  0  0  0  0  0  0  0  0  0
    0.6417   -1.4792    0.0000 O   0  0  0  0  0  0  0  0  0  0  0  0
    1.6750    0.9583    0.0000 C   0  0  0  0  0  0  0  0  0  0  0  0
   -2.1000    1.1833    0.0000 C   0  0  0  0  0  0  0  0  0  0  0  0
    2.9625   -0.2042    0.0000 C   0  0  0  0  0  0  0  0  0  0  0  0
   -2.1000    3.1833    0.0000 C   0  0  0  0  0  0  0  0  0  0  0  0
    0.9542   -2.4292    0.0000 C   0  0  0  0  0  0  0  0  0  0  0  0
    2.6542    0.7458    0.0000 C   0  0  0  0  0  0  0  0  0  0  0  0
   -2.9708    1.6833    0.0000 C   0  0  0  0  0  0  0  0  0  0  0  0
    0.2792   -3.1750    0.0000 C   0  0  0  0  0  0  0  0  0  0  0  0
   -2.9708    2.6833    0.0000 C   0  0  0  0  0  0  0  0  0  0  0  0
  2  1  1  0  0  0  0
  3  2  1  0  0  0  0
  4  1  1  0  0  0  0
  5  3  2  0  0  0  0
  6  1  1  0  0  0  0
  7  2  2  0  0  0  0
  8  5  1  0  0  0  0
  8 14  2  0  0  0  0
  9  4  2  0  0  0  0
 10  6  1  0  0  0  0
 10  9  1  0  0  0  0
 11  5  1  0  0  0  0
 12  3  1  0  0  0  0
 13  4  1  0  0  0  0
 14 17  1  0  0  0  0
 15  9  1  0  0  0  0
 15 20  2  0  0  0  0
 16 11  1  0  0  0  0
 17 12  2  0  0  0  0
 18 13  2  0  0  0  0
 19 16  1  0  0  0  0
 20 18  1  0  0  0  0
M  END
>  <idnumber>
T5508898

>  <LogP>
2.833000000000000e+000

>  <rotating_bonds>
3.000000000000000e+000

>  <hb_acceptors>
3.000000000000000e+000

>  <hb_donors>
0.000000000000000e+000

>  <PSA>
4.243000000000001e+001

>  <clusterid>
513

>  <is_centroid>
@

>  <class1>
732

>  <class2>
632

>  <population1>
13534

>  <population2>
79489

>  <population>
631

>  <cansmi>
CCOc1ncccc1C(=O)N1CCc2c1cccc2

>  <HBA2>
4

>  <HBD>
0

>  <logP>
2.7482

>  <TPSA>
42.43

>  <MW>
268.31

$$$$

 OpenBabel02121609142D

 20 22  0  0  0  0  0  0  0  0999 V2000
    0.4542    1.5208    0.0000 C   0  0  0  0  0  0  0  0  0  0  0  0
   -0.4083    3.0208    0.0000 N   0  0  0  0  0  0  0  0  0  0  0  0
    0.4542    2.5208    0.0000 C   0  0  0  0  0  0  0  0  0  0  0  0
    1.3250    1.0208    0.0000 C   0  0  0  0  0  0  0  0  0  0  0  0
   -0.4083    1.0208    0.0000 C   0  0  0  0  0  0  0  0  0  0  0  0
   -1.2708    2.5208    0.0000 C   0  0  0  0  0  0  0  0  0  0  0  0
    1.3250    0.0208    0.0000 N   0  0  0  0  0  0  0  0  0  0  0  0
   -1.2708    1.5208    0.0000 C   0  0  0  0  0  0  0  0  0  0  0  0
    2.1917   -1.4792    0.0000 C   0  0  0  0  0  0  0  0  0  0  0  0
    3.0000   -2.0667    0.0000 O   0  0  0  0  0  0  0  0  0  0  0  0
    2.1917    1.5208    0.0000 O   0  0  0  0  0  0  0  0  0  0  0  0
    1.3792   -2.0667    0.0000 C   0  0  0  0  0  0  0  0  0  0  0  0
    2.6917   -3.0167    0.0000 C   0  0  0  0  0  0  0  0  0  0  0  0
    1.6917   -3.0167    0.0000 C   0  0  0  0  0  0  0  0  0  0  0  0
    2.1917   -0.4792    0.0000 C   0  0  0  0  0  0  0  0  0  0  0  0
    1.3250    3.0208    0.0000 C   0  0  0  0  0  0  0  0  0  0  0  0
   -2.1375    3.0208    0.0000 C   0  0  0  0  0  0  0  0  0  0  0  0
   -2.1375    1.0208    0.0000 C   0  0  0  0  0  0  0  0  0  0  0  0
   -3.0083    1.5208    0.0000 C   0  0  0  0  0  0  0  0  0  0  0  0
   -3.0083    2.5208    0.0000 C   0  0  0  0  0  0  0  0  0  0  0  0
  2  3  1  0  0  0  0
  2  6  2  0  0  0  0
  3  1  2  0  0  0  0
  4  1  1  0  0  0  0
  5  1  1  0  0  0  0
  6  8  1  0  0  0  0
  7  4  1  0  0  0  0
  8  5  2  0  0  0  0
  9 15  1  0  0  0  0
 10  9  1  0  0  0  0
 11  4  2  0  0  0  0
 12  9  2  0  0  0  0
 13 10  1  0  0  0  0
 14 12  1  0  0  0  0
 14 13  2  0  0  0  0
 15  7  1  0  0  0  0
 16  3  1  0  0  0  0
 17  6  1  0  0  0  0
 18  8  1  0  0  0  0
 19 18  2  0  0  0  0
 20 19  1  0  0  0  0
 20 17  2  0  0  0  0
M  END
>  <idnumber>
T5512315

>  <LogP>
2.795000000000000e+000

>  <rotating_bonds>
3.000000000000000e+000

>  <hb_acceptors>
2.000000000000000e+000

>  <hb_donors>
1.000000000000000e+000

>  <PSA>
5.513000000000000e+001

>  <clusterid>
-867

>  <is_centroid>
@

>  <class1>
704

>  <class2>
682

>  <population1>
51112

>  <population2>
20351

>  <population>
1351

>  <cansmi>
O=C(c1cc2ccccc2nc1C)NCc1ccco1

>  <HBA2>
4

>  <HBD>
1

>  <logP>
3.4571

>  <TPSA>
55.13

>  <MW>
266.295

$$$$

 OpenBabel02121609142D

 16 18  0  0  0  0  0  0  0  0999 V2000
   -0.2833    0.2583    0.0000 C   0  0  0  0  0  0  0  0  0  0  0  0
    0.3042    1.0708    0.0000 C   0  0  0  0  0  0  0  0  0  0  0  0
   -0.2833    1.8750    0.0000 S   0  0  0  0  0  0  0  0  0  0  0  0
   -1.2333    0.5708    0.0000 C   0  0  0  0  0  0  0  0  0  0  0  0
    0.0250   -0.6917    0.0000 C   0  0  0  0  0  0  0  0  0  0  0  0
    1.0042   -0.9042    0.0000 N   0  0  0  0  0  0  0  0  0  0  0  0
   -1.2333    1.5708    0.0000 C   0  0  0  0  0  0  0  0  0  0  0  0
    2.9625   -1.3167    0.0000 N   0  0  0  0  0  0  0  0  0  0  0  0
    1.6750   -0.1542    0.0000 C   0  0  0  0  0  0  0  0  0  0  0  0
    1.3125   -1.8542    0.0000 C   0  0  0  0  0  0  0  0  0  0  0  0
   -2.1000    0.0708    0.0000 C   0  0  0  0  0  0  0  0  0  0  0  0
    2.6542   -0.3667    0.0000 C   0  0  0  0  0  0  0  0  0  0  0  0
    2.2917   -2.0625    0.0000 C   0  0  0  0  0  0  0  0  0  0  0  0
   -2.1000    2.0708    0.0000 C   0  0  0  0  0  0  0  0  0  0  0  0
   -2.9708    0.5708    0.0000 C   0  0  0  0  0  0  0  0  0  0  0  0
   -2.9708    1.5708    0.0000 C   0  0  0  0  0  0  0  0  0  0  0  0
  2  1  2  0  0  0  0
  3  2  1  0  0  0  0
  3  7  1  0  0  0  0
  4  1  1  0  0  0  0
  5  1  1  0  0  0  0
  6  5  1  0  0  0  0
  7  4  2  0  0  0  0
  8 13  1  0  0  0  0
  9  6  1  0  0  0  0
 10  6  1  0  0  0  0
 11  4  1  0  0  0  0
 12  9  1  0  0  0  0
 12  8  1  0  0  0  0
 13 10  1  0  0  0  0
 14  7  1  0  0  0  0
 14 16  2  0  0  0  0
 15 11  2  0  0  0  0
 16 15  1  0  0  0  0
M  END
>  <idnumber>
T5512448

>  <LogP>
2.905000000000000e+000

>  <rotating_bonds>
2.000000000000000e+000

>  <hb_acceptors>
3.000000000000000e+000

>  <hb_donors>
1.000000000000000e+000

>  <PSA>
4.351000000000000e+001

>  <clusterid>
-868

>  <is_centroid>
@

>  <class1>
717

>  <class2>
825

>  <population1>
74368

>  <population2>
3362

>  <population>
366

>  <cansmi>
N1CCN(CC1)Cc1csc2c1cccc2

>  <HBA2>
3

>  <HBD>
1

>  <logP>
2.5732

>  <TPSA>
43.51

>  <MW>
232.345

$$$$

 OpenBabel02121609142D

 12 12  0  0  0  0  0  0  0  0999 V2000
    0.3167    0.4750    0.0000 C   0  0  0  0  0  0  0  0  0  0  0  0
    1.0875    1.1083    0.0000 C   0  0  0  0  0  0  0  0  0  0  0  0
    1.9292    0.5708    0.0000 O   0  0  0  0  0  0  0  0  0  0  0  0
    0.6792   -0.4542    0.0000 C   0  0  0  0  0  0  0  0  0  0  0  0
   -0.6583    0.7250    0.0000 C   0  0  0  0  0  0  0  0  0  0  0  0
    1.6792   -0.3917    0.0000 C   0  0  0  0  0  0  0  0  0  0  0  0
   -0.9208    1.6875    0.0000 O   0  0  0  0  0  0  0  0  0  0  0  0
   -1.3583    0.0125    0.0000 O   0  0  0  0  0  0  0  0  0  0  0  0
    1.0250    2.1083    0.0000 C   0  0  0  0  0  0  0  0  0  0  0  0
    2.3167   -1.1667    0.0000 C   0  0  0  0  0  0  0  0  0  0  0  0
    1.9667   -2.1042    0.0000 O   0  0  0  0  0  0  0  0  0  0  0  0
   -2.3208    0.2625    0.0000 C   0  0  0  0  0  0  0  0  0  0  0  0
  2  1  2  0  0  0  0
  3  2  1  0  0  0  0
  4  1  1  0  0  0  0
  5  1  1  0  0  0  0
  6  4  2  0  0  0  0
  6  3  1  0  0  0  0
  7  5  2  0  0  0  0
  8  5  1  0  0  0  0
  9  2  1  0  0  0  0
 10  6  1  0  0  0  0
 11 10  1  0  0  0  0
 12  8  1  0  0  0  0
M  END
>  <idnumber>
T5512453

>  <LogP>
7.480000000000000e-001

>  <rotating_bonds>
3.000000000000000e+000

>  <hb_acceptors>
2.000000000000000e+000

>  <hb_donors>
1.000000000000000e+000

>  <PSA>
5.967000000000000e+001

>  <clusterid>
-869

>  <is_centroid>
@

>  <class1>
704

>  <population1>
51112

>  <population>
51112

>  <cansmi>
COC(=O)c1cc(oc1C)CO

>  <HBA2>
4

>  <HBD>
1

>  <logP>
0.8669

>  <TPSA>
59.67

>  <MW>
170.163

$$$$

 OpenBabel02121609142D

 12 13  0  0  0  0  0  0  0  0999 V2000
    0.8792    0.3833    0.0000 C   0  0  0  0  0  0  0  0  0  0  0  0
    0.2917   -0.4250    0.0000 C   0  0  0  0  0  0  0  0  0  0  0  0
    0.2917    1.1958    0.0000 S   0  0  0  0  0  0  0  0  0  0  0  0
   -0.6583   -0.1167    0.0000 C   0  0  0  0  0  0  0  0  0  0  0  0
   -0.6583    0.8833    0.0000 C   0  0  0  0  0  0  0  0  0  0  0  0
    0.6042   -1.3792    0.0000 Cl  0  0  0  0  0  0  0  0  0  0  0  0
    1.8792    0.3833    0.0000 C   0  0  0  0  0  0  0  0  0  0  0  0
   -1.5208   -0.6167    0.0000 C   0  0  0  0  0  0  0  0  0  0  0  0
   -1.5208    1.3833    0.0000 C   0  0  0  0  0  0  0  0  0  0  0  0
    2.3792    1.2500    0.0000 O   0  0  0  0  0  0  0  0  0  0  0  0
   -2.3875   -0.1167    0.0000 C   0  0  0  0  0  0  0  0  0  0  0  0
   -2.3875    0.8833    0.0000 C   0  0  0  0  0  0  0  0  0  0  0  0
  2  1  2  0  0  0  0
  3  1  1  0  0  0  0
  4  2  1  0  0  0  0
  5  3  1  0  0  0  0
  5  4  2  0  0  0  0
  6  2  1  0  0  0  0
  7  1  1  0  0  0  0
  8  4  1  0  0  0  0
  9  5  1  0  0  0  0
 10  7  1  0  0  0  0
 11  8  2  0  0  0  0
 12  9  2  0  0  0  0
 12 11  1  0  0  0  0
M  END
>  <idnumber>
T5512460

>  <LogP>
2.889000000000000e+000

>  <rotating_bonds>
1.000000000000000e+000

>  <hb_acceptors>
3.000000000000000e+000

>  <hb_donors>
1.000000000000000e+000

>  <PSA>
4.847000000000000e+001

>  <clusterid>
-870

>  <is_centroid>
@

>  <class1>
825

>  <population1>
3362

>  <population>
3362

>  <cansmi>
OCc1sc2c(c1Cl)cccc2

>  <HBA2>
2

>  <HBD>
1

>  <logP>
3.047

>  <TPSA>
48.47

>  <MW>
198.669

$$$$

 OpenBabel02121609142D

 12 12  0  0  0  0  0  0  0  0999 V2000
    0.6917    0.8208    0.0000 C   0  0  0  0  0  0  0  0  0  0  0  0
   -0.0083    0.1000    0.0000 C   0  0  3  0  0  0  0  0  0  0  0  0
    0.9625   -0.1417    0.0000 C   0  0  3  0  0  0  0  0  0  0  0  0
   -0.9708   -0.1667    0.0000 C   0  0  0  0  0  0  0  0  0  0  0  0
    1.6792   -0.8417    0.0000 C   0  0  0  0  0  0  0  0  0  0  0  0
   -1.6833    0.5333    0.0000 C   0  0  0  0  0  0  0  0  0  0  0  0
    1.4292   -1.8125    0.0000 O   0  0  0  0  0  0  0  0  0  0  0  0
    0.6417    1.8208    0.0000 C   0  0  0  0  0  0  0  0  0  0  0  0
    1.2167    1.6708    0.0000 C   0  0  0  0  0  0  0  0  0  0  0  0
    2.6417   -0.5667    0.0000 O   0  0  0  0  0  0  0  0  0  0  0  0
   -1.4375    1.5000    0.0000 C   0  0  0  0  0  0  0  0  0  0  0  0
   -2.6458    0.2583    0.0000 C   0  0  0  0  0  0  0  0  0  0  0  0
  2  1  1  0  0  0  0
  2  3  1  0  0  0  0
  3  1  1  0  0  0  0
  4  2  1  0  0  0  0
  5  3  1  0  0  0  0
  6  4  2  0  0  0  0
  7  5  2  0  0  0  0
  8  1  1  0  0  0  0
  9  1  1  0  0  0  0
 10  5  1  0  0  0  0
 11  6  1  0  0  0  0
 12  6  1  0  0  0  0
M  END
>  <idnumber>
T5512482

>  <LogP>
2.950000000000000e+000

>  <rotating_bonds>
2.000000000000000e+000

>  <hb_acceptors>
2.000000000000000e+000

>  <hb_donors>
1.000000000000000e+000

>  <PSA>
3.730000000000000e+001

>  <clusterid>
-871

>  <is_centroid>
@

>  <class1>
675

>  <population1>
33654

>  <population>
33654

>  <cansmi>
CC(=CC1C(C1(C)C)C(=O)O)C

>  <HBA2>
2

>  <HBD>
1

>  <logP>
2.3094

>  <TPSA>
37.3

>  <MW>
168.233

$$$$

 OpenBabel02121609142D

 20 22  0  0  0  0  0  0  0  0999 V2000
    1.5250    0.1958    0.0000 C   0  0  0  0  0  0  0  0  0  0  0  0
    0.6542   -0.3042    0.0000 N   0  0  0  0  0  0  0  0  0  0  0  0
   -1.9375    0.1958    0.0000 C   0  0  0  0  0  0  0  0  0  0  0  0
   -1.0708   -0.3042    0.0000 C   0  0  0  0  0  0  0  0  0  0  0  0
   -1.9375    1.1958    0.0000 C   0  0  0  0  0  0  0  0  0  0  0  0
   -0.2083    0.1958    0.0000 C   0  0  0  0  0  0  0  0  0  0  0  0
   -2.7208   -0.4292    0.0000 O   0  0  0  0  0  0  0  0  0  0  0  0
    1.5250    1.1958    0.0000 O   0  0  0  0  0  0  0  0  0  0  0  0
   -2.7208    1.8125    0.0000 O   0  0  0  0  0  0  0  0  0  0  0  0
    2.3917   -0.3042    0.0000 C   0  0  3  0  0  0  0  0  0  0  0  0
   -1.0708    1.6958    0.0000 C   0  0  0  0  0  0  0  0  0  0  0  0
    4.1250   -0.3042    0.0000 C   0  0  0  0  0  0  0  0  0  0  0  0
    4.1250   -1.3042    0.0000 C   0  0  0  0  0  0  0  0  0  0  0  0
   -0.2083    1.1958    0.0000 C   0  0  0  0  0  0  0  0  0  0  0  0
   -4.1333    0.6958    0.0000 C   0  0  0  0  0  0  0  0  0  0  0  0
    3.2542    0.1958    0.0000 C   0  0  0  0  0  0  0  0  0  0  0  0
   -3.6958   -0.2125    0.0000 C   0  0  0  0  0  0  0  0  0  0  0  0
   -3.6958    1.5958    0.0000 C   0  0  0  0  0  0  0  0  0  0  0  0
    3.2542   -1.8042    0.0000 C   0  0  0  0  0  0  0  0  0  0  0  0
    2.3917   -1.3042    0.0000 C   0  0  0  0  0  0  0  0  0  0  0  0
  2  1  1  0  0  0  0
  3  4  1  0  0  0  0
  3  5  2  0  0  0  0
  4  6  2  0  0  0  0
  5 11  1  0  0  0  0
  6  2  1  0  0  0  0
  7  3  1  0  0  0  0
  8  1  2  0  0  0  0
  9  5  1  0  0  0  0
 10  1  1  0  0  0  0
 11 14  2  0  0  0  0
 12 16  1  0  0  0  0
 12 13  2  0  0  0  0
 13 19  1  0  0  0  0
 14  6  1  0  0  0  0
 15 17  1  0  0  0  0
 16 10  1  0  0  0  0
 17  7  1  0  0  0  0
 18  9  1  0  0  0  0
 18 15  1  0  0  0  0
 19 20  1  0  0  0  0
 20 10  1  0  0  0  0
M  END
>  <idnumber>
T5515624

>  <LogP>
2.883000000000000e+000

>  <rotating_bonds>
2.000000000000000e+000

>  <hb_acceptors>
3.000000000000000e+000

>  <hb_donors>
1.000000000000000e+000

>  <PSA>
4.756000000000000e+001

>  <clusterid>
-872

>  <is_centroid>
@

>  <class1>
810

>  <class2>
820

>  <population1>
20527

>  <population2>
6542

>  <population>
38

>  <cansmi>
O=C(C1CCC=CC1)Nc1ccc2c(c1)OCCCO2

>  <HBA2>
4

>  <HBD>
1

>  <logP>
3.2157

>  <TPSA>
47.56

>  <MW>
273.327

$$$$

 OpenBabel02121609142D

 17 18  0  0  0  0  0  0  0  0999 V2000
    0.0000   -1.5000    0.0000 N   0  0  0  0  0  0  0  0  0  0  0  0
    0.8625   -1.0000    0.0000 C   0  0  0  0  0  0  0  0  0  0  0  0
    0.0000   -2.4917    0.0000 C   0  0  0  0  0  0  0  0  0  0  0  0
    1.7292   -1.5000    0.0000 C   0  0  0  0  0  0  0  0  0  0  0  0
   -0.8708    4.0000    0.0000 N   0  0  0  0  0  0  0  0  0  0  0  0
    0.8625   -2.9917    0.0000 C   0  0  0  0  0  0  0  0  0  0  0  0
    1.7292   -2.4917    0.0000 C   0  0  0  0  0  0  0  0  0  0  0  0
   -0.8708    3.0000    0.0000 C   0  0  0  0  0  0  0  0  0  0  0  0
   -0.8708   -1.0000    0.0000 C   0  0  0  0  0  0  0  0  0  0  0  0
    0.8625    0.0083    0.0000 O   0  0  0  0  0  0  0  0  0  0  0  0
   -0.8708    2.0000    0.0000 C   0  0  0  0  0  0  0  0  0  0  0  0
   -0.8708    0.0083    0.0000 C   0  0  0  0  0  0  0  0  0  0  0  0
    0.8625   -4.0000    0.0000 Br  0  0  0  0  0  0  0  0  0  0  0  0
   -1.7333    1.5000    0.0000 C   0  0  0  0  0  0  0  0  0  0  0  0
    0.0000    1.5000    0.0000 C   0  0  0  0  0  0  0  0  0  0  0  0
   -1.7333    0.5000    0.0000 C   0  0  0  0  0  0  0  0  0  0  0  0
    0.0000    0.5000    0.0000 C   0  0  0  0  0  0  0  0  0  0  0  0
  2  1  1  0  0  0  0
  3  1  1  0  0  0  0
  4  2  1  0  0  0  0
  5  8  3  0  0  0  0
  6  3  2  0  0  0  0
  7  6  1  0  0  0  0
  7  4  2  0  0  0  0
  8 11  1  0  0  0  0
  9  1  1  0  0  0  0
 10  2  2  0  0  0  0
 11 15  1  0  0  0  0
 12  9  1  0  0  0  0
 13  6  1  0  0  0  0
 14 16  1  0  0  0  0
 14 11  2  0  0  0  0
 15 17  2  0  0  0  0
 16 12  2  0  0  0  0
 17 12  1  0  0  0  0
M  END
>  <idnumber>
T5521211

>  <LogP>
2.090000000000000e+000

>  <rotating_bonds>
3.000000000000000e+000

>  <hb_acceptors>
2.000000000000000e+000

>  <hb_donors>
0.000000000000000e+000

>  <PSA>
4.410000000000000e+001

>  <clusterid>
-875

>  <is_centroid>
@

>  <class1>
625

>  <class2>
696

>  <population1>
877209

>  <population2>
4759

>  <population>
3770

>  <cansmi>
N#Cc1ccc(cc1)Cn1cc(Br)ccc1=O

>  <HBA2>
3

>  <HBD>
0

>  <logP>
2.53078

>  <TPSA>
45.79

>  <MW>
289.127

$$$$

 OpenBabel02121609142D

 19 21  0  0  0  0  0  0  0  0999 V2000
    0.6167   -0.3417    0.0000 O   0  0  0  0  0  0  0  0  0  0  0  0
    0.0292   -1.1542    0.0000 C   0  0  3  0  0  0  0  0  0  0  0  0
   -0.9708   -1.1542    0.0000 C   0  0  0  0  0  0  0  0  0  0  0  0
    1.5667   -1.6542    0.0000 C   0  0  0  0  0  0  0  0  0  0  0  0
    1.5667   -0.6542    0.0000 C   0  0  0  0  0  0  0  0  0  0  0  0
    0.6167   -1.9625    0.0000 C   0  0  0  0  0  0  0  0  0  0  0  0
   -1.4708   -0.2875    0.0000 N   0  0  0  0  0  0  0  0  0  0  0  0
   -2.9708    0.5750    0.0000 C   0  0  0  0  0  0  0  0  0  0  0  0
   -3.9625    0.6833    0.0000 O   0  0  0  0  0  0  0  0  0  0  0  0
    2.4375   -2.1542    0.0000 C   0  0  0  0  0  0  0  0  0  0  0  0
   -1.4708   -2.0167    0.0000 O   0  0  0  0  0  0  0  0  0  0  0  0
   -2.5625    1.4958    0.0000 C   0  0  0  0  0  0  0  0  0  0  0  0
   -4.1708    1.6583    0.0000 C   0  0  0  0  0  0  0  0  0  0  0  0
   -3.3083    2.1583    0.0000 C   0  0  0  0  0  0  0  0  0  0  0  0
    2.4375   -0.1542    0.0000 C   0  0  0  0  0  0  0  0  0  0  0  0
   -2.4708   -0.2875    0.0000 C   0  0  0  0  0  0  0  0  0  0  0  0
    3.3000   -1.6542    0.0000 C   0  0  0  0  0  0  0  0  0  0  0  0
    3.3000   -0.6542    0.0000 C   0  0  0  0  0  0  0  0  0  0  0  0
    4.1667   -2.1542    0.0000 Cl  0  0  0  0  0  0  0  0  0  0  0  0
  2  1  1  0  0  0  0
  3  2  1  0  0  0  0
  4  5  2  0  0  0  0
  5  1  1  0  0  0  0
  6  2  1  0  0  0  0
  6  4  1  0  0  0  0
  7  3  1  0  0  0  0
  8 16  1  0  0  0  0
  9  8  1  0  0  0  0
 10  4  1  0  0  0  0
 10 17  2  0  0  0  0
 11  3  2  0  0  0  0
 12  8  2  0  0  0  0
 13  9  1  0  0  0  0
 14 12  1  0  0  0  0
 14 13  2  0  0  0  0
 15  5  1  0  0  0  0
 16  7  1  0  0  0  0
 17 18  1  0  0  0  0
 18 15  2  0  0  0  0
 19 17  1  0  0  0  0
M  END
>  <idnumber>
T5521448

>  <LogP>
2.617000000000000e+000

>  <rotating_bonds>
3.000000000000000e+000

>  <hb_acceptors>
3.000000000000000e+000

>  <hb_donors>
1.000000000000000e+000

>  <PSA>
5.146999999999999e+001

>  <clusterid>
516

>  <is_centroid>
@

>  <class1>
704

>  <class2>
803

>  <population1>
51112

>  <population2>
2603

>  <population>
66

>  <cansmi>
O=C(C1Cc2c(O1)ccc(c2)Cl)NCc1ccco1

>  <HBA2>
4

>  <HBD>
1

>  <logP>
2.9438

>  <TPSA>
51.47

>  <MW>
277.703

$$$$

 OpenBabel02121609142D

 16 17  0  0  0  0  0  0  0  0999 V2000
    0.0000   -2.2500    0.0000 N   0  0  0  0  0  0  0  0  0  0  0  0
    0.0000   -3.2500    0.0000 C   0  0  0  0  0  0  0  0  0  0  0  0
    0.0000   -0.2500    0.0000 C   0  0  0  0  0  0  0  0  0  0  0  0
   -0.8708   -0.7500    0.0000 C   0  0  0  0  0  0  0  0  0  0  0  0
   -0.8708   -1.7500    0.0000 C   0  0  0  0  0  0  0  0  0  0  0  0
    0.0000    0.7500    0.0000 C   0  0  0  0  0  0  0  0  0  0  0  0
    0.8625   -1.7500    0.0000 C   0  0  0  0  0  0  0  0  0  0  0  0
    0.8625   -0.7500    0.0000 C   0  0  0  0  0  0  0  0  0  0  0  0
    0.8625   -3.7500    0.0000 O   0  0  0  0  0  0  0  0  0  0  0  0
    0.8625    1.2500    0.0000 C   0  0  0  0  0  0  0  0  0  0  0  0
   -0.8708    1.2500    0.0000 C   0  0  0  0  0  0  0  0  0  0  0  0
    0.0000    2.7500    0.0000 C   0  0  0  0  0  0  0  0  0  0  0  0
   -0.8708    2.2500    0.0000 C   0  0  0  0  0  0  0  0  0  0  0  0
    0.8625    2.2500    0.0000 C   0  0  0  0  0  0  0  0  0  0  0  0
    0.0000    3.7500    0.0000 O   0  0  0  0  0  0  0  0  0  0  0  0
   -0.8708   -3.7500    0.0000 C   0  0  0  0  0  0  0  0  0  0  0  0
  2  1  1  0  0  0  0
  3  8  1  0  0  0  0
  4  5  1  0  0  0  0
  4  3  2  0  0  0  0
  5  1  1  0  0  0  0
  6  3  1  0  0  0  0
  7  1  1  0  0  0  0
  8  7  1  0  0  0  0
  9  2  2  0  0  0  0
 10  6  1  0  0  0  0
 11  6  2  0  0  0  0
 12 13  2  0  0  0  0
 13 11  1  0  0  0  0
 14 10  2  0  0  0  0
 14 12  1  0  0  0  0
 15 12  1  0  0  0  0
 16  2  1  0  0  0  0
M  END
>  <idnumber>
T5522454

>  <LogP>
6.180000000000000e-001

>  <rotating_bonds>
1.000000000000000e+000

>  <hb_acceptors>
2.000000000000000e+000

>  <hb_donors>
1.000000000000000e+000

>  <PSA>
4.053999999999999e+001

>  <clusterid>
-876

>  <is_centroid>
@

>  <class1>
715

>  <class2>
625

>  <population1>
4585

>  <population2>
877209

>  <population>
4053

>  <cansmi>
Oc1ccc(cc1)C1=CCN(CC1)C(=O)C

>  <HBA2>
3

>  <HBD>
1

>  <logP>
1.9657

>  <TPSA>
40.54

>  <MW>
217.264

$$$$

 OpenBabel02121609142D

 16 17  0  0  0  0  0  0  0  0999 V2000
   -0.4333   -1.2417    0.0000 C   0  0  0  0  0  0  0  0  0  0  0  0
    0.4292   -1.7417    0.0000 N   0  0  0  0  0  0  0  0  0  0  0  0
   -0.4333   -0.2500    0.0000 N   0  0  0  0  0  0  0  0  0  0  0  0
   -1.3000   -1.7417    0.0000 O   0  0  0  0  0  0  0  0  0  0  0  0
   -2.1708    2.7500    0.0000 N   0  0  0  0  0  0  0  0  0  0  0  0
    2.1625   -2.7417    0.0000 O   0  0  0  0  0  0  0  0  0  0  0  0
   -1.3000    1.2500    0.0000 C   0  0  0  0  0  0  0  0  0  0  0  0
   -1.3000    0.2500    0.0000 C   0  0  0  0  0  0  0  0  0  0  0  0
    0.4292   -2.7417    0.0000 C   0  0  0  0  0  0  0  0  0  0  0  0
    1.2917   -1.2417    0.0000 C   0  0  0  0  0  0  0  0  0  0  0  0
   -2.1708    1.7500    0.0000 C   0  0  0  0  0  0  0  0  0  0  0  0
   -1.3000    3.2500    0.0000 C   0  0  0  0  0  0  0  0  0  0  0  0
    2.1625   -1.7417    0.0000 C   0  0  0  0  0  0  0  0  0  0  0  0
    1.2917   -3.2417    0.0000 C   0  0  0  0  0  0  0  0  0  0  0  0
   -0.4333    1.7500    0.0000 C   0  0  0  0  0  0  0  0  0  0  0  0
   -0.4333    2.7500    0.0000 C   0  0  0  0  0  0  0  0  0  0  0  0
  2  1  1  0  0  0  0
  3  1  1  0  0  0  0
  4  1  2  0  0  0  0
  5 11  1  0  0  0  0
  5 12  2  0  0  0  0
  6 13  1  0  0  0  0
  7  8  1  0  0  0  0
  8  3  1  0  0  0  0
  9  2  1  0  0  0  0
 10  2  1  0  0  0  0
 11  7  2  0  0  0  0
 12 16  1  0  0  0  0
 13 10  1  0  0  0  0
 14  9  1  0  0  0  0
 14  6  1  0  0  0  0
 15  7  1  0  0  0  0
 16 15  2  0  0  0  0
M  END
>  <idnumber>
T5523041

>  <LogP>
-1.220000000000000e-001

>  <rotating_bonds>
2.000000000000000e+000

>  <hb_acceptors>
3.000000000000000e+000

>  <hb_donors>
1.000000000000000e+000

>  <PSA>
5.446000000000002e+001

>  <clusterid>
-881

>  <is_centroid>
@

>  <class1>
786

>  <class2>
632

>  <population1>
48067

>  <population2>
79489

>  <population>
3611

>  <cansmi>
O=C(N1CCOCC1)NCc1cccnc1

>  <HBA2>
5

>  <HBD>
1

>  <logP>
0.9522

>  <TPSA>
54.46

>  <MW>
221.256

$$$$

 OpenBabel02121609142D

 14 15  0  0  0  0  0  0  0  0999 V2000
    1.7292   -0.5667    0.0000 S   0  0  0  0  0  0  0  0  0  0  0  0
    0.8625   -0.0667    0.0000 N   0  0  0  0  0  0  0  0  0  0  0  0
    0.0000   -0.5667    0.0000 C   0  0  0  0  0  0  0  0  0  0  0  0
    1.2292   -1.4292    0.0000 O   0  0  0  0  0  0  0  0  0  0  0  0
    2.5917   -1.0667    0.0000 O   0  0  0  0  0  0  0  0  0  0  0  0
   -0.8708   -0.0667    0.0000 C   0  0  0  0  0  0  0  0  0  0  0  0
    0.8625    0.9333    0.0000 C   0  0  0  0  0  0  0  0  0  0  0  0
   -0.8708    0.9333    0.0000 C   0  0  0  0  0  0  0  0  0  0  0  0
    0.0000    1.4333    0.0000 C   0  0  0  0  0  0  0  0  0  0  0  0
    2.2292    0.3000    0.0000 C   0  0  0  0  0  0  0  0  0  0  0  0
   -1.7333   -0.5667    0.0000 C   0  0  0  0  0  0  0  0  0  0  0  0
   -1.7333    1.4333    0.0000 C   0  0  0  0  0  0  0  0  0  0  0  0
   -2.6000   -0.0667    0.0000 C   0  0  0  0  0  0  0  0  0  0  0  0
   -2.6000    0.9333    0.0000 C   0  0  0  0  0  0  0  0  0  0  0  0
  2  1  1  0  0  0  0
  3  2  1  0  0  0  0
  4  1  2  0  0  0  0
  5  1  2  0  0  0  0
  6  3  1  0  0  0  0
  6  8  2  0  0  0  0
  7  2  1  0  0  0  0
  8  9  1  0  0  0  0
  9  7  1  0  0  0  0
 10  1  1  0  0  0  0
 11  6  1  0  0  0  0
 12  8  1  0  0  0  0
 13 11  2  0  0  0  0
 14 12  2  0  0  0  0
 14 13  1  0  0  0  0
M  END
>  <idnumber>
T5523072

>  <LogP>
1.161000000000000e+000

>  <rotating_bonds>
0.000000000000000e+000

>  <hb_acceptors>
3.000000000000000e+000

>  <hb_donors>
0.000000000000000e+000

>  <PSA>
4.576000000000001e+001

>  <clusterid>
-882

>  <is_centroid>
@

>  <class1>
750

>  <population1>
7929

>  <population>
7929

>  <cansmi>
CS(=O)(=O)N1CCc2c(C1)cccc2

>  <HBA2>
3

>  <HBD>
0

>  <logP>
2.023

>  <TPSA>
45.76

>  <MW>
211.281

$$$$

 OpenBabel02121609142D

 20 22  0  0  0  0  0  0  0  0999 V2000
    1.3042   -0.9167    0.0000 C   0  0  0  0  0  0  0  0  0  0  0  0
    2.3917   -2.1167    0.0000 N   0  0  0  0  0  0  0  0  0  0  0  0
    2.8917   -1.2542    0.0000 N   0  0  0  0  0  0  0  0  0  0  0  0
    2.2167   -0.5042    0.0000 C   0  0  0  0  0  0  0  0  0  0  0  0
    1.4125   -1.9125    0.0000 C   0  0  0  0  0  0  0  0  0  0  0  0
    0.4417   -0.4167    0.0000 C   0  0  0  0  0  0  0  0  0  0  0  0
   -1.2958    0.5833    0.0000 N   0  0  0  0  0  0  0  0  0  0  0  0
    0.4417    0.5833    0.0000 C   0  0  0  0  0  0  0  0  0  0  0  0
   -2.1583    1.0833    0.0000 C   0  0  0  0  0  0  0  0  0  0  0  0
   -0.4250    1.0833    0.0000 C   0  0  0  0  0  0  0  0  0  0  0  0
   -2.1583    2.0833    0.0000 C   0  0  0  0  0  0  0  0  0  0  0  0
   -1.2958    2.5833    0.0000 C   0  0  0  0  0  0  0  0  0  0  0  0
    3.8792   -1.1500    0.0000 C   0  0  0  0  0  0  0  0  0  0  0  0
   -0.4250    2.0833    0.0000 C   0  0  0  0  0  0  0  0  0  0  0  0
    2.4292    0.4708    0.0000 C   0  0  0  0  0  0  0  0  0  0  0  0
    0.6667   -2.5792    0.0000 C   0  0  0  0  0  0  0  0  0  0  0  0
   -3.0208    0.5833    0.0000 C   0  0  0  0  0  0  0  0  0  0  0  0
   -3.0208    2.5833    0.0000 C   0  0  0  0  0  0  0  0  0  0  0  0
   -3.8958    1.0833    0.0000 C   0  0  0  0  0  0  0  0  0  0  0  0
   -3.8958    2.0833    0.0000 C   0  0  0  0  0  0  0  0  0  0  0  0
  2  5  2  0  0  0  0
  2  3  1  0  0  0  0
  3  4  1  0  0  0  0
  4  1  2  0  0  0  0
  5  1  1  0  0  0  0
  6  1  1  0  0  0  0
  7 10  2  0  0  0  0
  8  6  2  0  0  0  0
  9  7  1  0  0  0  0
  9 11  2  0  0  0  0
 10  8  1  0  0  0  0
 11 12  1  0  0  0  0
 12 14  2  0  0  0  0
 13  3  1  0  0  0  0
 14 10  1  0  0  0  0
 15  4  1  0  0  0  0
 16  5  1  0  0  0  0
 17  9  1  0  0  0  0
 18 11  1  0  0  0  0
 19 17  2  0  0  0  0
 20 18  2  0  0  0  0
 20 19  1  0  0  0  0
M  END
>  <idnumber>
T5528233

>  <LogP>
2.974000000000000e+000

>  <rotating_bonds>
2.000000000000000e+000

>  <hb_acceptors>
2.000000000000000e+000

>  <hb_donors>
0.000000000000000e+000

>  <PSA>
3.071000000000000e+001

>  <clusterid>
520

>  <is_centroid>
@

>  <class1>
631

>  <class2>
682

>  <population1>
41612

>  <population2>
20351

>  <population>
326

>  <cansmi>
Cc1nn(c(c1/C=C/c1ccc2c(n1)cccc2)C)C

>  <HBA2>
3

>  <HBD>
0

>  <logP>
3.7555

>  <TPSA>
30.71

>  <MW>
263.337

$$$$

 OpenBabel02121609142D

 12 13  0  0  0  0  0  0  0  0999 V2000
    1.2917    0.0083    0.0000 N   0  0  0  0  0  0  0  0  0  0  0  0
    0.4292    0.5083    0.0000 C   0  0  0  0  0  0  0  0  0  0  0  0
    1.2917   -1.0000    0.0000 C   0  0  0  0  0  0  0  0  0  0  0  0
   -0.4333    0.0083    0.0000 C   0  0  0  0  0  0  0  0  0  0  0  0
    0.4292   -1.5000    0.0000 N   0  0  0  0  0  0  0  0  0  0  0  0
   -0.4333   -0.9917    0.0000 C   0  0  0  0  0  0  0  0  0  0  0  0
    0.4292    1.5000    0.0000 O   0  0  0  0  0  0  0  0  0  0  0  0
    2.1625   -1.5000    0.0000 O   0  0  0  0  0  0  0  0  0  0  0  0
   -1.3000    0.5083    0.0000 C   0  0  0  0  0  0  0  0  0  0  0  0
   -1.3000   -1.4917    0.0000 C   0  0  0  0  0  0  0  0  0  0  0  0
   -2.1708    0.0083    0.0000 C   0  0  0  0  0  0  0  0  0  0  0  0
   -2.1708   -0.9917    0.0000 C   0  0  0  0  0  0  0  0  0  0  0  0
  2  1  1  0  0  0  0
  3  1  1  0  0  0  0
  4  2  1  0  0  0  0
  4  6  2  0  0  0  0
  5  3  1  0  0  0  0
  6  5  1  0  0  0  0
  7  2  2  0  0  0  0
  8  3  2  0  0  0  0
  9  4  1  0  0  0  0
 10  6  1  0  0  0  0
 11  9  2  0  0  0  0
 11 12  1  0  0  0  0
 12 10  2  0  0  0  0
M  END
>  <idnumber>
T5528513

>  <LogP>
5.380000000000000e-001

>  <rotating_bonds>
0.000000000000000e+000

>  <hb_acceptors>
2.000000000000000e+000

>  <hb_donors>
2.000000000000000e+000

>  <PSA>
5.820000000000000e+001

>  <clusterid>
-888

>  <is_centroid>
@

>  <class1>
655

>  <population1>
569

>  <population>
569

>  <cansmi>
O=c1[nH]c2ccccc2c(=O)[nH]1

>  <HBA2>
2

>  <HBD>
2

>  <logP>
0.2164

>  <TPSA>
65.72

>  <MW>
162.145

$$$$

 OpenBabel02121609142D

 15 16  0  0  0  0  0  0  0  0999 V2000
    0.4292   -0.2417    0.0000 C   0  0  0  0  0  0  0  0  0  0  0  0
    0.4292   -1.2417    0.0000 C   0  0  0  0  0  0  0  0  0  0  0  0
   -0.4333    0.2583    0.0000 N   0  0  0  0  0  0  0  0  0  0  0  0
    1.2917   -1.7417    0.0000 N   0  0  0  0  0  0  0  0  0  0  0  0
    1.2917    0.2583    0.0000 O   0  0  0  0  0  0  0  0  0  0  0  0
   -0.4333   -2.7417    0.0000 N   0  0  0  0  0  0  0  0  0  0  0  0
   -0.4333   -1.7417    0.0000 C   0  0  0  0  0  0  0  0  0  0  0  0
   -0.4333    1.2583    0.0000 C   0  0  0  0  0  0  0  0  0  0  0  0
    1.2917   -2.7417    0.0000 C   0  0  0  0  0  0  0  0  0  0  0  0
    0.4292   -3.2417    0.0000 C   0  0  0  0  0  0  0  0  0  0  0  0
    0.4292    1.7583    0.0000 C   0  0  0  0  0  0  0  0  0  0  0  0
   -1.3000    1.7583    0.0000 C   0  0  0  0  0  0  0  0  0  0  0  0
   -1.3000    2.7583    0.0000 C   0  0  0  0  0  0  0  0  0  0  0  0
    0.4292    2.7583    0.0000 C   0  0  0  0  0  0  0  0  0  0  0  0
   -0.4333    3.2500    0.0000 C   0  0  0  0  0  0  0  0  0  0  0  0
  2  1  1  0  0  0  0
  3  1  1  0  0  0  0
  4  2  2  0  0  0  0
  5  1  2  0  0  0  0
  6  7  2  0  0  0  0
  7  2  1  0  0  0  0
  8  3  1  0  0  0  0
  9  4  1  0  0  0  0
  9 10  2  0  0  0  0
 10  6  1  0  0  0  0
 11  8  1  0  0  0  0
 12  8  1  0  0  0  0
 13 12  1  0  0  0  0
 14 11  1  0  0  0  0
 14 15  1  0  0  0  0
 15 13  1  0  0  0  0
M  END
>  <idnumber>
T5531000

>  <LogP>
1.706000000000000e+000

>  <rotating_bonds>
2.000000000000000e+000

>  <hb_acceptors>
3.000000000000000e+000

>  <hb_donors>
1.000000000000000e+000

>  <PSA>
5.488000000000000e+001

>  <clusterid>
-890

>  <is_centroid>
@

>  <class1>
815

>  <class2>
797

>  <population1>
7310

>  <population2>
40410

>  <population>
149

>  <cansmi>
O=C(c1nccnc1)NC1CCCCC1

>  <HBA2>
4

>  <HBD>
1

>  <logP>
1.93

>  <TPSA>
54.88

>  <MW>
205.256

$$$$

 OpenBabel02121609142D

 12 13  0  0  0  0  0  0  0  0999 V2000
    0.8042    0.6208    0.0000 C   0  0  0  0  0  0  0  0  0  0  0  0
    1.7625    0.9333    0.0000 N   0  0  0  0  0  0  0  0  0  0  0  0
    1.7625    1.9333    0.0000 N   0  0  0  0  0  0  0  0  0  0  0  0
    0.2167    1.4333    0.0000 O   0  0  0  0  0  0  0  0  0  0  0  0
    0.8042    2.2375    0.0000 C   0  0  0  0  0  0  0  0  0  0  0  0
    0.5000   -0.3292    0.0000 C   0  0  0  0  0  0  0  0  0  0  0  0
   -0.4833   -0.5375    0.0000 C   0  0  0  0  0  0  0  0  0  0  0  0
   -0.7875   -1.4917    0.0000 C   0  0  0  0  0  0  0  0  0  0  0  0
   -1.7708   -1.7000    0.0000 Br  0  0  0  0  0  0  0  0  0  0  0  0
    1.1667   -1.0750    0.0000 C   0  0  0  0  0  0  0  0  0  0  0  0
    0.8625   -2.0250    0.0000 C   0  0  0  0  0  0  0  0  0  0  0  0
   -0.1208   -2.2292    0.0000 C   0  0  0  0  0  0  0  0  0  0  0  0
  2  1  2  0  0  0  0
  3  2  1  0  0  0  0
  3  5  2  0  0  0  0
  4  1  1  0  0  0  0
  5  4  1  0  0  0  0
  6  1  1  0  0  0  0
  7  6  1  0  0  0  0
  8  7  2  0  0  0  0
  8 12  1  0  0  0  0
  9  8  1  0  0  0  0
 10  6  2  0  0  0  0
 11 10  1  0  0  0  0
 12 11  2  0  0  0  0
M  END
>  <idnumber>
T5531711

>  <LogP>
1.435000000000000e+000

>  <rotating_bonds>
1.000000000000000e+000

>  <hb_acceptors>
2.000000000000000e+000

>  <hb_donors>
0.000000000000000e+000

>  <PSA>
3.892000000000000e+001

>  <clusterid>
523

>  <is_centroid>
@

>  <class1>
689

>  <class2>
625

>  <population1>
17264

>  <population2>
877209

>  <population>
15721

>  <cansmi>
Brc1cccc(c1)c1nnco1

>  <HBA2>
3

>  <HBD>
0

>  <logP>
2.4991

>  <TPSA>
38.92

>  <MW>
225.042

$$$$

 OpenBabel02121609142D

 17 19  0  0  0  0  0  0  0  0999 V2000
    0.3167    0.8125    0.0000 C   0  0  0  0  0  0  0  0  0  0  0  0
   -0.2708    0.0000    0.0000 O   0  0  0  0  0  0  0  0  0  0  0  0
    1.2667    0.5000    0.0000 N   0  0  0  0  0  0  0  0  0  0  0  0
    1.2667   -0.5000    0.0000 N   0  0  0  0  0  0  0  0  0  0  0  0
    0.3167   -0.8042    0.0000 C   0  0  0  0  0  0  0  0  0  0  0  0
    0.0125    1.7625    0.0000 C   0  0  0  0  0  0  0  0  0  0  0  0
    0.0125   -1.7542    0.0000 C   0  0  0  0  0  0  0  0  0  0  0  0
   -1.2750    2.9208    0.0000 N   0  0  0  0  0  0  0  0  0  0  0  0
   -0.9708    1.9708    0.0000 C   0  0  0  0  0  0  0  0  0  0  0  0
    0.6792    2.5083    0.0000 C   0  0  0  0  0  0  0  0  0  0  0  0
   -0.6083    3.6708    0.0000 C   0  0  0  0  0  0  0  0  0  0  0  0
    0.6792   -2.5000    0.0000 C   0  0  0  0  0  0  0  0  0  0  0  0
   -0.9708   -1.9667    0.0000 C   0  0  0  0  0  0  0  0  0  0  0  0
    0.3667    3.4583    0.0000 C   0  0  0  0  0  0  0  0  0  0  0  0
   -1.2750   -2.9167    0.0000 C   0  0  0  0  0  0  0  0  0  0  0  0
    0.3667   -3.4542    0.0000 C   0  0  0  0  0  0  0  0  0  0  0  0
   -0.6083   -3.6542    0.0000 C   0  0  0  0  0  0  0  0  0  0  0  0
  2  1  1  0  0  0  0
  3  1  2  0  0  0  0
  4  3  1  0  0  0  0
  5  2  1  0  0  0  0
  5  4  2  0  0  0  0
  6  1  1  0  0  0  0
  7  5  1  0  0  0  0
  8  9  1  0  0  0  0
  8 11  2  0  0  0  0
  9  6  2  0  0  0  0
 10  6  1  0  0  0  0
 11 14  1  0  0  0  0
 12  7  1  0  0  0  0
 13  7  2  0  0  0  0
 14 10  2  0  0  0  0
 15 13  1  0  0  0  0
 16 12  2  0  0  0  0
 17 15  2  0  0  0  0
 17 16  1  0  0  0  0
M  END
>  <idnumber>
T5531771

>  <LogP>
1.341000000000000e+000

>  <rotating_bonds>
2.000000000000000e+000

>  <hb_acceptors>
3.000000000000000e+000

>  <hb_donors>
0.000000000000000e+000

>  <PSA>
5.181000000000000e+001

>  <clusterid>
-891

>  <is_centroid>
@

>  <class1>
689

>  <class2>
625

>  <class3>
632

>  <population1>
17264

>  <population2>
877209

>  <population3>
79489

>  <population>
800

>  <cansmi>
c1ccc(cc1)c1nnc(o1)c1cccnc1

>  <HBA2>
4

>  <HBD>
0

>  <logP>
2.7986

>  <TPSA>
51.81

>  <MW>
223.23

$$$$

 OpenBabel02121609142D

 21 23  0  0  0  0  0  0  0  0999 V2000
    1.9792    0.0208    0.0000 C   0  0  0  0  0  0  0  0  0  0  0  0
    2.9792    0.0208    0.0000 C   0  0  0  0  0  0  0  0  0  0  0  0
    3.5667   -0.7917    0.0000 N   0  0  0  0  0  0  0  0  0  0  0  0
   -2.5208    0.8833    0.0000 N   0  0  0  0  0  0  0  0  0  0  0  0
    1.4792    0.8833    0.0000 N   0  0  0  0  0  0  0  0  0  0  0  0
   -1.5208    0.8833    0.0000 C   0  0  0  0  0  0  0  0  0  0  0  0
    3.5667    0.8250    0.0000 C   0  0  0  0  0  0  0  0  0  0  0  0
    4.5167   -0.4792    0.0000 C   0  0  0  0  0  0  0  0  0  0  0  0
    4.5167    0.5208    0.0000 C   0  0  0  0  0  0  0  0  0  0  0  0
    1.4792   -0.8500    0.0000 O   0  0  0  0  0  0  0  0  0  0  0  0
   -4.5208    0.8833    0.0000 O   0  0  0  0  0  0  0  0  0  0  0  0
    0.4792    0.8833    0.0000 C   0  0  0  0  0  0  0  0  0  0  0  0
   -1.0208    1.7500    0.0000 C   0  0  0  0  0  0  0  0  0  0  0  0
   -1.0208    0.0208    0.0000 C   0  0  0  0  0  0  0  0  0  0  0  0
   -0.0208    1.7500    0.0000 C   0  0  0  0  0  0  0  0  0  0  0  0
   -0.0208    0.0208    0.0000 C   0  0  0  0  0  0  0  0  0  0  0  0
    3.2542   -1.7417    0.0000 C   0  0  0  0  0  0  0  0  0  0  0  0
   -3.0208    1.7500    0.0000 C   0  0  0  0  0  0  0  0  0  0  0  0
   -3.0208    0.0208    0.0000 C   0  0  0  0  0  0  0  0  0  0  0  0
   -4.0208    0.0208    0.0000 C   0  0  0  0  0  0  0  0  0  0  0  0
   -4.0208    1.7500    0.0000 C   0  0  0  0  0  0  0  0  0  0  0  0
  2  1  1  0  0  0  0
  3  2  1  0  0  0  0
  4  6  1  0  0  0  0
  5  1  1  0  0  0  0
  6 14  2  0  0  0  0
  7  2  2  0  0  0  0
  8  3  1  0  0  0  0
  8  9  2  0  0  0  0
  9  7  1  0  0  0  0
 10  1  2  0  0  0  0
 11 20  1  0  0  0  0
 12  5  1  0  0  0  0
 13 15  2  0  0  0  0
 13  6  1  0  0  0  0
 14 16  1  0  0  0  0
 15 12  1  0  0  0  0
 16 12  2  0  0  0  0
 17  3  1  0  0  0  0
 18  4  1  0  0  0  0
 19  4  1  0  0  0  0
 20 19  1  0  0  0  0
 21 18  1  0  0  0  0
 21 11  1  0  0  0  0
M  END
>  <idnumber>
T5531974

>  <LogP>
2.162000000000000e+000

>  <rotating_bonds>
3.000000000000000e+000

>  <hb_acceptors>
3.000000000000000e+000

>  <hb_donors>
1.000000000000000e+000

>  <PSA>
4.649999999999999e+001

>  <clusterid>
421

>  <is_centroid>
@

>  <class1>
786

>  <class2>
625

>  <class3>
635

>  <population1>
48067

>  <population2>
877209

>  <population3>
31512

>  <population>
823

>  <cansmi>
O=C(c1cccn1C)Nc1ccc(cc1)N1CCOCC1

>  <HBA2>
5

>  <HBD>
1

>  <logP>
2.252

>  <TPSA>
46.5

>  <MW>
285.341

$$$$

 OpenBabel02121609142D

 16 17  0  0  0  0  0  0  0  0999 V2000
   -0.5458   -1.2542    0.0000 C   0  0  0  0  0  0  0  0  0  0  0  0
   -1.1333   -2.0625    0.0000 O   0  0  0  0  0  0  0  0  0  0  0  0
   -0.5458   -2.8667    0.0000 C   0  0  0  0  0  0  0  0  0  0  0  0
   -0.8500   -0.3042    0.0000 C   0  0  0  0  0  0  0  0  0  0  0  0
    0.4042   -1.5625    0.0000 C   0  0  0  0  0  0  0  0  0  0  0  0
    0.4042   -2.5625    0.0000 C   0  0  0  0  0  0  0  0  0  0  0  0
   -0.1833    0.4375    0.0000 N   0  0  0  0  0  0  0  0  0  0  0  0
   -0.1333    3.0833    0.0000 N   0  0  0  0  0  0  0  0  0  0  0  0
   -1.8333   -0.0917    0.0000 O   0  0  0  0  0  0  0  0  0  0  0  0
   -0.8500   -3.8250    0.0000 Br  0  0  0  0  0  0  0  0  0  0  0  0
   -0.4958    1.3958    0.0000 C   0  0  0  0  0  0  0  0  0  0  0  0
    0.1792    2.1333    0.0000 C   0  0  0  0  0  0  0  0  0  0  0  0
    0.5375    3.8333    0.0000 C   0  0  0  0  0  0  0  0  0  0  0  0
    1.1542    1.9250    0.0000 C   0  0  0  0  0  0  0  0  0  0  0  0
    1.5167    3.6208    0.0000 C   0  0  0  0  0  0  0  0  0  0  0  0
    1.8250    2.6708    0.0000 C   0  0  0  0  0  0  0  0  0  0  0  0
  2  1  1  0  0  0  0
  3  2  1  0  0  0  0
  3  6  2  0  0  0  0
  4  1  1  0  0  0  0
  5  1  2  0  0  0  0
  6  5  1  0  0  0  0
  7  4  1  0  0  0  0
  8 12  2  0  0  0  0
  9  4  2  0  0  0  0
 10  3  1  0  0  0  0
 11  7  1  0  0  0  0
 12 11  1  0  0  0  0
 13  8  1  0  0  0  0
 13 15  2  0  0  0  0
 14 12  1  0  0  0  0
 15 16  1  0  0  0  0
 16 14  2  0  0  0  0
M  END
>  <idnumber>
T5532436

>  <LogP>
1.573000000000000e+000

>  <rotating_bonds>
3.000000000000000e+000

>  <hb_acceptors>
2.000000000000000e+000

>  <hb_donors>
1.000000000000000e+000

>  <PSA>
5.513000000000000e+001

>  <clusterid>
525

>  <is_centroid>
@

>  <class1>
704

>  <class2>
632

>  <population1>
51112

>  <population2>
79489

>  <population>
3605

>  <cansmi>
Brc1ccc(o1)C(=O)NCc1ccccn1

>  <HBA2>
4

>  <HBD>
1

>  <logP>
2.758

>  <TPSA>
55.13

>  <MW>
281.105

$$$$

 OpenBabel02121609142D

 20 22  0  0  0  0  0  0  0  0999 V2000
   -0.7875   -0.0917    0.0000 C   0  0  0  0  0  0  0  0  0  0  0  0
    0.1917    0.1083    0.0000 N   0  0  0  0  0  0  0  0  0  0  0  0
    2.1500    0.5208    0.0000 N   0  0  0  0  0  0  0  0  0  0  0  0
    0.8625   -0.6375    0.0000 C   0  0  0  0  0  0  0  0  0  0  0  0
    1.8375   -0.4292    0.0000 C   0  0  0  0  0  0  0  0  0  0  0  0
   -1.0958   -1.0542    0.0000 O   0  0  0  0  0  0  0  0  0  0  0  0
   -1.4583    0.6458    0.0000 C   0  0  0  0  0  0  0  0  0  0  0  0
   -2.7958    2.1333    0.0000 N   0  0  0  0  0  0  0  0  0  0  0  0
    3.1000    0.8333    0.0000 C   0  0  0  0  0  0  0  0  0  0  0  0
    1.5542    1.3333    0.0000 C   0  0  0  0  0  0  0  0  0  0  0  0
    0.5500   -1.5875    0.0000 C   0  0  0  0  0  0  0  0  0  0  0  0
    2.5042   -1.1667    0.0000 C   0  0  0  0  0  0  0  0  0  0  0  0
   -1.8208    2.3375    0.0000 C   0  0  0  0  0  0  0  0  0  0  0  0
   -3.1083    1.1750    0.0000 C   0  0  0  0  0  0  0  0  0  0  0  0
   -1.1458    1.5958    0.0000 C   0  0  0  0  0  0  0  0  0  0  0  0
   -2.4333    0.4333    0.0000 C   0  0  0  0  0  0  0  0  0  0  0  0
    2.1500    2.1458    0.0000 C   0  0  0  0  0  0  0  0  0  0  0  0
    3.1000    1.8333    0.0000 C   0  0  0  0  0  0  0  0  0  0  0  0
    1.2167   -2.3292    0.0000 C   0  0  0  0  0  0  0  0  0  0  0  0
    2.1917   -2.1250    0.0000 C   0  0  0  0  0  0  0  0  0  0  0  0
  2  1  1  0  0  0  0
  3  5  1  0  0  0  0
  4  2  1  0  0  0  0
  5  4  2  0  0  0  0
  6  1  2  0  0  0  0
  7  1  1  0  0  0  0
  8 14  2  0  0  0  0
  9  3  1  0  0  0  0
 10  3  1  0  0  0  0
 11  4  1  0  0  0  0
 12  5  1  0  0  0  0
 12 20  2  0  0  0  0
 13 15  2  0  0  0  0
 13  8  1  0  0  0  0
 14 16  1  0  0  0  0
 15  7  1  0  0  0  0
 16  7  2  0  0  0  0
 17 10  1  0  0  0  0
 18  9  1  0  0  0  0
 18 17  1  0  0  0  0
 19 11  2  0  0  0  0
 20 19  1  0  0  0  0
M  END
>  <idnumber>
T5534053

>  <LogP>
2.696000000000000e+000

>  <rotating_bonds>
3.000000000000000e+000

>  <hb_acceptors>
3.000000000000000e+000

>  <hb_donors>
1.000000000000000e+000

>  <PSA>
4.523000000000000e+001

>  <clusterid>
-892

>  <is_centroid>
@

>  <class1>
642

>  <class2>
625

>  <class3>
632

>  <population1>
51183

>  <population2>
877209

>  <population3>
79489

>  <population>
2488

>  <cansmi>
O=C(c1ccncc1)Nc1ccccc1N1CCCC1

>  <HBA2>
4

>  <HBD>
1

>  <logP>
3.0721

>  <TPSA>
45.23

>  <MW>
267.326

$$$$

 OpenBabel02121609142D

 13 15  0  0  0  0  0  0  0  0999 V2000
   -0.5083    0.2583    0.0000 C   0  0  0  0  0  0  0  0  0  0  0  0
    0.3042   -0.2917    0.0000 C   0  0  0  0  0  0  0  0  0  0  0  0
   -0.5083    1.2333    0.0000 C   0  0  0  0  0  0  0  0  0  0  0  0
    1.2000    0.1833    0.0000 C   0  0  0  0  0  0  0  0  0  0  0  0
   -1.4208   -0.1125    0.0000 C   0  0  0  0  0  0  0  0  0  0  0  0
   -1.4708    1.5125    0.0000 C   0  0  0  0  0  0  0  0  0  0  0  0
    0.3792    1.7083    0.0000 C   0  0  0  0  0  0  0  0  0  0  0  0
   -2.0333    0.6833    0.0000 C   0  0  0  0  0  0  0  0  0  0  0  0
    1.2292    1.1833    0.0000 C   0  0  0  0  0  0  0  0  0  0  0  0
    2.0292   -0.3917    0.0000 N   0  0  0  0  0  0  0  0  0  0  0  0
    0.2042   -1.2917    0.0000 C   0  0  0  0  0  0  0  0  0  0  0  0
   -0.7125   -1.7042    0.0000 C   0  0  0  0  0  0  0  0  0  0  0  0
   -1.5208   -1.1125    0.0000 C   0  0  0  0  0  0  0  0  0  0  0  0
  2  1  1  0  0  0  0
  3  1  2  0  0  0  0
  4  2  2  0  0  0  0
  4  9  1  0  0  0  0
  5  1  1  0  0  0  0
  6  3  1  0  0  0  0
  6  8  1  0  0  0  0
  7  3  1  0  0  0  0
  8  5  1  0  0  0  0
  9  7  2  0  0  0  0
 10  4  1  0  0  0  0
 11  2  1  0  0  0  0
 12 13  1  0  0  0  0
 12 11  2  0  0  0  0
 13  5  2  0  0  0  0
M  END
>  <idnumber>
T5534230

>  <LogP>
2.543000000000000e+000

>  <rotating_bonds>
0.000000000000000e+000

>  <hb_acceptors>
1.000000000000000e+000

>  <hb_donors>
1.000000000000000e+000

>  <PSA>
2.602000000000000e+001

>  <clusterid>
-894

>  <is_centroid>
@

>  <class1>
666

>  <population1>
317

>  <population>
317

>  <cansmi>
Nc1ccc2c3c1cccc3CC2

>  <HBA2>
1

>  <HBD>
1

>  <logP>
3.1018

>  <TPSA>
26.02

>  <MW>
169.222

$$$$

 OpenBabel02121609142D

 15 16  0  0  0  0  0  0  0  0999 V2000
   -0.4208    0.0708    0.0000 C   0  0  0  0  0  0  0  0  0  0  0  0
    1.2792    1.1333    0.0000 N   0  0  0  0  0  0  0  0  0  0  0  0
    0.4292    0.6000    0.0000 C   0  0  0  0  0  0  0  0  0  0  0  0
   -0.4208   -1.9292    0.0000 C   0  0  0  0  0  0  0  0  0  0  0  0
   -0.1208    1.0250    0.0000 C   0  0  0  0  0  0  0  0  0  0  0  0
   -1.2833   -0.4292    0.0000 C   0  0  0  0  0  0  0  0  0  0  0  0
    0.4500   -0.4292    0.0000 C   0  0  0  0  0  0  0  0  0  0  0  0
   -0.4208   -2.9292    0.0000 O   0  0  0  0  0  0  0  0  0  0  0  0
   -1.2833   -1.4292    0.0000 C   0  0  0  0  0  0  0  0  0  0  0  0
    0.4500   -1.4292    0.0000 C   0  0  0  0  0  0  0  0  0  0  0  0
    0.8542    1.2458    0.0000 C   0  0  0  0  0  0  0  0  0  0  0  0
   -0.8000    1.7583    0.0000 C   0  0  0  0  0  0  0  0  0  0  0  0
   -0.5083    2.7125    0.0000 C   0  0  0  0  0  0  0  0  0  0  0  0
    1.1500    2.2083    0.0000 C   0  0  0  0  0  0  0  0  0  0  0  0
    0.4667    2.9333    0.0000 C   0  0  0  0  0  0  0  0  0  0  0  0
  2  3  3  0  0  0  0
  3  1  1  0  0  0  0
  4 10  1  0  0  0  0
  5  1  1  0  0  0  0
  6  1  1  0  0  0  0
  7  1  1  0  0  0  0
  8  4  2  0  0  0  0
  9  6  1  0  0  0  0
  9  4  1  0  0  0  0
 10  7  1  0  0  0  0
 11  5  1  0  0  0  0
 12  5  2  0  0  0  0
 13 12  1  0  0  0  0
 14 11  2  0  0  0  0
 14 15  1  0  0  0  0
 15 13  2  0  0  0  0
M  END
>  <idnumber>
T5534237

>  <LogP>
1.096000000000000e+000

>  <rotating_bonds>
2.000000000000000e+000

>  <hb_acceptors>
2.000000000000000e+000

>  <hb_donors>
0.000000000000000e+000

>  <PSA>
4.086000000000000e+001

>  <clusterid>
-895

>  <is_centroid>
@

>  <class1>
839

>  <class2>
625

>  <population1>
1494

>  <population2>
877209

>  <population>
1232

>  <cansmi>
N#CC1(CCC(=O)CC1)c1ccccc1

>  <HBA2>
2

>  <HBD>
0

>  <logP>
2.59108

>  <TPSA>
40.86

>  <MW>
199.248

$$$$

 OpenBabel02121609142D

 18 20  0  0  0  0  0  0  0  0999 V2000
   -0.5208   -1.3042    0.0000 C   0  0  0  0  0  0  0  0  0  0  0  0
   -0.2958   -0.3292    0.0000 N   0  0  0  0  0  0  0  0  0  0  0  0
   -0.8083    1.5750    0.0000 C   0  0  3  0  0  0  0  0  0  0  0  0
   -1.1083    2.6458    0.0000 C   0  0  3  0  0  0  0  0  0  0  0  0
   -0.8208    0.5375    0.0000 C   0  0  3  0  0  0  0  0  0  0  0  0
    0.1667    1.6375    0.0000 C   0  0  0  0  0  0  0  0  0  0  0  0
   -0.6208    3.0833    0.0000 C   0  0  0  0  0  0  0  0  0  0  0  0
   -1.4750   -1.5292    0.0000 O   0  0  0  0  0  0  0  0  0  0  0  0
    0.1167   -2.0625    0.0000 C   0  0  0  0  0  0  0  0  0  0  0  0
    0.3875    2.5583    0.0000 C   0  0  3  0  0  0  0  0  0  0  0  0
    1.4375   -3.5167    0.0000 N   0  0  0  0  0  0  0  0  0  0  0  0
   -0.4125    3.7333    0.0000 C   0  0  0  0  0  0  0  0  0  0  0  0
    0.6042    3.4583    0.0000 C   0  0  0  0  0  0  0  0  0  0  0  0
   -1.7458    0.1583    0.0000 C   0  0  0  0  0  0  0  0  0  0  0  0
    1.7375   -2.5875    0.0000 C   0  0  0  0  0  0  0  0  0  0  0  0
    0.4750   -3.7250    0.0000 C   0  0  0  0  0  0  0  0  0  0  0  0
    1.0792   -1.8542    0.0000 C   0  0  0  0  0  0  0  0  0  0  0  0
   -0.1833   -2.9917    0.0000 C   0  0  0  0  0  0  0  0  0  0  0  0
  2  1  1  0  0  0  0
  3  5  1  0  0  0  0
  4  3  1  0  0  0  0
  5  2  1  0  0  0  0
  6  3  1  0  0  0  0
  7  4  1  0  0  0  0
  8  1  2  0  0  0  0
  9  1  1  0  0  0  0
 10  6  1  0  0  0  0
 10  7  1  0  0  0  0
 11 16  1  0  0  0  0
 12  4  1  0  0  0  0
 12 13  1  0  0  0  0
 13 10  1  0  0  0  0
 14  5  1  0  0  0  0
 15 17  1  0  0  0  0
 15 11  2  0  0  0  0
 16 18  2  0  0  0  0
 17  9  2  0  0  0  0
 18  9  1  0  0  0  0
M  END
>  <idnumber>
T5537262

>  <LogP>
2.822000000000000e+000

>  <rotating_bonds>
3.000000000000000e+000

>  <hb_acceptors>
2.000000000000000e+000

>  <hb_donors>
1.000000000000000e+000

>  <PSA>
4.199000000000000e+001

>  <clusterid>
402

>  <is_centroid>
@

>  <class1>
831

>  <class2>
632

>  <population1>
1775

>  <population2>
79489

>  <population>
65

>  <cansmi>
CC(C1CC2CC1CC2)NC(=O)c1ccncc1

>  <HBA2>
3

>  <HBD>
1

>  <logP>
3.027

>  <TPSA>
41.99

>  <MW>
244.332

$$$$

 OpenBabel02121609142D

 15 16  0  0  0  0  0  0  0  0999 V2000
   -0.2083    1.4125    0.0000 N   0  0  0  0  0  0  0  0  0  0  0  0
    1.4375    2.9458    0.0000 N   0  0  0  0  0  0  0  0  0  0  0  0
   -1.0750    0.9125    0.0000 C   0  0  0  0  0  0  0  0  0  0  0  0
   -1.0750   -0.0875    0.0000 C   0  0  0  0  0  0  0  0  0  0  0  0
   -1.0750   -2.0875    0.0000 C   0  0  0  0  0  0  0  0  0  0  0  0
   -0.2083   -0.5875    0.0000 C   0  0  0  0  0  0  0  0  0  0  0  0
   -1.9458   -0.5875    0.0000 C   0  0  0  0  0  0  0  0  0  0  0  0
   -0.2083   -1.5875    0.0000 C   0  0  0  0  0  0  0  0  0  0  0  0
   -1.9458   -1.5875    0.0000 C   0  0  0  0  0  0  0  0  0  0  0  0
    0.6167    0.8500    0.0000 C   0  0  0  0  0  0  0  0  0  0  0  0
    1.5667    1.1458    0.0000 C   0  0  0  0  0  0  0  0  0  0  0  0
    1.9375    2.0833    0.0000 C   0  0  0  0  0  0  0  0  0  0  0  0
   -0.2833    2.4125    0.0000 C   0  0  0  0  0  0  0  0  0  0  0  0
    0.4500    3.0958    0.0000 C   0  0  0  0  0  0  0  0  0  0  0  0
   -1.0750   -3.0875    0.0000 C   0  0  0  0  0  0  0  0  0  0  0  0
  2 14  1  0  0  0  0
  3  1  1  0  0  0  0
  4  3  1  0  0  0  0
  5  9  2  0  0  0  0
  5  8  1  0  0  0  0
  6  4  1  0  0  0  0
  7  4  2  0  0  0  0
  8  6  2  0  0  0  0
  9  7  1  0  0  0  0
 10  1  1  0  0  0  0
 11 10  1  0  0  0  0
 12 11  1  0  0  0  0
 12  2  1  0  0  0  0
 13  1  1  0  0  0  0
 14 13  1  0  0  0  0
 15  5  1  0  0  0  0
M  END
>  <idnumber>
T5540160

>  <LogP>
2.370000000000000e+000

>  <rotating_bonds>
2.000000000000000e+000

>  <hb_acceptors>
2.000000000000000e+000

>  <hb_donors>
1.000000000000000e+000

>  <PSA>
1.527000000000000e+001

>  <clusterid>
528

>  <is_centroid>
@

>  <class1>
625

>  <class2>
834

>  <population1>
877209

>  <population2>
2002

>  <population>
1844

>  <cansmi>
Cc1ccc(cc1)CN1CCNCCC1

>  <HBA2>
2

>  <HBD>
1

>  <logP>
2.057

>  <TPSA>
15.27

>  <MW>
204.311

$$$$

 OpenBabel02121609142D

 17 19  0  0  0  0  0  0  0  0999 V2000
    0.2000   -0.1542    0.0000 C   0  0  0  0  0  0  0  0  0  0  0  0
    0.2000    0.8458    0.0000 N   0  0  0  0  0  0  0  0  0  0  0  0
   -0.7583   -0.4667    0.0000 N   0  0  0  0  0  0  0  0  0  0  0  0
    1.1500   -0.4667    0.0000 C   0  0  0  0  0  0  0  0  0  0  0  0
    1.1500    1.1500    0.0000 N   0  0  0  0  0  0  0  0  0  0  0  0
    1.7375    0.3458    0.0000 C   0  0  0  0  0  0  0  0  0  0  0  0
   -0.7583    1.1500    0.0000 C   0  0  0  0  0  0  0  0  0  0  0  0
   -1.3458    0.3458    0.0000 C   0  0  0  0  0  0  0  0  0  0  0  0
    1.4542   -1.4167    0.0000 C   0  0  0  0  0  0  0  0  0  0  0  0
    0.7875   -2.1625    0.0000 O   0  0  0  0  0  0  0  0  0  0  0  0
   -1.0625   -1.4167    0.0000 C   0  0  0  0  0  0  0  0  0  0  0  0
   -1.1583    2.0625    0.0000 C   0  0  0  0  0  0  0  0  0  0  0  0
    2.7375    0.3458    0.0000 C   0  0  0  0  0  0  0  0  0  0  0  0
   -2.3333    0.4458    0.0000 C   0  0  0  0  0  0  0  0  0  0  0  0
    2.4375   -1.6292    0.0000 C   0  0  0  0  0  0  0  0  0  0  0  0
   -2.1583    2.1708    0.0000 C   0  0  0  0  0  0  0  0  0  0  0  0
   -2.7458    1.3583    0.0000 C   0  0  0  0  0  0  0  0  0  0  0  0
  2  1  1  0  0  0  0
  3  1  1  0  0  0  0
  4  1  2  0  0  0  0
  5  2  1  0  0  0  0
  6  4  1  0  0  0  0
  6  5  2  0  0  0  0
  7  2  1  0  0  0  0
  8  3  1  0  0  0  0
  8  7  2  0  0  0  0
  9  4  1  0  0  0  0
 10  9  2  0  0  0  0
 11  3  1  0  0  0  0
 12  7  1  0  0  0  0
 13  6  1  0  0  0  0
 14  8  1  0  0  0  0
 15  9  1  0  0  0  0
 16 12  2  0  0  0  0
 17 14  2  0  0  0  0
 17 16  1  0  0  0  0
M  END
>  <idnumber>
T5540163

>  <LogP>
2.386000000000000e+000

>  <rotating_bonds>
1.000000000000000e+000

>  <hb_acceptors>
3.000000000000000e+000

>  <hb_donors>
0.000000000000000e+000

>  <PSA>
3.930000000000000e+001

>  <clusterid>
-903

>  <is_centroid>
@

>  <class1>
653

>  <population1>
89

>  <population>
89

>  <cansmi>
Cn1c2c(C(=O)C)c(nn2c2c1cccc2)C

>  <HBA2>
4

>  <HBD>
0

>  <logP>
2.337

>  <TPSA>
39.3

>  <MW>
227.262

$$$$

 OpenBabel02121609142D

 22 25  0  0  0  0  0  0  0  0999 V2000
    0.6792   -1.0917    0.0000 C   0  0  0  0  0  0  0  0  0  0  0  0
    0.6792   -0.0917    0.0000 C   0  0  0  0  0  0  0  0  0  0  0  0
    1.6292   -1.4042    0.0000 N   0  0  0  0  0  0  0  0  0  0  0  0
   -0.1875    0.4083    0.0000 C   0  0  0  0  0  0  0  0  0  0  0  0
    2.2167   -0.5917    0.0000 N   0  0  0  0  0  0  0  0  0  0  0  0
   -0.1875   -1.5917    0.0000 N   0  0  0  0  0  0  0  0  0  0  0  0
   -0.1875    1.4083    0.0000 C   0  0  0  0  0  0  0  0  0  0  0  0
    1.6292    0.2125    0.0000 C   0  0  0  0  0  0  0  0  0  0  0  0
   -1.0583   -1.0917    0.0000 C   0  0  0  0  0  0  0  0  0  0  0  0
   -1.0583   -0.0917    0.0000 C   0  0  0  0  0  0  0  0  0  0  0  0
    0.6792    1.9083    0.0000 N   0  0  0  0  0  0  0  0  0  0  0  0
   -1.9208   -1.5917    0.0000 C   0  0  0  0  0  0  0  0  0  0  0  0
   -2.9208   -1.5917    0.0000 C   0  0  0  0  0  0  0  0  0  0  0  0
   -2.4208   -2.4625    0.0000 C   0  0  0  0  0  0  0  0  0  0  0  0
   -1.0583    1.9083    0.0000 O   0  0  0  0  0  0  0  0  0  0  0  0
    1.9375   -2.3542    0.0000 C   0  0  0  0  0  0  0  0  0  0  0  0
    1.5917    1.4958    0.0000 C   0  0  0  0  0  0  0  0  0  0  0  0
    0.7792    2.8958    0.0000 C   0  0  0  0  0  0  0  0  0  0  0  0
    2.9167   -2.5667    0.0000 C   0  0  0  0  0  0  0  0  0  0  0  0
    1.2667   -3.1000    0.0000 C   0  0  0  0  0  0  0  0  0  0  0  0
    1.7625    3.1083    0.0000 C   0  0  0  0  0  0  0  0  0  0  0  0
    2.2542    2.2375    0.0000 C   0  0  0  0  0  0  0  0  0  0  0  0
  2  1  2  0  0  0  0
  3  1  1  0  0  0  0
  4  2  1  0  0  0  0
  4 10  2  0  0  0  0
  5  3  1  0  0  0  0
  5  8  2  0  0  0  0
  6  1  1  0  0  0  0
  7  4  1  0  0  0  0
  8  2  1  0  0  0  0
  9  6  2  0  0  0  0
 10  9  1  0  0  0  0
 11  7  1  0  0  0  0
 12  9  1  0  0  0  0
 13 12  1  0  0  0  0
 13 14  1  0  0  0  0
 14 12  1  0  0  0  0
 15  7  2  0  0  0  0
 16  3  1  0  0  0  0
 17 11  1  0  0  0  0
 18 11  1  0  0  0  0
 19 16  1  0  0  0  0
 20 16  1  0  0  0  0
 21 18  1  0  0  0  0
 22 17  1  0  0  0  0
 22 21  1  0  0  0  0
M  END
>  <idnumber>
T5541999

>  <LogP>
1.993000000000000e+000

>  <rotating_bonds>
3.000000000000000e+000

>  <hb_acceptors>
3.000000000000000e+000

>  <hb_donors>
0.000000000000000e+000

>  <PSA>
5.102000000000000e+001

>  <clusterid>
-904

>  <is_centroid>
@

>  <class1>
675

>  <class2>
726

>  <class3>
642

>  <population1>
33654

>  <population2>
3632

>  <population3>
51183

>  <population>
19

>  <cansmi>
O=C(c1cc(nc2c1cnn2C(C)C)C1CC1)N1CCCC1

>  <HBA2>
5

>  <HBD>
0

>  <logP>
3.0635

>  <TPSA>
51.02

>  <MW>
298.383

$$$$

 OpenBabel02121609142D

 16 17  0  0  0  0  0  0  0  0999 V2000
    0.5000    0.5208    0.0000 C   0  0  0  0  0  0  0  0  0  0  0  0
    1.1667   -0.2292    0.0000 N   0  0  0  0  0  0  0  0  0  0  0  0
    0.8625   -1.1792    0.0000 C   0  0  0  0  0  0  0  0  0  0  0  0
    0.8042    1.4708    0.0000 C   0  0  3  0  0  0  0  0  0  0  0  0
   -0.4833    0.3083    0.0000 O   0  0  0  0  0  0  0  0  0  0  0  0
    0.2167    2.2750    0.0000 O   0  0  0  0  0  0  0  0  0  0  0  0
   -0.1208   -1.3875    0.0000 C   0  0  0  0  0  0  0  0  0  0  0  0
   -0.7875   -0.6417    0.0000 O   0  0  0  0  0  0  0  0  0  0  0  0
    1.5292   -1.9167    0.0000 C   0  0  0  0  0  0  0  0  0  0  0  0
    0.8042    3.0833    0.0000 C   0  0  0  0  0  0  0  0  0  0  0  0
   -0.4250   -2.3375    0.0000 C   0  0  0  0  0  0  0  0  0  0  0  0
    1.7625    1.7750    0.0000 C   0  0  0  0  0  0  0  0  0  0  0  0
   -1.7708   -0.8500    0.0000 C   0  0  0  0  0  0  0  0  0  0  0  0
    1.7625    2.7750    0.0000 C   0  0  0  0  0  0  0  0  0  0  0  0
    1.2167   -2.8667    0.0000 C   0  0  0  0  0  0  0  0  0  0  0  0
    0.2417   -3.0792    0.0000 C   0  0  0  0  0  0  0  0  0  0  0  0
  2  1  1  0  0  0  0
  3  2  1  0  0  0  0
  4  1  1  0  0  0  0
  5  1  2  0  0  0  0
  6  4  1  0  0  0  0
  7  3  2  0  0  0  0
  8  7  1  0  0  0  0
  9  3  1  0  0  0  0
 10  6  1  0  0  0  0
 11  7  1  0  0  0  0
 11 16  2  0  0  0  0
 12  4  1  0  0  0  0
 13  8  1  0  0  0  0
 14 12  1  0  0  0  0
 14 10  1  0  0  0  0
 15  9  2  0  0  0  0
 16 15  1  0  0  0  0
M  END
>  <idnumber>
T5542403

>  <LogP>
8.930000000000000e-001

>  <rotating_bonds>
3.000000000000000e+000

>  <hb_acceptors>
3.000000000000000e+000

>  <hb_donors>
1.000000000000000e+000

>  <PSA>
4.756000000000000e+001

>  <clusterid>
-906

>  <is_centroid>
@

>  <class1>
625

>  <class2>
723

>  <population1>
877209

>  <population2>
9592

>  <population>
8140

>  <cansmi>
COc1ccccc1NC(=O)C1CCCO1

>  <HBA2>
4

>  <HBD>
1

>  <logP>
1.8857

>  <TPSA>
47.56

>  <MW>
221.252

$$$$

 OpenBabel02121609142D

 18 20  0  0  0  0  0  0  0  0999 V2000
   -0.7583    0.7125    0.0000 N   0  0  0  0  0  0  0  0  0  0  0  0
   -0.1625    1.5208    0.0000 N   0  0  0  0  0  0  0  0  0  0  0  0
   -0.7583    2.3333    0.0000 N   0  0  0  0  0  0  0  0  0  0  0  0
   -0.4458   -0.2375    0.0000 C   0  0  0  0  0  0  0  0  0  0  0  0
   -1.7083    1.0208    0.0000 C   0  0  0  0  0  0  0  0  0  0  0  0
    0.5292   -0.4417    0.0000 C   0  0  0  0  0  0  0  0  0  0  0  0
   -1.7083    2.0208    0.0000 C   0  0  0  0  0  0  0  0  0  0  0  0
    0.8417   -1.3917    0.0000 N   0  0  0  0  0  0  0  0  0  0  0  0
    1.2042    0.2958    0.0000 O   0  0  0  0  0  0  0  0  0  0  0  0
    1.8167   -1.6042    0.0000 C   0  0  0  0  0  0  0  0  0  0  0  0
   -2.5708    0.5208    0.0000 C   0  0  0  0  0  0  0  0  0  0  0  0
   -2.5708    2.5208    0.0000 C   0  0  0  0  0  0  0  0  0  0  0  0
    2.2292   -2.5167    0.0000 C   0  0  0  0  0  0  0  0  0  0  0  0
    2.5667   -0.9375    0.0000 C   0  0  0  0  0  0  0  0  0  0  0  0
   -3.4333    1.0208    0.0000 C   0  0  0  0  0  0  0  0  0  0  0  0
   -3.4333    2.0208    0.0000 C   0  0  0  0  0  0  0  0  0  0  0  0
    3.4292   -1.4375    0.0000 C   0  0  0  0  0  0  0  0  0  0  0  0
    3.2250   -2.4125    0.0000 C   0  0  0  0  0  0  0  0  0  0  0  0
  2  1  1  0  0  0  0
  3  2  2  0  0  0  0
  3  7  1  0  0  0  0
  4  1  1  0  0  0  0
  5  1  1  0  0  0  0
  6  4  1  0  0  0  0
  7  5  2  0  0  0  0
  8  6  1  0  0  0  0
  9  6  2  0  0  0  0
 10  8  1  0  0  0  0
 11  5  1  0  0  0  0
 12  7  1  0  0  0  0
 12 16  2  0  0  0  0
 13 10  1  0  0  0  0
 14 10  1  0  0  0  0
 15 11  2  0  0  0  0
 16 15  1  0  0  0  0
 17 14  1  0  0  0  0
 18 13  1  0  0  0  0
 18 17  1  0  0  0  0
M  END
>  <idnumber>
T5543682

>  <LogP>
1.781000000000000e+000

>  <rotating_bonds>
3.000000000000000e+000

>  <hb_acceptors>
3.000000000000000e+000

>  <hb_donors>
1.000000000000000e+000

>  <PSA>
5.981000000000002e+001

>  <clusterid>
-907

>  <is_centroid>
@

>  <class1>
674

>  <population1>
16474

>  <population>
16474

>  <cansmi>
O=C(Cn1nnc2c1cccc2)NC1CCCC1

>  <HBA2>
5

>  <HBD>
1

>  <logP>
1.881

>  <TPSA>
59.81

>  <MW>
244.292

$$$$

 OpenBabel02121609142D

 12 13  0  0  0  0  0  0  0  0999 V2000
   -0.8708    0.5000    0.0000 C   0  0  0  0  0  0  0  0  0  0  0  0
   -0.8708   -0.5000    0.0000 C   0  0  0  0  0  0  0  0  0  0  0  0
   -1.7333    1.0000    0.0000 N   0  0  0  0  0  0  0  0  0  0  0  0
    0.0000   -1.0000    0.0000 C   0  0  0  0  0  0  0  0  0  0  0  0
    0.0000    1.0000    0.0000 C   0  0  0  0  0  0  0  0  0  0  0  0
    0.8625   -0.5000    0.0000 C   0  0  0  0  0  0  0  0  0  0  0  0
    0.8625    0.5000    0.0000 C   0  0  0  0  0  0  0  0  0  0  0  0
    1.7292   -1.0000    0.0000 O   0  0  0  0  0  0  0  0  0  0  0  0
   -2.6000    0.5000    0.0000 C   0  0  0  0  0  0  0  0  0  0  0  0
   -1.7333   -1.0000    0.0000 C   0  0  0  0  0  0  0  0  0  0  0  0
    2.5917   -0.5000    0.0000 C   0  0  0  0  0  0  0  0  0  0  0  0
   -2.6000   -0.5000    0.0000 C   0  0  0  0  0  0  0  0  0  0  0  0
  2  1  2  0  0  0  0
  3  1  1  0  0  0  0
  4  2  1  0  0  0  0
  4  6  2  0  0  0  0
  5  1  1  0  0  0  0
  6  7  1  0  0  0  0
  7  5  2  0  0  0  0
  8  6  1  0  0  0  0
  9  3  1  0  0  0  0
 10  2  1  0  0  0  0
 10 12  1  0  0  0  0
 11  8  1  0  0  0  0
 12  9  1  0  0  0  0
M  END
>  <idnumber>
T5544114

>  <LogP>
2.288000000000000e+000

>  <rotating_bonds>
1.000000000000000e+000

>  <hb_acceptors>
2.000000000000000e+000

>  <hb_donors>
1.000000000000000e+000

>  <PSA>
2.126000000000000e+001

>  <clusterid>
-909

>  <is_centroid>
@

>  <class1>
814

>  <population1>
5317

>  <population>
5317

>  <cansmi>
COc1ccc2c(c1)CCCN2

>  <HBA2>
2

>  <HBD>
1

>  <logP>
2.1913

>  <TPSA>
21.26

>  <MW>
163.216

$$$$

 OpenBabel02121609142D

 17 18  0  0  0  0  0  0  0  0999 V2000
   -0.3958    1.7333    0.0000 N   0  0  0  0  0  0  0  0  0  0  0  0
   -0.9833    2.5458    0.0000 C   0  0  0  0  0  0  0  0  0  0  0  0
   -0.7000    0.7833    0.0000 C   0  0  0  0  0  0  0  0  0  0  0  0
   -0.3958    3.3583    0.0000 N   0  0  0  0  0  0  0  0  0  0  0  0
   -1.9833    2.5458    0.0000 O   0  0  0  0  0  0  0  0  0  0  0  0
   -0.3458   -0.9125    0.0000 O   0  0  0  0  0  0  0  0  0  0  0  0
   -0.0333    0.0458    0.0000 C   0  0  0  0  0  0  0  0  0  0  0  0
   -1.6833    0.5750    0.0000 O   0  0  0  0  0  0  0  0  0  0  0  0
    0.3292   -1.6542    0.0000 C   0  0  0  0  0  0  0  0  0  0  0  0
    0.0167   -2.6042    0.0000 C   0  0  0  0  0  0  0  0  0  0  0  0
    0.5542    2.0458    0.0000 C   0  0  0  0  0  0  0  0  0  0  0  0
    0.5542    3.0458    0.0000 C   0  0  0  0  0  0  0  0  0  0  0  0
   -0.9583   -2.8125    0.0000 Br  0  0  0  0  0  0  0  0  0  0  0  0
    1.3042   -1.4417    0.0000 C   0  0  0  0  0  0  0  0  0  0  0  0
    0.6875   -3.3500    0.0000 C   0  0  0  0  0  0  0  0  0  0  0  0
    1.6667   -3.1417    0.0000 C   0  0  0  0  0  0  0  0  0  0  0  0
    1.9750   -2.1875    0.0000 C   0  0  0  0  0  0  0  0  0  0  0  0
  2  1  1  0  0  0  0
  3  1  1  0  0  0  0
  4  2  1  0  0  0  0
  5  2  2  0  0  0  0
  6  7  1  0  0  0  0
  7  3  1  0  0  0  0
  8  3  2  0  0  0  0
  9  6  1  0  0  0  0
 10  9  2  0  0  0  0
 11  1  1  0  0  0  0
 12 11  1  0  0  0  0
 12  4  1  0  0  0  0
 13 10  1  0  0  0  0
 14  9  1  0  0  0  0
 15 10  1  0  0  0  0
 15 16  2  0  0  0  0
 16 17  1  0  0  0  0
 17 14  2  0  0  0  0
M  END
>  <idnumber>
T5551896

>  <LogP>
1.738000000000000e+000

>  <rotating_bonds>
3.000000000000000e+000

>  <hb_acceptors>
3.000000000000000e+000

>  <hb_donors>
1.000000000000000e+000

>  <PSA>
5.863999999999997e+001

>  <clusterid>
538

>  <is_centroid>
@

>  <class1>
625

>  <class2>
798

>  <population1>
877209

>  <population2>
25583

>  <population>
22713

>  <cansmi>
O=C(N1CCNC1=O)COc1ccccc1Br

>  <HBA2>
5

>  <HBD>
1

>  <logP>
1.6464

>  <TPSA>
58.64

>  <MW>
299.121

$$$$

 OpenBabel02121609142D

 15 17  0  0  0  0  0  0  0  0999 V2000
    0.0000    0.5000    0.0000 C   0  0  0  0  0  0  0  0  0  0  0  0
    0.0000   -1.5000    0.0000 N   0  0  0  0  0  0  0  0  0  0  0  0
   -0.8708    0.0000    0.0000 C   0  0  0  0  0  0  0  0  0  0  0  0
    0.8625    0.0000    0.0000 C   0  0  0  0  0  0  0  0  0  0  0  0
    0.8625   -1.0000    0.0000 C   0  0  0  0  0  0  0  0  0  0  0  0
   -0.8708   -1.0000    0.0000 C   0  0  0  0  0  0  0  0  0  0  0  0
    0.0000    1.5000    0.0000 O   0  0  0  0  0  0  0  0  0  0  0  0
    1.7292    0.5000    0.0000 C   0  0  0  0  0  0  0  0  0  0  0  0
   -1.7333    0.5000    0.0000 C   0  0  0  0  0  0  0  0  0  0  0  0
   -1.7333   -1.5000    0.0000 C   0  0  0  0  0  0  0  0  0  0  0  0
    1.7292   -1.5000    0.0000 C   0  0  0  0  0  0  0  0  0  0  0  0
   -2.6000    0.0000    0.0000 C   0  0  0  0  0  0  0  0  0  0  0  0
    2.5917    0.0000    0.0000 C   0  0  0  0  0  0  0  0  0  0  0  0
    2.5917   -1.0000    0.0000 C   0  0  0  0  0  0  0  0  0  0  0  0
   -2.6000   -1.0000    0.0000 C   0  0  0  0  0  0  0  0  0  0  0  0
  2  5  1  0  0  0  0
  3  1  1  0  0  0  0
  4  1  1  0  0  0  0
  5  4  2  0  0  0  0
  6  3  2  0  0  0  0
  6  2  1  0  0  0  0
  7  1  2  0  0  0  0
  8  4  1  0  0  0  0
  9  3  1  0  0  0  0
 10  6  1  0  0  0  0
 10 15  2  0  0  0  0
 11  5  1  0  0  0  0
 11 14  2  0  0  0  0
 12  9  2  0  0  0  0
 13  8  2  0  0  0  0
 14 13  1  0  0  0  0
 15 12  1  0  0  0  0
M  END
>  <idnumber>
T5556340

>  <LogP>
1.876000000000000e+000

>  <rotating_bonds>
0.000000000000000e+000

>  <hb_acceptors>
2.000000000000000e+000

>  <hb_donors>
1.000000000000000e+000

>  <PSA>
2.910000000000000e+001

>  <clusterid>
-919

>  <is_centroid>
@

>  <class1>
928

>  <population1>
192

>  <population>
192

>  <cansmi>
O=c1c2ccccc2[nH]c2c1cccc2

>  <HBA2>
1

>  <HBD>
1

>  <logP>
2.6813

>  <TPSA>
32.86

>  <MW>
195.217

$$$$

 OpenBabel02121609142D

 15 17  0  0  0  0  0  0  0  0999 V2000
    0.4500   -0.8042    0.0000 N   0  0  0  0  0  0  0  0  0  0  0  0
   -0.1375    0.0000    0.0000 C   0  0  0  0  0  0  0  0  0  0  0  0
    0.4500    0.8125    0.0000 S   0  0  0  0  0  0  0  0  0  0  0  0
    1.4000   -0.5000    0.0000 C   0  0  0  0  0  0  0  0  0  0  0  0
    1.4000    0.5000    0.0000 C   0  0  0  0  0  0  0  0  0  0  0  0
   -1.1375    0.0000    0.0000 C   0  0  0  0  0  0  0  0  0  0  0  0
   -1.6375   -0.8625    0.0000 N   0  0  0  0  0  0  0  0  0  0  0  0
    2.2667   -1.0000    0.0000 C   0  0  0  0  0  0  0  0  0  0  0  0
    2.2667    1.0000    0.0000 C   0  0  0  0  0  0  0  0  0  0  0  0
   -2.6375   -0.8625    0.0000 C   0  0  0  0  0  0  0  0  0  0  0  0
   -1.6375    0.8708    0.0000 C   0  0  0  0  0  0  0  0  0  0  0  0
    3.1292    0.5000    0.0000 C   0  0  0  0  0  0  0  0  0  0  0  0
    3.1292   -0.5000    0.0000 C   0  0  0  0  0  0  0  0  0  0  0  0
   -3.1375    0.0000    0.0000 C   0  0  0  0  0  0  0  0  0  0  0  0
   -2.6375    0.8708    0.0000 C   0  0  0  0  0  0  0  0  0  0  0  0
  2  1  2  0  0  0  0
  3  2  1  0  0  0  0
  4  1  1  0  0  0  0
  5  4  2  0  0  0  0
  5  3  1  0  0  0  0
  6  2  1  0  0  0  0
  7  6  2  0  0  0  0
  8  4  1  0  0  0  0
  9  5  1  0  0  0  0
 10  7  1  0  0  0  0
 10 14  2  0  0  0  0
 11  6  1  0  0  0  0
 12 13  1  0  0  0  0
 12  9  1  0  0  0  0
 13  8  1  0  0  0  0
 14 15  1  0  0  0  0
 15 11  2  0  0  0  0
M  END
>  <idnumber>
T5556607

>  <LogP>
2.956000000000000e+000

>  <rotating_bonds>
1.000000000000000e+000

>  <hb_acceptors>
3.000000000000000e+000

>  <hb_donors>
0.000000000000000e+000

>  <PSA>
5.402000000000000e+001

>  <clusterid>
-921

>  <is_centroid>
@

>  <class1>
848

>  <class2>
632

>  <population1>
871

>  <population2>
79489

>  <population>
52

>  <cansmi>
c1ccc(nc1)c1nc2c(s1)CCCC2

>  <HBA2>
3

>  <HBD>
0

>  <logP>
3.0839

>  <TPSA>
54.02

>  <MW>
216.302

$$$$

 OpenBabel02121609142D

 22 24  0  0  0  0  0  0  0  0999 V2000
    1.3042   -0.6917    0.0000 C   0  0  0  0  0  0  0  0  0  0  0  0
   -0.4250    1.3083    0.0000 N   0  0  0  0  0  0  0  0  0  0  0  0
   -1.2958    0.8083    0.0000 C   0  0  0  0  0  0  0  0  0  0  0  0
    1.4125   -1.6792    0.0000 C   0  0  0  0  0  0  0  0  0  0  0  0
    2.3917   -1.8917    0.0000 N   0  0  0  0  0  0  0  0  0  0  0  0
    2.2167   -0.2792    0.0000 C   0  0  0  0  0  0  0  0  0  0  0  0
    2.8917   -1.0250    0.0000 C   0  0  0  0  0  0  0  0  0  0  0  0
   -2.1583    1.3083    0.0000 C   0  0  0  0  0  0  0  0  0  0  0  0
   -1.2958    2.8083    0.0000 N   0  0  0  0  0  0  0  0  0  0  0  0
   -0.4250    2.3083    0.0000 C   0  0  0  0  0  0  0  0  0  0  0  0
    0.4417   -0.1917    0.0000 C   0  0  0  0  0  0  0  0  0  0  0  0
    0.4417    0.8083    0.0000 C   0  0  0  0  0  0  0  0  0  0  0  0
   -2.1583    2.3083    0.0000 C   0  0  0  0  0  0  0  0  0  0  0  0
   -1.2958   -0.1917    0.0000 O   0  0  0  0  0  0  0  0  0  0  0  0
   -0.4250   -0.6917    0.0000 O   0  0  0  0  0  0  0  0  0  0  0  0
    2.7917   -2.8042    0.0000 C   0  0  0  0  0  0  0  0  0  0  0  0
    0.6667   -2.3542    0.0000 C   0  0  0  0  0  0  0  0  0  0  0  0
   -3.0208    0.8083    0.0000 C   0  0  0  0  0  0  0  0  0  0  0  0
    3.8792   -0.9167    0.0000 C   0  0  0  0  0  0  0  0  0  0  0  0
   -3.0208    2.8083    0.0000 C   0  0  0  0  0  0  0  0  0  0  0  0
   -3.8958    1.3083    0.0000 C   0  0  0  0  0  0  0  0  0  0  0  0
   -3.8958    2.3083    0.0000 C   0  0  0  0  0  0  0  0  0  0  0  0
  2 12  1  0  0  0  0
  3  2  1  0  0  0  0
  4  1  2  0  0  0  0
  5  4  1  0  0  0  0
  6  1  1  0  0  0  0
  7  6  2  0  0  0  0
  7  5  1  0  0  0  0
  8  3  1  0  0  0  0
  8 13  2  0  0  0  0
  9 10  2  0  0  0  0
 10  2  1  0  0  0  0
 11  1  1  0  0  0  0
 12 11  1  0  0  0  0
 13  9  1  0  0  0  0
 14  3  2  0  0  0  0
 15 11  2  0  0  0  0
 16  5  1  0  0  0  0
 17  4  1  0  0  0  0
 18  8  1  0  0  0  0
 19  7  1  0  0  0  0
 20 13  1  0  0  0  0
 21 18  2  0  0  0  0
 22 20  2  0  0  0  0
 22 21  1  0  0  0  0
M  END
>  <idnumber>
T5558598

>  <LogP>
2.246000000000000e+000

>  <rotating_bonds>
3.000000000000000e+000

>  <hb_acceptors>
3.000000000000000e+000

>  <hb_donors>
0.000000000000000e+000

>  <PSA>
5.467000000000000e+001

>  <clusterid>
-922

>  <is_centroid>
@

>  <class1>
635

>  <class2>
648

>  <population1>
31512

>  <population2>
19152

>  <population>
631

>  <cansmi>
O=C(c1cc(n(c1C)C)C)Cn1cnc2c(c1=O)cccc2

>  <HBA2>
5

>  <HBD>
0

>  <logP>
2.2347

>  <TPSA>
56.89

>  <MW>
295.336

$$$$

 OpenBabel02121609142D

 16 17  0  0  0  0  0  0  0  0999 V2000
   -0.0333   -0.0625    0.0000 C   0  0  0  0  0  0  0  0  0  0  0  0
    0.6417   -0.8042    0.0000 C   0  0  0  0  0  0  0  0  0  0  0  0
   -1.0083   -0.2667    0.0000 N   0  0  0  0  0  0  0  0  0  0  0  0
    0.3292   -1.7542    0.0000 C   0  0  0  0  0  0  0  0  0  0  0  0
    0.2792    0.8875    0.0000 N   0  0  0  0  0  0  0  0  0  0  0  0
    1.6167   -0.6000    0.0000 C   0  0  0  0  0  0  0  0  0  0  0  0
   -0.6458   -1.9667    0.0000 C   0  0  0  0  0  0  0  0  0  0  0  0
   -1.3208   -1.2167    0.0000 C   0  0  0  0  0  0  0  0  0  0  0  0
    1.9292    0.3500    0.0000 O   0  0  0  0  0  0  0  0  0  0  0  0
    2.2875   -1.3417    0.0000 N   0  0  0  0  0  0  0  0  0  0  0  0
    1.0000   -2.5000    0.0000 C   0  0  0  0  0  0  0  0  0  0  0  0
    1.2292    1.1958    0.0000 C   0  0  0  0  0  0  0  0  0  0  0  0
   -0.3083    1.6958    0.0000 C   0  0  0  0  0  0  0  0  0  0  0  0
   -2.2958   -1.4292    0.0000 C   0  0  0  0  0  0  0  0  0  0  0  0
    0.2792    2.5083    0.0000 C   0  0  0  0  0  0  0  0  0  0  0  0
    1.2292    2.1958    0.0000 C   0  0  0  0  0  0  0  0  0  0  0  0
  2  1  2  0  0  0  0
  3  1  1  0  0  0  0
  4  2  1  0  0  0  0
  5  1  1  0  0  0  0
  6  2  1  0  0  0  0
  7  8  1  0  0  0  0
  7  4  2  0  0  0  0
  8  3  2  0  0  0  0
  9  6  2  0  0  0  0
 10  6  1  0  0  0  0
 11  4  1  0  0  0  0
 12  5  1  0  0  0  0
 13  5  1  0  0  0  0
 14  8  1  0  0  0  0
 15 13  1  0  0  0  0
 16 12  1  0  0  0  0
 16 15  1  0  0  0  0
M  END
>  <idnumber>
T5558971

>  <LogP>
1.801000000000000e+000

>  <rotating_bonds>
2.000000000000000e+000

>  <hb_acceptors>
3.000000000000000e+000

>  <hb_donors>
1.000000000000000e+000

>  <PSA>
5.922000000000001e+001

>  <clusterid>
544

>  <is_centroid>
@

>  <class1>
642

>  <class2>
632

>  <population1>
51183

>  <population2>
79489

>  <population>
3055

>  <cansmi>
Cc1cc(C)c(c(n1)N1CCCC1)C(=O)N

>  <HBA2>
4

>  <HBD>
1

>  <logP>
2.1628

>  <TPSA>
59.22

>  <MW>
219.283

$$$$

 OpenBabel02121609142D

 22 24  0  0  0  0  0  0  0  0999 V2000
   -0.0083    1.0000    0.0000 N   0  0  0  0  0  0  0  0  0  0  0  0
   -0.8708    0.5000    0.0000 C   0  0  0  0  0  0  0  0  0  0  0  0
    0.8625   -0.5000    0.0000 C   0  0  0  0  0  0  0  0  0  0  0  0
   -1.7333    1.0000    0.0000 C   0  0  0  0  0  0  0  0  0  0  0  0
    1.7292   -1.0000    0.0000 N   0  0  0  0  0  0  0  0  0  0  0  0
   -0.8708    2.5000    0.0000 N   0  0  0  0  0  0  0  0  0  0  0  0
   -0.0083    2.0000    0.0000 C   0  0  0  0  0  0  0  0  0  0  0  0
    0.8625    0.5000    0.0000 C   0  0  0  0  0  0  0  0  0  0  0  0
   -1.7333    2.0000    0.0000 C   0  0  0  0  0  0  0  0  0  0  0  0
   -0.8708   -0.5000    0.0000 O   0  0  0  0  0  0  0  0  0  0  0  0
   -0.0083   -1.0000    0.0000 O   0  0  0  0  0  0  0  0  0  0  0  0
    2.5917   -0.4917    0.0000 C   0  0  3  0  0  0  0  0  0  0  0  0
    1.7292   -2.0000    0.0000 C   0  0  3  0  0  0  0  0  0  0  0  0
   -2.6000    0.5000    0.0000 C   0  0  0  0  0  0  0  0  0  0  0  0
    3.4625   -2.0000    0.0000 C   0  0  0  0  0  0  0  0  0  0  0  0
   -2.6000    2.5000    0.0000 C   0  0  0  0  0  0  0  0  0  0  0  0
    2.5917   -2.4917    0.0000 C   0  0  0  0  0  0  0  0  0  0  0  0
    3.4625   -1.0000    0.0000 C   0  0  0  0  0  0  0  0  0  0  0  0
    2.5917    0.5000    0.0000 C   0  0  0  0  0  0  0  0  0  0  0  0
    0.8625   -2.4917    0.0000 C   0  0  0  0  0  0  0  0  0  0  0  0
   -3.4708    1.0000    0.0000 C   0  0  0  0  0  0  0  0  0  0  0  0
   -3.4708    2.0000    0.0000 C   0  0  0  0  0  0  0  0  0  0  0  0
  2  1  1  0  0  0  0
  3  8  1  0  0  0  0
  4  2  1  0  0  0  0
  4  9  2  0  0  0  0
  5  3  1  0  0  0  0
  6  7  2  0  0  0  0
  7  1  1  0  0  0  0
  8  1  1  0  0  0  0
  9  6  1  0  0  0  0
 10  2  2  0  0  0  0
 11  3  2  0  0  0  0
 12  5  1  0  0  0  0
 13  5  1  0  0  0  0
 14  4  1  0  0  0  0
 15 17  1  0  0  0  0
 15 18  1  0  0  0  0
 16  9  1  0  0  0  0
 17 13  1  0  0  0  0
 18 12  1  0  0  0  0
 19 12  1  0  0  0  0
 20 13  1  0  0  0  0
 21 14  2  0  0  0  0
 22 16  2  0  0  0  0
 22 21  1  0  0  0  0
M  END
>  <idnumber>
T5561298

>  <LogP>
2.234000000000000e+000

>  <rotating_bonds>
2.000000000000000e+000

>  <hb_acceptors>
3.000000000000000e+000

>  <hb_donors>
0.000000000000000e+000

>  <PSA>
5.298000000000000e+001

>  <clusterid>
540

>  <is_centroid>
@

>  <class1>
639

>  <class2>
648

>  <population1>
59855

>  <population2>
19152

>  <population>
499

>  <cansmi>
CC1CCCC(N1C(=O)Cn1cnc2c(c1=O)cccc2)C

>  <HBA2>
5

>  <HBD>
0

>  <logP>
2.1239

>  <TPSA>
55.2

>  <MW>
299.368

$$$$

 OpenBabel02121609142D

 19 20  0  0  0  0  0  0  0  0999 V2000
    2.1625    0.2500    0.0000 C   0  0  0  0  0  0  0  0  0  0  0  0
   -0.4333    0.7500    0.0000 C   0  0  0  0  0  0  0  0  0  0  0  0
    0.4292    0.2500    0.0000 N   0  0  0  0  0  0  0  0  0  0  0  0
    1.2917    0.7500    0.0000 C   0  0  0  0  0  0  0  0  0  0  0  0
    2.1625   -0.7500    0.0000 C   0  0  0  0  0  0  0  0  0  0  0  0
   -0.4333    1.7500    0.0000 O   0  0  0  0  0  0  0  0  0  0  0  0
    1.2917   -1.2500    0.0000 O   0  0  0  0  0  0  0  0  0  0  0  0
   -1.3000    0.2500    0.0000 C   0  0  0  0  0  0  0  0  0  0  0  0
    3.0292   -1.2500    0.0000 N   0  0  0  0  0  0  0  0  0  0  0  0
    3.0292    0.7500    0.0000 C   0  0  0  0  0  0  0  0  0  0  0  0
    1.2917    1.7500    0.0000 C   0  0  0  0  0  0  0  0  0  0  0  0
    3.0292   -2.2500    0.0000 C   0  0  0  0  0  0  0  0  0  0  0  0
   -2.1708    0.7500    0.0000 C   0  0  0  0  0  0  0  0  0  0  0  0
   -1.3000   -0.7500    0.0000 C   0  0  0  0  0  0  0  0  0  0  0  0
    3.0292    1.7500    0.0000 C   0  0  0  0  0  0  0  0  0  0  0  0
    2.1625    2.2500    0.0000 C   0  0  0  0  0  0  0  0  0  0  0  0
   -2.1708   -1.2500    0.0000 C   0  0  0  0  0  0  0  0  0  0  0  0
   -3.0333    0.2500    0.0000 C   0  0  0  0  0  0  0  0  0  0  0  0
   -3.0333   -0.7500    0.0000 C   0  0  0  0  0  0  0  0  0  0  0  0
  2  3  1  0  0  0  0
  3  4  1  0  0  0  0
  4  1  2  0  0  0  0
  5  1  1  0  0  0  0
  6  2  2  0  0  0  0
  7  5  2  0  0  0  0
  8  2  1  0  0  0  0
  9  5  1  0  0  0  0
 10  1  1  0  0  0  0
 11  4  1  0  0  0  0
 11 16  2  0  0  0  0
 12  9  1  0  0  0  0
 13  8  1  0  0  0  0
 14  8  1  0  0  0  0
 15 10  2  0  0  0  0
 16 15  1  0  0  0  0
 17 14  1  0  0  0  0
 18 13  1  0  0  0  0
 18 19  1  0  0  0  0
 19 17  1  0  0  0  0
M  END
>  <idnumber>
T5566188

>  <LogP>
2.505000000000000e+000

>  <rotating_bonds>
3.000000000000000e+000

>  <hb_acceptors>
2.000000000000000e+000

>  <hb_donors>
2.000000000000000e+000

>  <PSA>
5.820000000000000e+001

>  <clusterid>
-927

>  <is_centroid>
@

>  <class1>
625

>  <class2>
797

>  <population1>
877209

>  <population2>
40410

>  <population>
31549

>  <cansmi>
CNC(=O)c1ccccc1NC(=O)C1CCCCC1

>  <HBA2>
4

>  <HBD>
2

>  <logP>
3.0289

>  <TPSA>
58.2

>  <MW>
260.332

$$$$

 OpenBabel02121609142D

 21 23  0  0  0  0  0  0  0  0999 V2000
    0.8625    0.0000    0.0000 C   0  0  0  0  0  0  0  0  0  0  0  0
    1.7292   -0.5000    0.0000 N   0  0  0  0  0  0  0  0  0  0  0  0
   -2.6000    0.0000    0.0000 C   0  0  0  0  0  0  0  0  0  0  0  0
    2.5917    0.0000    0.0000 C   0  0  0  0  0  0  0  0  0  0  0  0
   -2.6000    1.0000    0.0000 C   0  0  0  0  0  0  0  0  0  0  0  0
   -1.7333   -0.5000    0.0000 C   0  0  0  0  0  0  0  0  0  0  0  0
   -3.4708   -0.5000    0.0000 O   0  0  0  0  0  0  0  0  0  0  0  0
   -3.4708    1.5000    0.0000 O   0  0  0  0  0  0  0  0  0  0  0  0
    0.8625    1.0000    0.0000 O   0  0  0  0  0  0  0  0  0  0  0  0
   -0.8708    0.0000    0.0000 C   0  0  0  0  0  0  0  0  0  0  0  0
    3.4625   -0.5000    0.0000 C   0  0  0  0  0  0  0  0  0  0  0  0
    0.0000   -0.5000    0.0000 C   0  0  0  0  0  0  0  0  0  0  0  0
   -1.7333    1.5000    0.0000 C   0  0  0  0  0  0  0  0  0  0  0  0
   -0.8708    1.0000    0.0000 C   0  0  0  0  0  0  0  0  0  0  0  0
    2.5917    1.0000    0.0000 C   0  0  0  0  0  0  0  0  0  0  0  0
   -4.3333    0.0000    0.0000 C   0  0  0  0  0  0  0  0  0  0  0  0
   -4.3333    1.0000    0.0000 C   0  0  0  0  0  0  0  0  0  0  0  0
    3.4625   -1.5000    0.0000 C   0  0  0  0  0  0  0  0  0  0  0  0
    4.3292    0.0000    0.0000 C   0  0  0  0  0  0  0  0  0  0  0  0
    3.4625    1.5000    0.0000 C   0  0  0  0  0  0  0  0  0  0  0  0
    4.3292    1.0000    0.0000 C   0  0  0  0  0  0  0  0  0  0  0  0
  2  1  1  0  0  0  0
  3  6  1  0  0  0  0
  3  5  2  0  0  0  0
  4  2  1  0  0  0  0
  5 13  1  0  0  0  0
  6 10  2  0  0  0  0
  7  3  1  0  0  0  0
  8  5  1  0  0  0  0
  9  1  2  0  0  0  0
 10 12  1  0  0  0  0
 11  4  2  0  0  0  0
 12  1  1  0  0  0  0
 13 14  2  0  0  0  0
 14 10  1  0  0  0  0
 15  4  1  0  0  0  0
 16  7  1  0  0  0  0
 17  8  1  0  0  0  0
 17 16  1  0  0  0  0
 18 11  1  0  0  0  0
 19 11  1  0  0  0  0
 19 21  2  0  0  0  0
 20 15  2  0  0  0  0
 21 20  1  0  0  0  0
M  END
>  <idnumber>
T5568104

>  <LogP>
2.472000000000000e+000

>  <rotating_bonds>
3.000000000000000e+000

>  <hb_acceptors>
3.000000000000000e+000

>  <hb_donors>
1.000000000000000e+000

>  <PSA>
4.756000000000000e+001

>  <clusterid>
546

>  <is_centroid>
@

>  <class1>
625

>  <class2>
730

>  <population1>
877209

>  <population2>
20896

>  <population>
20896

>  <cansmi>
O=C(Nc1ccccc1C)Cc1ccc2c(c1)OCCO2

>  <HBA2>
4

>  <HBD>
1

>  <logP>
3.0204

>  <TPSA>
47.56

>  <MW>
283.322

$$$$

 OpenBabel02121609142D

 19 21  0  0  0  0  0  0  0  0999 V2000
   -1.5708   -2.5292    0.0000 C   0  0  3  0  0  0  0  0  0  0  0  0
   -1.5708   -3.5292    0.0000 C   0  0  0  0  0  0  0  0  0  0  0  0
   -1.0708   -1.6625    0.0000 C   0  0  0  0  0  0  0  0  0  0  0  0
   -2.4333   -3.0292    0.0000 C   0  0  3  0  0  0  0  0  0  0  0  0
    1.9292    1.8000    0.0000 N   0  0  0  0  0  0  0  0  0  0  0  0
   -0.0708   -1.6625    0.0000 N   0  0  0  0  0  0  0  0  0  0  0  0
    1.4292    0.9333    0.0000 C   0  0  0  0  0  0  0  0  0  0  0  0
   -1.5708   -0.7917    0.0000 O   0  0  0  0  0  0  0  0  0  0  0  0
    2.9292    3.5333    0.0000 O   0  0  0  0  0  0  0  0  0  0  0  0
    0.4292   -0.7917    0.0000 C   0  0  0  0  0  0  0  0  0  0  0  0
    1.9292    0.0708    0.0000 C   0  0  0  0  0  0  0  0  0  0  0  0
    0.4292    0.9333    0.0000 C   0  0  0  0  0  0  0  0  0  0  0  0
    1.4292   -0.7917    0.0000 C   0  0  0  0  0  0  0  0  0  0  0  0
   -0.0708    0.0708    0.0000 C   0  0  0  0  0  0  0  0  0  0  0  0
   -3.4333   -3.0292    0.0000 C   0  0  0  0  0  0  0  0  0  0  0  0
    2.9292    1.8000    0.0000 C   0  0  0  0  0  0  0  0  0  0  0  0
    1.4292    2.6708    0.0000 C   0  0  0  0  0  0  0  0  0  0  0  0
    1.9292    3.5333    0.0000 C   0  0  0  0  0  0  0  0  0  0  0  0
    3.4292    2.6708    0.0000 C   0  0  0  0  0  0  0  0  0  0  0  0
  2  1  1  0  0  0  0
  3  1  1  0  0  0  0
  4  1  1  0  0  0  0
  4  2  1  0  0  0  0
  5  7  1  0  0  0  0
  6  3  1  0  0  0  0
  7 12  2  0  0  0  0
  8  3  2  0  0  0  0
  9 18  1  0  0  0  0
 10  6  1  0  0  0  0
 11 13  2  0  0  0  0
 11  7  1  0  0  0  0
 12 14  1  0  0  0  0
 13 10  1  0  0  0  0
 14 10  2  0  0  0  0
 15  4  1  0  0  0  0
 16  5  1  0  0  0  0
 17  5  1  0  0  0  0
 18 17  1  0  0  0  0
 19 16  1  0  0  0  0
 19  9  1  0  0  0  0
M  END
>  <idnumber>
T5570203

>  <LogP>
1.854000000000000e+000

>  <rotating_bonds>
3.000000000000000e+000

>  <hb_acceptors>
3.000000000000000e+000

>  <hb_donors>
1.000000000000000e+000

>  <PSA>
4.156999999999997e+001

>  <clusterid>
550

>  <is_centroid>
@

>  <class1>
675

>  <class2>
786

>  <class3>
625

>  <population1>
33654

>  <population2>
48067

>  <population3>
877209

>  <population>
755

>  <cansmi>
CC1CC1C(=O)Nc1ccc(cc1)N1CCOCC1

>  <HBA2>
4

>  <HBD>
1

>  <logP>
2.2557

>  <TPSA>
41.57

>  <MW>
260.332

$$$$

 OpenBabel02121609142D

 18 19  0  0  0  0  0  0  0  0999 V2000
   -0.6458    0.6625    0.0000 C   0  0  0  0  0  0  0  0  0  0  0  0
   -0.6458    1.6625    0.0000 N   0  0  0  0  0  0  0  0  0  0  0  0
    0.2250    0.1625    0.0000 O   0  0  0  0  0  0  0  0  0  0  0  0
   -1.5083    0.1625    0.0000 C   0  0  0  0  0  0  0  0  0  0  0  0
   -1.5083   -0.8375    0.0000 C   0  0  0  0  0  0  0  0  0  0  0  0
   -1.5083   -2.8375    0.0000 C   0  0  0  0  0  0  0  0  0  0  0  0
    0.2250    2.1625    0.0000 C   0  0  0  0  0  0  0  0  0  0  0  0
   -0.6458   -1.3375    0.0000 C   0  0  0  0  0  0  0  0  0  0  0  0
   -2.3750   -1.3375    0.0000 C   0  0  0  0  0  0  0  0  0  0  0  0
   -0.6458   -2.3375    0.0000 C   0  0  0  0  0  0  0  0  0  0  0  0
   -2.3750   -2.3375    0.0000 C   0  0  0  0  0  0  0  0  0  0  0  0
   -1.5083   -3.8375    0.0000 O   0  0  0  0  0  0  0  0  0  0  0  0
    1.0500    1.6000    0.0000 C   0  0  0  0  0  0  0  0  0  0  0  0
    0.1500    3.1708    0.0000 C   0  0  0  0  0  0  0  0  0  0  0  0
    0.8792    3.8458    0.0000 C   0  0  0  0  0  0  0  0  0  0  0  0
    2.0042    1.8958    0.0000 C   0  0  0  0  0  0  0  0  0  0  0  0
    2.3667    2.8333    0.0000 C   0  0  0  0  0  0  0  0  0  0  0  0
    1.8667    3.6958    0.0000 C   0  0  0  0  0  0  0  0  0  0  0  0
  2  1  1  0  0  0  0
  3  1  2  0  0  0  0
  4  1  1  0  0  0  0
  5  4  1  0  0  0  0
  6 11  2  0  0  0  0
  6 10  1  0  0  0  0
  7  2  1  0  0  0  0
  8  5  1  0  0  0  0
  9  5  2  0  0  0  0
 10  8  2  0  0  0  0
 11  9  1  0  0  0  0
 12  6  1  0  0  0  0
 13  7  1  0  0  0  0
 14  7  1  0  0  0  0
 15 14  1  0  0  0  0
 16 13  1  0  0  0  0
 17 16  1  0  0  0  0
 17 18  1  0  0  0  0
 18 15  1  0  0  0  0
M  END
>  <idnumber>
T5571051

>  <LogP>
2.613000000000000e+000

>  <rotating_bonds>
3.000000000000000e+000

>  <hb_acceptors>
2.000000000000000e+000

>  <hb_donors>
2.000000000000000e+000

>  <PSA>
4.933000000000001e+001

>  <clusterid>
-930

>  <is_centroid>
@

>  <class1>
625

>  <class2>
833

>  <population1>
877209

>  <population2>
2589

>  <population>
1906

>  <cansmi>
O=C(Cc1ccc(cc1)O)NC1CCCCCC1

>  <HBA2>
3

>  <HBD>
2

>  <logP>
3.1646

>  <TPSA>
49.33

>  <MW>
247.333

$$$$

 OpenBabel02121609142D

 13 14  0  0  0  0  0  0  0  0999 V2000
   -2.9375    0.0000    0.0000 N   0  0  0  0  0  0  0  0  0  0  0  0
   -1.3958   -0.5000    0.0000 C   0  0  0  0  0  0  0  0  0  0  0  0
   -2.3500   -0.8042    0.0000 N   0  0  0  0  0  0  0  0  0  0  0  0
   -1.3958    0.5000    0.0000 C   0  0  0  0  0  0  0  0  0  0  0  0
   -0.5333   -1.0000    0.0000 C   0  0  0  0  0  0  0  0  0  0  0  0
    2.0667   -0.5000    0.0000 C   0  0  0  0  0  0  0  0  0  0  0  0
    1.2000   -1.0000    0.0000 N   0  0  0  0  0  0  0  0  0  0  0  0
    0.3292   -0.5000    0.0000 C   0  0  0  0  0  0  0  0  0  0  0  0
   -2.3500    0.8125    0.0000 C   0  0  0  0  0  0  0  0  0  0  0  0
    2.9292   -1.0000    0.0000 O   0  0  0  0  0  0  0  0  0  0  0  0
   -0.5333    1.0000    0.0000 C   0  0  0  0  0  0  0  0  0  0  0  0
    0.3292    0.5000    0.0000 C   0  0  0  0  0  0  0  0  0  0  0  0
    2.0667    0.5000    0.0000 C   0  0  0  0  0  0  0  0  0  0  0  0
  2  3  1  0  0  0  0
  3  1  1  0  0  0  0
  4  9  1  0  0  0  0
  4  2  2  0  0  0  0
  5  2  1  0  0  0  0
  6  7  1  0  0  0  0
  7  8  1  0  0  0  0
  8  5  2  0  0  0  0
  8 12  1  0  0  0  0
  9  1  2  0  0  0  0
 10  6  2  0  0  0  0
 11  4  1  0  0  0  0
 12 11  2  0  0  0  0
 13  6  1  0  0  0  0
M  END
>  <idnumber>
T5571296

>  <LogP>
1.230000000000000e+000

>  <rotating_bonds>
1.000000000000000e+000

>  <hb_acceptors>
2.000000000000000e+000

>  <hb_donors>
2.000000000000000e+000

>  <PSA>
5.778000000000000e+001

>  <clusterid>
-931

>  <is_centroid>
@

>  <class1>
829

>  <population1>
1541

>  <population>
1541

>  <cansmi>
CC(=O)Nc1ccc2c(c1)[nH]nc2

>  <HBA2>
3

>  <HBD>
2

>  <logP>
1.5943

>  <TPSA>
57.78

>  <MW>
175.187

$$$$

 OpenBabel02121609142D

 20 23  0  0  0  0  0  0  0  0999 V2000
    0.0042   -0.6000    0.0000 N   0  0  0  0  0  0  0  0  0  0  0  0
   -0.8583   -1.1000    0.0000 C   0  0  0  0  0  0  0  0  0  0  0  0
    0.0042    0.4000    0.0000 C   0  0  3  0  0  0  0  0  0  0  0  0
   -0.8583    0.9000    0.0000 N   0  0  0  0  0  0  0  0  0  0  0  0
   -1.7250   -0.6000    0.0000 C   0  0  0  0  0  0  0  0  0  0  0  0
    0.8750    0.9000    0.0000 C   0  0  0  0  0  0  0  0  0  0  0  0
    0.8750   -1.1000    0.0000 C   0  0  0  0  0  0  0  0  0  0  0  0
   -1.7250    0.4000    0.0000 C   0  0  0  0  0  0  0  0  0  0  0  0
    1.7875    0.4958    0.0000 O   0  0  0  0  0  0  0  0  0  0  0  0
    0.9792    1.8958    0.0000 C   0  0  0  0  0  0  0  0  0  0  0  0
    1.3750   -1.9667    0.0000 C   0  0  0  0  0  0  0  0  0  0  0  0
    1.8750   -1.1000    0.0000 C   0  0  0  0  0  0  0  0  0  0  0  0
    2.4542    1.2375    0.0000 C   0  0  0  0  0  0  0  0  0  0  0  0
    1.9542    2.1083    0.0000 C   0  0  0  0  0  0  0  0  0  0  0  0
   -0.8583   -2.1000    0.0000 O   0  0  0  0  0  0  0  0  0  0  0  0
   -2.5958   -1.1000    0.0000 C   0  0  0  0  0  0  0  0  0  0  0  0
   -2.5958    0.9000    0.0000 C   0  0  0  0  0  0  0  0  0  0  0  0
    3.4500    1.1333    0.0000 C   0  0  0  0  0  0  0  0  0  0  0  0
   -3.4583   -0.6000    0.0000 C   0  0  0  0  0  0  0  0  0  0  0  0
   -3.4583    0.4000    0.0000 C   0  0  0  0  0  0  0  0  0  0  0  0
  2  1  1  0  0  0  0
  3  1  1  0  0  0  0
  4  3  1  0  0  0  0
  5  2  1  0  0  0  0
  6  3  1  0  0  0  0
  7  1  1  0  0  0  0
  8  4  1  0  0  0  0
  8  5  2  0  0  0  0
  9  6  1  0  0  0  0
 10  6  2  0  0  0  0
 11  7  1  0  0  0  0
 11 12  1  0  0  0  0
 12  7  1  0  0  0  0
 13  9  1  0  0  0  0
 13 14  2  0  0  0  0
 14 10  1  0  0  0  0
 15  2  2  0  0  0  0
 16  5  1  0  0  0  0
 17  8  1  0  0  0  0
 18 13  1  0  0  0  0
 19 16  2  0  0  0  0
 20 17  2  0  0  0  0
 20 19  1  0  0  0  0
M  END
>  <idnumber>
T5577128

>  <LogP>
2.803000000000000e+000

>  <rotating_bonds>
2.000000000000000e+000

>  <hb_acceptors>
2.000000000000000e+000

>  <hb_donors>
1.000000000000000e+000

>  <PSA>
4.548000000000000e+001

>  <clusterid>
553

>  <is_centroid>
@

>  <class1>
697

>  <class2>
675

>  <class3>
704

>  <population1>
4727

>  <population2>
33654

>  <population3>
51112

>  <population>
14

>  <cansmi>
Cc1ccc(o1)C1Nc2ccccc2C(=O)N1C1CC1

>  <HBA2>
4

>  <HBD>
1

>  <logP>
3.3928

>  <TPSA>
45.48

>  <MW>
268.31

$$$$

 OpenBabel02121609142D

 19 21  0  0  0  0  0  0  0  0999 V2000
    1.2917   -0.2500    0.0000 C   0  0  0  0  0  0  0  0  0  0  0  0
    0.4292    0.2500    0.0000 N   0  0  0  0  0  0  0  0  0  0  0  0
    0.4292    1.2500    0.0000 C   0  0  3  0  0  0  0  0  0  0  0  0
   -0.4333    1.7500    0.0000 C   0  0  0  0  0  0  0  0  0  0  0  0
    1.2917   -1.2500    0.0000 C   0  0  0  0  0  0  0  0  0  0  0  0
   -0.4333    2.7500    0.0000 C   0  0  0  0  0  0  0  0  0  0  0  0
    2.1625   -1.7500    0.0000 N   0  0  0  0  0  0  0  0  0  0  0  0
    0.4292    3.2500    0.0000 O   0  0  0  0  0  0  0  0  0  0  0  0
    2.1625    0.2500    0.0000 O   0  0  0  0  0  0  0  0  0  0  0  0
    1.2917    1.7500    0.0000 C   0  0  0  0  0  0  0  0  0  0  0  0
    1.2917    2.7500    0.0000 C   0  0  0  0  0  0  0  0  0  0  0  0
   -1.3000    1.2500    0.0000 C   0  0  0  0  0  0  0  0  0  0  0  0
    2.1625   -2.7500    0.0000 C   0  0  0  0  0  0  0  0  0  0  0  0
   -1.3000    3.2500    0.0000 C   0  0  0  0  0  0  0  0  0  0  0  0
    0.4292   -1.7500    0.0000 C   0  0  0  0  0  0  0  0  0  0  0  0
   -2.1708    1.7500    0.0000 C   0  0  0  0  0  0  0  0  0  0  0  0
    1.2917   -3.2500    0.0000 C   0  0  0  0  0  0  0  0  0  0  0  0
   -2.1708    2.7500    0.0000 C   0  0  0  0  0  0  0  0  0  0  0  0
    0.4292   -2.7500    0.0000 C   0  0  0  0  0  0  0  0  0  0  0  0
  2  1  1  0  0  0  0
  3  2  1  0  0  0  0
  4  3  1  0  0  0  0
  5  1  1  0  0  0  0
  6  4  2  0  0  0  0
  6  8  1  0  0  0  0
  7  5  2  0  0  0  0
  8 11  1  0  0  0  0
  9  1  2  0  0  0  0
 10  3  1  0  0  0  0
 11 10  1  0  0  0  0
 12  4  1  0  0  0  0
 13  7  1  0  0  0  0
 13 17  2  0  0  0  0
 14  6  1  0  0  0  0
 14 18  2  0  0  0  0
 15  5  1  0  0  0  0
 16 12  2  0  0  0  0
 17 19  1  0  0  0  0
 18 16  1  0  0  0  0
 19 15  2  0  0  0  0
M  END
>  <idnumber>
T5577340

>  <LogP>
2.290000000000000e+000

>  <rotating_bonds>
2.000000000000000e+000

>  <hb_acceptors>
3.000000000000000e+000

>  <hb_donors>
1.000000000000000e+000

>  <PSA>
5.121999999999999e+001

>  <clusterid>
-938

>  <is_centroid>
@

>  <class1>
766

>  <class2>
632

>  <population1>
1661

>  <population2>
79489

>  <population>
79

>  <cansmi>
O=C(c1ccccn1)NC1CCOc2c1cccc2

>  <HBA2>
4

>  <HBD>
1

>  <logP>
2.7261

>  <TPSA>
51.22

>  <MW>
254.284

$$$$

 OpenBabel02121609142D

 21 23  0  0  0  0  0  0  0  0999 V2000
   -0.8708    0.7500    0.0000 N   0  0  0  0  0  0  0  0  0  0  0  0
   -1.7333    0.2500    0.0000 C   0  0  0  0  0  0  0  0  0  0  0  0
   -0.8708    1.7500    0.0000 C   0  0  0  0  0  0  0  0  0  0  0  0
   -2.6000    0.7500    0.0000 C   0  0  0  0  0  0  0  0  0  0  0  0
   -1.7333    2.2500    0.0000 N   0  0  0  0  0  0  0  0  0  0  0  0
   -2.6000    1.7500    0.0000 C   0  0  0  0  0  0  0  0  0  0  0  0
   -0.0083    0.2500    0.0000 C   0  0  0  0  0  0  0  0  0  0  0  0
    2.5917   -1.2500    0.0000 C   0  0  0  0  0  0  0  0  0  0  0  0
   -1.7333   -0.7500    0.0000 O   0  0  0  0  0  0  0  0  0  0  0  0
    1.7292   -0.7500    0.0000 C   0  0  0  0  0  0  0  0  0  0  0  0
    2.5917   -2.2500    0.0000 O   0  0  0  0  0  0  0  0  0  0  0  0
   -0.0083   -0.7500    0.0000 C   0  0  0  0  0  0  0  0  0  0  0  0
    0.8625    0.7500    0.0000 C   0  0  0  0  0  0  0  0  0  0  0  0
    0.8625   -1.2500    0.0000 C   0  0  0  0  0  0  0  0  0  0  0  0
    1.7292    0.2500    0.0000 C   0  0  0  0  0  0  0  0  0  0  0  0
    3.4625   -0.7500    0.0000 O   0  0  0  0  0  0  0  0  0  0  0  0
   -3.4708    0.2500    0.0000 C   0  0  0  0  0  0  0  0  0  0  0  0
   -3.4708    2.2500    0.0000 C   0  0  0  0  0  0  0  0  0  0  0  0
    4.3292   -1.2500    0.0000 C   0  0  0  0  0  0  0  0  0  0  0  0
   -4.3333    0.7500    0.0000 C   0  0  0  0  0  0  0  0  0  0  0  0
   -4.3333    1.7500    0.0000 C   0  0  0  0  0  0  0  0  0  0  0  0
  2  1  1  0  0  0  0
  3  1  1  0  0  0  0
  4  2  1  0  0  0  0
  4  6  2  0  0  0  0
  5  3  2  0  0  0  0
  6  5  1  0  0  0  0
  7  1  1  0  0  0  0
  8 10  1  0  0  0  0
  9  2  2  0  0  0  0
 10 15  1  0  0  0  0
 11  8  2  0  0  0  0
 12  7  2  0  0  0  0
 13  7  1  0  0  0  0
 14 12  1  0  0  0  0
 14 10  2  0  0  0  0
 15 13  2  0  0  0  0
 16  8  1  0  0  0  0
 17  4  1  0  0  0  0
 18  6  1  0  0  0  0
 19 16  1  0  0  0  0
 20 17  2  0  0  0  0
 21 18  2  0  0  0  0
 21 20  1  0  0  0  0
M  END
>  <idnumber>
T5581573

>  <LogP>
1.962000000000000e+000

>  <rotating_bonds>
3.000000000000000e+000

>  <hb_acceptors>
3.000000000000000e+000

>  <hb_donors>
0.000000000000000e+000

>  <PSA>
5.896999999999999e+001

>  <clusterid>
556

>  <is_centroid>
@

>  <class1>
648

>  <class2>
625

>  <population1>
19152

>  <population2>
877209

>  <population>
19152

>  <cansmi>
COC(=O)c1ccc(cc1)n1cnc2c(c1=O)cccc2

>  <HBA2>
5

>  <HBD>
0

>  <logP>
2.1723

>  <TPSA>
61.19

>  <MW>
280.278

$$$$

 OpenBabel02121609142D

 11 10  0  0  0  0  0  0  0  0999 V2000
    1.8042    0.0125    0.0000 C   0  0  0  0  0  0  0  0  0  0  0  0
    0.9750   -0.5417    0.0000 N   0  0  0  0  0  0  0  0  0  0  0  0
    2.5917   -0.6042    0.0000 N   0  0  0  0  0  0  0  0  0  0  0  0
    1.8417    1.0125    0.0000 C   0  0  0  0  0  0  0  0  0  0  0  0
    2.2417   -1.5417    0.0000 C   0  0  0  0  0  0  0  0  0  0  0  0
    1.2417   -1.5042    0.0000 C   0  0  0  0  0  0  0  0  0  0  0  0
    2.7292    1.4833    0.0000 O   0  5  0  0  0  0  0  0  0  0  0  0
    1.0000    1.5458    0.0000 O   0  0  0  0  0  0  0  0  0  0  0  0
    0.0375   -0.1917    0.0000 C   0  0  0  0  0  0  0  0  0  0  0  0
   -2.7333   -0.1167    0.0000 Na  0  3  0  0  0 15  0  0  0  0  0  0
   -0.7333   -0.8375    0.0000 C   0  0  0  0  0  0  0  0  0  0  0  0
  2  1  1  0  0  0  0
  3  1  2  0  0  0  0
  4  1  1  0  0  0  0
  5  3  1  0  0  0  0
  6  2  1  0  0  0  0
  6  5  2  0  0  0  0
  7  4  1  0  0  0  0
  8  4  2  0  0  0  0
  9  2  1  0  0  0  0
 11  9  1  0  0  0  0
M  CHG  2   7  -1  10   1
M  END
>  <idnumber>
T5581646

>  <LogP>
-3.741000000000000e+000

>  <rotating_bonds>
2.000000000000000e+000

>  <hb_acceptors>
3.000000000000000e+000

>  <hb_donors>
0.000000000000000e+000

>  <PSA>
5.795000000000000e+001

>  <clusterid>
-942

>  <is_centroid>
@

>  <class1>
686

>  <population1>
31113

>  <population>
31113

>  <cansmi>
CCn1ccnc1C(=O)[O-].[Na+]

>  <HBA2>
4

>  <HBD>
0

>  <logP>
-0.7335

>  <TPSA>
57.95

>  <MW>
162.122

$$$$

 OpenBabel02121609142D

 12 11  0  0  0  0  0  0  0  0999 V2000
    1.4292    0.2500    0.0000 C   0  0  0  0  0  0  0  0  0  0  0  0
    1.4292   -0.7417    0.0000 C   0  0  0  0  0  0  0  0  0  0  0  0
    0.5667    0.7583    0.0000 C   0  0  0  0  0  0  0  0  0  0  0  0
    0.5667    1.7500    0.0000 N   0  0  0  0  0  0  0  0  0  0  0  0
    2.2917    0.7583    0.0000 C   0  0  0  0  0  0  0  0  0  0  0  0
    0.5667   -1.2500    0.0000 O   0  0  0  0  0  0  0  0  0  0  0  0
    2.2917   -1.2500    0.0000 O   0  0  0  0  0  0  0  0  0  0  0  0
    2.2917    1.7500    0.0000 C   0  0  0  0  0  0  0  0  0  0  0  0
   -2.3000    0.3875    0.0000 Br  0  0  0  0  0  0  0  0  0  0  0  0
    1.4292    2.2500    0.0000 C   0  0  0  0  0  0  0  0  0  0  0  0
   -0.3000    2.2500    0.0000 C   0  0  0  0  0  0  0  0  0  0  0  0
    2.2917   -2.2500    0.0000 C   0  0  0  0  0  0  0  0  0  0  0  0
  2  1  1  0  0  0  0
  3  1  1  0  0  0  0
  4  3  1  0  0  0  0
  4 10  1  0  0  0  0
  5  1  2  0  0  0  0
  6  2  2  0  0  0  0
  7  2  1  0  0  0  0
  8  5  1  0  0  0  0
 10  8  1  0  0  0  0
 11  4  1  0  0  0  0
 12  7  1  0  0  0  0
M  END
>  <idnumber>
T5581655

>  <LogP>
9.040000000000000e-001

>  <rotating_bonds>
2.000000000000000e+000

>  <hb_acceptors>
2.000000000000000e+000

>  <hb_donors>
0.000000000000000e+000

>  <PSA>
2.954000000000000e+001

>  <clusterid>
-943

>  <is_centroid>
@

>  <class1>
715

>  <population1>
4585

>  <population>
4585

>  <cansmi>
COC(=O)C1=CCCN(C1)C.Br

>  <HBA2>
3

>  <HBD>
1

>  <logP>
1.3173

>  <TPSA>
29.54

>  <MW>
236.106

$$$$

 OpenBabel02121609142D

 20 22  0  0  0  0  0  0  0  0999 V2000
   -0.1083   -1.1917    0.0000 C   0  0  0  0  0  0  0  0  0  0  0  0
    0.4875   -2.0042    0.0000 C   0  0  0  0  0  0  0  0  0  0  0  0
   -0.1083   -2.8125    0.0000 N   0  0  0  0  0  0  0  0  0  0  0  0
    0.2042   -0.2417    0.0000 C   0  0  0  0  0  0  0  0  0  0  0  0
   -1.0583   -1.5042    0.0000 C   0  0  0  0  0  0  0  0  0  0  0  0
   -1.0583   -2.5042    0.0000 C   0  0  0  0  0  0  0  0  0  0  0  0
    1.1792   -0.0292    0.0000 N   0  0  0  0  0  0  0  0  0  0  0  0
   -0.4625    0.5000    0.0000 O   0  0  0  0  0  0  0  0  0  0  0  0
    1.4917    0.9208    0.0000 C   0  0  3  0  0  0  0  0  0  0  0  0
    0.2042   -3.7625    0.0000 C   0  0  0  0  0  0  0  0  0  0  0  0
   -1.9208   -1.0042    0.0000 C   0  0  0  0  0  0  0  0  0  0  0  0
    2.1125    2.8208    0.0000 C   0  0  3  0  0  0  0  0  0  0  0  0
    0.8250    1.6583    0.0000 C   0  0  0  0  0  0  0  0  0  0  0  0
    2.4667    1.1250    0.0000 C   0  0  0  0  0  0  0  0  0  0  0  0
    2.7792    2.0833    0.0000 C   0  0  0  0  0  0  0  0  0  0  0  0
    1.1292    2.6083    0.0000 C   0  0  0  0  0  0  0  0  0  0  0  0
   -1.9208   -3.0042    0.0000 C   0  0  0  0  0  0  0  0  0  0  0  0
    2.4167    3.7708    0.0000 O   0  0  0  0  0  0  0  0  0  0  0  0
   -2.7833   -1.5042    0.0000 C   0  0  0  0  0  0  0  0  0  0  0  0
   -2.7833   -2.5042    0.0000 C   0  0  0  0  0  0  0  0  0  0  0  0
  2  1  2  0  0  0  0
  3  2  1  0  0  0  0
  3  6  1  0  0  0  0
  4  1  1  0  0  0  0
  5  1  1  0  0  0  0
  6  5  2  0  0  0  0
  7  4  1  0  0  0  0
  8  4  2  0  0  0  0
  9  7  1  0  0  0  0
 10  3  1  0  0  0  0
 11  5  1  0  0  0  0
 12 15  1  0  0  0  0
 13  9  1  0  0  0  0
 14  9  1  0  0  0  0
 15 14  1  0  0  0  0
 16 13  1  0  0  0  0
 16 12  1  0  0  0  0
 17  6  1  0  0  0  0
 17 20  2  0  0  0  0
 18 12  1  0  0  0  0
 19 11  2  0  0  0  0
 20 19  1  0  0  0  0
M  END
>  <idnumber>
T5583060

>  <LogP>
1.541000000000000e+000

>  <rotating_bonds>
2.000000000000000e+000

>  <hb_acceptors>
2.000000000000000e+000

>  <hb_donors>
2.000000000000000e+000

>  <PSA>
5.426000000000001e+001

>  <clusterid>
-945

>  <is_centroid>
@

>  <class1>
748

>  <class2>
797

>  <population1>
15713

>  <population2>
40410

>  <population>
328

>  <cansmi>
OC1CCC(CC1)NC(=O)c1cn(c2c1cccc2)C

>  <HBA2>
4

>  <HBD>
2

>  <logP>
2.6025

>  <TPSA>
54.26

>  <MW>
272.342

$$$$

 OpenBabel02121609142D

 13 14  0  0  0  0  0  0  0  0999 V2000
    0.5917    0.4625    0.0000 C   0  0  0  0  0  0  0  0  0  0  0  0
    0.0167   -0.3542    0.0000 C   0  0  0  0  0  0  0  0  0  0  0  0
    1.4417   -1.0500    0.0000 N   0  0  0  0  0  0  0  0  0  0  0  0
    0.5792   -0.5375    0.0000 C   0  0  0  0  0  0  0  0  0  0  0  0
    0.0042    1.2750    0.0000 C   0  0  0  0  0  0  0  0  0  0  0  0
    1.5417    0.7750    0.0000 C   0  0  0  0  0  0  0  0  0  0  0  0
   -0.9750   -0.2625    0.0000 C   0  0  0  0  0  0  0  0  0  0  0  0
    0.4417   -1.2625    0.0000 C   0  0  0  0  0  0  0  0  0  0  0  0
    1.5417    1.7750    0.0000 C   0  0  0  0  0  0  0  0  0  0  0  0
    0.5917    2.0833    0.0000 C   0  0  0  0  0  0  0  0  0  0  0  0
   -0.1375   -2.0792    0.0000 C   0  0  0  0  0  0  0  0  0  0  0  0
   -1.5500   -1.0792    0.0000 C   0  0  0  0  0  0  0  0  0  0  0  0
   -1.1333   -1.9875    0.0000 C   0  0  0  0  0  0  0  0  0  0  0  0
  2  1  1  0  0  0  0
  3  4  1  0  0  0  0
  4  1  1  0  0  0  0
  5  1  1  0  0  0  0
  6  1  1  0  0  0  0
  7  2  1  0  0  0  0
  8  2  2  0  0  0  0
  9  6  1  0  0  0  0
  9 10  1  0  0  0  0
 10  5  1  0  0  0  0
 11  8  1  0  0  0  0
 12  7  2  0  0  0  0
 12 13  1  0  0  0  0
 13 11  2  0  0  0  0
M  END
>  <idnumber>
T5584001

>  <LogP>
2.985000000000000e+000

>  <rotating_bonds>
2.000000000000000e+000

>  <hb_acceptors>
1.000000000000000e+000

>  <hb_donors>
1.000000000000000e+000

>  <PSA>
2.602000000000000e+001

>  <clusterid>
-946

>  <is_centroid>
@

>  <class1>
674

>  <class2>
625

>  <population1>
16474

>  <population2>
877209

>  <population>
13629

>  <cansmi>
NCC1(CCCC1)c1ccccc1

>  <HBA2>
1

>  <HBD>
1

>  <logP>
3.1574

>  <TPSA>
26.02

>  <MW>
175.27

$$$$

 OpenBabel02121609142D

 10 10  0  0  0  0  0  0  0  0999 V2000
   -0.4333   -0.2500    0.0000 C   0  0  0  0  0  0  0  0  0  0  0  0
   -0.4333   -1.2500    0.0000 C   0  0  0  0  0  0  0  0  0  0  0  0
    0.4292    0.2500    0.0000 C   0  0  0  0  0  0  0  0  0  0  0  0
   -1.3000   -1.7500    0.0000 O   0  0  0  0  0  0  0  0  0  0  0  0
    1.2917   -0.2500    0.0000 Cl  0  0  0  0  0  0  0  0  0  0  0  0
    0.4292   -1.7500    0.0000 O   0  0  0  0  0  0  0  0  0  0  0  0
   -1.3000    0.2500    0.0000 C   0  0  0  0  0  0  0  0  0  0  0  0
    0.4292    1.2500    0.0000 C   0  0  0  0  0  0  0  0  0  0  0  0
   -1.3000    1.2500    0.0000 C   0  0  0  0  0  0  0  0  0  0  0  0
   -0.4333    1.7500    0.0000 C   0  0  0  0  0  0  0  0  0  0  0  0
  2  1  1  0  0  0  0
  3  1  2  0  0  0  0
  4  2  2  0  0  0  0
  5  3  1  0  0  0  0
  6  2  1  0  0  0  0
  7  1  1  0  0  0  0
  8  3  1  0  0  0  0
  8 10  1  0  0  0  0
  9  7  1  0  0  0  0
 10  9  1  0  0  0  0
M  END
>  <idnumber>
T5584050

>  <LogP>
2.226000000000000e+000

>  <rotating_bonds>
1.000000000000000e+000

>  <hb_acceptors>
3.000000000000000e+000

>  <hb_donors>
1.000000000000000e+000

>  <PSA>
3.730000000000000e+001

>  <clusterid>
-947

>  <is_centroid>
@

>  <class1>
810

>  <population1>
20527

>  <population>
20527

>  <cansmi>
ClC1=C(CCCC1)C(=O)O

>  <HBA2>
2

>  <HBD>
1

>  <logP>
2.1379

>  <TPSA>
37.3

>  <MW>
160.598

$$$$

 OpenBabel02121609142D

 16 17  0  0  0  0  0  0  0  0999 V2000
   -0.8500    0.7833    0.0000 C   0  0  0  0  0  0  0  0  0  0  0  0
   -0.1833    0.0458    0.0000 N   0  0  0  0  0  0  0  0  0  0  0  0
   -0.4958   -0.9125    0.0000 C   0  0  3  0  0  0  0  0  0  0  0  0
   -1.8333    0.5750    0.0000 O   0  0  0  0  0  0  0  0  0  0  0  0
    1.5167   -3.1417    0.0000 N   0  0  0  0  0  0  0  0  0  0  0  0
   -0.5458    1.7333    0.0000 C   0  0  0  0  0  0  0  0  0  0  0  0
    0.1792   -1.6542    0.0000 C   0  0  0  0  0  0  0  0  0  0  0  0
    0.5375   -3.3500    0.0000 C   0  0  0  0  0  0  0  0  0  0  0  0
    1.8250   -2.1875    0.0000 C   0  0  0  0  0  0  0  0  0  0  0  0
   -1.4708   -1.1167    0.0000 C   0  0  0  0  0  0  0  0  0  0  0  0
   -0.1333   -2.6042    0.0000 C   0  0  0  0  0  0  0  0  0  0  0  0
    1.1542   -1.4417    0.0000 C   0  0  0  0  0  0  0  0  0  0  0  0
    0.4042    2.0458    0.0000 C   0  0  0  0  0  0  0  0  0  0  0  0
   -1.1333    2.5458    0.0000 C   0  0  0  0  0  0  0  0  0  0  0  0
   -0.5458    3.3583    0.0000 C   0  0  0  0  0  0  0  0  0  0  0  0
    0.4042    3.0458    0.0000 C   0  0  0  0  0  0  0  0  0  0  0  0
  2  1  1  0  0  0  0
  3  2  1  0  0  0  0
  4  1  2  0  0  0  0
  5  9  2  0  0  0  0
  6  1  1  0  0  0  0
  7  3  1  0  0  0  0
  8 11  2  0  0  0  0
  8  5  1  0  0  0  0
  9 12  1  0  0  0  0
 10  3  1  0  0  0  0
 11  7  1  0  0  0  0
 12  7  2  0  0  0  0
 13  6  1  0  0  0  0
 14  6  1  0  0  0  0
 15 14  1  0  0  0  0
 16 13  1  0  0  0  0
 16 15  1  0  0  0  0
M  END
>  <idnumber>
T5584272

>  <LogP>
1.234000000000000e+000

>  <rotating_bonds>
3.000000000000000e+000

>  <hb_acceptors>
2.000000000000000e+000

>  <hb_donors>
1.000000000000000e+000

>  <PSA>
4.199000000000000e+001

>  <clusterid>
558

>  <is_centroid>
@

>  <class1>
674

>  <class2>
632

>  <population1>
16474

>  <population2>
79489

>  <population>
605

>  <cansmi>
CC(c1ccncc1)NC(=O)C1CCCC1

>  <HBA2>
3

>  <HBD>
1

>  <logP>
2.8399

>  <TPSA>
41.99

>  <MW>
218.295

$$$$

 OpenBabel02121609142D

 19 21  0  0  0  0  0  0  0  0999 V2000
    2.2375   -0.3917    0.0000 N   0  0  0  0  0  0  0  0  0  0  0  0
    3.1500    0.0083    0.0000 C   0  0  0  0  0  0  0  0  0  0  0  0
    1.3667    0.1083    0.0000 C   0  0  0  0  0  0  0  0  0  0  0  0
   -0.3583    0.1083    0.0000 N   0  0  0  0  0  0  0  0  0  0  0  0
    3.8167   -0.7292    0.0000 N   0  0  0  0  0  0  0  0  0  0  0  0
    0.5042   -0.3917    0.0000 C   0  0  0  0  0  0  0  0  0  0  0  0
   -1.2250   -0.3917    0.0000 C   0  0  0  0  0  0  0  0  0  0  0  0
   -2.0958    0.1083    0.0000 C   0  0  0  0  0  0  0  0  0  0  0  0
    3.3542    0.9875    0.0000 O   0  0  0  0  0  0  0  0  0  0  0  0
    1.3667    1.1083    0.0000 O   0  0  0  0  0  0  0  0  0  0  0  0
   -2.0958    1.1083    0.0000 C   0  0  0  0  0  0  0  0  0  0  0  0
   -0.3583    1.1083    0.0000 C   0  0  0  0  0  0  0  0  0  0  0  0
   -1.2250    1.6083    0.0000 C   0  0  0  0  0  0  0  0  0  0  0  0
    2.3417   -1.3917    0.0000 C   0  0  0  0  0  0  0  0  0  0  0  0
    3.3167   -1.6000    0.0000 C   0  0  0  0  0  0  0  0  0  0  0  0
   -2.9583   -0.3917    0.0000 C   0  0  0  0  0  0  0  0  0  0  0  0
   -2.9583    1.6083    0.0000 C   0  0  0  0  0  0  0  0  0  0  0  0
   -3.8250    0.1083    0.0000 C   0  0  0  0  0  0  0  0  0  0  0  0
   -3.8250    1.1083    0.0000 C   0  0  0  0  0  0  0  0  0  0  0  0
  2  1  1  0  0  0  0
  3  1  1  0  0  0  0
  4  6  1  0  0  0  0
  5  2  1  0  0  0  0
  6  3  1  0  0  0  0
  7  4  1  0  0  0  0
  8  7  1  0  0  0  0
  8 11  2  0  0  0  0
  9  2  2  0  0  0  0
 10  3  2  0  0  0  0
 11 13  1  0  0  0  0
 12  4  1  0  0  0  0
 13 12  1  0  0  0  0
 14  1  1  0  0  0  0
 15 14  1  0  0  0  0
 15  5  1  0  0  0  0
 16  8  1  0  0  0  0
 17 11  1  0  0  0  0
 18 16  2  0  0  0  0
 19 17  2  0  0  0  0
 19 18  1  0  0  0  0
M  END
>  <idnumber>
T5584419

>  <LogP>
1.454000000000000e+000

>  <rotating_bonds>
2.000000000000000e+000

>  <hb_acceptors>
3.000000000000000e+000

>  <hb_donors>
1.000000000000000e+000

>  <PSA>
5.265000000000000e+001

>  <clusterid>
-948

>  <is_centroid>
@

>  <class1>
750

>  <class2>
798

>  <population1>
7929

>  <population2>
25583

>  <population>
174

>  <cansmi>
O=C(N1CCNC1=O)CN1CCc2c(C1)cccc2

>  <HBA2>
5

>  <HBD>
1

>  <logP>
0.8011

>  <TPSA>
52.65

>  <MW>
259.304

$$$$

 OpenBabel02121609142D

 12 13  0  0  0  0  0  0  0  0999 V2000
   -0.4333   -0.2417    0.0000 N   0  0  0  0  0  0  0  0  0  0  0  0
    0.4292    0.2500    0.0000 C   0  0  0  0  0  0  0  0  0  0  0  0
   -2.1708   -1.2417    0.0000 N   0  0  0  0  0  0  0  0  0  0  0  0
    2.1625    1.2500    0.0000 N   0  0  0  0  0  0  0  0  0  0  0  0
    1.2917   -0.2500    0.0000 C   0  0  0  0  0  0  0  0  0  0  0  0
    0.4292    1.2583    0.0000 C   0  0  0  0  0  0  0  0  0  0  0  0
   -1.3000    0.2583    0.0000 C   0  0  0  0  0  0  0  0  0  0  0  0
   -0.4333   -1.2417    0.0000 C   0  0  0  0  0  0  0  0  0  0  0  0
    1.2917    1.7500    0.0000 C   0  0  0  0  0  0  0  0  0  0  0  0
    2.1625    0.2500    0.0000 C   0  0  0  0  0  0  0  0  0  0  0  0
   -2.1708   -0.2417    0.0000 C   0  0  0  0  0  0  0  0  0  0  0  0
   -1.3000   -1.7500    0.0000 C   0  0  0  0  0  0  0  0  0  0  0  0
  2  1  1  0  0  0  0
  3 12  1  0  0  0  0
  4  9  2  0  0  0  0
  5  2  1  0  0  0  0
  6  2  2  0  0  0  0
  7  1  1  0  0  0  0
  8  1  1  0  0  0  0
  9  6  1  0  0  0  0
 10  5  2  0  0  0  0
 10  4  1  0  0  0  0
 11  7  1  0  0  0  0
 11  3  1  0  0  0  0
 12  8  1  0  0  0  0
M  END
>  <idnumber>
T5587871

>  <LogP>
1.330000000000000e-001

>  <rotating_bonds>
1.000000000000000e+000

>  <hb_acceptors>
3.000000000000000e+000

>  <hb_donors>
1.000000000000000e+000

>  <PSA>
2.815999999999999e+001

>  <clusterid>
-951

>  <is_centroid>
@

>  <class1>
717

>  <class2>
632

>  <population1>
74368

>  <population2>
79489

>  <population>
6850

>  <cansmi>
N1CCN(CC1)c1ccncc1

>  <HBA2>
3

>  <HBD>
1

>  <logP>
0.885

>  <TPSA>
28.16

>  <MW>
163.22

$$$$

 OpenBabel02121609142D

 12 13  0  0  0  0  0  0  0  0999 V2000
    1.2917    0.5000    0.0000 C   0  0  0  0  0  0  0  0  0  0  0  0
    1.2917   -0.5000    0.0000 C   0  0  0  0  0  0  0  0  0  0  0  0
    0.4292   -1.0000    0.0000 N   0  0  0  0  0  0  0  0  0  0  0  0
    0.4292    1.0000    0.0000 N   0  0  0  0  0  0  0  0  0  0  0  0
   -0.4333    0.5000    0.0000 C   0  0  0  0  0  0  0  0  0  0  0  0
   -0.4333   -0.5000    0.0000 C   0  0  0  0  0  0  0  0  0  0  0  0
    2.1625    1.0000    0.0000 O   0  0  0  0  0  0  0  0  0  0  0  0
    2.1625   -1.0000    0.0000 O   0  0  0  0  0  0  0  0  0  0  0  0
   -1.3000    1.0000    0.0000 C   0  0  0  0  0  0  0  0  0  0  0  0
   -1.3000   -1.0000    0.0000 C   0  0  0  0  0  0  0  0  0  0  0  0
   -2.1708   -0.5000    0.0000 C   0  0  0  0  0  0  0  0  0  0  0  0
   -2.1708    0.5000    0.0000 C   0  0  0  0  0  0  0  0  0  0  0  0
  2  1  1  0  0  0  0
  3  2  1  0  0  0  0
  3  6  1  0  0  0  0
  4  1  1  0  0  0  0
  5  4  1  0  0  0  0
  6  5  2  0  0  0  0
  7  1  2  0  0  0  0
  8  2  2  0  0  0  0
  9  5  1  0  0  0  0
 10  6  1  0  0  0  0
 11 12  1  0  0  0  0
 11 10  2  0  0  0  0
 12  9  2  0  0  0  0
M  END
>  <idnumber>
T5587873

>  <LogP>
-2.920000000000000e-001

>  <rotating_bonds>
0.000000000000000e+000

>  <hb_acceptors>
2.000000000000000e+000

>  <hb_donors>
2.000000000000000e+000

>  <PSA>
5.820000000000000e+001

>  <clusterid>
-952

>  <is_centroid>
@

>  <class1>
719

>  <population1>
434

>  <population>
434

>  <cansmi>
O=c1[nH]c2ccccc2[nH]c1=O

>  <HBA2>
2

>  <HBD>
2

>  <logP>
0.2164

>  <TPSA>
65.72

>  <MW>
162.145

$$$$

 OpenBabel02121609142D

 15 17  0  0  0  0  0  0  0  0999 V2000
    0.5417    0.5250    0.0000 C   0  0  0  0  0  0  0  0  0  0  0  0
    1.1292    1.3333    0.0000 C   0  0  0  0  0  0  0  0  0  0  0  0
    0.5417    2.1458    0.0000 N   0  0  0  0  0  0  0  0  0  0  0  0
   -0.4083    0.8333    0.0000 C   0  0  0  0  0  0  0  0  0  0  0  0
    0.8500   -0.4250    0.0000 C   0  0  0  0  0  0  0  0  0  0  0  0
   -0.4083    1.8333    0.0000 C   0  0  0  0  0  0  0  0  0  0  0  0
    1.4667   -2.3292    0.0000 N   0  0  0  0  0  0  0  0  0  0  0  0
    0.1792   -1.1667    0.0000 C   0  0  0  0  0  0  0  0  0  0  0  0
    0.4917   -2.1167    0.0000 C   0  0  0  0  0  0  0  0  0  0  0  0
   -1.2750    0.3333    0.0000 C   0  0  0  0  0  0  0  0  0  0  0  0
    1.8292   -0.6292    0.0000 C   0  0  0  0  0  0  0  0  0  0  0  0
    2.1292   -1.5875    0.0000 C   0  0  0  0  0  0  0  0  0  0  0  0
   -1.2750    2.3333    0.0000 C   0  0  0  0  0  0  0  0  0  0  0  0
   -2.1458    0.8333    0.0000 C   0  0  0  0  0  0  0  0  0  0  0  0
   -2.1458    1.8333    0.0000 C   0  0  0  0  0  0  0  0  0  0  0  0
  2  1  2  0  0  0  0
  3  2  1  0  0  0  0
  3  6  1  0  0  0  0
  4  1  1  0  0  0  0
  5  1  1  0  0  0  0
  6  4  2  0  0  0  0
  7 12  1  0  0  0  0
  8  5  2  0  0  0  0
  9  8  1  0  0  0  0
  9  7  1  0  0  0  0
 10  4  1  0  0  0  0
 11  5  1  0  0  0  0
 12 11  1  0  0  0  0
 13  6  1  0  0  0  0
 13 15  2  0  0  0  0
 14 10  2  0  0  0  0
 15 14  1  0  0  0  0
M  END
>  <idnumber>
T5590509

>  <LogP>
2.229000000000000e+000

>  <rotating_bonds>
1.000000000000000e+000

>  <hb_acceptors>
1.000000000000000e+000

>  <hb_donors>
2.000000000000000e+000

>  <PSA>
2.782000000000000e+001

>  <clusterid>
560

>  <is_centroid>
@

>  <class1>
715

>  <class2>
748

>  <population1>
4585

>  <population2>
15713

>  <population>
542

>  <cansmi>
N1CCC(=CC1)c1c[nH]c2c1cccc2

>  <HBA2>
1

>  <HBD>
2

>  <logP>
2.8734

>  <TPSA>
27.82

>  <MW>
198.264

$$$$

 OpenBabel02121609142D

 13 14  0  0  0  0  0  0  0  0999 V2000
    0.5792   -0.3417    0.0000 C   0  0  0  0  0  0  0  0  0  0  0  0
   -0.4208   -0.3417    0.0000 C   0  0  0  0  0  0  0  0  0  0  0  0
    1.1667   -1.1500    0.0000 N   0  0  0  0  0  0  0  0  0  0  0  0
    1.1667    0.4708    0.0000 N   0  0  0  0  0  0  0  0  0  0  0  0
   -0.9208    0.5250    0.0000 C   0  0  0  0  0  0  0  0  0  0  0  0
    2.1167    0.1583    0.0000 C   0  0  0  0  0  0  0  0  0  0  0  0
   -1.9208    0.6333    0.0000 O   0  0  0  0  0  0  0  0  0  0  0  0
   -0.9208   -1.2042    0.0000 O   0  0  0  0  0  0  0  0  0  0  0  0
    2.1167   -0.8417    0.0000 C   0  0  0  0  0  0  0  0  0  0  0  0
   -0.5125    1.4375    0.0000 C   0  0  0  0  0  0  0  0  0  0  0  0
   -2.1208    1.6083    0.0000 C   0  0  0  0  0  0  0  0  0  0  0  0
   -1.2583    2.1083    0.0000 C   0  0  0  0  0  0  0  0  0  0  0  0
    0.8542   -2.1042    0.0000 C   0  0  0  0  0  0  0  0  0  0  0  0
  2  1  1  0  0  0  0
  3  1  1  0  0  0  0
  4  1  2  0  0  0  0
  5  2  1  0  0  0  0
  6  4  1  0  0  0  0
  7  5  1  0  0  0  0
  8  2  2  0  0  0  0
  9  3  1  0  0  0  0
  9  6  2  0  0  0  0
 10  5  2  0  0  0  0
 11  7  1  0  0  0  0
 12 10  1  0  0  0  0
 12 11  2  0  0  0  0
 13  3  1  0  0  0  0
M  END
>  <idnumber>
T5592500

>  <LogP>
9.580000000000002e-001

>  <rotating_bonds>
2.000000000000000e+000

>  <hb_acceptors>
2.000000000000000e+000

>  <hb_donors>
0.000000000000000e+000

>  <PSA>
4.803000000000000e+001

>  <clusterid>
-955

>  <is_centroid>
@

>  <class1>
704

>  <class2>
686

>  <population1>
51112

>  <population2>
31113

>  <population>
849

>  <cansmi>
Cn1ccnc1C(=O)c1ccco1

>  <HBA2>
4

>  <HBD>
0

>  <logP>
1.2441

>  <TPSA>
48.03

>  <MW>
176.172

$$$$

 OpenBabel02121609142D

 12 12  0  0  0  0  0  0  0  0999 V2000
    2.7292    1.0000    0.0000 N   0  0  0  0  0  0  0  0  0  0  0  0
    0.9917    0.0083    0.0000 C   0  0  0  0  0  0  0  0  0  0  0  0
    1.8625    1.5000    0.0000 N   0  0  0  0  0  0  0  0  0  0  0  0
    1.8625   -0.5000    0.0000 C   0  0  0  0  0  0  0  0  0  0  0  0
    0.9917    1.0000    0.0000 C   0  0  0  0  0  0  0  0  0  0  0  0
    2.7292    0.0083    0.0000 C   0  0  0  0  0  0  0  0  0  0  0  0
    1.8625   -1.5000    0.0000 O   0  0  0  0  0  0  0  0  0  0  0  0
   -2.7333    0.3208    0.0000 Cl  0  0  0  0  0  0  0  0  0  0  0  0
    0.1292   -0.5000    0.0000 C   0  0  0  0  0  0  0  0  0  0  0  0
    0.1292    1.5000    0.0000 C   0  0  0  0  0  0  0  0  0  0  0  0
   -0.7333    0.0083    0.0000 C   0  0  0  0  0  0  0  0  0  0  0  0
   -0.7333    1.0000    0.0000 C   0  0  0  0  0  0  0  0  0  0  0  0
  2  4  2  0  0  0  0
  3  1  1  0  0  0  0
  4  6  1  0  0  0  0
  5  3  2  0  0  0  0
  5  2  1  0  0  0  0
  6  1  2  0  0  0  0
  7  4  1  0  0  0  0
  9  2  1  0  0  0  0
 10  5  1  0  0  0  0
 11  9  2  0  0  0  0
 12 10  2  0  0  0  0
 12 11  1  0  0  0  0
M  END
>  <idnumber>
T5592532

>  <LogP>
1.416000000000000e+000

>  <rotating_bonds>
0.000000000000000e+000

>  <hb_acceptors>
3.000000000000000e+000

>  <hb_donors>
1.000000000000000e+000

>  <PSA>
4.601000000000000e+001

>  <clusterid>
-956

>  <is_centroid>
@

>  <class1>
716

>  <population1>
19

>  <population>
19

>  <cansmi>
Oc1cnnc2c1cccc2.Cl

>  <HBA2>
3

>  <HBD>
2

>  <logP>
2.1374

>  <TPSA>
46.01

>  <MW>
182.607

$$$$

 OpenBabel02121609142D

 15 16  0  0  0  0  0  0  0  0999 V2000
   -0.4333   -0.2500    0.0000 N   0  0  0  0  0  0  0  0  0  0  0  0
   -0.4333    1.7500    0.0000 O   0  0  0  0  0  0  0  0  0  0  0  0
   -1.3000    0.2500    0.0000 C   0  0  0  0  0  0  0  0  0  0  0  0
   -1.3000    1.2500    0.0000 C   0  0  0  0  0  0  0  0  0  0  0  0
    0.4292    0.2500    0.0000 C   0  0  0  0  0  0  0  0  0  0  0  0
    0.4292    1.2500    0.0000 C   0  0  3  0  0  0  0  0  0  0  0  0
   -0.4333   -1.2500    0.0000 C   0  0  0  0  0  0  0  0  0  0  0  0
    2.1625    1.2500    0.0000 N   0  0  0  0  0  0  0  0  0  0  0  0
    1.2917    1.7500    0.0000 C   0  0  0  0  0  0  0  0  0  0  0  0
   -2.1708    1.7500    0.0000 C   0  0  0  0  0  0  0  0  0  0  0  0
   -2.1708   -0.2500    0.0000 C   0  0  0  0  0  0  0  0  0  0  0  0
    3.0292    1.7500    0.0000 C   0  0  0  0  0  0  0  0  0  0  0  0
    0.4292   -1.7500    0.0000 C   0  0  0  0  0  0  0  0  0  0  0  0
   -3.0333    1.2500    0.0000 C   0  0  0  0  0  0  0  0  0  0  0  0
   -3.0333    0.2500    0.0000 C   0  0  0  0  0  0  0  0  0  0  0  0
  2  6  1  0  0  0  0
  3  1  1  0  0  0  0
  4  3  2  0  0  0  0
  4  2  1  0  0  0  0
  5  1  1  0  0  0  0
  6  5  1  0  0  0  0
  7  1  1  0  0  0  0
  8  9  1  0  0  0  0
  9  6  1  0  0  0  0
 10  4  1  0  0  0  0
 10 14  2  0  0  0  0
 11  3  1  0  0  0  0
 12  8  1  0  0  0  0
 13  7  1  0  0  0  0
 14 15  1  0  0  0  0
 15 11  2  0  0  0  0
M  END
>  <idnumber>
T5592566

>  <LogP>
2.307000000000000e+000

>  <rotating_bonds>
3.000000000000000e+000

>  <hb_acceptors>
3.000000000000000e+000

>  <hb_donors>
1.000000000000000e+000

>  <PSA>
2.450000000000000e+001

>  <clusterid>
-959

>  <is_centroid>
@

>  <class1>
824

>  <population1>
4751

>  <population>
4751

>  <cansmi>
CNCC1CN(CC)c2c(O1)cccc2

>  <HBA2>
3

>  <HBD>
1

>  <logP>
1.9492

>  <TPSA>
24.5

>  <MW>
206.284

$$$$

 OpenBabel02121609142D

 13 14  0  0  0  0  0  0  0  0999 V2000
    0.0167   -0.3542    0.0000 N   0  0  0  0  0  0  0  0  0  0  0  0
    0.5917    0.4625    0.0000 C   0  0  0  0  0  0  0  0  0  0  0  0
   -1.3458   -0.0250    0.0000 N   0  0  0  0  0  0  0  0  0  0  0  0
   -0.3708    0.2208    0.0000 C   0  0  0  0  0  0  0  0  0  0  0  0
   -1.1333   -1.9875    0.0000 N   0  0  0  0  0  0  0  0  0  0  0  0
   -0.9750   -0.2625    0.0000 C   0  0  0  0  0  0  0  0  0  0  0  0
    0.4417   -1.2625    0.0000 C   0  0  0  0  0  0  0  0  0  0  0  0
    1.5417    0.7750    0.0000 C   0  0  0  0  0  0  0  0  0  0  0  0
    0.0042    1.2750    0.0000 C   0  0  0  0  0  0  0  0  0  0  0  0
   -0.1375   -2.0792    0.0000 C   0  0  0  0  0  0  0  0  0  0  0  0
   -1.5500   -1.0792    0.0000 C   0  0  0  0  0  0  0  0  0  0  0  0
    0.5917    2.0833    0.0000 C   0  0  0  0  0  0  0  0  0  0  0  0
    1.5417    1.7750    0.0000 C   0  0  0  0  0  0  0  0  0  0  0  0
  2  1  1  0  0  0  0
  3  4  3  0  0  0  0
  4  2  1  0  0  0  0
  5 10  1  0  0  0  0
  6  1  1  0  0  0  0
  7  1  1  0  0  0  0
  8  2  1  0  0  0  0
  9  2  1  0  0  0  0
 10  7  1  0  0  0  0
 11  6  1  0  0  0  0
 11  5  1  0  0  0  0
 12  9  1  0  0  0  0
 13  8  1  0  0  0  0
 13 12  1  0  0  0  0
M  END
>  <idnumber>
T5592574

>  <LogP>
5.370000000000000e-001

>  <rotating_bonds>
2.000000000000000e+000

>  <hb_acceptors>
3.000000000000000e+000

>  <hb_donors>
1.000000000000000e+000

>  <PSA>
3.906000000000000e+001

>  <clusterid>
-960

>  <is_centroid>
@

>  <class1>
674

>  <class2>
717

>  <population1>
16474

>  <population2>
74368

>  <population>
1056

>  <cansmi>
N#CC1(CCCC1)N1CCNCC1

>  <HBA2>
3

>  <HBD>
1

>  <logP>
0.99468

>  <TPSA>
39.06

>  <MW>
179.262

$$$$

 OpenBabel02121609142D

 20 22  0  0  0  0  0  0  0  0999 V2000
   -1.3708   -1.5167    0.0000 C   0  0  0  0  0  0  0  0  0  0  0  0
   -1.6750   -0.5667    0.0000 C   0  0  0  0  0  0  0  0  0  0  0  0
   -1.0083    0.1708    0.0000 N   0  0  0  0  0  0  0  0  0  0  0  0
   -1.9583   -2.3292    0.0000 O   0  0  0  0  0  0  0  0  0  0  0  0
    0.3292    1.6583    0.0000 N   0  0  0  0  0  0  0  0  0  0  0  0
   -0.4208   -1.8292    0.0000 C   0  0  0  0  0  0  0  0  0  0  0  0
   -1.3708   -3.1417    0.0000 C   0  0  0  0  0  0  0  0  0  0  0  0
   -0.4208   -2.8292    0.0000 C   0  0  0  0  0  0  0  0  0  0  0  0
   -0.0333   -0.0292    0.0000 C   0  0  0  0  0  0  0  0  0  0  0  0
   -1.3208    1.1250    0.0000 C   0  0  0  0  0  0  0  0  0  0  0  0
   -2.6583   -0.3625    0.0000 O   0  0  0  0  0  0  0  0  0  0  0  0
   -0.6458    1.8708    0.0000 C   0  0  0  0  0  0  0  0  0  0  0  0
    0.6417    0.7083    0.0000 C   0  0  0  0  0  0  0  0  0  0  0  0
    1.0000    2.4000    0.0000 C   0  0  0  0  0  0  0  0  0  0  0  0
   -1.6750   -4.0917    0.0000 C   0  0  0  0  0  0  0  0  0  0  0  0
    1.9792    2.1958    0.0000 C   0  0  0  0  0  0  0  0  0  0  0  0
    0.6917    3.3583    0.0000 C   0  0  0  0  0  0  0  0  0  0  0  0
    1.3625    4.0917    0.0000 C   0  0  0  0  0  0  0  0  0  0  0  0
    2.6500    2.9375    0.0000 C   0  0  0  0  0  0  0  0  0  0  0  0
    2.3417    3.8958    0.0000 C   0  0  0  0  0  0  0  0  0  0  0  0
  2  1  1  0  0  0  0
  3  2  1  0  0  0  0
  4  1  1  0  0  0  0
  5 12  1  0  0  0  0
  6  1  2  0  0  0  0
  7  4  1  0  0  0  0
  7  8  2  0  0  0  0
  8  6  1  0  0  0  0
  9  3  1  0  0  0  0
 10  3  1  0  0  0  0
 11  2  2  0  0  0  0
 12 10  1  0  0  0  0
 13  9  1  0  0  0  0
 13  5  1  0  0  0  0
 14  5  1  0  0  0  0
 15  7  1  0  0  0  0
 16 14  1  0  0  0  0
 17 14  2  0  0  0  0
 18 17  1  0  0  0  0
 19 16  2  0  0  0  0
 19 20  1  0  0  0  0
 20 18  2  0  0  0  0
M  END
>  <idnumber>
T5594391

>  <LogP>
1.621000000000000e+000

>  <rotating_bonds>
2.000000000000000e+000

>  <hb_acceptors>
2.000000000000000e+000

>  <hb_donors>
0.000000000000000e+000

>  <PSA>
3.669000000000001e+001

>  <clusterid>
562

>  <is_centroid>
@

>  <class1>
704

>  <class2>
717

>  <class3>
625

>  <population1>
51112

>  <population2>
74368

>  <population3>
877209

>  <population>
3504

>  <cansmi>
Cc1ccc(o1)C(=O)N1CCN(CC1)c1ccccc1

>  <HBA2>
4

>  <HBD>
0

>  <logP>
2.5533

>  <TPSA>
36.69

>  <MW>
270.326

$$$$

 OpenBabel02121609142D

 21 24  0  0  0  0  0  0  0  0999 V2000
    0.5417    1.9708    0.0000 N   0  0  0  0  0  0  0  0  0  0  0  0
   -0.4708   -1.2000    0.0000 C   0  0  0  0  0  0  0  0  0  0  0  0
   -1.2208   -0.5292    0.0000 N   0  0  0  0  0  0  0  0  0  0  0  0
    0.3917   -0.7000    0.0000 O   0  0  0  0  0  0  0  0  0  0  0  0
    0.1875    0.2833    0.0000 C   0  0  0  0  0  0  0  0  0  0  0  0
   -0.8083    0.3833    0.0000 N   0  0  0  0  0  0  0  0  0  0  0  0
   -0.4083    2.2833    0.0000 C   0  0  0  0  0  0  0  0  0  0  0  0
   -0.5750   -2.1917    0.0000 C   0  0  0  0  0  0  0  0  0  0  0  0
    1.1292    2.7833    0.0000 C   0  0  3  0  0  0  0  0  0  0  0  0
   -0.4083    3.2833    0.0000 C   0  0  0  0  0  0  0  0  0  0  0  0
    0.8542    1.0208    0.0000 C   0  0  0  0  0  0  0  0  0  0  0  0
    0.5417    3.5958    0.0000 C   0  0  0  0  0  0  0  0  0  0  0  0
    0.1667   -2.8625    0.0000 O   0  0  0  0  0  0  0  0  0  0  0  0
   -1.4458   -2.6917    0.0000 C   0  0  0  0  0  0  0  0  0  0  0  0
   -0.2458   -3.7792    0.0000 C   0  0  0  0  0  0  0  0  0  0  0  0
   -1.2333   -3.6667    0.0000 C   0  0  0  0  0  0  0  0  0  0  0  0
   -1.2708    1.7833    0.0000 C   0  0  0  0  0  0  0  0  0  0  0  0
   -1.2708    3.7833    0.0000 C   0  0  0  0  0  0  0  0  0  0  0  0
    2.1292    2.7833    0.0000 C   0  0  0  0  0  0  0  0  0  0  0  0
   -2.1375    2.2833    0.0000 C   0  0  0  0  0  0  0  0  0  0  0  0
   -2.1375    3.2833    0.0000 C   0  0  0  0  0  0  0  0  0  0  0  0
  2  4  1  0  0  0  0
  3  6  1  0  0  0  0
  3  2  2  0  0  0  0
  4  5  1  0  0  0  0
  5 11  1  0  0  0  0
  6  5  2  0  0  0  0
  7  1  1  0  0  0  0
  8  2  1  0  0  0  0
  9  1  1  0  0  0  0
 10  7  2  0  0  0  0
 11  1  1  0  0  0  0
 12  9  1  0  0  0  0
 12 10  1  0  0  0  0
 13  8  1  0  0  0  0
 14  8  2  0  0  0  0
 15 13  1  0  0  0  0
 16 14  1  0  0  0  0
 16 15  2  0  0  0  0
 17  7  1  0  0  0  0
 18 10  1  0  0  0  0
 18 21  2  0  0  0  0
 19  9  1  0  0  0  0
 20 17  2  0  0  0  0
 21 20  1  0  0  0  0
M  END
>  <idnumber>
T5594407

>  <LogP>
2.635000000000000e+000

>  <rotating_bonds>
3.000000000000000e+000

>  <hb_acceptors>
3.000000000000000e+000

>  <hb_donors>
0.000000000000000e+000

>  <PSA>
5.530000000000000e+001

>  <clusterid>
563

>  <is_centroid>
@

>  <class1>
732

>  <class2>
704

>  <class3>
689

>  <population1>
13534

>  <population2>
51112

>  <population3>
17264

>  <population>
13

>  <cansmi>
CC1Cc2c(N1Cc1nnc(o1)c1ccco1)cccc2

>  <HBA2>
5

>  <HBD>
0

>  <logP>
3.3458

>  <TPSA>
55.3

>  <MW>
281.309

$$$$

 OpenBabel02121609142D

 16 17  0  0  0  0  0  0  0  0999 V2000
    1.2542    0.1583    0.0000 C   0  0  0  0  0  0  0  0  0  0  0  0
   -0.2833   -0.3417    0.0000 N   0  0  0  0  0  0  0  0  0  0  0  0
    0.3042    0.4708    0.0000 C   0  0  0  0  0  0  0  0  0  0  0  0
    1.2542   -0.8417    0.0000 C   0  0  0  0  0  0  0  0  0  0  0  0
    0.3042   -1.1500    0.0000 C   0  0  0  0  0  0  0  0  0  0  0  0
    2.0667    0.7458    0.0000 C   0  0  0  0  0  0  0  0  0  0  0  0
   -1.2833   -0.3417    0.0000 C   0  0  0  0  0  0  0  0  0  0  0  0
   -1.7833    0.5250    0.0000 C   0  0  0  0  0  0  0  0  0  0  0  0
   -2.7750    0.6333    0.0000 O   0  0  0  0  0  0  0  0  0  0  0  0
    1.9625    1.7458    0.0000 O   0  0  0  0  0  0  0  0  0  0  0  0
   -1.3750    1.4375    0.0000 C   0  0  0  0  0  0  0  0  0  0  0  0
   -2.9833    1.6083    0.0000 C   0  0  0  0  0  0  0  0  0  0  0  0
   -2.1208    2.1083    0.0000 C   0  0  0  0  0  0  0  0  0  0  0  0
    2.9792    0.3375    0.0000 O   0  0  0  0  0  0  0  0  0  0  0  0
   -0.0083    1.4208    0.0000 C   0  0  0  0  0  0  0  0  0  0  0  0
   -0.0083   -2.1042    0.0000 C   0  0  0  0  0  0  0  0  0  0  0  0
  2  3  1  0  0  0  0
  3  1  2  0  0  0  0
  4  1  1  0  0  0  0
  5  4  2  0  0  0  0
  5  2  1  0  0  0  0
  6  1  1  0  0  0  0
  7  2  1  0  0  0  0
  8  7  1  0  0  0  0
  9  8  1  0  0  0  0
 10  6  2  0  0  0  0
 11  8  2  0  0  0  0
 12  9  1  0  0  0  0
 13 11  1  0  0  0  0
 13 12  2  0  0  0  0
 14  6  1  0  0  0  0
 15  3  1  0  0  0  0
 16  5  1  0  0  0  0
M  END
>  <idnumber>
T5598130

>  <LogP>
2.768000000000000e+000

>  <rotating_bonds>
3.000000000000000e+000

>  <hb_acceptors>
2.000000000000000e+000

>  <hb_donors>
1.000000000000000e+000

>  <PSA>
5.537000000000000e+001

>  <clusterid>
-961

>  <is_centroid>
@

>  <class1>
704

>  <class2>
635

>  <population1>
51112

>  <population2>
31512

>  <population>
2245

>  <cansmi>
OC(=O)c1cc(n(c1C)Cc1ccco1)C

>  <HBA2>
4

>  <HBD>
1

>  <logP>
2.4444

>  <TPSA>
55.37

>  <MW>
219.237

$$$$

 OpenBabel02121609142D

 18 20  0  0  0  0  0  0  0  0999 V2000
   -0.0083    0.5000    0.0000 N   0  0  0  0  0  0  0  0  0  0  0  0
    0.8625    2.0000    0.0000 C   0  0  0  0  0  0  0  0  0  0  0  0
    0.8625    1.0000    0.0000 C   0  0  0  0  0  0  0  0  0  0  0  0
   -0.0083    2.5000    0.0000 N   0  0  0  0  0  0  0  0  0  0  0  0
   -0.8708    1.0000    0.0000 C   0  0  0  0  0  0  0  0  0  0  0  0
   -0.8708    2.0000    0.0000 C   0  0  0  0  0  0  0  0  0  0  0  0
    1.7292    0.5000    0.0000 C   0  0  0  0  0  0  0  0  0  0  0  0
    1.7292    2.5000    0.0000 O   0  0  0  0  0  0  0  0  0  0  0  0
    1.7292   -0.5000    0.0000 C   0  0  0  0  0  0  0  0  0  0  0  0
   -1.7333    0.5000    0.0000 C   0  0  0  0  0  0  0  0  0  0  0  0
   -1.7333    2.5000    0.0000 C   0  0  0  0  0  0  0  0  0  0  0  0
    0.8625   -1.0000    0.0000 C   0  0  0  0  0  0  0  0  0  0  0  0
    2.5917   -1.0000    0.0000 C   0  0  0  0  0  0  0  0  0  0  0  0
   -2.6000    2.0000    0.0000 C   0  0  0  0  0  0  0  0  0  0  0  0
   -2.6000    1.0000    0.0000 C   0  0  0  0  0  0  0  0  0  0  0  0
    2.5917   -2.0000    0.0000 C   0  0  0  0  0  0  0  0  0  0  0  0
    0.8625   -2.0000    0.0000 C   0  0  0  0  0  0  0  0  0  0  0  0
    1.7292   -2.5000    0.0000 C   0  0  0  0  0  0  0  0  0  0  0  0
  2  3  1  0  0  0  0
  2  4  1  0  0  0  0
  3  1  2  0  0  0  0
  4  6  1  0  0  0  0
  5  1  1  0  0  0  0
  6  5  2  0  0  0  0
  7  3  1  0  0  0  0
  8  2  2  0  0  0  0
  9  7  1  0  0  0  0
 10  5  1  0  0  0  0
 11  6  1  0  0  0  0
 11 14  2  0  0  0  0
 12  9  1  0  0  0  0
 13  9  2  0  0  0  0
 14 15  1  0  0  0  0
 15 10  2  0  0  0  0
 16 13  1  0  0  0  0
 17 12  2  0  0  0  0
 17 18  1  0  0  0  0
 18 16  2  0  0  0  0
M  END
>  <idnumber>
T5598211

>  <LogP>
2.371999999999999e+000

>  <rotating_bonds>
2.000000000000000e+000

>  <hb_acceptors>
2.000000000000000e+000

>  <hb_donors>
1.000000000000000e+000

>  <PSA>
4.146000000000000e+001

>  <clusterid>
564

>  <is_centroid>
@

>  <class1>
625

>  <class2>
802

>  <population1>
877209

>  <population2>
1299

>  <population>
1299

>  <cansmi>
O=c1[nH]c2ccccc2nc1Cc1ccccc1

>  <HBA2>
2

>  <HBD>
1

>  <logP>
2.5139

>  <TPSA>
45.75

>  <MW>
236.269

$$$$

 OpenBabel02121609142D

 18 20  0  0  0  0  0  0  0  0999 V2000
   -0.0083    0.5000    0.0000 N   0  0  0  0  0  0  0  0  0  0  0  0
    0.8625    2.0000    0.0000 C   0  0  0  0  0  0  0  0  0  0  0  0
    0.8625    1.0000    0.0000 C   0  0  0  0  0  0  0  0  0  0  0  0
   -0.0083    2.5000    0.0000 N   0  0  0  0  0  0  0  0  0  0  0  0
   -0.8708    1.0000    0.0000 C   0  0  0  0  0  0  0  0  0  0  0  0
   -0.8708    2.0000    0.0000 C   0  0  0  0  0  0  0  0  0  0  0  0
    1.7292    0.5000    0.0000 C   0  0  0  0  0  0  0  0  0  0  0  0
    1.7292    2.5000    0.0000 O   0  0  0  0  0  0  0  0  0  0  0  0
    1.7292   -2.5000    0.0000 N   0  0  0  0  0  0  0  0  0  0  0  0
    1.7292   -0.5000    0.0000 C   0  0  0  0  0  0  0  0  0  0  0  0
   -1.7333    0.5000    0.0000 C   0  0  0  0  0  0  0  0  0  0  0  0
   -1.7333    2.5000    0.0000 C   0  0  0  0  0  0  0  0  0  0  0  0
    0.8625   -2.0000    0.0000 C   0  0  0  0  0  0  0  0  0  0  0  0
    2.5917   -2.0000    0.0000 C   0  0  0  0  0  0  0  0  0  0  0  0
    0.8625   -1.0000    0.0000 C   0  0  0  0  0  0  0  0  0  0  0  0
    2.5917   -1.0000    0.0000 C   0  0  0  0  0  0  0  0  0  0  0  0
   -2.6000    1.0000    0.0000 C   0  0  0  0  0  0  0  0  0  0  0  0
   -2.6000    2.0000    0.0000 C   0  0  0  0  0  0  0  0  0  0  0  0
  2  3  1  0  0  0  0
  2  4  1  0  0  0  0
  3  1  2  0  0  0  0
  4  6  1  0  0  0  0
  5  1  1  0  0  0  0
  6  5  2  0  0  0  0
  7  3  1  0  0  0  0
  8  2  2  0  0  0  0
  9 14  2  0  0  0  0
 10  7  1  0  0  0  0
 11  5  1  0  0  0  0
 12  6  1  0  0  0  0
 12 18  2  0  0  0  0
 13 15  2  0  0  0  0
 13  9  1  0  0  0  0
 14 16  1  0  0  0  0
 15 10  1  0  0  0  0
 16 10  2  0  0  0  0
 17 11  2  0  0  0  0
 18 17  1  0  0  0  0
M  END
>  <idnumber>
T5598216

>  <LogP>
8.750000000000002e-001

>  <rotating_bonds>
2.000000000000000e+000

>  <hb_acceptors>
3.000000000000000e+000

>  <hb_donors>
1.000000000000000e+000

>  <PSA>
5.434999999999999e+001

>  <clusterid>
-963

>  <is_centroid>
@

>  <class1>
632

>  <class2>
802

>  <population1>
79489

>  <population2>
1299

>  <population>
44

>  <cansmi>
O=c1[nH]c2ccccc2nc1Cc1ccncc1

>  <HBA2>
3

>  <HBD>
1

>  <logP>
1.9089

>  <TPSA>
58.64

>  <MW>
237.257

$$$$

 OpenBabel02121609142D

 22 24  0  0  0  0  0  0  0  0999 V2000
   -0.4333    1.0000    0.0000 N   0  0  0  0  0  0  0  0  0  0  0  0
   -1.3000    0.5000    0.0000 C   0  0  0  0  0  0  0  0  0  0  0  0
   -2.1708    1.0000    0.0000 C   0  0  0  0  0  0  0  0  0  0  0  0
   -1.3000    2.5000    0.0000 N   0  0  0  0  0  0  0  0  0  0  0  0
   -0.4333    2.0000    0.0000 C   0  0  0  0  0  0  0  0  0  0  0  0
    0.4292   -0.5000    0.0000 C   0  0  0  0  0  0  0  0  0  0  0  0
    0.4292    0.5000    0.0000 C   0  0  0  0  0  0  0  0  0  0  0  0
    1.2917   -1.0000    0.0000 C   0  0  0  0  0  0  0  0  0  0  0  0
   -2.1708    2.0000    0.0000 C   0  0  0  0  0  0  0  0  0  0  0  0
    1.2917   -1.9917    0.0000 C   0  0  0  0  0  0  0  0  0  0  0  0
    2.1625   -0.5000    0.0000 C   0  0  0  0  0  0  0  0  0  0  0  0
   -1.3000   -0.5000    0.0000 O   0  0  0  0  0  0  0  0  0  0  0  0
    2.1625   -2.4917    0.0000 C   0  0  0  0  0  0  0  0  0  0  0  0
   -0.4333   -1.0000    0.0000 O   0  0  0  0  0  0  0  0  0  0  0  0
    3.0292   -1.0000    0.0000 C   0  0  0  0  0  0  0  0  0  0  0  0
    3.0292   -1.9917    0.0000 C   0  0  0  0  0  0  0  0  0  0  0  0
   -3.0333    0.5000    0.0000 C   0  0  0  0  0  0  0  0  0  0  0  0
    0.4292   -2.4917    0.0000 C   0  0  0  0  0  0  0  0  0  0  0  0
   -3.0333    2.5000    0.0000 C   0  0  0  0  0  0  0  0  0  0  0  0
    3.8917   -2.5000    0.0000 C   0  0  0  0  0  0  0  0  0  0  0  0
   -3.9000    1.0000    0.0000 C   0  0  0  0  0  0  0  0  0  0  0  0
   -3.9000    2.0000    0.0000 C   0  0  0  0  0  0  0  0  0  0  0  0
  2  1  1  0  0  0  0
  3  2  1  0  0  0  0
  3  9  2  0  0  0  0
  4  5  2  0  0  0  0
  5  1  1  0  0  0  0
  6  7  1  0  0  0  0
  7  1  1  0  0  0  0
  8  6  1  0  0  0  0
  9  4  1  0  0  0  0
 10  8  2  0  0  0  0
 11  8  1  0  0  0  0
 12  2  2  0  0  0  0
 13 10  1  0  0  0  0
 13 16  2  0  0  0  0
 14  6  2  0  0  0  0
 15 11  2  0  0  0  0
 16 15  1  0  0  0  0
 17  3  1  0  0  0  0
 18 10  1  0  0  0  0
 19  9  1  0  0  0  0
 20 16  1  0  0  0  0
 21 17  2  0  0  0  0
 22 19  2  0  0  0  0
 22 21  1  0  0  0  0
M  END
>  <idnumber>
T5599832

>  <LogP>
2.991000000000000e+000

>  <rotating_bonds>
3.000000000000000e+000

>  <hb_acceptors>
3.000000000000000e+000

>  <hb_donors>
0.000000000000000e+000

>  <PSA>
4.974000000000000e+001

>  <clusterid>
565

>  <is_centroid>
@

>  <class1>
625

>  <class2>
648

>  <population1>
877209

>  <population2>
19152

>  <population>
19152

>  <cansmi>
Cc1ccc(c(c1)C)C(=O)Cn1cnc2c(c1=O)cccc2

>  <HBA2>
4

>  <HBD>
0

>  <logP>
2.8962

>  <TPSA>
51.96

>  <MW>
292.332

$$$$

 OpenBabel02121609142D

 20 22  0  0  0  0  0  0  0  0999 V2000
   -0.7708   -1.3542    0.0000 C   0  0  0  0  0  0  0  0  0  0  0  0
    0.4667    2.4583    0.0000 C   0  0  0  0  0  0  0  0  0  0  0  0
    1.4167    2.7583    0.0000 N   0  0  0  0  0  0  0  0  0  0  0  0
    1.4167    3.7583    0.0000 N   0  0  0  0  0  0  0  0  0  0  0  0
   -0.0958   -2.1000    0.0000 N   0  0  0  0  0  0  0  0  0  0  0  0
   -0.1208    3.2583    0.0000 O   0  0  0  0  0  0  0  0  0  0  0  0
    0.4667    4.0625    0.0000 C   0  0  0  0  0  0  0  0  0  0  0  0
   -0.4583   -0.4042    0.0000 C   0  0  0  0  0  0  0  0  0  0  0  0
    0.1625    1.4958    0.0000 C   0  0  0  0  0  0  0  0  0  0  0  0
   -1.7458   -1.5625    0.0000 O   0  0  0  0  0  0  0  0  0  0  0  0
   -1.1250    0.3375    0.0000 C   0  0  0  0  0  0  0  0  0  0  0  0
    0.5167   -0.1917    0.0000 C   0  0  0  0  0  0  0  0  0  0  0  0
    0.8292    0.7583    0.0000 C   0  0  0  0  0  0  0  0  0  0  0  0
   -0.8208    1.2875    0.0000 C   0  0  0  0  0  0  0  0  0  0  0  0
    0.8625   -1.8167    0.0000 C   0  0  0  0  0  0  0  0  0  0  0  0
   -0.4750   -3.0250    0.0000 C   0  0  0  0  0  0  0  0  0  0  0  0
    0.0125   -3.9000    0.0000 C   0  0  0  0  0  0  0  0  0  0  0  0
    1.6792   -2.3917    0.0000 C   0  0  0  0  0  0  0  0  0  0  0  0
    1.7417   -3.3917    0.0000 C   0  0  0  0  0  0  0  0  0  0  0  0
    0.9917   -4.0625    0.0000 C   0  0  0  0  0  0  0  0  0  0  0  0
  2  9  1  0  0  0  0
  3  2  2  0  0  0  0
  4  3  1  0  0  0  0
  4  7  2  0  0  0  0
  5  1  1  0  0  0  0
  6  2  1  0  0  0  0
  7  6  1  0  0  0  0
  8  1  1  0  0  0  0
  9 13  1  0  0  0  0
 10  1  2  0  0  0  0
 11  8  2  0  0  0  0
 12  8  1  0  0  0  0
 13 12  2  0  0  0  0
 14 11  1  0  0  0  0
 14  9  2  0  0  0  0
 15  5  1  0  0  0  0
 16  5  1  0  0  0  0
 17 16  1  0  0  0  0
 18 15  1  0  0  0  0
 19 18  1  0  0  0  0
 20 17  1  0  0  0  0
 20 19  1  0  0  0  0
M  END
>  <idnumber>
T5599929

>  <LogP>
8.860000000000005e-001

>  <rotating_bonds>
2.000000000000000e+000

>  <hb_acceptors>
3.000000000000000e+000

>  <hb_donors>
0.000000000000000e+000

>  <PSA>
5.923000000000000e+001

>  <clusterid>
-964

>  <is_centroid>
@

>  <class1>
702

>  <class2>
689

>  <class3>
625

>  <population1>
14026

>  <population2>
17264

>  <population3>
877209

>  <population>
142

>  <cansmi>
O=C(c1ccc(cc1)c1ocnn1)N1CCCCCC1

>  <HBA2>
5

>  <HBD>
0

>  <logP>
2.6907

>  <TPSA>
59.23

>  <MW>
271.314

$$$$

 OpenBabel02121609142D

 13 14  0  0  0  0  0  0  0  0999 V2000
    0.4292   -0.5000    0.0000 N   0  0  0  0  0  0  0  0  0  0  0  0
    1.2917    0.0000    0.0000 C   0  0  0  0  0  0  0  0  0  0  0  0
    0.4292    1.5000    0.0000 N   0  0  0  0  0  0  0  0  0  0  0  0
    1.2917    1.0000    0.0000 C   0  0  0  0  0  0  0  0  0  0  0  0
   -0.4333    0.0000    0.0000 C   0  0  0  0  0  0  0  0  0  0  0  0
   -0.4333    1.0000    0.0000 C   0  0  0  0  0  0  0  0  0  0  0  0
    2.1625   -0.5000    0.0000 O   0  0  0  0  0  0  0  0  0  0  0  0
    0.4292   -1.5000    0.0000 C   0  0  0  0  0  0  0  0  0  0  0  0
    2.1625    1.5000    0.0000 C   0  0  0  0  0  0  0  0  0  0  0  0
   -1.3000   -0.5000    0.0000 C   0  0  0  0  0  0  0  0  0  0  0  0
   -1.3000    1.5000    0.0000 C   0  0  0  0  0  0  0  0  0  0  0  0
   -2.1708    0.0000    0.0000 C   0  0  0  0  0  0  0  0  0  0  0  0
   -2.1708    1.0000    0.0000 C   0  0  0  0  0  0  0  0  0  0  0  0
  2  1  1  0  0  0  0
  3  6  1  0  0  0  0
  4  2  1  0  0  0  0
  4  3  2  0  0  0  0
  5  1  1  0  0  0  0
  6  5  2  0  0  0  0
  7  2  2  0  0  0  0
  8  1  1  0  0  0  0
  9  4  1  0  0  0  0
 10  5  1  0  0  0  0
 11  6  1  0  0  0  0
 11 13  2  0  0  0  0
 12 10  2  0  0  0  0
 13 12  1  0  0  0  0
M  END
>  <idnumber>
T5605041

>  <LogP>
1.020000000000000e+000

>  <rotating_bonds>
0.000000000000000e+000

>  <hb_acceptors>
2.000000000000000e+000

>  <hb_donors>
0.000000000000000e+000

>  <PSA>
3.267000000000000e+001

>  <clusterid>
-965

>  <is_centroid>
@

>  <class1>
802

>  <population1>
1299

>  <population>
1299

>  <cansmi>
Cc1nc2ccccc2n(c1=O)C

>  <HBA2>
3

>  <HBD>
0

>  <logP>
1.2419

>  <TPSA>
34.89

>  <MW>
174.199

$$$$

 OpenBabel02121609142D

 16 18  0  0  0  0  0  0  0  0999 V2000
    0.6917   -0.5250    0.0000 C   0  0  0  0  0  0  0  0  0  0  0  0
    1.2792   -1.3292    0.0000 C   0  0  0  0  0  0  0  0  0  0  0  0
    0.6917   -2.1417    0.0000 N   0  0  0  0  0  0  0  0  0  0  0  0
    1.0042    0.4250    0.0000 C   0  0  0  0  0  0  0  0  0  0  0  0
   -0.2583   -0.8292    0.0000 C   0  0  0  0  0  0  0  0  0  0  0  0
   -0.2583   -1.8292    0.0000 C   0  0  0  0  0  0  0  0  0  0  0  0
    0.3375    1.1708    0.0000 N   0  0  0  0  0  0  0  0  0  0  0  0
    0.6417    2.1208    0.0000 C   0  0  0  0  0  0  0  0  0  0  0  0
    1.3875    2.7875    0.0000 C   0  0  0  0  0  0  0  0  0  0  0  0
    0.4375    3.1083    0.0000 C   0  0  0  0  0  0  0  0  0  0  0  0
    1.9792    0.6333    0.0000 O   0  0  0  0  0  0  0  0  0  0  0  0
    1.0042   -3.0917    0.0000 C   0  0  0  0  0  0  0  0  0  0  0  0
   -1.1208   -0.3292    0.0000 C   0  0  0  0  0  0  0  0  0  0  0  0
   -1.1208   -2.3292    0.0000 C   0  0  0  0  0  0  0  0  0  0  0  0
   -1.9875   -0.8292    0.0000 C   0  0  0  0  0  0  0  0  0  0  0  0
   -1.9875   -1.8292    0.0000 C   0  0  0  0  0  0  0  0  0  0  0  0
  2  1  2  0  0  0  0
  3  2  1  0  0  0  0
  3  6  1  0  0  0  0
  4  1  1  0  0  0  0
  5  1  1  0  0  0  0
  6  5  2  0  0  0  0
  7  4  1  0  0  0  0
  8  7  1  0  0  0  0
  9  8  1  0  0  0  0
  9 10  1  0  0  0  0
 10  8  1  0  0  0  0
 11  4  2  0  0  0  0
 12  3  1  0  0  0  0
 13  5  1  0  0  0  0
 14  6  1  0  0  0  0
 14 16  2  0  0  0  0
 15 13  2  0  0  0  0
 16 15  1  0  0  0  0
M  END
>  <idnumber>
T5605555

>  <LogP>
1.951000000000000e+000

>  <rotating_bonds>
2.000000000000000e+000

>  <hb_acceptors>
1.000000000000000e+000

>  <hb_donors>
1.000000000000000e+000

>  <PSA>
3.403000000000000e+001

>  <clusterid>
566

>  <is_centroid>
@

>  <class1>
675

>  <class2>
748

>  <population1>
33654

>  <population2>
15713

>  <population>
742

>  <cansmi>
O=C(c1cn(c2c1cccc2)C)NC1CC1

>  <HBA2>
3

>  <HBD>
1

>  <logP>
2.4614

>  <TPSA>
34.03

>  <MW>
214.263

$$$$

 OpenBabel02121609142D

 16 17  0  0  0  0  0  0  0  0999 V2000
    0.0042    0.9958    0.0000 C   0  0  0  0  0  0  0  0  0  0  0  0
    0.3167    1.9458    0.0000 C   0  0  0  0  0  0  0  0  0  0  0  0
   -0.2708    2.7500    0.0000 N   0  0  0  0  0  0  0  0  0  0  0  0
    0.6750    0.2500    0.0000 N   0  0  0  0  0  0  0  0  0  0  0  0
    1.2667    2.2500    0.0000 C   0  0  0  0  0  0  0  0  0  0  0  0
    0.3167    3.5583    0.0000 C   0  0  0  0  0  0  0  0  0  0  0  0
    1.2667    3.2500    0.0000 C   0  0  0  0  0  0  0  0  0  0  0  0
   -0.9708    0.7833    0.0000 O   0  0  0  0  0  0  0  0  0  0  0  0
    0.3667   -0.7042    0.0000 C   0  0  0  0  0  0  0  0  0  0  0  0
   -0.2500   -2.6042    0.0000 C   0  0  0  0  0  0  0  0  0  0  0  0
    1.0375   -1.4417    0.0000 C   0  0  0  0  0  0  0  0  0  0  0  0
   -0.6125   -0.9125    0.0000 C   0  0  0  0  0  0  0  0  0  0  0  0
    0.7292   -2.3917    0.0000 C   0  0  0  0  0  0  0  0  0  0  0  0
   -0.9208   -1.8625    0.0000 C   0  0  0  0  0  0  0  0  0  0  0  0
   -1.2708    2.7500    0.0000 C   0  0  0  0  0  0  0  0  0  0  0  0
   -0.5583   -3.5542    0.0000 C   0  0  0  0  0  0  0  0  0  0  0  0
  2  1  1  0  0  0  0
  3  2  1  0  0  0  0
  4  1  1  0  0  0  0
  5  2  2  0  0  0  0
  6  3  1  0  0  0  0
  7  5  1  0  0  0  0
  7  6  2  0  0  0  0
  8  1  2  0  0  0  0
  9  4  1  0  0  0  0
 10 14  2  0  0  0  0
 10 13  1  0  0  0  0
 11  9  1  0  0  0  0
 12  9  2  0  0  0  0
 13 11  2  0  0  0  0
 14 12  1  0  0  0  0
 15  3  1  0  0  0  0
 16 10  1  0  0  0  0
M  END
>  <idnumber>
T5606167

>  <LogP>
2.841000000000000e+000

>  <rotating_bonds>
2.000000000000000e+000

>  <hb_acceptors>
1.000000000000000e+000

>  <hb_donors>
1.000000000000000e+000

>  <PSA>
3.403000000000000e+001

>  <clusterid>
-966

>  <is_centroid>
@

>  <class1>
625

>  <class2>
635

>  <population1>
877209

>  <population2>
31512

>  <population>
24537

>  <cansmi>
Cc1ccc(cc1)NC(=O)c1cccn1C

>  <HBA2>
3

>  <HBD>
1

>  <logP>
2.6588

>  <TPSA>
34.03

>  <MW>
214.263

$$$$

 OpenBabel02121609142D

 11 11  0  0  0  0  0  0  0  0999 V2000
    0.4667   -0.5000    0.0000 C   0  0  0  0  0  0  0  0  0  0  0  0
   -0.4833    0.8125    0.0000 S   0  0  0  0  0  0  0  0  0  0  0  0
    0.4667    0.5083    0.0000 C   0  0  0  0  0  0  0  0  0  0  0  0
   -1.0708    0.0000    0.0000 C   0  0  0  0  0  0  0  0  0  0  0  0
   -0.4833   -0.8042    0.0000 C   0  0  0  0  0  0  0  0  0  0  0  0
    1.3292   -1.0000    0.0000 C   0  0  0  0  0  0  0  0  0  0  0  0
    1.3292    1.0000    0.0000 C   0  0  0  0  0  0  0  0  0  0  0  0
    2.1917   -0.5000    0.0000 C   0  0  0  0  0  0  0  0  0  0  0  0
    3.0667   -1.0000    0.0000 N   0  0  0  0  0  0  0  0  0  0  0  0
    2.1917    0.5083    0.0000 C   0  0  0  0  0  0  0  0  0  0  0  0
   -3.0708   -0.0917    0.0000 Cl  0  0  0  0  0  0  0  0  0  0  0  0
  2  3  1  0  0  0  0
  2  4  1  0  0  0  0
  3  1  2  0  0  0  0
  4  5  2  0  0  0  0
  5  1  1  0  0  0  0
  6  1  1  0  0  0  0
  7  3  1  0  0  0  0
  8  6  2  0  0  0  0
  9  8  1  0  0  0  0
 10  8  1  0  0  0  0
 10  7  2  0  0  0  0
M  END
>  <idnumber>
T5607874

>  <LogP>
2.095000000000000e+000

>  <rotating_bonds>
0.000000000000000e+000

>  <hb_acceptors>
2.000000000000000e+000

>  <hb_donors>
1.000000000000000e+000

>  <PSA>
5.426000000000001e+001

>  <clusterid>
-969

>  <is_centroid>
@

>  <class1>
825

>  <population1>
3362

>  <population>
3362

>  <cansmi>
Nc1ccc2c(c1)ccs2.Cl

>  <HBA2>
2

>  <HBD>
2

>  <logP>
3.8667

>  <TPSA>
54.26

>  <MW>
185.674

$$$$

 OpenBabel02121609142D

 16 18  0  0  0  0  0  0  0  0999 V2000
   -0.9583   -0.8042    0.0000 N   0  0  0  0  0  0  0  0  0  0  0  0
   -1.9083    0.5000    0.0000 N   0  0  0  0  0  0  0  0  0  0  0  0
   -1.9083   -0.5000    0.0000 C   0  0  0  0  0  0  0  0  0  0  0  0
   -0.3708    0.0000    0.0000 C   0  0  0  0  0  0  0  0  0  0  0  0
   -0.9583    0.8125    0.0000 C   0  0  0  0  0  0  0  0  0  0  0  0
    0.6292    0.0000    0.0000 C   0  0  0  0  0  0  0  0  0  0  0  0
   -2.7708    1.0000    0.0000 C   0  0  0  0  0  0  0  0  0  0  0  0
   -2.7708   -1.0000    0.0000 C   0  0  0  0  0  0  0  0  0  0  0  0
   -3.6375    0.5000    0.0000 C   0  0  0  0  0  0  0  0  0  0  0  0
   -3.6375   -0.5000    0.0000 C   0  0  0  0  0  0  0  0  0  0  0  0
    1.1292   -0.8625    0.0000 C   0  0  0  0  0  0  0  0  0  0  0  0
    1.1292    0.8708    0.0000 C   0  0  0  0  0  0  0  0  0  0  0  0
    2.6292    0.0000    0.0000 C   0  0  0  0  0  0  0  0  0  0  0  0
    3.6292    0.0000    0.0000 N   0  0  0  0  0  0  0  0  0  0  0  0
    2.1292   -0.8625    0.0000 C   0  0  0  0  0  0  0  0  0  0  0  0
    2.1292    0.8708    0.0000 C   0  0  0  0  0  0  0  0  0  0  0  0
  2  3  1  0  0  0  0
  3  1  2  0  0  0  0
  4  1  1  0  0  0  0
  5  4  2  0  0  0  0
  5  2  1  0  0  0  0
  6  4  1  0  0  0  0
  7  2  1  0  0  0  0
  7  9  2  0  0  0  0
  8  3  1  0  0  0  0
  9 10  1  0  0  0  0
 10  8  2  0  0  0  0
 11  6  2  0  0  0  0
 12  6  1  0  0  0  0
 13 16  1  0  0  0  0
 14 13  1  0  0  0  0
 15 11  1  0  0  0  0
 15 13  2  0  0  0  0
 16 12  2  0  0  0  0
M  END
>  <idnumber>
T5607896

>  <LogP>
2.259000000000000e+000

>  <rotating_bonds>
1.000000000000000e+000

>  <hb_acceptors>
3.000000000000000e+000

>  <hb_donors>
1.000000000000000e+000

>  <PSA>
4.332000000000000e+001

>  <clusterid>
150

>  <is_centroid>
@

>  <class1>
660

>  <class2>
625

>  <population1>
3949

>  <population2>
877209

>  <population>
3187

>  <cansmi>
Nc1ccc(cc1)c1nc2n(c1)cccc2

>  <HBA2>
3

>  <HBD>
1

>  <logP>
3.1647

>  <TPSA>
43.32

>  <MW>
209.247

$$$$

 OpenBabel02121609142D

 13 15  0  0  0  0  0  0  0  0999 V2000
    0.6000   -0.0792    0.0000 C   0  0  0  0  0  0  0  0  0  0  0  0
    0.6000    0.9208    0.0000 C   0  0  0  0  0  0  0  0  0  0  0  0
   -0.3500    1.2250    0.0000 N   0  0  0  0  0  0  0  0  0  0  0  0
   -0.3500   -0.3917    0.0000 C   0  0  0  0  0  0  0  0  0  0  0  0
   -0.9375    0.4208    0.0000 C   0  0  0  0  0  0  0  0  0  0  0  0
    2.3292   -0.0792    0.0000 N   0  0  0  0  0  0  0  0  0  0  0  0
    1.4667   -0.5792    0.0000 C   0  0  0  0  0  0  0  0  0  0  0  0
    1.4667    1.4208    0.0000 C   0  0  0  0  0  0  0  0  0  0  0  0
   -0.7583   -1.3042    0.0000 C   0  0  0  0  0  0  0  0  0  0  0  0
    2.3292    0.9208    0.0000 C   0  0  0  0  0  0  0  0  0  0  0  0
   -1.9333    0.3125    0.0000 C   0  0  0  0  0  0  0  0  0  0  0  0
   -1.7500   -1.4125    0.0000 C   0  0  0  0  0  0  0  0  0  0  0  0
   -2.3375   -0.6042    0.0000 C   0  0  0  0  0  0  0  0  0  0  0  0
  2  1  2  0  0  0  0
  3  2  1  0  0  0  0
  3  5  1  0  0  0  0
  4  1  1  0  0  0  0
  5  4  2  0  0  0  0
  6  7  1  0  0  0  0
  7  1  1  0  0  0  0
  8  2  1  0  0  0  0
  9  4  1  0  0  0  0
 10  6  1  0  0  0  0
 10  8  1  0  0  0  0
 11  5  1  0  0  0  0
 11 13  2  0  0  0  0
 12  9  2  0  0  0  0
 13 12  1  0  0  0  0
M  END
>  <idnumber>
T5607919

>  <LogP>
1.585000000000000e+000

>  <rotating_bonds>
0.000000000000000e+000

>  <hb_acceptors>
1.000000000000000e+000

>  <hb_donors>
2.000000000000000e+000

>  <PSA>
2.782000000000000e+001

>  <clusterid>
-971

>  <is_centroid>
@

>  <class1>
749

>  <population1>
251

>  <population>
251

>  <cansmi>
C1NCc2c(C1)[nH]c1c2cccc1

>  <HBA2>
1

>  <HBD>
2

>  <logP>
2.1424

>  <TPSA>
27.82

>  <MW>
172.226

$$$$

 OpenBabel02121609142D

 17 18  0  0  0  0  0  0  0  0999 V2000
   -0.4333    0.7500    0.0000 C   0  0  0  0  0  0  0  0  0  0  0  0
   -1.3000    0.2583    0.0000 N   0  0  0  0  0  0  0  0  0  0  0  0
   -2.1708   -1.2500    0.0000 N   0  0  0  0  0  0  0  0  0  0  0  0
   -1.3000   -0.7500    0.0000 C   0  0  0  0  0  0  0  0  0  0  0  0
    0.4292    2.2500    0.0000 N   0  0  0  0  0  0  0  0  0  0  0  0
   -0.4333    1.7500    0.0000 C   0  0  0  0  0  0  0  0  0  0  0  0
    0.4292    0.2583    0.0000 O   0  0  0  0  0  0  0  0  0  0  0  0
   -2.1708   -2.2500    0.0000 C   0  0  0  0  0  0  0  0  0  0  0  0
   -1.3000   -2.7500    0.0000 C   0  0  0  0  0  0  0  0  0  0  0  0
   -0.4333   -1.2500    0.0000 C   0  0  0  0  0  0  0  0  0  0  0  0
   -1.3000   -3.7500    0.0000 Br  0  0  0  0  0  0  0  0  0  0  0  0
   -0.4333   -2.2500    0.0000 C   0  0  0  0  0  0  0  0  0  0  0  0
    1.2917    1.7500    0.0000 C   0  0  0  0  0  0  0  0  0  0  0  0
    0.4292    3.2500    0.0000 C   0  0  0  0  0  0  0  0  0  0  0  0
    1.2917    3.7500    0.0000 C   0  0  0  0  0  0  0  0  0  0  0  0
    2.1625    2.2500    0.0000 C   0  0  0  0  0  0  0  0  0  0  0  0
    2.1625    3.2500    0.0000 C   0  0  0  0  0  0  0  0  0  0  0  0
  2  1  1  0  0  0  0
  3  4  2  0  0  0  0
  4  2  1  0  0  0  0
  5  6  1  0  0  0  0
  6  1  1  0  0  0  0
  7  1  2  0  0  0  0
  8  3  1  0  0  0  0
  8  9  2  0  0  0  0
  9 12  1  0  0  0  0
 10  4  1  0  0  0  0
 11  9  1  0  0  0  0
 12 10  2  0  0  0  0
 13  5  1  0  0  0  0
 14  5  1  0  0  0  0
 15 14  1  0  0  0  0
 16 13  1  0  0  0  0
 16 17  1  0  0  0  0
 17 15  1  0  0  0  0
M  END
>  <idnumber>
T5609778

>  <LogP>
2.815999999999999e+000

>  <rotating_bonds>
3.000000000000000e+000

>  <hb_acceptors>
3.000000000000000e+000

>  <hb_donors>
1.000000000000000e+000

>  <PSA>
4.523000000000000e+001

>  <clusterid>
-974

>  <is_centroid>
@

>  <class1>
639

>  <class2>
632

>  <population1>
59855

>  <population2>
79489

>  <population>
3637

>  <cansmi>
O=C(Nc1ccc(cn1)Br)CN1CCCCC1

>  <HBA2>
4

>  <HBD>
1

>  <logP>
2.2794

>  <TPSA>
45.23

>  <MW>
298.179

$$$$

 OpenBabel02121609142D

 16 17  0  0  0  0  0  0  0  0999 V2000
    0.7292   -0.0417    0.0000 N   0  0  0  0  0  0  0  0  0  0  0  0
   -0.2708   -0.0417    0.0000 C   0  0  0  0  0  0  0  0  0  0  0  0
    1.3167   -0.8542    0.0000 C   0  0  3  0  0  0  0  0  0  0  0  0
    1.0042   -1.8042    0.0000 C   0  0  0  0  0  0  0  0  0  0  0  0
   -0.7708   -0.9125    0.0000 O   0  0  0  0  0  0  0  0  0  0  0  0
   -0.7708    0.8208    0.0000 C   0  0  0  0  0  0  0  0  0  0  0  0
    1.6750   -2.5500    0.0000 O   0  0  0  0  0  0  0  0  0  0  0  0
    1.3167    0.7625    0.0000 C   0  0  0  0  0  0  0  0  0  0  0  0
    0.0292   -2.0125    0.0000 O   0  0  0  0  0  0  0  0  0  0  0  0
    2.2667   -0.5417    0.0000 C   0  0  0  0  0  0  0  0  0  0  0  0
    2.2667    0.4583    0.0000 C   0  0  0  0  0  0  0  0  0  0  0  0
   -0.2708    1.6875    0.0000 C   0  0  0  0  0  0  0  0  0  0  0  0
   -1.7708    0.8208    0.0000 C   0  0  0  0  0  0  0  0  0  0  0  0
   -2.2708    1.6875    0.0000 C   0  0  0  0  0  0  0  0  0  0  0  0
   -0.7708    2.5583    0.0000 C   0  0  0  0  0  0  0  0  0  0  0  0
   -1.7708    2.5583    0.0000 C   0  0  0  0  0  0  0  0  0  0  0  0
  2  1  1  0  0  0  0
  3  1  1  0  0  0  0
  4  3  1  0  0  0  0
  5  2  2  0  0  0  0
  6  2  1  0  0  0  0
  7  4  2  0  0  0  0
  8  1  1  0  0  0  0
  9  4  1  0  0  0  0
 10  3  1  0  0  0  0
 10 11  1  0  0  0  0
 11  8  1  0  0  0  0
 12  6  1  0  0  0  0
 13  6  1  0  0  0  0
 14 13  1  0  0  0  0
 15 12  1  0  0  0  0
 15 16  1  0  0  0  0
 16 14  1  0  0  0  0
M  END
>  <idnumber>
T5609859

>  <LogP>
1.664000000000000e+000

>  <rotating_bonds>
2.000000000000000e+000

>  <hb_acceptors>
3.000000000000000e+000

>  <hb_donors>
1.000000000000000e+000

>  <PSA>
5.761000000000000e+001

>  <clusterid>
225

>  <is_centroid>
@

>  <class1>
642

>  <class2>
797

>  <population1>
51183

>  <population2>
40410

>  <population>
2730

>  <cansmi>
OC(=O)C1CCCN1C(=O)C1CCCCC1

>  <HBA2>
4

>  <HBD>
1

>  <logP>
1.5802

>  <TPSA>
57.61

>  <MW>
225.284

$$$$

 OpenBabel02121609142D

 17 18  0  0  0  0  0  0  0  0999 V2000
   -0.8708   -0.2500    0.0000 C   0  0  0  0  0  0  0  0  0  0  0  0
    0.0000    0.2500    0.0000 C   0  0  0  0  0  0  0  0  0  0  0  0
    0.8625   -0.2500    0.0000 N   0  0  0  0  0  0  0  0  0  0  0  0
   -0.8708   -1.2500    0.0000 C   0  0  0  0  0  0  0  0  0  0  0  0
   -1.7333   -1.7500    0.0000 N   0  0  0  0  0  0  0  0  0  0  0  0
   -1.7333    0.2500    0.0000 C   0  0  0  0  0  0  0  0  0  0  0  0
   -2.6000   -1.2500    0.0000 C   0  0  0  0  0  0  0  0  0  0  0  0
   -2.6000   -0.2500    0.0000 C   0  0  0  0  0  0  0  0  0  0  0  0
    1.7292    0.2500    0.0000 C   0  0  0  0  0  0  0  0  0  0  0  0
    0.0000    1.2500    0.0000 O   0  0  0  0  0  0  0  0  0  0  0  0
   -3.4708   -1.7500    0.0000 O   0  0  0  0  0  0  0  0  0  0  0  0
    2.5917   -0.2500    0.0000 C   0  0  0  0  0  0  0  0  0  0  0  0
    1.7292    1.2500    0.0000 C   0  0  0  0  0  0  0  0  0  0  0  0
    2.5917   -1.2500    0.0000 C   0  0  0  0  0  0  0  0  0  0  0  0
    3.4625    0.2500    0.0000 C   0  0  0  0  0  0  0  0  0  0  0  0
    2.5917    1.7500    0.0000 C   0  0  0  0  0  0  0  0  0  0  0  0
    3.4625    1.2500    0.0000 C   0  0  0  0  0  0  0  0  0  0  0  0
  2  1  1  0  0  0  0
  3  2  1  0  0  0  0
  4  1  2  0  0  0  0
  5  4  1  0  0  0  0
  5  7  1  0  0  0  0
  6  1  1  0  0  0  0
  7  8  1  0  0  0  0
  8  6  2  0  0  0  0
  9  3  1  0  0  0  0
 10  2  2  0  0  0  0
 11  7  2  0  0  0  0
 12  9  2  0  0  0  0
 13  9  1  0  0  0  0
 14 12  1  0  0  0  0
 15 12  1  0  0  0  0
 15 17  2  0  0  0  0
 16 13  2  0  0  0  0
 17 16  1  0  0  0  0
M  END
>  <idnumber>
T5612753

>  <LogP>
2.085000000000000e+000

>  <rotating_bonds>
2.000000000000000e+000

>  <hb_acceptors>
2.000000000000000e+000

>  <hb_donors>
2.000000000000000e+000

>  <PSA>
5.820000000000000e+001

>  <clusterid>
25

>  <is_centroid>
@

>  <class1>
625

>  <class2>
696

>  <population1>
877209

>  <population2>
4759

>  <population>
3770

>  <cansmi>
O=C(c1ccc(=O)[nH]c1)Nc1ccccc1C

>  <HBA2>
3

>  <HBD>
2

>  <logP>
2.0086

>  <TPSA>
61.96

>  <MW>
228.247

$$$$

 OpenBabel02121609142D

 19 21  0  0  0  0  0  0  0  0999 V2000
    1.2917   -0.2500    0.0000 N   0  0  0  0  0  0  0  0  0  0  0  0
    2.1625    0.2583    0.0000 C   0  0  0  0  0  0  0  0  0  0  0  0
   -0.4333   -0.2500    0.0000 C   0  0  0  0  0  0  0  0  0  0  0  0
   -1.3000    0.2583    0.0000 C   0  0  0  0  0  0  0  0  0  0  0  0
    0.4292    0.2583    0.0000 C   0  0  0  0  0  0  0  0  0  0  0  0
    3.0292   -0.2500    0.0000 C   0  0  0  0  0  0  0  0  0  0  0  0
   -3.0333   -1.7500    0.0000 N   0  0  0  0  0  0  0  0  0  0  0  0
    2.1625    1.2583    0.0000 C   0  0  0  0  0  0  0  0  0  0  0  0
    1.2917    1.7500    0.0000 C   0  0  0  0  0  0  0  0  0  0  0  0
   -2.1708   -0.2500    0.0000 C   0  0  0  0  0  0  0  0  0  0  0  0
    0.4292    1.2583    0.0000 C   0  0  0  0  0  0  0  0  0  0  0  0
    3.0292   -1.2500    0.0000 O   0  0  0  0  0  0  0  0  0  0  0  0
   -2.1708   -1.2500    0.0000 C   0  0  0  0  0  0  0  0  0  0  0  0
    3.8917    1.2583    0.0000 C   0  0  0  0  0  0  0  0  0  0  0  0
    3.8917    0.2583    0.0000 C   0  0  0  0  0  0  0  0  0  0  0  0
   -3.9000   -1.2500    0.0000 C   0  0  0  0  0  0  0  0  0  0  0  0
    3.0292    1.7500    0.0000 C   0  0  0  0  0  0  0  0  0  0  0  0
   -3.0333    0.2583    0.0000 C   0  0  0  0  0  0  0  0  0  0  0  0
   -3.9000   -0.2500    0.0000 C   0  0  0  0  0  0  0  0  0  0  0  0
  2  1  1  0  0  0  0
  3  5  1  0  0  0  0
  4  3  2  0  0  0  0
  5  1  2  0  0  0  0
  6  2  2  0  0  0  0
  7 13  1  0  0  0  0
  7 16  2  0  0  0  0
  8  2  1  0  0  0  0
  8  9  1  0  0  0  0
  9 11  2  0  0  0  0
 10  4  1  0  0  0  0
 11  5  1  0  0  0  0
 12  6  1  0  0  0  0
 13 10  2  0  0  0  0
 14 17  1  0  0  0  0
 15  6  1  0  0  0  0
 15 14  2  0  0  0  0
 16 19  1  0  0  0  0
 17  8  2  0  0  0  0
 18 10  1  0  0  0  0
 19 18  2  0  0  0  0
M  END
>  <idnumber>
T5612946

>  <LogP>
2.871999999999999e+000

>  <rotating_bonds>
2.000000000000000e+000

>  <hb_acceptors>
3.000000000000000e+000

>  <hb_donors>
1.000000000000000e+000

>  <PSA>
4.601000000000000e+001

>  <clusterid>
-975

>  <is_centroid>
@

>  <class1>
632

>  <class2>
682

>  <population1>
79489

>  <population2>
20351

>  <population>
20351

>  <cansmi>
Oc1cccc2c1nc(/C=C/c1cccnc1)cc2

>  <HBA2>
3

>  <HBD>
1

>  <logP>
3.5058

>  <TPSA>
46.01

>  <MW>
248.279

$$$$

 OpenBabel02121609142D

 20 22  0  0  0  0  0  0  0  0999 V2000
   -0.8708   -2.0000    0.0000 C   0  0  0  0  0  0  0  0  0  0  0  0
   -0.8708   -1.0000    0.0000 N   0  0  0  0  0  0  0  0  0  0  0  0
   -0.8708    1.0000    0.0000 N   0  0  0  0  0  0  0  0  0  0  0  0
   -0.8708    2.0000    0.0000 C   0  0  0  0  0  0  0  0  0  0  0  0
   -1.7333    2.5000    0.0000 N   0  0  0  0  0  0  0  0  0  0  0  0
    0.0000   -0.5000    0.0000 C   0  0  0  0  0  0  0  0  0  0  0  0
   -1.7333   -0.5000    0.0000 C   0  0  0  0  0  0  0  0  0  0  0  0
   -1.7333    0.5000    0.0000 C   0  0  0  0  0  0  0  0  0  0  0  0
    0.0000    0.5000    0.0000 C   0  0  0  0  0  0  0  0  0  0  0  0
   -1.7333   -2.5000    0.0000 O   0  0  0  0  0  0  0  0  0  0  0  0
    0.0000   -2.5000    0.0000 C   0  0  0  0  0  0  0  0  0  0  0  0
    0.0000    2.5000    0.0000 C   0  0  0  0  0  0  0  0  0  0  0  0
   -1.7333    3.5000    0.0000 C   0  0  0  0  0  0  0  0  0  0  0  0
    0.0000   -3.4917    0.0000 C   0  0  0  0  0  0  0  0  0  0  0  0
    0.8625   -2.0000    0.0000 C   0  0  0  0  0  0  0  0  0  0  0  0
    0.0000    3.5000    0.0000 C   0  0  0  0  0  0  0  0  0  0  0  0
   -0.8708    4.0000    0.0000 C   0  0  0  0  0  0  0  0  0  0  0  0
    1.7292   -2.5000    0.0000 C   0  0  0  0  0  0  0  0  0  0  0  0
    0.8625   -3.9917    0.0000 C   0  0  0  0  0  0  0  0  0  0  0  0
    1.7292   -3.4917    0.0000 C   0  0  0  0  0  0  0  0  0  0  0  0
  2  1  1  0  0  0  0
  3  8  1  0  0  0  0
  4  3  1  0  0  0  0
  5  4  2  0  0  0  0
  6  2  1  0  0  0  0
  7  2  1  0  0  0  0
  8  7  1  0  0  0  0
  9  6  1  0  0  0  0
  9  3  1  0  0  0  0
 10  1  2  0  0  0  0
 11  1  1  0  0  0  0
 12  4  1  0  0  0  0
 13  5  1  0  0  0  0
 13 17  2  0  0  0  0
 14 11  1  0  0  0  0
 15 11  2  0  0  0  0
 16 12  2  0  0  0  0
 17 16  1  0  0  0  0
 18 15  1  0  0  0  0
 19 14  2  0  0  0  0
 19 20  1  0  0  0  0
 20 18  2  0  0  0  0
M  END
>  <idnumber>
T5614519

>  <LogP>
9.980000000000000e-001

>  <rotating_bonds>
2.000000000000000e+000

>  <hb_acceptors>
3.000000000000000e+000

>  <hb_donors>
0.000000000000000e+000

>  <PSA>
3.644000000000000e+001

>  <clusterid>
511

>  <is_centroid>
@

>  <class1>
717

>  <class2>
632

>  <class3>
625

>  <population1>
74368

>  <population2>
79489

>  <population3>
877209

>  <population>
5587

>  <cansmi>
O=C(c1ccccc1)N1CCN(CC1)c1ccccn1

>  <HBA2>
4

>  <HBD>
0

>  <logP>
2.0469

>  <TPSA>
36.44

>  <MW>
267.326

$$$$

 OpenBabel02121609142D

 20 23  0  0  0  0  0  0  0  0999 V2000
    0.1417    1.9625    0.0000 N   0  0  0  0  0  0  0  0  0  0  0  0
   -0.7208    2.4625    0.0000 C   0  0  0  0  0  0  0  0  0  0  0  0
    2.5042   -1.6542    0.0000 C   0  0  3  0  0  0  0  0  0  0  0  0
    0.1417    0.9625    0.0000 C   0  0  3  0  0  0  0  0  0  0  0  0
    2.0917   -0.7417    0.0000 C   0  0  0  0  0  0  0  0  0  0  0  0
   -0.7208    0.4625    0.0000 N   0  0  0  0  0  0  0  0  0  0  0  0
    3.3125   -2.2417    0.0000 C   0  0  0  0  0  0  0  0  0  0  0  0
    1.0125    0.4625    0.0000 C   0  0  0  0  0  0  0  0  0  0  0  0
    1.1167   -0.5292    0.0000 O   0  0  0  0  0  0  0  0  0  0  0  0
   -1.5833    1.9625    0.0000 C   0  0  0  0  0  0  0  0  0  0  0  0
    2.4000   -2.6500    0.0000 C   0  0  3  0  0  0  0  0  0  0  0  0
   -1.5833    0.9625    0.0000 C   0  0  0  0  0  0  0  0  0  0  0  0
    2.5917    0.1250    0.0000 C   0  0  0  0  0  0  0  0  0  0  0  0
    1.9292    0.8708    0.0000 C   0  0  0  0  0  0  0  0  0  0  0  0
   -0.7208    3.4625    0.0000 O   0  0  0  0  0  0  0  0  0  0  0  0
   -2.4500    2.4625    0.0000 C   0  0  0  0  0  0  0  0  0  0  0  0
    1.8125   -3.4542    0.0000 C   0  0  0  0  0  0  0  0  0  0  0  0
   -2.4500    0.4625    0.0000 C   0  0  0  0  0  0  0  0  0  0  0  0
   -3.3208    1.9625    0.0000 C   0  0  0  0  0  0  0  0  0  0  0  0
   -3.3208    0.9625    0.0000 C   0  0  0  0  0  0  0  0  0  0  0  0
  2  1  1  0  0  0  0
  3  5  1  0  0  0  0
  4  1  1  0  0  0  0
  5  9  1  0  0  0  0
  5 13  2  0  0  0  0
  6  4  1  0  0  0  0
  7  3  1  0  0  0  0
  8  4  1  0  0  0  0
  9  8  1  0  0  0  0
 10  2  1  0  0  0  0
 10 12  2  0  0  0  0
 11  3  1  0  0  0  0
 11  7  1  0  0  0  0
 12  6  1  0  0  0  0
 13 14  1  0  0  0  0
 14  8  2  0  0  0  0
 15  2  2  0  0  0  0
 16 10  1  0  0  0  0
 17 11  1  0  0  0  0
 18 12  1  0  0  0  0
 19 16  2  0  0  0  0
 19 20  1  0  0  0  0
 20 18  2  0  0  0  0
M  END
>  <idnumber>
T5616439

>  <LogP>
2.958000000000000e+000

>  <rotating_bonds>
2.000000000000000e+000

>  <hb_acceptors>
2.000000000000000e+000

>  <hb_donors>
2.000000000000000e+000

>  <PSA>
5.427000000000000e+001

>  <clusterid>
-984

>  <is_centroid>
@

>  <class1>
697

>  <class2>
675

>  <class3>
704

>  <population1>
4727

>  <population2>
33654

>  <population3>
51112

>  <population>
14

>  <cansmi>
CC1CC1c1ccc(o1)C1NC(=O)c2c(N1)cccc2

>  <HBA2>
4

>  <HBD>
2

>  <logP>
3.7239

>  <TPSA>
54.27

>  <MW>
268.31

$$$$

 OpenBabel02121609142D

 20 22  0  0  0  0  0  0  0  0999 V2000
   -0.4333    1.0000    0.0000 N   0  0  0  0  0  0  0  0  0  0  0  0
    0.4292    0.5000    0.0000 C   0  0  0  0  0  0  0  0  0  0  0  0
   -1.3000    0.5000    0.0000 C   0  0  0  0  0  0  0  0  0  0  0  0
    1.2917   -1.0000    0.0000 N   0  0  0  0  0  0  0  0  0  0  0  0
    3.0292   -2.0000    0.0000 N   0  0  0  0  0  0  0  0  0  0  0  0
    0.4292   -0.5000    0.0000 C   0  0  0  0  0  0  0  0  0  0  0  0
   -2.1708    1.0000    0.0000 C   0  0  0  0  0  0  0  0  0  0  0  0
   -0.4333    2.0000    0.0000 C   0  0  0  0  0  0  0  0  0  0  0  0
    1.2917    1.0000    0.0000 O   0  0  0  0  0  0  0  0  0  0  0  0
   -2.1708    2.0000    0.0000 C   0  0  0  0  0  0  0  0  0  0  0  0
   -1.3000    2.5000    0.0000 C   0  0  0  0  0  0  0  0  0  0  0  0
    2.1625   -0.5000    0.0000 C   0  0  0  0  0  0  0  0  0  0  0  0
    1.2917   -2.0000    0.0000 C   0  0  0  0  0  0  0  0  0  0  0  0
    3.0292   -1.0000    0.0000 C   0  0  0  0  0  0  0  0  0  0  0  0
    2.1625   -2.5000    0.0000 C   0  0  0  0  0  0  0  0  0  0  0  0
    3.8917   -2.5000    0.0000 C   0  0  0  0  0  0  0  0  0  0  0  0
   -3.0333    0.5000    0.0000 C   0  0  0  0  0  0  0  0  0  0  0  0
   -3.0333    2.5000    0.0000 C   0  0  0  0  0  0  0  0  0  0  0  0
   -3.9000    1.0000    0.0000 C   0  0  0  0  0  0  0  0  0  0  0  0
   -3.9000    2.0000    0.0000 C   0  0  0  0  0  0  0  0  0  0  0  0
  2  1  1  0  0  0  0
  3  1  1  0  0  0  0
  4  6  1  0  0  0  0
  5 15  1  0  0  0  0
  5 14  1  0  0  0  0
  6  2  1  0  0  0  0
  7  3  1  0  0  0  0
  7 10  2  0  0  0  0
  8  1  1  0  0  0  0
  9  2  2  0  0  0  0
 10 11  1  0  0  0  0
 11  8  1  0  0  0  0
 12  4  1  0  0  0  0
 13  4  1  0  0  0  0
 14 12  1  0  0  0  0
 15 13  1  0  0  0  0
 16  5  1  0  0  0  0
 17  7  1  0  0  0  0
 18 10  1  0  0  0  0
 19 17  2  0  0  0  0
 20 18  2  0  0  0  0
 20 19  1  0  0  0  0
M  END
>  <idnumber>
T5617097

>  <LogP>
5.660000000000001e-001

>  <rotating_bonds>
2.000000000000000e+000

>  <hb_acceptors>
3.000000000000000e+000

>  <hb_donors>
0.000000000000000e+000

>  <PSA>
2.679000000000000e+001

>  <clusterid>
-985

>  <is_centroid>
@

>  <class1>
717

>  <class2>
750

>  <population1>
74368

>  <population2>
7929

>  <population>
171

>  <cansmi>
CN1CCN(CC1)CC(=O)N1CCc2c(C1)cccc2

>  <HBA2>
4

>  <HBD>
0

>  <logP>
0.6324

>  <TPSA>
26.79

>  <MW>
273.373

$$$$

 OpenBabel02121609142D

 20 22  0  0  0  0  0  0  0  0999 V2000
    0.4292    1.2500    0.0000 N   0  0  0  0  0  0  0  0  0  0  0  0
    0.4292    0.2500    0.0000 C   0  0  0  0  0  0  0  0  0  0  0  0
    0.4292    3.2500    0.0000 N   0  0  0  0  0  0  0  0  0  0  0  0
   -0.4333    1.7583    0.0000 C   0  0  0  0  0  0  0  0  0  0  0  0
    1.2917    2.7500    0.0000 C   0  0  0  0  0  0  0  0  0  0  0  0
   -0.4333    2.7500    0.0000 C   0  0  0  0  0  0  0  0  0  0  0  0
    1.2917    1.7500    0.0000 C   0  0  0  0  0  0  0  0  0  0  0  0
    1.2917   -0.2500    0.0000 C   0  0  0  0  0  0  0  0  0  0  0  0
   -0.4333   -0.2417    0.0000 O   0  0  0  0  0  0  0  0  0  0  0  0
    2.1625    3.2500    0.0000 O   0  0  0  0  0  0  0  0  0  0  0  0
    1.2917   -1.2500    0.0000 C   0  0  0  0  0  0  0  0  0  0  0  0
   -1.3000    1.2500    0.0000 C   0  0  0  0  0  0  0  0  0  0  0  0
   -1.3000    3.2500    0.0000 C   0  0  0  0  0  0  0  0  0  0  0  0
    2.1625   -1.7500    0.0000 C   0  0  0  0  0  0  0  0  0  0  0  0
    0.4292   -1.7500    0.0000 C   0  0  0  0  0  0  0  0  0  0  0  0
   -2.1708    1.7583    0.0000 C   0  0  0  0  0  0  0  0  0  0  0  0
   -2.1708    2.7500    0.0000 C   0  0  0  0  0  0  0  0  0  0  0  0
    0.4292   -2.7500    0.0000 C   0  0  0  0  0  0  0  0  0  0  0  0
    2.1625   -2.7500    0.0000 C   0  0  0  0  0  0  0  0  0  0  0  0
    1.2917   -3.2500    0.0000 C   0  0  0  0  0  0  0  0  0  0  0  0
  2  1  1  0  0  0  0
  3  5  1  0  0  0  0
  4  1  1  0  0  0  0
  5  7  1  0  0  0  0
  6  4  2  0  0  0  0
  6  3  1  0  0  0  0
  7  1  1  0  0  0  0
  8  2  1  0  0  0  0
  9  2  2  0  0  0  0
 10  5  2  0  0  0  0
 11  8  1  0  0  0  0
 12  4  1  0  0  0  0
 13  6  1  0  0  0  0
 13 17  2  0  0  0  0
 14 11  2  0  0  0  0
 15 11  1  0  0  0  0
 16 12  2  0  0  0  0
 17 16  1  0  0  0  0
 18 15  2  0  0  0  0
 19 14  1  0  0  0  0
 19 20  2  0  0  0  0
 20 18  1  0  0  0  0
M  END
>  <idnumber>
T5617897

>  <LogP>
2.133000000000000e+000

>  <rotating_bonds>
2.000000000000000e+000

>  <hb_acceptors>
2.000000000000000e+000

>  <hb_donors>
1.000000000000000e+000

>  <PSA>
4.941000000000003e+001

>  <clusterid>
530

>  <is_centroid>
@

>  <class1>
625

>  <class2>
835

>  <population1>
877209

>  <population2>
2727

>  <population>
2727

>  <cansmi>
O=C1Nc2ccccc2N(C1)C(=O)Cc1ccccc1

>  <HBA2>
4

>  <HBD>
1

>  <logP>
2.4174

>  <TPSA>
49.41

>  <MW>
266.295

$$$$

 OpenBabel02121609142D

 20 21  0  0  0  0  0  0  0  0999 V2000
    2.2167   -0.2500    0.0000 C   0  0  0  0  0  0  0  0  0  0  0  0
   -0.3833    0.2500    0.0000 C   0  0  0  0  0  0  0  0  0  0  0  0
   -0.3833    1.2500    0.0000 C   0  0  0  0  0  0  0  0  0  0  0  0
    1.3500    0.2500    0.0000 C   0  0  0  0  0  0  0  0  0  0  0  0
    2.2167   -1.2500    0.0000 C   0  0  0  0  0  0  0  0  0  0  0  0
    0.4875   -0.2500    0.0000 N   0  0  0  0  0  0  0  0  0  0  0  0
   -1.2458    1.7500    0.0000 C   0  0  0  0  0  0  0  0  0  0  0  0
   -2.1125    0.2500    0.0000 C   0  0  0  0  0  0  0  0  0  0  0  0
   -1.2458   -0.2500    0.0000 C   0  0  0  0  0  0  0  0  0  0  0  0
    1.3500   -1.7500    0.0000 O   0  0  0  0  0  0  0  0  0  0  0  0
   -1.2458    2.7500    0.0000 O   0  0  0  0  0  0  0  0  0  0  0  0
   -2.1125    1.2500    0.0000 C   0  0  0  0  0  0  0  0  0  0  0  0
    3.0792   -1.7500    0.0000 N   0  0  0  0  0  0  0  0  0  0  0  0
    3.0792    0.2500    0.0000 C   0  0  0  0  0  0  0  0  0  0  0  0
    1.3500    1.2500    0.0000 C   0  0  0  0  0  0  0  0  0  0  0  0
   -3.0875    0.0333    0.0000 C   0  0  0  0  0  0  0  0  0  0  0  0
   -2.7958   -0.4792    0.0000 C   0  0  0  0  0  0  0  0  0  0  0  0
    3.0792   -2.7500    0.0000 C   0  0  0  0  0  0  0  0  0  0  0  0
    3.0792    1.2500    0.0000 C   0  0  0  0  0  0  0  0  0  0  0  0
    2.2167    1.7500    0.0000 C   0  0  0  0  0  0  0  0  0  0  0  0
  2  6  1  0  0  0  0
  3  2  2  0  0  0  0
  4  1  2  0  0  0  0
  5  1  1  0  0  0  0
  6  4  1  0  0  0  0
  7  3  1  0  0  0  0
  7 12  1  0  0  0  0
  8  9  1  0  0  0  0
  9  2  1  0  0  0  0
 10  5  2  0  0  0  0
 11  7  2  0  0  0  0
 12  8  1  0  0  0  0
 13  5  1  0  0  0  0
 14  1  1  0  0  0  0
 15  4  1  0  0  0  0
 15 20  2  0  0  0  0
 16  8  1  0  0  0  0
 17  8  1  0  0  0  0
 18 13  1  0  0  0  0
 19 14  2  0  0  0  0
 20 19  1  0  0  0  0
M  END
>  <idnumber>
T5620319

>  <LogP>
2.882000000000000e+000

>  <rotating_bonds>
3.000000000000000e+000

>  <hb_acceptors>
3.000000000000000e+000

>  <hb_donors>
2.000000000000000e+000

>  <PSA>
5.820000000000000e+001

>  <clusterid>
-986

>  <is_centroid>
@

>  <class1>
625

>  <class2>
906

>  <population1>
877209

>  <population2>
1170

>  <population>
992

>  <cansmi>
CNC(=O)c1ccccc1NC1=CC(=O)CC(C1)(C)C

>  <HBA2>
4

>  <HBD>
2

>  <logP>
3.195

>  <TPSA>
58.2

>  <MW>
272.342

$$$$

 OpenBabel02121609142D

 15 16  0  0  0  0  0  0  0  0999 V2000
   -1.7333    1.5000    0.0000 N   0  0  0  0  0  0  0  0  0  0  0  0
   -0.8708    1.0083    0.0000 C   0  0  0  0  0  0  0  0  0  0  0  0
   -2.6000    1.0083    0.0000 C   0  0  0  0  0  0  0  0  0  0  0  0
    1.7292   -0.5000    0.0000 C   0  0  0  0  0  0  0  0  0  0  0  0
    0.8625    0.0083    0.0000 C   0  0  0  0  0  0  0  0  0  0  0  0
   -0.8708    0.0083    0.0000 C   0  0  0  0  0  0  0  0  0  0  0  0
    0.0000   -0.5000    0.0000 C   0  0  0  0  0  0  0  0  0  0  0  0
    1.7292   -1.5000    0.0000 O   0  0  0  0  0  0  0  0  0  0  0  0
    0.0000    1.5000    0.0000 C   0  0  0  0  0  0  0  0  0  0  0  0
   -3.4708    1.5000    0.0000 O   0  0  0  0  0  0  0  0  0  0  0  0
    0.8625    1.0083    0.0000 C   0  0  0  0  0  0  0  0  0  0  0  0
   -1.7333   -0.5000    0.0000 C   0  0  0  0  0  0  0  0  0  0  0  0
   -2.6000    0.0083    0.0000 C   0  0  0  0  0  0  0  0  0  0  0  0
    2.5917    0.0083    0.0000 O   0  0  0  0  0  0  0  0  0  0  0  0
    3.4625   -0.5000    0.0000 C   0  0  0  0  0  0  0  0  0  0  0  0
  2  1  1  0  0  0  0
  3  1  1  0  0  0  0
  4  5  1  0  0  0  0
  5 11  1  0  0  0  0
  6  2  2  0  0  0  0
  7  6  1  0  0  0  0
  7  5  2  0  0  0  0
  8  4  2  0  0  0  0
  9  2  1  0  0  0  0
 10  3  2  0  0  0  0
 11  9  2  0  0  0  0
 12 13  1  0  0  0  0
 12  6  1  0  0  0  0
 13  3  1  0  0  0  0
 14  4  1  0  0  0  0
 15 14  1  0  0  0  0
M  END
>  <idnumber>
T5621056

>  <LogP>
1.734000000000000e+000

>  <rotating_bonds>
2.000000000000000e+000

>  <hb_acceptors>
2.000000000000000e+000

>  <hb_donors>
1.000000000000000e+000

>  <PSA>
5.540000000000000e+001

>  <clusterid>
-987

>  <is_centroid>
@

>  <class1>
735

>  <population1>
1171

>  <population>
1171

>  <cansmi>
COC(=O)c1ccc2c(c1)CCC(=O)N2

>  <HBA2>
4

>  <HBD>
1

>  <logP>
1.4959

>  <TPSA>
55.4

>  <MW>
205.21

$$$$

 OpenBabel02121609142D

 19 21  0  0  0  0  0  0  0  0999 V2000
    0.0000   -1.0750    0.0000 C   0  0  0  0  0  0  0  0  0  0  0  0
    0.0000   -0.0750    0.0000 C   0  0  0  0  0  0  0  0  0  0  0  0
    0.8625    0.4250    0.0000 N   0  0  0  0  0  0  0  0  0  0  0  0
   -0.8125   -1.6625    0.0000 O   0  0  0  0  0  0  0  0  0  0  0  0
    0.8625    1.4250    0.0000 C   0  0  0  0  0  0  0  0  0  0  0  0
    0.8042   -1.6625    0.0000 C   0  0  0  0  0  0  0  0  0  0  0  0
    0.0000    1.9250    0.0000 C   0  0  0  0  0  0  0  0  0  0  0  0
   -0.5083   -2.6125    0.0000 C   0  0  0  0  0  0  0  0  0  0  0  0
    0.4917   -2.6125    0.0000 C   0  0  0  0  0  0  0  0  0  0  0  0
   -0.8708    3.4250    0.0000 N   0  0  0  0  0  0  0  0  0  0  0  0
   -0.8708    0.4250    0.0000 O   0  0  0  0  0  0  0  0  0  0  0  0
    0.0000    2.9250    0.0000 C   0  0  0  0  0  0  0  0  0  0  0  0
    1.7292    1.9250    0.0000 C   0  0  0  0  0  0  0  0  0  0  0  0
   -0.8708    1.4250    0.0000 C   0  0  0  0  0  0  0  0  0  0  0  0
    1.7292    2.9250    0.0000 C   0  0  0  0  0  0  0  0  0  0  0  0
   -1.0958   -3.4167    0.0000 C   0  0  0  0  0  0  0  0  0  0  0  0
   -1.7333    2.9250    0.0000 C   0  0  0  0  0  0  0  0  0  0  0  0
    0.8625    3.4250    0.0000 C   0  0  0  0  0  0  0  0  0  0  0  0
   -1.7333    1.9250    0.0000 C   0  0  0  0  0  0  0  0  0  0  0  0
  2  1  1  0  0  0  0
  3  2  1  0  0  0  0
  4  1  1  0  0  0  0
  5  3  1  0  0  0  0
  6  1  2  0  0  0  0
  7  5  2  0  0  0  0
  8  4  1  0  0  0  0
  8  9  2  0  0  0  0
  9  6  1  0  0  0  0
 10 12  1  0  0  0  0
 10 17  2  0  0  0  0
 11  2  2  0  0  0  0
 12  7  1  0  0  0  0
 12 18  2  0  0  0  0
 13  5  1  0  0  0  0
 14  7  1  0  0  0  0
 15 13  2  0  0  0  0
 16  8  1  0  0  0  0
 17 19  1  0  0  0  0
 18 15  1  0  0  0  0
 19 14  2  0  0  0  0
M  END
>  <idnumber>
T5621887

>  <LogP>
2.833000000000000e+000

>  <rotating_bonds>
2.000000000000000e+000

>  <hb_acceptors>
2.000000000000000e+000

>  <hb_donors>
1.000000000000000e+000

>  <PSA>
5.513000000000000e+001

>  <clusterid>
570

>  <is_centroid>
@

>  <class1>
704

>  <class2>
682

>  <population1>
51112

>  <population2>
20351

>  <population>
1351

>  <cansmi>
Cc1ccc(o1)C(=O)Nc1cccc2c1cccn2

>  <HBA2>
4

>  <HBD>
1

>  <logP>
3.4615

>  <TPSA>
55.13

>  <MW>
252.268

$$$$

 OpenBabel02121609142D

 15 16  0  0  0  0  0  0  0  0999 V2000
    0.4292    0.2500    0.0000 C   0  0  0  0  0  0  0  0  0  0  0  0
    0.4292    2.2500    0.0000 N   0  0  0  0  0  0  0  0  0  0  0  0
    1.2917    1.7500    0.0000 C   0  0  0  0  0  0  0  0  0  0  0  0
   -0.4333    0.7500    0.0000 C   0  0  0  0  0  0  0  0  0  0  0  0
    1.2917    0.7500    0.0000 C   0  0  0  0  0  0  0  0  0  0  0  0
   -0.4333    1.7500    0.0000 C   0  0  0  0  0  0  0  0  0  0  0  0
    0.4292   -0.7500    0.0000 C   0  0  0  0  0  0  0  0  0  0  0  0
    2.1625    2.2500    0.0000 O   0  0  0  0  0  0  0  0  0  0  0  0
   -0.4333   -1.2500    0.0000 O   0  0  0  0  0  0  0  0  0  0  0  0
    1.2917   -1.2500    0.0000 O   0  0  0  0  0  0  0  0  0  0  0  0
   -1.3000    0.2500    0.0000 C   0  0  0  0  0  0  0  0  0  0  0  0
   -1.3000    2.2500    0.0000 C   0  0  0  0  0  0  0  0  0  0  0  0
    1.2917   -2.2500    0.0000 C   0  0  0  0  0  0  0  0  0  0  0  0
   -2.1708    0.7500    0.0000 C   0  0  0  0  0  0  0  0  0  0  0  0
   -2.1708    1.7500    0.0000 C   0  0  0  0  0  0  0  0  0  0  0  0
  2  3  1  0  0  0  0
  3  5  1  0  0  0  0
  4  1  1  0  0  0  0
  5  1  2  0  0  0  0
  6  4  2  0  0  0  0
  6  2  1  0  0  0  0
  7  1  1  0  0  0  0
  8  3  2  0  0  0  0
  9  7  2  0  0  0  0
 10  7  1  0  0  0  0
 11  4  1  0  0  0  0
 12  6  1  0  0  0  0
 12 15  2  0  0  0  0
 13 10  1  0  0  0  0
 14 11  2  0  0  0  0
 15 14  1  0  0  0  0
M  END
>  <idnumber>
T5624878

>  <LogP>
1.138000000000000e+000

>  <rotating_bonds>
2.000000000000000e+000

>  <hb_acceptors>
2.000000000000000e+000

>  <hb_donors>
1.000000000000000e+000

>  <PSA>
5.540000000000000e+001

>  <clusterid>
-991

>  <is_centroid>
@

>  <class1>
801

>  <population1>
1387

>  <population>
1387

>  <cansmi>
COC(=O)c1cc(=O)[nH]c2c1cccc2

>  <HBA2>
3

>  <HBD>
1

>  <logP>
1.3147

>  <TPSA>
59.16

>  <MW>
203.194

$$$$

 OpenBabel02121609142D

 20 22  0  0  0  0  0  0  0  0999 V2000
   -0.8708    0.5000    0.0000 N   0  0  0  0  0  0  0  0  0  0  0  0
    0.0000    1.0000    0.0000 C   0  0  0  0  0  0  0  0  0  0  0  0
   -0.8708    2.5000    0.0000 N   0  0  0  0  0  0  0  0  0  0  0  0
   -1.7333    1.0000    0.0000 C   0  0  0  0  0  0  0  0  0  0  0  0
    0.0000    2.0083    0.0000 C   0  0  0  0  0  0  0  0  0  0  0  0
   -1.7333    2.0083    0.0000 C   0  0  0  0  0  0  0  0  0  0  0  0
   -0.8708   -0.5000    0.0000 C   0  0  0  0  0  0  0  0  0  0  0  0
    0.8625    0.5000    0.0000 O   0  0  0  0  0  0  0  0  0  0  0  0
    0.0000   -1.0000    0.0000 C   0  0  0  0  0  0  0  0  0  0  0  0
    1.7292   -1.9917    0.0000 C   0  0  0  0  0  0  0  0  0  0  0  0
    2.5917   -2.5000    0.0000 S   0  0  0  0  0  0  0  0  0  0  0  0
    0.8625   -0.5000    0.0000 C   0  0  0  0  0  0  0  0  0  0  0  0
    0.0000   -1.9917    0.0000 C   0  0  0  0  0  0  0  0  0  0  0  0
    1.7292   -1.0000    0.0000 C   0  0  0  0  0  0  0  0  0  0  0  0
    0.8625   -2.5000    0.0000 C   0  0  0  0  0  0  0  0  0  0  0  0
   -2.6000    0.5000    0.0000 C   0  0  0  0  0  0  0  0  0  0  0  0
   -2.6000    2.5000    0.0000 C   0  0  0  0  0  0  0  0  0  0  0  0
    3.4625   -1.9917    0.0000 C   0  0  0  0  0  0  0  0  0  0  0  0
   -3.4708    1.0000    0.0000 C   0  0  0  0  0  0  0  0  0  0  0  0
   -3.4708    2.0083    0.0000 C   0  0  0  0  0  0  0  0  0  0  0  0
  2  1  1  0  0  0  0
  3  6  1  0  0  0  0
  4  1  1  0  0  0  0
  5  2  1  0  0  0  0
  5  3  2  0  0  0  0
  6  4  2  0  0  0  0
  7  1  1  0  0  0  0
  8  2  2  0  0  0  0
  9  7  1  0  0  0  0
 10 15  2  0  0  0  0
 10 14  1  0  0  0  0
 11 10  1  0  0  0  0
 12  9  1  0  0  0  0
 13  9  2  0  0  0  0
 14 12  2  0  0  0  0
 15 13  1  0  0  0  0
 16  4  1  0  0  0  0
 17  6  1  0  0  0  0
 17 20  2  0  0  0  0
 18 11  1  0  0  0  0
 19 16  2  0  0  0  0
 20 19  1  0  0  0  0
M  END
>  <idnumber>
T5625744

>  <LogP>
2.848000000000000e+000

>  <rotating_bonds>
3.000000000000000e+000

>  <hb_acceptors>
3.000000000000000e+000

>  <hb_donors>
0.000000000000000e+000

>  <PSA>
5.797000000000000e+001

>  <clusterid>
-992

>  <is_centroid>
@

>  <class1>
625

>  <class2>
802

>  <population1>
877209

>  <population2>
1299

>  <population>
1299

>  <cansmi>
CSc1ccc(cc1)Cn1c(=O)cnc2c1cccc2

>  <HBA2>
4

>  <HBD>
0

>  <logP>
3.1667

>  <TPSA>
60.19

>  <MW>
282.36

$$$$

 OpenBabel02121609142D

 17 19  0  0  0  0  0  0  0  0999 V2000
   -0.9833    0.5250    0.0000 N   0  0  0  0  0  0  0  0  0  0  0  0
   -0.0333    0.8333    0.0000 C   0  0  0  0  0  0  0  0  0  0  0  0
   -1.5708    1.3333    0.0000 C   0  0  0  0  0  0  0  0  0  0  0  0
   -0.9833    2.1458    0.0000 N   0  0  0  0  0  0  0  0  0  0  0  0
   -1.2875   -0.4250    0.0000 C   0  0  0  0  0  0  0  0  0  0  0  0
   -0.0333    1.8333    0.0000 C   0  0  0  0  0  0  0  0  0  0  0  0
    0.8375    0.3333    0.0000 C   0  0  0  0  0  0  0  0  0  0  0  0
    0.8375    2.3333    0.0000 C   0  0  0  0  0  0  0  0  0  0  0  0
    1.7042    0.8333    0.0000 C   0  0  0  0  0  0  0  0  0  0  0  0
    1.7042    1.8333    0.0000 C   0  0  0  0  0  0  0  0  0  0  0  0
   -0.6208   -1.1667    0.0000 N   0  0  0  0  0  0  0  0  0  0  0  0
   -2.2708   -0.6292    0.0000 N   0  0  0  0  0  0  0  0  0  0  0  0
   -1.9083   -2.3292    0.0000 C   0  0  0  0  0  0  0  0  0  0  0  0
   -2.5750   -1.5875    0.0000 C   0  0  0  0  0  0  0  0  0  0  0  0
   -0.9333   -2.1167    0.0000 C   0  0  0  0  0  0  0  0  0  0  0  0
    2.5667    0.3333    0.0000 C   0  0  0  0  0  0  0  0  0  0  0  0
    2.5667    2.3333    0.0000 C   0  0  0  0  0  0  0  0  0  0  0  0
  2  1  1  0  0  0  0
  3  1  1  0  0  0  0
  4  3  2  0  0  0  0
  5  1  1  0  0  0  0
  6  2  1  0  0  0  0
  6  4  1  0  0  0  0
  7  2  2  0  0  0  0
  8  6  2  0  0  0  0
  9  7  1  0  0  0  0
 10  9  2  0  0  0  0
 10  8  1  0  0  0  0
 11  5  2  0  0  0  0
 12  5  1  0  0  0  0
 13 14  1  0  0  0  0
 14 12  2  0  0  0  0
 15 11  1  0  0  0  0
 15 13  2  0  0  0  0
 16  9  1  0  0  0  0
 17 10  1  0  0  0  0
M  END
>  <idnumber>
T5626004

>  <LogP>
2.092000000000000e+000

>  <rotating_bonds>
1.000000000000000e+000

>  <hb_acceptors>
3.000000000000000e+000

>  <hb_donors>
0.000000000000000e+000

>  <PSA>
4.359999999999999e+001

>  <clusterid>
-994

>  <is_centroid>
@

>  <class1>
685

>  <class2>
737

>  <population1>
28767

>  <population2>
30296

>  <population>
220

>  <cansmi>
Cc1cc2c(cc1C)ncn2c1ncccn1

>  <HBA2>
4

>  <HBD>
0

>  <logP>
2.4323

>  <TPSA>
43.6

>  <MW>
224.261

$$$$

 OpenBabel02121609142D

 21 24  0  0  0  0  0  0  0  0999 V2000
    0.3250    1.2500    0.0000 C   0  0  0  0  0  0  0  0  0  0  0  0
    0.0125    0.3000    0.0000 C   0  0  0  0  0  0  0  0  0  0  0  0
    1.2750    1.5583    0.0000 N   0  0  0  0  0  0  0  0  0  0  0  0
   -0.2708    2.0583    0.0000 N   0  0  0  0  0  0  0  0  0  0  0  0
    0.3250    2.8708    0.0000 N   0  0  0  0  0  0  0  0  0  0  0  0
   -0.9375   -0.0042    0.0000 C   0  0  0  0  0  0  0  0  0  0  0  0
    0.6000   -0.5042    0.0000 N   0  0  0  0  0  0  0  0  0  0  0  0
    0.0125   -1.3167    0.0000 N   0  0  0  0  0  0  0  0  0  0  0  0
    1.2750    2.5583    0.0000 C   0  0  0  0  0  0  0  0  0  0  0  0
   -0.9375   -1.0042    0.0000 C   0  0  0  0  0  0  0  0  0  0  0  0
   -1.7458   -1.5917    0.0000 C   0  0  0  0  0  0  0  0  0  0  0  0
    2.0542    0.9375    0.0000 C   0  0  0  0  0  0  0  0  0  0  0  0
    2.0542    3.1833    0.0000 C   0  0  0  0  0  0  0  0  0  0  0  0
   -2.6583   -1.1917    0.0000 C   0  0  0  0  0  0  0  0  0  0  0  0
   -1.6458   -2.5917    0.0000 C   0  0  0  0  0  0  0  0  0  0  0  0
    3.0292    1.1583    0.0000 C   0  0  0  0  0  0  0  0  0  0  0  0
    3.0292    2.9625    0.0000 C   0  0  0  0  0  0  0  0  0  0  0  0
   -3.4708   -1.7792    0.0000 C   0  0  0  0  0  0  0  0  0  0  0  0
   -2.4500   -3.1792    0.0000 C   0  0  0  0  0  0  0  0  0  0  0  0
   -3.3625   -2.7667    0.0000 C   0  0  0  0  0  0  0  0  0  0  0  0
    3.4667    2.0583    0.0000 C   0  0  0  0  0  0  0  0  0  0  0  0
  2  1  1  0  0  0  0
  3  1  1  0  0  0  0
  4  1  2  0  0  0  0
  5  4  1  0  0  0  0
  6  2  2  0  0  0  0
  7  2  1  0  0  0  0
  8  7  1  0  0  0  0
  9  3  1  0  0  0  0
  9  5  2  0  0  0  0
 10  6  1  0  0  0  0
 10  8  2  0  0  0  0
 11 10  1  0  0  0  0
 12  3  1  0  0  0  0
 13  9  1  0  0  0  0
 14 11  1  0  0  0  0
 15 11  2  0  0  0  0
 16 12  1  0  0  0  0
 17 13  1  0  0  0  0
 18 14  2  0  0  0  0
 18 20  1  0  0  0  0
 19 15  1  0  0  0  0
 20 19  2  0  0  0  0
 21 16  1  0  0  0  0
 21 17  1  0  0  0  0
M  END
>  <idnumber>
T5626736

>  <LogP>
2.904000000000000e+000

>  <rotating_bonds>
2.000000000000000e+000

>  <hb_acceptors>
3.000000000000000e+000

>  <hb_donors>
1.000000000000000e+000

>  <PSA>
5.939000000000003e+001

>  <clusterid>
-995

>  <is_centroid>
@

>  <class1>
757

>  <class2>
631

>  <class3>
625

>  <population1>
2963

>  <population2>
41612

>  <population3>
877209

>  <population>
112

>  <cansmi>
c1ccc(cc1)c1n[nH]c(c1)c1nnc2n1CCCCC2

>  <HBA2>
4

>  <HBD>
1

>  <logP>
3.0616

>  <TPSA>
59.39

>  <MW>
279.34

$$$$

 OpenBabel02121609142D

 19 22  0  0  0  0  0  0  0  0999 V2000
   -0.2833   -1.5500    0.0000 C   0  0  3  0  0  0  0  0  0  0  0  0
   -0.5250    0.0583    0.0000 C   0  0  0  0  0  0  0  0  0  0  0  0
   -1.2083    0.7208    0.0000 C   0  0  0  0  0  0  0  0  0  0  0  0
   -0.9458   -0.8167    0.0000 N   0  0  0  0  0  0  0  0  0  0  0  0
   -0.8875    1.6125    0.0000 C   0  0  0  0  0  0  0  0  0  0  0  0
   -1.4458    2.3833    0.0000 S   0  0  0  0  0  0  0  0  0  0  0  0
    0.1167   -3.1417    0.0000 C   0  0  3  0  0  0  0  0  0  0  0  0
    1.4417   -2.1917    0.0000 C   0  0  3  0  0  0  0  0  0  0  0  0
    1.0625   -1.8167    0.0000 C   0  0  3  0  0  0  0  0  0  0  0  0
   -0.6208   -2.4292    0.0000 C   0  0  0  0  0  0  0  0  0  0  0  0
   -0.0208   -2.6000    0.0000 C   0  0  0  0  0  0  0  0  0  0  0  0
    0.7042   -1.2792    0.0000 C   0  0  0  0  0  0  0  0  0  0  0  0
   -0.8958    3.1458    0.0000 C   0  0  0  0  0  0  0  0  0  0  0  0
    0.0125    1.9083    0.0000 C   0  0  0  0  0  0  0  0  0  0  0  0
    0.4167    0.2250    0.0000 O   0  0  0  0  0  0  0  0  0  0  0  0
    0.0125    2.8583    0.0000 C   0  0  0  0  0  0  0  0  0  0  0  0
    0.3250   -1.8417    0.0000 C   0  0  0  0  0  0  0  0  0  0  0  0
    0.6917   -2.7292    0.0000 C   0  0  0  0  0  0  0  0  0  0  0  0
    1.1375   -3.0250    0.0000 C   0  0  0  0  0  0  0  0  0  0  0  0
  2  4  1  0  0  0  0
  3  2  1  0  0  0  0
  4  1  1  0  0  0  0
  5  3  1  0  0  0  0
  6  5  1  0  0  0  0
  7 10  1  0  0  0  0
  7 19  1  0  0  0  0
  7 17  1  0  0  0  0
  8 12  1  0  0  0  0
  9 11  1  0  0  0  0
 10  1  1  0  0  0  0
 11  1  1  0  0  0  0
 12  1  1  0  0  0  0
 13  6  1  0  0  0  0
 14  5  2  0  0  0  0
 15  2  2  0  0  0  0
 16 14  1  0  0  0  0
 16 13  2  0  0  0  0
 17  9  1  0  0  0  0
 18  8  1  0  0  0  0
 18  9  1  0  0  0  0
 19  8  1  0  0  0  0
M  END
>  <idnumber>
T5626783

>  <LogP>
2.995000000000000e+000

>  <rotating_bonds>
3.000000000000000e+000

>  <hb_acceptors>
2.000000000000000e+000

>  <hb_donors>
1.000000000000000e+000

>  <PSA>
5.734000000000000e+001

>  <clusterid>
571

>  <is_centroid>
@

>  <class1>
809

>  <class2>
645

>  <population1>
8162

>  <population2>
105961

>  <population>
395

>  <cansmi>
O=C(NC12CC3CC(C2)CC(C1)C3)Cc1cccs1

>  <HBA2>
3

>  <HBD>
1

>  <logP>
3.7665

>  <TPSA>
57.34

>  <MW>
275.409

$$$$

 OpenBabel02121609142D

 14 15  0  0  0  0  0  0  0  0999 V2000
    0.6125    0.0083    0.0000 C   0  0  0  0  0  0  0  0  0  0  0  0
    0.0250   -0.8042    0.0000 S   0  0  0  0  0  0  0  0  0  0  0  0
    0.0250    0.8125    0.0000 C   0  0  0  0  0  0  0  0  0  0  0  0
   -0.9250   -0.4917    0.0000 C   0  0  0  0  0  0  0  0  0  0  0  0
   -0.9250    0.5083    0.0000 C   0  0  0  0  0  0  0  0  0  0  0  0
    1.6125    0.0083    0.0000 C   0  0  0  0  0  0  0  0  0  0  0  0
    2.1125   -0.8625    0.0000 O   0  0  0  0  0  0  0  0  0  0  0  0
    2.1125    0.8708    0.0000 N   0  0  0  0  0  0  0  0  0  0  0  0
   -1.7083   -1.1167    0.0000 C   0  0  0  0  0  0  0  0  0  0  0  0
   -1.7083    1.1250    0.0000 C   0  0  0  0  0  0  0  0  0  0  0  0
    3.1125    0.8708    0.0000 C   0  0  0  0  0  0  0  0  0  0  0  0
   -2.6833   -0.9000    0.0000 C   0  0  0  0  0  0  0  0  0  0  0  0
   -2.6833    0.9083    0.0000 C   0  0  0  0  0  0  0  0  0  0  0  0
   -3.1208    0.0083    0.0000 C   0  0  0  0  0  0  0  0  0  0  0  0
  2  1  1  0  0  0  0
  3  1  2  0  0  0  0
  4  2  1  0  0  0  0
  5  3  1  0  0  0  0
  5  4  2  0  0  0  0
  6  1  1  0  0  0  0
  7  6  2  0  0  0  0
  8  6  1  0  0  0  0
  9  4  1  0  0  0  0
 10  5  1  0  0  0  0
 11  8  1  0  0  0  0
 12  9  1  0  0  0  0
 12 14  1  0  0  0  0
 13 10  1  0  0  0  0
 14 13  1  0  0  0  0
M  END
>  <idnumber>
T5627197

>  <LogP>
2.830000000000000e+000

>  <rotating_bonds>
1.000000000000000e+000

>  <hb_acceptors>
2.000000000000000e+000

>  <hb_donors>
1.000000000000000e+000

>  <PSA>
5.734000000000000e+001

>  <clusterid>
158

>  <is_centroid>
@

>  <class1>
680

>  <population1>
1580

>  <population>
1580

>  <cansmi>
CNC(=O)c1cc2c(s1)CCCCC2

>  <HBA2>
3

>  <HBD>
1

>  <logP>
2.7675

>  <TPSA>
57.34

>  <MW>
209.308

$$$$

 OpenBabel02121609142D

 20 21  0  0  0  0  0  0  0  0999 V2000
    0.0000    2.2500    0.0000 C   0  0  0  0  0  0  0  0  0  0  0  0
    0.0000    3.2500    0.0000 C   0  0  0  0  0  0  0  0  0  0  0  0
    0.8625    1.7500    0.0000 C   0  0  0  0  0  0  0  0  0  0  0  0
    0.8625    3.7500    0.0000 N   0  0  0  0  0  0  0  0  0  0  0  0
    1.7292    2.2500    0.0000 C   0  0  0  0  0  0  0  0  0  0  0  0
    1.7292    3.2500    0.0000 C   0  0  0  0  0  0  0  0  0  0  0  0
   -0.8708    1.7500    0.0000 C   0  0  0  0  0  0  0  0  0  0  0  0
   -1.7333    0.2500    0.0000 C   0  0  0  0  0  0  0  0  0  0  0  0
   -0.8708    0.7500    0.0000 N   0  0  0  0  0  0  0  0  0  0  0  0
   -1.7333   -0.7500    0.0000 C   0  0  0  0  0  0  0  0  0  0  0  0
   -0.8708    3.7500    0.0000 O   0  0  0  0  0  0  0  0  0  0  0  0
   -2.6000    0.7500    0.0000 O   0  0  0  0  0  0  0  0  0  0  0  0
   -2.6000   -1.2500    0.0000 C   0  0  0  0  0  0  0  0  0  0  0  0
   -0.8708   -1.2500    0.0000 C   0  0  0  0  0  0  0  0  0  0  0  0
   -2.6000   -2.2500    0.0000 C   0  0  0  0  0  0  0  0  0  0  0  0
   -0.8708   -2.2500    0.0000 C   0  0  0  0  0  0  0  0  0  0  0  0
   -1.7333   -2.7500    0.0000 C   0  0  0  0  0  0  0  0  0  0  0  0
    0.8625    0.7500    0.0000 C   0  0  0  0  0  0  0  0  0  0  0  0
    2.5917    3.7500    0.0000 C   0  0  0  0  0  0  0  0  0  0  0  0
   -1.7333   -3.7500    0.0000 C   0  0  0  0  0  0  0  0  0  0  0  0
  2  1  1  0  0  0  0
  3  1  2  0  0  0  0
  4  2  1  0  0  0  0
  4  6  1  0  0  0  0
  5  3  1  0  0  0  0
  6  5  2  0  0  0  0
  7  1  1  0  0  0  0
  8  9  1  0  0  0  0
  9  7  1  0  0  0  0
 10  8  1  0  0  0  0
 11  2  2  0  0  0  0
 12  8  2  0  0  0  0
 13 10  2  0  0  0  0
 14 10  1  0  0  0  0
 15 13  1  0  0  0  0
 15 17  2  0  0  0  0
 16 14  2  0  0  0  0
 17 16  1  0  0  0  0
 18  3  1  0  0  0  0
 19  6  1  0  0  0  0
 20 17  1  0  0  0  0
M  END
>  <idnumber>
T5628180

>  <LogP>
1.562000000000000e+000

>  <rotating_bonds>
3.000000000000000e+000

>  <hb_acceptors>
2.000000000000000e+000

>  <hb_donors>
2.000000000000000e+000

>  <PSA>
5.820000000000000e+001

>  <clusterid>
572

>  <is_centroid>
@

>  <class1>
625

>  <class2>
696

>  <population1>
877209

>  <population2>
4759

>  <population>
3770

>  <cansmi>
Cc1ccc(cc1)C(=O)NCc1c(C)cc([nH]c1=O)C

>  <HBA2>
3

>  <HBD>
2

>  <logP>
2.621

>  <TPSA>
61.96

>  <MW>
270.326

$$$$

 OpenBabel02121609142D

 17 19  0  0  0  0  0  0  0  0999 V2000
   -0.9833    0.5250    0.0000 N   0  0  0  0  0  0  0  0  0  0  0  0
   -0.0333    0.8333    0.0000 C   0  0  0  0  0  0  0  0  0  0  0  0
   -1.5708    1.3333    0.0000 C   0  0  0  0  0  0  0  0  0  0  0  0
   -0.9833    2.1458    0.0000 N   0  0  0  0  0  0  0  0  0  0  0  0
   -0.0333    1.8333    0.0000 C   0  0  0  0  0  0  0  0  0  0  0  0
    0.8375    0.3333    0.0000 C   0  0  0  0  0  0  0  0  0  0  0  0
   -1.2875   -0.4250    0.0000 C   0  0  0  0  0  0  0  0  0  0  0  0
    0.8375    2.3333    0.0000 C   0  0  0  0  0  0  0  0  0  0  0  0
    1.7042    0.8333    0.0000 C   0  0  0  0  0  0  0  0  0  0  0  0
    1.7042    1.8333    0.0000 C   0  0  0  0  0  0  0  0  0  0  0  0
   -0.6208   -1.1667    0.0000 N   0  0  0  0  0  0  0  0  0  0  0  0
   -2.5750   -1.5875    0.0000 N   0  0  0  0  0  0  0  0  0  0  0  0
   -2.2708   -0.6292    0.0000 C   0  0  0  0  0  0  0  0  0  0  0  0
   -0.9333   -2.1167    0.0000 C   0  0  0  0  0  0  0  0  0  0  0  0
    2.5667    0.3333    0.0000 C   0  0  0  0  0  0  0  0  0  0  0  0
    2.5667    2.3333    0.0000 C   0  0  0  0  0  0  0  0  0  0  0  0
   -1.9083   -2.3292    0.0000 C   0  0  0  0  0  0  0  0  0  0  0  0
  2  1  1  0  0  0  0
  3  1  1  0  0  0  0
  4  3  2  0  0  0  0
  5  2  1  0  0  0  0
  5  4  1  0  0  0  0
  6  2  2  0  0  0  0
  7  1  1  0  0  0  0
  8  5  2  0  0  0  0
  9  6  1  0  0  0  0
 10  9  2  0  0  0  0
 10  8  1  0  0  0  0
 11  7  2  0  0  0  0
 12 13  2  0  0  0  0
 13  7  1  0  0  0  0
 14 11  1  0  0  0  0
 14 17  2  0  0  0  0
 15  9  1  0  0  0  0
 16 10  1  0  0  0  0
 17 12  1  0  0  0  0
M  END
>  <idnumber>
T5628900

>  <LogP>
2.092000000000000e+000

>  <rotating_bonds>
1.000000000000000e+000

>  <hb_acceptors>
3.000000000000000e+000

>  <hb_donors>
0.000000000000000e+000

>  <PSA>
4.359999999999999e+001

>  <clusterid>
-999

>  <is_centroid>
@

>  <class1>
685

>  <class2>
815

>  <population1>
28767

>  <population2>
7310

>  <population>
69

>  <cansmi>
Cc1cc2ncn(c2cc1C)c1cnccn1

>  <HBA2>
4

>  <HBD>
0

>  <logP>
2.4323

>  <TPSA>
43.6

>  <MW>
224.261

$$$$

 OpenBabel02121609142D

 19 21  0  0  0  0  0  0  0  0999 V2000
    0.8625   -0.4917    0.0000 C   0  0  0  0  0  0  0  0  0  0  0  0
   -2.6000   -0.4917    0.0000 C   0  0  0  0  0  0  0  0  0  0  0  0
   -3.4708   -1.0000    0.0000 N   0  0  0  0  0  0  0  0  0  0  0  0
   -0.0083   -1.0000    0.0000 C   0  0  0  0  0  0  0  0  0  0  0  0
    0.8625    0.5000    0.0000 C   0  0  0  0  0  0  0  0  0  0  0  0
   -0.8708   -0.4917    0.0000 C   0  0  0  0  0  0  0  0  0  0  0  0
    1.7292   -1.0000    0.0000 C   0  0  0  0  0  0  0  0  0  0  0  0
   -1.7333   -1.0000    0.0000 O   0  0  0  0  0  0  0  0  0  0  0  0
   -3.4708    1.0000    0.0000 N   0  0  0  0  0  0  0  0  0  0  0  0
   -0.0083    1.0000    0.0000 C   0  0  0  0  0  0  0  0  0  0  0  0
    1.7292    1.0000    0.0000 C   0  0  0  0  0  0  0  0  0  0  0  0
    2.5917   -0.4917    0.0000 C   0  0  0  0  0  0  0  0  0  0  0  0
   -0.8708    0.5000    0.0000 C   0  0  0  0  0  0  0  0  0  0  0  0
    2.5917    0.5000    0.0000 C   0  0  0  0  0  0  0  0  0  0  0  0
   -2.6000    0.5000    0.0000 C   0  0  0  0  0  0  0  0  0  0  0  0
    3.4625   -1.0000    0.0000 O   0  0  0  0  0  0  0  0  0  0  0  0
   -4.3333   -0.4917    0.0000 C   0  0  0  0  0  0  0  0  0  0  0  0
   -4.3333    0.5000    0.0000 C   0  0  0  0  0  0  0  0  0  0  0  0
    4.3292   -0.4917    0.0000 C   0  0  0  0  0  0  0  0  0  0  0  0
  2  8  1  0  0  0  0
  3  2  2  0  0  0  0
  4  1  1  0  0  0  0
  5  1  2  0  0  0  0
  6  4  2  0  0  0  0
  7  1  1  0  0  0  0
  8  6  1  0  0  0  0
  9 15  2  0  0  0  0
 10  5  1  0  0  0  0
 11  5  1  0  0  0  0
 12  7  2  0  0  0  0
 13 10  2  0  0  0  0
 13  6  1  0  0  0  0
 14 12  1  0  0  0  0
 14 11  2  0  0  0  0
 15  2  1  0  0  0  0
 16 12  1  0  0  0  0
 17  3  1  0  0  0  0
 17 18  2  0  0  0  0
 18  9  1  0  0  0  0
 19 16  1  0  0  0  0
M  END
>  <idnumber>
T5628901

>  <LogP>
2.879000000000000e+000

>  <rotating_bonds>
3.000000000000000e+000

>  <hb_acceptors>
3.000000000000000e+000

>  <hb_donors>
0.000000000000000e+000

>  <PSA>
4.424000000000000e+001

>  <clusterid>
-1000

>  <is_centroid>
@

>  <class1>
815

>  <class2>
796

>  <population1>
7310

>  <population2>
21922

>  <population>
110

>  <cansmi>
COc1ccc2c(c1)cc(cc2)Oc1cnccn1

>  <HBA2>
4

>  <HBD>
0

>  <logP>
3.4307

>  <TPSA>
44.24

>  <MW>
252.268

$$$$

 OpenBabel02121609142D

 16 17  0  0  0  0  0  0  0  0999 V2000
    0.4292   -0.7500    0.0000 C   0  0  0  0  0  0  0  0  0  0  0  0
    0.4292    0.2500    0.0000 C   0  0  0  0  0  0  0  0  0  0  0  0
    1.2917   -1.2500    0.0000 C   0  0  0  0  0  0  0  0  0  0  0  0
    1.2917   -2.2500    0.0000 N   0  0  0  0  0  0  0  0  0  0  0  0
   -0.4333   -1.2500    0.0000 C   0  0  0  0  0  0  0  0  0  0  0  0
    0.4292   -2.7500    0.0000 C   0  0  0  0  0  0  0  0  0  0  0  0
   -0.4333    0.7500    0.0000 N   0  0  0  0  0  0  0  0  0  0  0  0
   -0.4333   -2.2500    0.0000 C   0  0  0  0  0  0  0  0  0  0  0  0
    1.2917    0.7500    0.0000 O   0  0  0  0  0  0  0  0  0  0  0  0
    0.4292   -3.7500    0.0000 O   0  0  0  0  0  0  0  0  0  0  0  0
   -0.4333    1.7500    0.0000 C   0  0  0  0  0  0  0  0  0  0  0  0
   -1.3000    2.2500    0.0000 C   0  0  0  0  0  0  0  0  0  0  0  0
    0.4292    2.2500    0.0000 C   0  0  0  0  0  0  0  0  0  0  0  0
    0.4292    3.2500    0.0000 C   0  0  0  0  0  0  0  0  0  0  0  0
   -1.3000    3.2500    0.0000 C   0  0  0  0  0  0  0  0  0  0  0  0
   -0.4333    3.7500    0.0000 C   0  0  0  0  0  0  0  0  0  0  0  0
  2  1  1  0  0  0  0
  3  1  2  0  0  0  0
  4  3  1  0  0  0  0
  4  6  1  0  0  0  0
  5  1  1  0  0  0  0
  6  8  1  0  0  0  0
  7  2  1  0  0  0  0
  8  5  2  0  0  0  0
  9  2  2  0  0  0  0
 10  6  2  0  0  0  0
 11  7  1  0  0  0  0
 12 11  1  0  0  0  0
 13 11  1  0  0  0  0
 14 13  1  0  0  0  0
 15 12  1  0  0  0  0
 15 16  1  0  0  0  0
 16 14  1  0  0  0  0
M  END
>  <idnumber>
T5630132

>  <LogP>
2.478000000000000e+000

>  <rotating_bonds>
2.000000000000000e+000

>  <hb_acceptors>
2.000000000000000e+000

>  <hb_donors>
2.000000000000000e+000

>  <PSA>
5.820000000000000e+001

>  <clusterid>
510

>  <is_centroid>
@

>  <class1>
797

>  <class2>
696

>  <population1>
40410

>  <population2>
4759

>  <population>
121

>  <cansmi>
O=C(c1ccc(=O)[nH]c1)NC1CCCCC1

>  <HBA2>
3

>  <HBD>
2

>  <logP>
1.8283

>  <TPSA>
61.96

>  <MW>
220.268

$$$$

 OpenBabel02121609142D

 13 14  0  0  0  0  0  0  0  0999 V2000
    0.8625    0.0000    0.0000 C   0  0  0  0  0  0  0  0  0  0  0  0
    0.0000   -0.5000    0.0000 C   0  0  0  0  0  0  0  0  0  0  0  0
   -0.8708    0.0000    0.0000 C   0  0  0  0  0  0  0  0  0  0  0  0
   -0.8708    1.0000    0.0000 C   0  0  0  0  0  0  0  0  0  0  0  0
   -1.7333    1.5000    0.0000 N   0  0  0  0  0  0  0  0  0  0  0  0
    1.7292   -0.5000    0.0000 N   0  0  0  0  0  0  0  0  0  0  0  0
    0.8625    1.0000    0.0000 C   0  0  0  0  0  0  0  0  0  0  0  0
    0.0000    1.5000    0.0000 C   0  0  0  0  0  0  0  0  0  0  0  0
   -2.6000    1.0000    0.0000 C   0  0  0  0  0  0  0  0  0  0  0  0
   -1.7333   -0.5000    0.0000 C   0  0  0  0  0  0  0  0  0  0  0  0
    2.5917    0.0000    0.0000 C   0  0  0  0  0  0  0  0  0  0  0  0
    1.7292   -1.5000    0.0000 C   0  0  0  0  0  0  0  0  0  0  0  0
   -2.6000    0.0000    0.0000 C   0  0  0  0  0  0  0  0  0  0  0  0
  2  1  2  0  0  0  0
  3  2  1  0  0  0  0
  3  4  2  0  0  0  0
  4  8  1  0  0  0  0
  5  4  1  0  0  0  0
  6  1  1  0  0  0  0
  7  1  1  0  0  0  0
  8  7  2  0  0  0  0
  9  5  1  0  0  0  0
  9 13  1  0  0  0  0
 10  3  1  0  0  0  0
 11  6  1  0  0  0  0
 12  6  1  0  0  0  0
 13 10  1  0  0  0  0
M  END
>  <idnumber>
T5630413

>  <LogP>
2.350000000000000e+000

>  <rotating_bonds>
1.000000000000000e+000

>  <hb_acceptors>
2.000000000000000e+000

>  <hb_donors>
1.000000000000000e+000

>  <PSA>
1.527000000000000e+001

>  <clusterid>
-1001

>  <is_centroid>
@

>  <class1>
814

>  <population1>
5317

>  <population>
5317

>  <cansmi>
CN(c1ccc2c(c1)CCCN2)C

>  <HBA2>
2

>  <HBD>
1

>  <logP>
2.2487

>  <TPSA>
15.27

>  <MW>
176.258

$$$$

 OpenBabel02121609142D

 13 14  0  0  0  0  0  0  0  0999 V2000
   -2.0083    0.5000    0.0000 C   0  0  0  0  0  0  0  0  0  0  0  0
   -1.4208   -0.3042    0.0000 N   0  0  0  0  0  0  0  0  0  0  0  0
   -1.4208    1.3125    0.0000 N   0  0  0  0  0  0  0  0  0  0  0  0
   -0.4708    0.0000    0.0000 C   0  0  0  0  0  0  0  0  0  0  0  0
   -0.4708    1.0000    0.0000 C   0  0  0  0  0  0  0  0  0  0  0  0
    0.4000   -0.5000    0.0000 C   0  0  0  0  0  0  0  0  0  0  0  0
    1.2667    0.0000    0.0000 C   0  0  0  0  0  0  0  0  0  0  0  0
    2.1292   -0.5000    0.0000 C   0  0  0  0  0  0  0  0  0  0  0  0
   -3.0083    0.5000    0.0000 O   0  0  0  0  0  0  0  0  0  0  0  0
    0.4000    1.5000    0.0000 C   0  0  0  0  0  0  0  0  0  0  0  0
    1.2667    1.0000    0.0000 C   0  0  0  0  0  0  0  0  0  0  0  0
    3.0000    0.0000    0.0000 O   0  0  0  0  0  0  0  0  0  0  0  0
    2.1292   -1.5000    0.0000 C   0  0  0  0  0  0  0  0  0  0  0  0
  2  1  1  0  0  0  0
  3  1  1  0  0  0  0
  4  2  1  0  0  0  0
  5  3  1  0  0  0  0
  5  4  2  0  0  0  0
  6  4  1  0  0  0  0
  7  6  2  0  0  0  0
  7 11  1  0  0  0  0
  8  7  1  0  0  0  0
  9  1  2  0  0  0  0
 10  5  1  0  0  0  0
 11 10  2  0  0  0  0
 12  8  2  0  0  0  0
 13  8  1  0  0  0  0
M  END
>  <idnumber>
T5630444

>  <LogP>
1.201000000000000e+000

>  <rotating_bonds>
1.000000000000000e+000

>  <hb_acceptors>
2.000000000000000e+000

>  <hb_donors>
2.000000000000000e+000

>  <PSA>
5.820000000000000e+001

>  <clusterid>
-1002

>  <is_centroid>
@

>  <class1>
727

>  <population1>
3921

>  <population>
3921

>  <cansmi>
CC(=O)c1ccc2c(c1)[nH]c(=O)[nH]2

>  <HBA2>
2

>  <HBD>
2

>  <logP>
1.0588

>  <TPSA>
65.72

>  <MW>
176.172

$$$$

 OpenBabel02121609142D

 16 18  0  0  0  0  0  0  0  0999 V2000
   -0.9583    0.8125    0.0000 N   0  0  0  0  0  0  0  0  0  0  0  0
   -0.3708    0.0000    0.0000 C   0  0  0  0  0  0  0  0  0  0  0  0
   -0.9583   -0.8042    0.0000 O   0  0  0  0  0  0  0  0  0  0  0  0
   -1.9083    0.5000    0.0000 C   0  0  0  0  0  0  0  0  0  0  0  0
   -1.9083   -0.5000    0.0000 C   0  0  0  0  0  0  0  0  0  0  0  0
    0.6292    0.0000    0.0000 C   0  0  0  0  0  0  0  0  0  0  0  0
    1.1292   -0.8625    0.0000 C   0  0  0  0  0  0  0  0  0  0  0  0
    1.1292    0.8708    0.0000 C   0  0  0  0  0  0  0  0  0  0  0  0
    2.6292    0.0000    0.0000 C   0  0  0  0  0  0  0  0  0  0  0  0
    3.6292    0.0000    0.0000 N   0  0  0  0  0  0  0  0  0  0  0  0
    2.1292   -0.8625    0.0000 C   0  0  0  0  0  0  0  0  0  0  0  0
    2.1292    0.8708    0.0000 C   0  0  0  0  0  0  0  0  0  0  0  0
   -2.7708    1.0000    0.0000 C   0  0  0  0  0  0  0  0  0  0  0  0
   -2.7708   -1.0000    0.0000 C   0  0  0  0  0  0  0  0  0  0  0  0
   -3.6375   -0.5000    0.0000 C   0  0  0  0  0  0  0  0  0  0  0  0
   -3.6375    0.5000    0.0000 C   0  0  0  0  0  0  0  0  0  0  0  0
  2  1  2  0  0  0  0
  3  2  1  0  0  0  0
  4  1  1  0  0  0  0
  5  4  2  0  0  0  0
  5  3  1  0  0  0  0
  6  2  1  0  0  0  0
  7  6  2  0  0  0  0
  8  6  1  0  0  0  0
  9 12  1  0  0  0  0
 10  9  1  0  0  0  0
 11  7  1  0  0  0  0
 11  9  2  0  0  0  0
 12  8  2  0  0  0  0
 13  4  1  0  0  0  0
 14  5  1  0  0  0  0
 14 15  2  0  0  0  0
 15 16  1  0  0  0  0
 16 13  2  0  0  0  0
M  END
>  <idnumber>
T5630451

>  <LogP>
2.466000000000000e+000

>  <rotating_bonds>
1.000000000000000e+000

>  <hb_acceptors>
2.000000000000000e+000

>  <hb_donors>
1.000000000000000e+000

>  <PSA>
5.205000000000000e+001

>  <clusterid>
-1003

>  <is_centroid>
@

>  <class1>
752

>  <class2>
625

>  <population1>
4005

>  <population2>
877209

>  <population>
4005

>  <cansmi>
Nc1ccc(cc1)c1nc2c(o1)cccc2

>  <HBA2>
3

>  <HBD>
1

>  <logP>
3.6582

>  <TPSA>
52.05

>  <MW>
210.231

$$$$

 OpenBabel02121609142D

 20 22  0  0  0  0  0  0  0  0999 V2000
    3.0875   -0.9042    0.0000 N   0  0  0  0  0  0  0  0  0  0  0  0
    2.1750   -0.4917    0.0000 C   0  0  0  0  0  0  0  0  0  0  0  0
    2.2792    0.4958    0.0000 C   0  0  0  0  0  0  0  0  0  0  0  0
    3.7542   -0.1542    0.0000 N   0  0  0  0  0  0  0  0  0  0  0  0
    1.3042   -1.0000    0.0000 N   0  0  0  0  0  0  0  0  0  0  0  0
    0.4417   -0.4917    0.0000 C   0  0  0  0  0  0  0  0  0  0  0  0
    3.2542    0.7083    0.0000 C   0  0  0  0  0  0  0  0  0  0  0  0
   -3.0208   -0.4917    0.0000 C   0  0  0  0  0  0  0  0  0  0  0  0
   -2.1583   -1.0000    0.0000 C   0  0  0  0  0  0  0  0  0  0  0  0
    0.4417    0.5083    0.0000 O   0  0  0  0  0  0  0  0  0  0  0  0
   -1.2958   -0.4917    0.0000 C   0  0  0  0  0  0  0  0  0  0  0  0
   -0.4250   -1.0000    0.0000 C   0  0  0  0  0  0  0  0  0  0  0  0
   -3.0208    0.5083    0.0000 C   0  0  0  0  0  0  0  0  0  0  0  0
   -2.1583    1.0000    0.0000 C   0  0  0  0  0  0  0  0  0  0  0  0
   -1.2958    0.5083    0.0000 C   0  0  0  0  0  0  0  0  0  0  0  0
    4.7500   -0.2667    0.0000 C   0  0  0  0  0  0  0  0  0  0  0  0
   -3.8958   -1.0000    0.0000 C   0  0  0  0  0  0  0  0  0  0  0  0
   -3.8958    1.0000    0.0000 C   0  0  0  0  0  0  0  0  0  0  0  0
   -4.7583   -0.4917    0.0000 C   0  0  0  0  0  0  0  0  0  0  0  0
   -4.7583    0.5083    0.0000 C   0  0  0  0  0  0  0  0  0  0  0  0
  2  1  2  0  0  0  0
  3  2  1  0  0  0  0
  4  1  1  0  0  0  0
  5  2  1  0  0  0  0
  6  5  1  0  0  0  0
  7  4  1  0  0  0  0
  7  3  2  0  0  0  0
  8  9  1  0  0  0  0
  8 13  2  0  0  0  0
  9 11  2  0  0  0  0
 10  6  2  0  0  0  0
 11 12  1  0  0  0  0
 12  6  1  0  0  0  0
 13 14  1  0  0  0  0
 14 15  2  0  0  0  0
 15 11  1  0  0  0  0
 16  4  1  0  0  0  0
 17  8  1  0  0  0  0
 18 13  1  0  0  0  0
 19 17  2  0  0  0  0
 20 18  2  0  0  0  0
 20 19  1  0  0  0  0
M  END
>  <idnumber>
T5632216

>  <LogP>
2.896000000000000e+000

>  <rotating_bonds>
3.000000000000000e+000

>  <hb_acceptors>
2.000000000000000e+000

>  <hb_donors>
1.000000000000000e+000

>  <PSA>
4.692000000000000e+001

>  <clusterid>
573

>  <is_centroid>
@

>  <class1>
631

>  <class2>
796

>  <population1>
41612

>  <population2>
21922

>  <population>
491

>  <cansmi>
O=C(Nc1ccn(n1)C)Cc1ccc2c(c1)cccc2

>  <HBA2>
4

>  <HBD>
1

>  <logP>
2.8275

>  <TPSA>
46.92

>  <MW>
265.31

$$$$

 OpenBabel02121609142D

 22 24  0  0  0  0  0  0  0  0999 V2000
    0.4292   -1.7417    0.0000 C   0  0  0  0  0  0  0  0  0  0  0  0
    0.4292   -2.7417    0.0000 N   0  0  0  0  0  0  0  0  0  0  0  0
   -0.4333   -3.2500    0.0000 C   0  0  0  0  0  0  0  0  0  0  0  0
   -0.4333   -1.2500    0.0000 C   0  0  0  0  0  0  0  0  0  0  0  0
    1.2917   -1.2500    0.0000 C   0  0  0  0  0  0  0  0  0  0  0  0
   -1.3000   -1.7417    0.0000 C   0  0  0  0  0  0  0  0  0  0  0  0
   -1.3000   -2.7417    0.0000 C   0  0  0  0  0  0  0  0  0  0  0  0
    1.2917   -0.2500    0.0000 N   0  0  0  0  0  0  0  0  0  0  0  0
   -0.4333   -4.2417    0.0000 O   0  0  0  0  0  0  0  0  0  0  0  0
    2.1625   -1.7417    0.0000 O   0  0  0  0  0  0  0  0  0  0  0  0
    2.1625    0.2500    0.0000 C   0  0  0  0  0  0  0  0  0  0  0  0
    2.1625    1.2500    0.0000 C   0  0  0  0  0  0  0  0  0  0  0  0
    2.1625    3.2500    0.0000 C   0  0  0  0  0  0  0  0  0  0  0  0
    1.2917    1.7500    0.0000 C   0  0  0  0  0  0  0  0  0  0  0  0
    3.0292    1.7500    0.0000 C   0  0  0  0  0  0  0  0  0  0  0  0
    1.2917    2.7500    0.0000 C   0  0  0  0  0  0  0  0  0  0  0  0
    3.0292    2.7500    0.0000 C   0  0  0  0  0  0  0  0  0  0  0  0
   -2.1708   -1.2417    0.0000 C   0  0  0  0  0  0  0  0  0  0  0  0
   -2.1708   -3.2500    0.0000 C   0  0  0  0  0  0  0  0  0  0  0  0
    2.1625    4.2417    0.0000 C   0  0  0  0  0  0  0  0  0  0  0  0
   -3.0333   -1.7417    0.0000 C   0  0  0  0  0  0  0  0  0  0  0  0
   -3.0333   -2.7417    0.0000 C   0  0  0  0  0  0  0  0  0  0  0  0
  2  1  1  0  0  0  0
  3  2  1  0  0  0  0
  3  7  1  0  0  0  0
  4  1  2  0  0  0  0
  5  1  1  0  0  0  0
  6  4  1  0  0  0  0
  7  6  2  0  0  0  0
  8  5  1  0  0  0  0
  9  3  2  0  0  0  0
 10  5  2  0  0  0  0
 11  8  1  0  0  0  0
 12 11  1  0  0  0  0
 13 17  2  0  0  0  0
 13 16  1  0  0  0  0
 14 12  1  0  0  0  0
 15 12  2  0  0  0  0
 16 14  2  0  0  0  0
 17 15  1  0  0  0  0
 18  6  1  0  0  0  0
 19  7  1  0  0  0  0
 20 13  1  0  0  0  0
 21 18  2  0  0  0  0
 22 21  1  0  0  0  0
 22 19  2  0  0  0  0
M  END
>  <idnumber>
T5634061

>  <LogP>
2.582000000000000e+000

>  <rotating_bonds>
3.000000000000000e+000

>  <hb_acceptors>
2.000000000000000e+000

>  <hb_donors>
2.000000000000000e+000

>  <PSA>
5.820000000000000e+001

>  <clusterid>
-1004

>  <is_centroid>
@

>  <class1>
625

>  <class2>
650

>  <population1>
877209

>  <population2>
168

>  <population>
168

>  <cansmi>
Cc1ccc(cc1)CNC(=O)c1cc2ccccc2c(=O)[nH]1

>  <HBA2>
3

>  <HBD>
2

>  <logP>
3.1574

>  <TPSA>
61.96

>  <MW>
292.332

$$$$

 OpenBabel02121609142D

 21 23  0  0  0  0  0  0  0  0999 V2000
   -1.6750    0.2083    0.0000 C   0  0  0  0  0  0  0  0  0  0  0  0
   -1.0083   -0.5375    0.0000 N   0  0  0  0  0  0  0  0  0  0  0  0
    0.3292   -2.0250    0.0000 N   0  0  0  0  0  0  0  0  0  0  0  0
   -1.3708    1.1583    0.0000 N   0  0  0  0  0  0  0  0  0  0  0  0
   -1.7250    2.8500    0.0000 C   0  0  0  0  0  0  0  0  0  0  0  0
   -2.3125    3.6583    0.0000 O   0  0  0  0  0  0  0  0  0  0  0  0
   -1.3208   -1.4917    0.0000 C   0  0  0  0  0  0  0  0  0  0  0  0
   -0.0333   -0.3292    0.0000 C   0  0  0  0  0  0  0  0  0  0  0  0
   -2.6583   -0.0042    0.0000 O   0  0  0  0  0  0  0  0  0  0  0  0
    0.6417   -1.0750    0.0000 C   0  0  0  0  0  0  0  0  0  0  0  0
   -0.6458   -2.2292    0.0000 C   0  0  0  0  0  0  0  0  0  0  0  0
    1.0000   -2.7667    0.0000 C   0  0  0  0  0  0  0  0  0  0  0  0
   -0.7750    3.1583    0.0000 C   0  0  0  0  0  0  0  0  0  0  0  0
   -1.7250    4.4625    0.0000 C   0  0  0  0  0  0  0  0  0  0  0  0
   -0.7750    4.1542    0.0000 C   0  0  0  0  0  0  0  0  0  0  0  0
   -2.0333    1.9000    0.0000 C   0  0  0  0  0  0  0  0  0  0  0  0
    0.6917   -3.7167    0.0000 C   0  0  0  0  0  0  0  0  0  0  0  0
    1.9792   -2.5625    0.0000 C   0  0  0  0  0  0  0  0  0  0  0  0
    2.6500   -3.3042    0.0000 C   0  0  0  0  0  0  0  0  0  0  0  0
    1.3625   -4.4625    0.0000 C   0  0  0  0  0  0  0  0  0  0  0  0
    2.3417   -4.2542    0.0000 C   0  0  0  0  0  0  0  0  0  0  0  0
  2  1  1  0  0  0  0
  3 10  1  0  0  0  0
  4  1  1  0  0  0  0
  5 16  1  0  0  0  0
  6  5  1  0  0  0  0
  7  2  1  0  0  0  0
  8  2  1  0  0  0  0
  9  1  2  0  0  0  0
 10  8  1  0  0  0  0
 11  7  1  0  0  0  0
 11  3  1  0  0  0  0
 12  3  1  0  0  0  0
 13  5  2  0  0  0  0
 14  6  1  0  0  0  0
 15 13  1  0  0  0  0
 15 14  2  0  0  0  0
 16  4  1  0  0  0  0
 17 12  1  0  0  0  0
 18 12  2  0  0  0  0
 19 18  1  0  0  0  0
 20 17  2  0  0  0  0
 20 21  1  0  0  0  0
 21 19  2  0  0  0  0
M  END
>  <idnumber>
T5635938

>  <LogP>
1.791000000000000e+000

>  <rotating_bonds>
3.000000000000000e+000

>  <hb_acceptors>
2.000000000000000e+000

>  <hb_donors>
1.000000000000000e+000

>  <PSA>
4.872000000000001e+001

>  <clusterid>
580

>  <is_centroid>
@

>  <class1>
704

>  <class2>
717

>  <class3>
625

>  <population1>
51112

>  <population2>
74368

>  <population3>
877209

>  <population>
3504

>  <cansmi>
O=C(N1CCN(CC1)c1ccccc1)NCc1ccco1

>  <HBA2>
5

>  <HBD>
1

>  <logP>
2.7052

>  <TPSA>
48.72

>  <MW>
285.341

$$$$

 OpenBabel02121609142D

 20 22  0  0  0  0  0  0  0  0999 V2000
    1.3167    1.4375    0.0000 C   0  0  0  0  0  0  0  0  0  0  0  0
    0.7292    2.2458    0.0000 N   0  0  0  0  0  0  0  0  0  0  0  0
    1.0042    0.4875    0.0000 C   0  0  0  0  0  0  0  0  0  0  0  0
    1.6750   -0.2542    0.0000 N   0  0  0  0  0  0  0  0  0  0  0  0
    2.2667    2.7458    0.0000 N   0  0  0  0  0  0  0  0  0  0  0  0
    1.3167    3.0583    0.0000 C   0  0  0  0  0  0  0  0  0  0  0  0
    2.2667    1.7458    0.0000 C   0  0  0  0  0  0  0  0  0  0  0  0
    1.3667   -1.2042    0.0000 C   0  0  0  0  0  0  0  0  0  0  0  0
   -0.2708    2.2458    0.0000 C   0  0  0  0  0  0  0  0  0  0  0  0
    0.0292    0.2833    0.0000 O   0  0  0  0  0  0  0  0  0  0  0  0
    2.0375   -1.9500    0.0000 N   0  0  0  0  0  0  0  0  0  0  0  0
    1.7292   -2.9000    0.0000 C   0  0  0  0  0  0  0  0  0  0  0  0
    0.3875   -1.4167    0.0000 C   0  0  0  0  0  0  0  0  0  0  0  0
   -0.7708    3.1125    0.0000 C   0  0  0  0  0  0  0  0  0  0  0  0
   -0.7708    1.3833    0.0000 C   0  0  0  0  0  0  0  0  0  0  0  0
    0.7500   -3.1042    0.0000 C   0  0  0  0  0  0  0  0  0  0  0  0
    0.0792   -2.3667    0.0000 C   0  0  0  0  0  0  0  0  0  0  0  0
   -1.7708    1.3833    0.0000 C   0  0  0  0  0  0  0  0  0  0  0  0
   -1.7708    3.1125    0.0000 C   0  0  0  0  0  0  0  0  0  0  0  0
   -2.2708    2.2458    0.0000 C   0  0  0  0  0  0  0  0  0  0  0  0
  2  1  1  0  0  0  0
  3  1  1  0  0  0  0
  4  3  1  0  0  0  0
  5  7  1  0  0  0  0
  5  6  2  0  0  0  0
  6  2  1  0  0  0  0
  7  1  2  0  0  0  0
  8  4  1  0  0  0  0
  9  2  1  0  0  0  0
 10  3  2  0  0  0  0
 11  8  2  0  0  0  0
 12 11  1  0  0  0  0
 12 16  2  0  0  0  0
 13  8  1  0  0  0  0
 14  9  1  0  0  0  0
 15  9  2  0  0  0  0
 16 17  1  0  0  0  0
 17 13  2  0  0  0  0
 18 15  1  0  0  0  0
 19 14  2  0  0  0  0
 19 20  1  0  0  0  0
 20 18  2  0  0  0  0
M  END
>  <idnumber>
T5635941

>  <LogP>
2.325000000000000e+000

>  <rotating_bonds>
3.000000000000000e+000

>  <hb_acceptors>
3.000000000000000e+000

>  <hb_donors>
1.000000000000000e+000

>  <PSA>
5.981000000000002e+001

>  <clusterid>
581

>  <is_centroid>
@

>  <class1>
686

>  <class2>
625

>  <class3>
632

>  <population1>
31113

>  <population2>
877209

>  <population3>
79489

>  <population>
603

>  <cansmi>
O=C(c1cncn1c1ccccc1)Nc1ccccn1

>  <HBA2>
5

>  <HBD>
1

>  <logP>
2.5926

>  <TPSA>
59.81

>  <MW>
264.282

$$$$

 OpenBabel02121609142D

 22 24  0  0  0  0  0  0  0  0999 V2000
   -1.7333   -0.5000    0.0000 C   0  0  0  0  0  0  0  0  0  0  0  0
   -0.8708   -1.0000    0.0000 N   0  0  0  0  0  0  0  0  0  0  0  0
    0.8625   -2.0000    0.0000 C   0  0  0  0  0  0  0  0  0  0  0  0
    0.8625   -1.0000    0.0000 C   0  0  0  0  0  0  0  0  0  0  0  0
   -1.7333    0.5000    0.0000 N   0  0  0  0  0  0  0  0  0  0  0  0
    0.0000   -0.5000    0.0000 C   0  0  0  0  0  0  0  0  0  0  0  0
   -0.8708   -2.0000    0.0000 C   0  0  0  0  0  0  0  0  0  0  0  0
   -2.6000   -1.0000    0.0000 O   0  0  0  0  0  0  0  0  0  0  0  0
   -3.4708    2.5000    0.0000 N   0  0  0  0  0  0  0  0  0  0  0  0
    0.0000   -2.5000    0.0000 C   0  0  0  0  0  0  0  0  0  0  0  0
    1.7292   -2.5000    0.0000 C   0  0  0  0  0  0  0  0  0  0  0  0
   -2.6000    1.0000    0.0000 C   0  0  0  0  0  0  0  0  0  0  0  0
   -2.6000    2.0083    0.0000 C   0  0  0  0  0  0  0  0  0  0  0  0
   -3.4708    3.5000    0.0000 C   0  0  0  0  0  0  0  0  0  0  0  0
    1.7292   -3.5000    0.0000 C   0  0  0  0  0  0  0  0  0  0  0  0
    2.5917   -2.0000    0.0000 C   0  0  0  0  0  0  0  0  0  0  0  0
   -1.7333    2.5000    0.0000 C   0  0  0  0  0  0  0  0  0  0  0  0
   -2.6000    4.0000    0.0000 C   0  0  0  0  0  0  0  0  0  0  0  0
    3.4625   -2.5000    0.0000 C   0  0  0  0  0  0  0  0  0  0  0  0
    2.5917   -4.0000    0.0000 C   0  0  0  0  0  0  0  0  0  0  0  0
   -1.7333    3.5000    0.0000 C   0  0  0  0  0  0  0  0  0  0  0  0
    3.4625   -3.5000    0.0000 C   0  0  0  0  0  0  0  0  0  0  0  0
  2  1  1  0  0  0  0
  3 10  1  0  0  0  0
  4  6  1  0  0  0  0
  4  3  2  0  0  0  0
  5  1  1  0  0  0  0
  6  2  1  0  0  0  0
  7  2  1  0  0  0  0
  8  1  2  0  0  0  0
  9 13  2  0  0  0  0
 10  7  1  0  0  0  0
 11  3  1  0  0  0  0
 12  5  1  0  0  0  0
 13 12  1  0  0  0  0
 14  9  1  0  0  0  0
 14 18  2  0  0  0  0
 15 11  1  0  0  0  0
 16 11  2  0  0  0  0
 17 13  1  0  0  0  0
 18 21  1  0  0  0  0
 19 16  1  0  0  0  0
 20 15  2  0  0  0  0
 20 22  1  0  0  0  0
 21 17  2  0  0  0  0
 22 19  2  0  0  0  0
M  END
>  <idnumber>
T5636098

>  <LogP>
2.276000000000000e+000

>  <rotating_bonds>
3.000000000000000e+000

>  <hb_acceptors>
2.000000000000000e+000

>  <hb_donors>
1.000000000000000e+000

>  <PSA>
4.523000000000000e+001

>  <clusterid>
-1007

>  <is_centroid>
@

>  <class1>
715

>  <class2>
625

>  <class3>
632

>  <population1>
4585

>  <population2>
877209

>  <population3>
79489

>  <population>
149

>  <cansmi>
O=C(N1CCC(=CC1)c1ccccc1)NCc1ccccn1

>  <HBA2>
4

>  <HBD>
1

>  <logP>
3.4093

>  <TPSA>
45.23

>  <MW>
293.363

$$$$

 OpenBabel02121609142D

 18 20  0  0  0  0  0  0  0  0999 V2000
    1.2917   -0.4792    0.0000 C   0  0  0  0  0  0  0  0  0  0  0  0
    0.4292    0.0208    0.0000 N   0  0  0  0  0  0  0  0  0  0  0  0
    0.4292    1.0208    0.0000 C   0  0  0  0  0  0  0  0  0  0  0  0
   -0.4333    1.5208    0.0000 C   0  0  0  0  0  0  0  0  0  0  0  0
   -1.3000    1.0208    0.0000 N   0  0  0  0  0  0  0  0  0  0  0  0
    1.2917   -1.4792    0.0000 C   0  0  3  0  0  0  0  0  0  0  0  0
    2.1625    0.0208    0.0000 O   0  0  0  0  0  0  0  0  0  0  0  0
    2.1042   -2.0667    0.0000 O   0  0  0  0  0  0  0  0  0  0  0  0
   -0.4333    2.5208    0.0000 C   0  0  0  0  0  0  0  0  0  0  0  0
    1.2917    1.5208    0.0000 C   0  0  0  0  0  0  0  0  0  0  0  0
    1.2917    2.5208    0.0000 C   0  0  0  0  0  0  0  0  0  0  0  0
   -2.1708    1.5208    0.0000 C   0  0  0  0  0  0  0  0  0  0  0  0
    1.7917   -3.0167    0.0000 C   0  0  0  0  0  0  0  0  0  0  0  0
    0.4292    3.0208    0.0000 C   0  0  0  0  0  0  0  0  0  0  0  0
    0.4875   -2.0667    0.0000 C   0  0  0  0  0  0  0  0  0  0  0  0
   -1.3000    3.0208    0.0000 C   0  0  0  0  0  0  0  0  0  0  0  0
   -2.1708    2.5208    0.0000 C   0  0  0  0  0  0  0  0  0  0  0  0
    0.7917   -3.0167    0.0000 C   0  0  0  0  0  0  0  0  0  0  0  0
  2  1  1  0  0  0  0
  3  2  1  0  0  0  0
  4  3  2  0  0  0  0
  5  4  1  0  0  0  0
  6  1  1  0  0  0  0
  7  1  2  0  0  0  0
  8  6  1  0  0  0  0
  9  4  1  0  0  0  0
  9 14  2  0  0  0  0
 10  3  1  0  0  0  0
 11 10  2  0  0  0  0
 12  5  2  0  0  0  0
 13  8  1  0  0  0  0
 14 11  1  0  0  0  0
 15  6  1  0  0  0  0
 16  9  1  0  0  0  0
 17 16  2  0  0  0  0
 17 12  1  0  0  0  0
 18 15  1  0  0  0  0
 18 13  1  0  0  0  0
M  END
>  <idnumber>
T5636201

>  <LogP>
1.915000000000000e+000

>  <rotating_bonds>
2.000000000000000e+000

>  <hb_acceptors>
3.000000000000000e+000

>  <hb_donors>
1.000000000000000e+000

>  <PSA>
5.121999999999999e+001

>  <clusterid>
-1008

>  <is_centroid>
@

>  <class1>
723

>  <class2>
682

>  <population1>
9592

>  <population2>
20351

>  <population>
151

>  <cansmi>
O=C(C1CCCO1)Nc1cccc2c1nccc2

>  <HBA2>
4

>  <HBD>
1

>  <logP>
2.4253

>  <TPSA>
51.22

>  <MW>
242.273

$$$$

 OpenBabel02121609142D

 17 18  0  0  0  0  0  0  0  0999 V2000
   -0.0833    1.3333    0.0000 C   0  0  0  0  0  0  0  0  0  0  0  0
   -0.6708    2.1458    0.0000 N   0  0  0  0  0  0  0  0  0  0  0  0
   -0.3958    0.3750    0.0000 C   0  0  0  0  0  0  0  0  0  0  0  0
    0.2750   -0.3667    0.0000 N   0  0  0  0  0  0  0  0  0  0  0  0
    0.8667    1.6375    0.0000 C   0  0  0  0  0  0  0  0  0  0  0  0
   -0.0333   -1.3167    0.0000 C   0  0  0  0  0  0  0  0  0  0  0  0
   -0.0833    2.9458    0.0000 C   0  0  0  0  0  0  0  0  0  0  0  0
    0.8667    2.6458    0.0000 C   0  0  0  0  0  0  0  0  0  0  0  0
    0.6375   -2.0625    0.0000 N   0  0  0  0  0  0  0  0  0  0  0  0
   -1.3708    0.1708    0.0000 O   0  0  0  0  0  0  0  0  0  0  0  0
   -1.0125   -1.5250    0.0000 C   0  0  0  0  0  0  0  0  0  0  0  0
    1.6750    3.2333    0.0000 Br  0  0  0  0  0  0  0  0  0  0  0  0
   -1.6708    2.1458    0.0000 C   0  0  0  0  0  0  0  0  0  0  0  0
    0.3292   -3.0125    0.0000 C   0  0  0  0  0  0  0  0  0  0  0  0
   -1.6833   -0.7792    0.0000 C   0  0  0  0  0  0  0  0  0  0  0  0
   -1.3208   -2.4750    0.0000 C   0  0  0  0  0  0  0  0  0  0  0  0
   -0.6500   -3.2167    0.0000 C   0  0  0  0  0  0  0  0  0  0  0  0
  2  1  1  0  0  0  0
  3  1  1  0  0  0  0
  4  3  1  0  0  0  0
  5  1  2  0  0  0  0
  6  4  1  0  0  0  0
  7  2  1  0  0  0  0
  8  5  1  0  0  0  0
  8  7  2  0  0  0  0
  9  6  1  0  0  0  0
 10  3  2  0  0  0  0
 11  6  2  0  0  0  0
 12  8  1  0  0  0  0
 13  2  1  0  0  0  0
 14  9  2  0  0  0  0
 15 11  1  0  0  0  0
 16 11  1  0  0  0  0
 17 16  2  0  0  0  0
 17 14  1  0  0  0  0
M  END
>  <idnumber>
T5636783

>  <LogP>
1.413000000000000e+000

>  <rotating_bonds>
2.000000000000000e+000

>  <hb_acceptors>
2.000000000000000e+000

>  <hb_donors>
1.000000000000000e+000

>  <PSA>
4.692000000000000e+001

>  <clusterid>
584

>  <is_centroid>
@

>  <class1>
635

>  <class2>
632

>  <population1>
31512

>  <population2>
79489

>  <population>
1851

>  <cansmi>
Brc1cn(c(c1)C(=O)Nc1ncccc1C)C

>  <HBA2>
4

>  <HBD>
1

>  <logP>
2.8163

>  <TPSA>
46.92

>  <MW>
294.147

$$$$

 OpenBabel02121609142D

 12 13  0  0  0  0  0  0  0  0999 V2000
    0.8625   -2.0000    0.0000 N   0  0  0  0  0  0  0  0  0  0  0  0
    0.8625   -1.0000    0.0000 C   0  0  0  0  0  0  0  0  0  0  0  0
    0.8625    0.0000    0.0000 C   0  0  0  0  0  0  0  0  0  0  0  0
    1.7292    0.5000    0.0000 N   0  0  0  0  0  0  0  0  0  0  0  0
    0.0000    0.5083    0.0000 C   0  0  0  0  0  0  0  0  0  0  0  0
    0.0000    1.5000    0.0000 C   0  0  0  0  0  0  0  0  0  0  0  0
    1.7292    1.5000    0.0000 C   0  0  0  0  0  0  0  0  0  0  0  0
   -0.8708    0.0000    0.0000 C   0  0  0  0  0  0  0  0  0  0  0  0
    0.8625    2.0000    0.0000 C   0  0  0  0  0  0  0  0  0  0  0  0
   -0.8708    2.0083    0.0000 C   0  0  0  0  0  0  0  0  0  0  0  0
   -1.7333    0.5083    0.0000 C   0  0  0  0  0  0  0  0  0  0  0  0
   -1.7333    1.5000    0.0000 C   0  0  0  0  0  0  0  0  0  0  0  0
  2  1  3  0  0  0  0
  3  2  1  0  0  0  0
  4  3  1  0  0  0  0
  5  3  2  0  0  0  0
  6  5  1  0  0  0  0
  7  4  2  0  0  0  0
  7  9  1  0  0  0  0
  8  5  1  0  0  0  0
  9  6  2  0  0  0  0
 10  6  1  0  0  0  0
 10 12  2  0  0  0  0
 11  8  2  0  0  0  0
 12 11  1  0  0  0  0
M  END
>  <idnumber>
T5636946

>  <LogP>
1.647000000000000e+000

>  <rotating_bonds>
1.000000000000000e+000

>  <hb_acceptors>
2.000000000000000e+000

>  <hb_donors>
0.000000000000000e+000

>  <PSA>
3.668000000000000e+001

>  <clusterid>
-1011

>  <is_centroid>
@

>  <class1>
873

>  <population1>
672

>  <population>
672

>  <cansmi>
N#Cc1nccc2c1cccc2

>  <HBA2>
2

>  <HBD>
0

>  <logP>
2.10648

>  <TPSA>
36.68

>  <MW>
154.168

$$$$

 OpenBabel02121609142D

 10 11  0  0  0  0  0  0  0  0999 V2000
    0.9167    0.7958    0.0000 C   0  0  0  0  0  0  0  0  0  0  0  0
   -0.5833   -0.0667    0.0000 C   0  0  0  0  0  0  0  0  0  0  0  0
    1.7792    1.2958    0.0000 C   0  0  0  0  0  0  0  0  0  0  0  0
    1.7792    0.2958    0.0000 C   0  0  0  0  0  0  0  0  0  0  0  0
   -0.1750   -0.9875    0.0000 S   0  0  0  0  0  0  0  0  0  0  0  0
   -0.0833    0.7958    0.0000 C   0  0  3  0  0  0  0  0  0  0  0  0
   -1.5833   -0.1750    0.0000 C   0  0  0  0  0  0  0  0  0  0  0  0
   -0.9208   -1.6542    0.0000 C   0  0  0  0  0  0  0  0  0  0  0  0
   -1.7875   -1.1542    0.0000 C   0  0  0  0  0  0  0  0  0  0  0  0
   -0.5833    1.6583    0.0000 N   0  0  0  0  0  0  0  0  0  0  0  0
  2  6  1  0  0  0  0
  3  1  1  0  0  0  0
  4  1  1  0  0  0  0
  4  3  1  0  0  0  0
  5  2  1  0  0  0  0
  6  1  1  0  0  0  0
  7  2  2  0  0  0  0
  8  5  1  0  0  0  0
  9  7  1  0  0  0  0
  9  8  2  0  0  0  0
 10  6  1  0  0  0  0
M  END
>  <idnumber>
T5636948

>  <LogP>
1.493000000000000e+000

>  <rotating_bonds>
2.000000000000000e+000

>  <hb_acceptors>
2.000000000000000e+000

>  <hb_donors>
1.000000000000000e+000

>  <PSA>
5.426000000000001e+001

>  <clusterid>
-1012

>  <is_centroid>
@

>  <class1>
675

>  <class2>
645

>  <population1>
33654

>  <population2>
105961

>  <population>
3849

>  <cansmi>
NC(c1cccs1)C1CC1

>  <HBA2>
2

>  <HBD>
1

>  <logP>
2.8582

>  <TPSA>
54.26

>  <MW>
153.245

$$$$

 OpenBabel02121609142D

 12 13  0  0  0  0  0  0  0  0999 V2000
   -0.9083    0.1375    0.0000 N   0  0  0  0  0  0  0  0  0  0  0  0
   -0.9083   -0.8625    0.0000 C   0  0  0  0  0  0  0  0  0  0  0  0
    0.0417   -1.1750    0.0000 N   0  0  0  0  0  0  0  0  0  0  0  0
    0.6292   -0.3625    0.0000 C   0  0  0  0  0  0  0  0  0  0  0  0
    0.0417    0.4458    0.0000 C   0  0  0  0  0  0  0  0  0  0  0  0
    2.6292    1.3708    0.0000 N   0  0  0  0  0  0  0  0  0  0  0  0
    2.1292    0.5000    0.0000 C   0  0  0  0  0  0  0  0  0  0  0  0
   -1.7708    0.6375    0.0000 C   0  0  0  0  0  0  0  0  0  0  0  0
   -1.7708   -1.3625    0.0000 C   0  0  0  0  0  0  0  0  0  0  0  0
    1.6292   -0.3625    0.0000 C   0  0  0  0  0  0  0  0  0  0  0  0
   -2.6375    0.1375    0.0000 C   0  0  0  0  0  0  0  0  0  0  0  0
   -2.6375   -0.8625    0.0000 C   0  0  0  0  0  0  0  0  0  0  0  0
  2  1  1  0  0  0  0
  3  2  2  0  0  0  0
  4  5  2  0  0  0  0
  4  3  1  0  0  0  0
  5  1  1  0  0  0  0
  6  7  3  0  0  0  0
  7 10  1  0  0  0  0
  8  1  1  0  0  0  0
  9  2  1  0  0  0  0
  9 12  2  0  0  0  0
 10  4  1  0  0  0  0
 11  8  2  0  0  0  0
 12 11  1  0  0  0  0
M  END
>  <idnumber>
T5636956

>  <LogP>
6.280000000000000e-001

>  <rotating_bonds>
2.000000000000000e+000

>  <hb_acceptors>
3.000000000000000e+000

>  <hb_donors>
0.000000000000000e+000

>  <PSA>
4.109000000000000e+001

>  <clusterid>
-1013

>  <is_centroid>
@

>  <class1>
660

>  <population1>
3949

>  <population>
3949

>  <cansmi>
N#CCc1nc2n(c1)cccc2

>  <HBA2>
3

>  <HBD>
0

>  <logP>
1.40038

>  <TPSA>
41.09

>  <MW>
157.172

$$$$

 OpenBabel02121609142D

 15 16  0  0  0  0  0  0  0  0999 V2000
   -0.0083    1.0000    0.0000 N   0  0  0  0  0  0  0  0  0  0  0  0
    0.8625    2.5083    0.0000 C   0  0  0  0  0  0  0  0  0  0  0  0
    1.7292    2.0000    0.0000 N   0  0  0  0  0  0  0  0  0  0  0  0
   -0.0083    2.0000    0.0000 C   0  0  0  0  0  0  0  0  0  0  0  0
    0.8625    3.5000    0.0000 O   0  0  0  0  0  0  0  0  0  0  0  0
   -0.8708    0.5000    0.0000 C   0  0  0  0  0  0  0  0  0  0  0  0
   -0.8708   -0.5000    0.0000 C   0  0  0  0  0  0  0  0  0  0  0  0
   -0.8708   -2.4917    0.0000 C   0  0  0  0  0  0  0  0  0  0  0  0
    1.7292    1.0000    0.0000 C   0  0  0  0  0  0  0  0  0  0  0  0
   -0.8708   -3.5000    0.0000 Cl  0  0  0  0  0  0  0  0  0  0  0  0
    0.8625    0.5000    0.0000 C   0  0  0  0  0  0  0  0  0  0  0  0
   -0.0083   -2.0000    0.0000 C   0  0  0  0  0  0  0  0  0  0  0  0
   -1.7333   -2.0000    0.0000 C   0  0  0  0  0  0  0  0  0  0  0  0
   -1.7333   -0.9917    0.0000 C   0  0  0  0  0  0  0  0  0  0  0  0
   -0.0083   -0.9917    0.0000 C   0  0  0  0  0  0  0  0  0  0  0  0
  2  4  1  0  0  0  0
  2  3  1  0  0  0  0
  3  9  1  0  0  0  0
  4  1  1  0  0  0  0
  5  2  2  0  0  0  0
  6  1  1  0  0  0  0
  7  6  1  0  0  0  0
  8 12  1  0  0  0  0
  9 11  1  0  0  0  0
 10  8  1  0  0  0  0
 11  1  1  0  0  0  0
 12 15  2  0  0  0  0
 13 14  1  0  0  0  0
 13  8  2  0  0  0  0
 14  7  2  0  0  0  0
 15  7  1  0  0  0  0
M  END
>  <idnumber>
T5637379

>  <LogP>
2.248000000000000e+000

>  <rotating_bonds>
2.000000000000000e+000

>  <hb_acceptors>
3.000000000000000e+000

>  <hb_donors>
1.000000000000000e+000

>  <PSA>
3.234000000000000e+001

>  <clusterid>
585

>  <is_centroid>
@

>  <class1>
625

>  <class2>
688

>  <population1>
877209

>  <population2>
1117

>  <population>
898

>  <cansmi>
O=C1NCCN(C1)Cc1ccc(cc1)Cl

>  <HBA2>
3

>  <HBD>
1

>  <logP>
1.5385

>  <TPSA>
32.34

>  <MW>
224.687

$$$$

 OpenBabel02121609142D

 22 24  0  0  0  0  0  0  0  0999 V2000
   -0.4333    0.2500    0.0000 C   0  0  3  0  0  0  0  0  0  0  0  0
   -1.3000   -1.2500    0.0000 C   0  0  0  0  0  0  0  0  0  0  0  0
   -0.4333   -0.7500    0.0000 O   0  0  0  0  0  0  0  0  0  0  0  0
    0.4292    0.7500    0.0000 C   0  0  0  0  0  0  0  0  0  0  0  0
    1.2917    0.2500    0.0000 N   0  0  0  0  0  0  0  0  0  0  0  0
   -2.1708   -0.7500    0.0000 C   0  0  0  0  0  0  0  0  0  0  0  0
   -2.1708    0.2500    0.0000 C   0  0  0  0  0  0  0  0  0  0  0  0
   -1.3000    0.7500    0.0000 C   0  0  0  0  0  0  0  0  0  0  0  0
    2.1625    0.7500    0.0000 C   0  0  0  0  0  0  0  0  0  0  0  0
   -1.3000   -2.2417    0.0000 O   0  0  0  0  0  0  0  0  0  0  0  0
    0.4292    1.7500    0.0000 O   0  0  0  0  0  0  0  0  0  0  0  0
    3.0292    0.2500    0.0000 C   0  0  0  0  0  0  0  0  0  0  0  0
    0.5667    0.2500    0.0000 C   0  0  0  0  0  0  0  0  0  0  0  0
   -3.0333    0.7500    0.0000 C   0  0  0  0  0  0  0  0  0  0  0  0
   -3.0333   -1.2500    0.0000 C   0  0  0  0  0  0  0  0  0  0  0  0
    2.1625    1.7500    0.0000 C   0  0  0  0  0  0  0  0  0  0  0  0
    3.0292   -0.7500    0.0000 C   0  0  0  0  0  0  0  0  0  0  0  0
    3.8917    0.7500    0.0000 C   0  0  0  0  0  0  0  0  0  0  0  0
   -3.9000    0.2500    0.0000 C   0  0  0  0  0  0  0  0  0  0  0  0
   -3.9000   -0.7500    0.0000 C   0  0  0  0  0  0  0  0  0  0  0  0
    3.0292    2.2500    0.0000 C   0  0  0  0  0  0  0  0  0  0  0  0
    3.8917    1.7500    0.0000 C   0  0  0  0  0  0  0  0  0  0  0  0
  2  3  1  0  0  0  0
  2  6  1  0  0  0  0
  3  1  1  0  0  0  0
  4  1  1  0  0  0  0
  5  4  1  0  0  0  0
  6  7  2  0  0  0  0
  7  8  1  0  0  0  0
  8  1  1  0  0  0  0
  9  5  1  0  0  0  0
 10  2  2  0  0  0  0
 11  4  2  0  0  0  0
 12  9  2  0  0  0  0
 13  1  1  0  0  0  0
 14  7  1  0  0  0  0
 15  6  1  0  0  0  0
 16  9  1  0  0  0  0
 17 12  1  0  0  0  0
 18 12  1  0  0  0  0
 18 22  2  0  0  0  0
 19 14  2  0  0  0  0
 20 19  1  0  0  0  0
 20 15  2  0  0  0  0
 21 16  2  0  0  0  0
 22 21  1  0  0  0  0
M  END
>  <idnumber>
T5637461

>  <LogP>
2.964000000000000e+000

>  <rotating_bonds>
2.000000000000000e+000

>  <hb_acceptors>
2.000000000000000e+000

>  <hb_donors>
1.000000000000000e+000

>  <PSA>
5.540000000000000e+001

>  <clusterid>
586

>  <is_centroid>
@

>  <class1>
625

>  <class2>
864

>  <population1>
877209

>  <population2>
637

>  <population>
637

>  <cansmi>
Cc1ccccc1NC(=O)C1(C)OC(=O)c2c(C1)cccc2

>  <HBA2>
4

>  <HBD>
1

>  <logP>
3.1783

>  <TPSA>
55.4

>  <MW>
295.332

$$$$

 OpenBabel02121609142D

 21 23  0  0  0  0  0  0  0  0999 V2000
    0.4292   -0.7500    0.0000 N   0  0  0  0  0  0  0  0  0  0  0  0
   -0.4333   -1.2500    0.0000 C   0  0  0  0  0  0  0  0  0  0  0  0
    0.4292    0.2500    0.0000 C   0  0  3  0  0  0  0  0  0  0  0  0
   -0.4333    0.7500    0.0000 N   0  0  0  0  0  0  0  0  0  0  0  0
   -1.3000   -0.7500    0.0000 C   0  0  0  0  0  0  0  0  0  0  0  0
   -1.3000    0.2500    0.0000 C   0  0  0  0  0  0  0  0  0  0  0  0
    1.2917   -1.2500    0.0000 C   0  0  0  0  0  0  0  0  0  0  0  0
    1.2917    0.7500    0.0000 C   0  0  0  0  0  0  0  0  0  0  0  0
   -0.4333   -2.2500    0.0000 O   0  0  0  0  0  0  0  0  0  0  0  0
    1.2917    1.7500    0.0000 N   0  0  0  0  0  0  0  0  0  0  0  0
   -2.1708   -1.2500    0.0000 C   0  0  0  0  0  0  0  0  0  0  0  0
   -2.1708    0.7500    0.0000 C   0  0  0  0  0  0  0  0  0  0  0  0
    2.1625   -0.7500    0.0000 C   0  0  0  0  0  0  0  0  0  0  0  0
    2.1625    2.2500    0.0000 C   0  0  0  0  0  0  0  0  0  0  0  0
    2.1625    0.2500    0.0000 C   0  0  0  0  0  0  0  0  0  0  0  0
   -3.0333   -0.7500    0.0000 C   0  0  0  0  0  0  0  0  0  0  0  0
    3.0292   -1.2500    0.0000 C   0  0  0  0  0  0  0  0  0  0  0  0
    2.6625    0.1208    0.0000 C   0  0  0  0  0  0  0  0  0  0  0  0
   -3.0333    0.2500    0.0000 C   0  0  0  0  0  0  0  0  0  0  0  0
    3.0292    1.7500    0.0000 C   0  0  0  0  0  0  0  0  0  0  0  0
    3.0292    0.7500    0.0000 C   0  0  0  0  0  0  0  0  0  0  0  0
  2  1  1  0  0  0  0
  3  1  1  0  0  0  0
  4  3  1  0  0  0  0
  5  2  1  0  0  0  0
  5  6  2  0  0  0  0
  6  4  1  0  0  0  0
  7  1  1  0  0  0  0
  8  3  1  0  0  0  0
  9  2  2  0  0  0  0
 10  8  2  0  0  0  0
 11  5  1  0  0  0  0
 12  6  1  0  0  0  0
 13  7  1  0  0  0  0
 14 10  1  0  0  0  0
 14 20  2  0  0  0  0
 15  8  1  0  0  0  0
 16 11  2  0  0  0  0
 17 13  1  0  0  0  0
 18 13  1  0  0  0  0
 19 12  2  0  0  0  0
 19 16  1  0  0  0  0
 20 21  1  0  0  0  0
 21 15  2  0  0  0  0
M  END
>  <idnumber>
T5637550

>  <LogP>
2.824000000000000e+000

>  <rotating_bonds>
3.000000000000000e+000

>  <hb_acceptors>
3.000000000000000e+000

>  <hb_donors>
1.000000000000000e+000

>  <PSA>
4.523000000000000e+001

>  <clusterid>
507

>  <is_centroid>
@

>  <class1>
697

>  <class2>
632

>  <population1>
4727

>  <population2>
79489

>  <population>
143

>  <cansmi>
CC(CN1C(Nc2c(C1=O)cccc2)c1ccccn1)C

>  <HBA2>
4

>  <HBD>
1

>  <logP>
3.38

>  <TPSA>
45.23

>  <MW>
281.352

$$$$

 OpenBabel02121609142D

 19 21  0  0  0  0  0  0  0  0999 V2000
   -1.1208   -0.3625    0.0000 C   0  0  0  0  0  0  0  0  0  0  0  0
   -1.7083    0.4458    0.0000 N   0  0  0  0  0  0  0  0  0  0  0  0
   -1.7083   -1.1750    0.0000 N   0  0  0  0  0  0  0  0  0  0  0  0
   -2.6583    0.1375    0.0000 C   0  0  0  0  0  0  0  0  0  0  0  0
   -2.6583   -0.8625    0.0000 C   0  0  0  0  0  0  0  0  0  0  0  0
   -0.1208   -0.3625    0.0000 C   0  0  0  0  0  0  0  0  0  0  0  0
    3.3792    0.5083    0.0000 C   0  0  0  0  0  0  0  0  0  0  0  0
    2.8792   -0.3625    0.0000 N   0  0  0  0  0  0  0  0  0  0  0  0
    4.3792    0.5083    0.0000 O   0  0  0  0  0  0  0  0  0  0  0  0
    0.3792   -1.2292    0.0000 C   0  0  0  0  0  0  0  0  0  0  0  0
    0.3792    0.5083    0.0000 C   0  0  0  0  0  0  0  0  0  0  0  0
    1.8792   -0.3625    0.0000 C   0  0  0  0  0  0  0  0  0  0  0  0
    1.3792   -1.2292    0.0000 C   0  0  0  0  0  0  0  0  0  0  0  0
    1.3792    0.5083    0.0000 C   0  0  0  0  0  0  0  0  0  0  0  0
   -3.5208    0.6375    0.0000 C   0  0  0  0  0  0  0  0  0  0  0  0
   -3.5208   -1.3625    0.0000 C   0  0  0  0  0  0  0  0  0  0  0  0
    2.8792    1.3708    0.0000 C   0  0  0  0  0  0  0  0  0  0  0  0
   -4.3958   -0.8625    0.0000 C   0  0  0  0  0  0  0  0  0  0  0  0
   -4.3958    0.1375    0.0000 C   0  0  0  0  0  0  0  0  0  0  0  0
  2  1  2  0  0  0  0
  3  1  1  0  0  0  0
  4  2  1  0  0  0  0
  4  5  2  0  0  0  0
  5  3  1  0  0  0  0
  6  1  1  0  0  0  0
  7  8  1  0  0  0  0
  8 12  1  0  0  0  0
  9  7  2  0  0  0  0
 10  6  2  0  0  0  0
 11  6  1  0  0  0  0
 12 14  1  0  0  0  0
 13 10  1  0  0  0  0
 13 12  2  0  0  0  0
 14 11  2  0  0  0  0
 15  4  1  0  0  0  0
 16  5  1  0  0  0  0
 17  7  1  0  0  0  0
 18 16  2  0  0  0  0
 19 15  2  0  0  0  0
 19 18  1  0  0  0  0
M  END
>  <idnumber>
T5638174

>  <LogP>
2.848000000000000e+000

>  <rotating_bonds>
2.000000000000000e+000

>  <hb_acceptors>
2.000000000000000e+000

>  <hb_donors>
2.000000000000000e+000

>  <PSA>
5.778000000000000e+001

>  <clusterid>
-1015

>  <is_centroid>
@

>  <class1>
685

>  <class2>
625

>  <population1>
28767

>  <population2>
877209

>  <population>
28767

>  <cansmi>
CC(=O)Nc1ccc(cc1)c1nc2c([nH]1)cccc2

>  <HBA2>
3

>  <HBD>
2

>  <logP>
3.2613

>  <TPSA>
57.78

>  <MW>
251.283

$$$$

 OpenBabel02121609142D

 14 15  0  0  0  0  0  0  0  0999 V2000
    0.6292    1.4708    0.0000 C   0  0  0  0  0  0  0  0  0  0  0  0
    1.5792    1.7750    0.0000 N   0  0  0  0  0  0  0  0  0  0  0  0
    0.0417    2.2750    0.0000 N   0  0  0  0  0  0  0  0  0  0  0  0
    0.3167    0.5208    0.0000 S   0  0  0  0  0  0  0  0  0  0  0  0
    0.9917   -0.2292    0.0000 C   0  0  0  0  0  0  0  0  0  0  0  0
   -0.2958   -1.3875    0.0000 C   0  0  0  0  0  0  0  0  0  0  0  0
   -0.6083   -2.3375    0.0000 C   0  0  0  0  0  0  0  0  0  0  0  0
    0.6792   -1.1792    0.0000 C   0  0  0  0  0  0  0  0  0  0  0  0
   -1.5833   -2.5417    0.0000 Br  0  0  0  0  0  0  0  0  0  0  0  0
    1.5792    2.7750    0.0000 C   0  0  0  0  0  0  0  0  0  0  0  0
    0.6292    3.0833    0.0000 C   0  0  0  0  0  0  0  0  0  0  0  0
    1.0417   -2.8667    0.0000 C   0  0  0  0  0  0  0  0  0  0  0  0
    0.0625   -3.0792    0.0000 C   0  0  0  0  0  0  0  0  0  0  0  0
    1.3500   -1.9167    0.0000 C   0  0  0  0  0  0  0  0  0  0  0  0
  2  1  2  0  0  0  0
  3  1  1  0  0  0  0
  4  1  1  0  0  0  0
  5  4  1  0  0  0  0
  6  8  1  0  0  0  0
  7  6  2  0  0  0  0
  7 13  1  0  0  0  0
  8  5  1  0  0  0  0
  9  7  1  0  0  0  0
 10  2  1  0  0  0  0
 10 11  1  0  0  0  0
 11  3  1  0  0  0  0
 12 14  1  0  0  0  0
 13 12  2  0  0  0  0
 14  8  2  0  0  0  0
M  END
>  <idnumber>
T5638252

>  <LogP>
2.148000000000000e+000

>  <rotating_bonds>
3.000000000000000e+000

>  <hb_acceptors>
3.000000000000000e+000

>  <hb_donors>
1.000000000000000e+000

>  <PSA>
4.969000000000001e+001

>  <clusterid>
587

>  <is_centroid>
@

>  <class1>
625

>  <class2>
787

>  <population1>
877209

>  <population2>
1009

>  <population>
964

>  <cansmi>
Brc1cccc(c1)CSC1=NCCN1

>  <HBA2>
3

>  <HBD>
1

>  <logP>
2.4059

>  <TPSA>
49.69

>  <MW>
271.177

$$$$

 OpenBabel02121609142D

 16 18  0  0  0  0  0  0  0  0999 V2000
    1.2917   -0.8167    0.0000 C   0  0  0  0  0  0  0  0  0  0  0  0
    0.4292   -0.3167    0.0000 N   0  0  0  0  0  0  0  0  0  0  0  0
    1.2917   -1.8167    0.0000 C   0  0  0  0  0  0  0  0  0  0  0  0
    0.4292    0.6833    0.0000 C   0  0  0  0  0  0  0  0  0  0  0  0
    0.7917   -2.6792    0.0000 C   0  0  0  0  0  0  0  0  0  0  0  0
    1.7917   -2.6792    0.0000 C   0  0  0  0  0  0  0  0  0  0  0  0
   -0.4333    1.1833    0.0000 C   0  0  0  0  0  0  0  0  0  0  0  0
   -1.3000    0.6833    0.0000 N   0  0  0  0  0  0  0  0  0  0  0  0
    2.1625   -0.3167    0.0000 O   0  0  0  0  0  0  0  0  0  0  0  0
   -0.4333    2.1833    0.0000 C   0  0  0  0  0  0  0  0  0  0  0  0
    1.2917    1.1833    0.0000 C   0  0  0  0  0  0  0  0  0  0  0  0
    1.2917    2.1833    0.0000 C   0  0  0  0  0  0  0  0  0  0  0  0
   -2.1708    1.1833    0.0000 C   0  0  0  0  0  0  0  0  0  0  0  0
    0.4292    2.6833    0.0000 C   0  0  0  0  0  0  0  0  0  0  0  0
   -1.3000    2.6833    0.0000 C   0  0  0  0  0  0  0  0  0  0  0  0
   -2.1708    2.1833    0.0000 C   0  0  0  0  0  0  0  0  0  0  0  0
  2  1  1  0  0  0  0
  3  1  1  0  0  0  0
  4  2  1  0  0  0  0
  5  3  1  0  0  0  0
  5  6  1  0  0  0  0
  6  3  1  0  0  0  0
  7  4  2  0  0  0  0
  8  7  1  0  0  0  0
  9  1  2  0  0  0  0
 10  7  1  0  0  0  0
 10 14  2  0  0  0  0
 11  4  1  0  0  0  0
 12 11  2  0  0  0  0
 13  8  2  0  0  0  0
 14 12  1  0  0  0  0
 15 10  1  0  0  0  0
 16 15  2  0  0  0  0
 16 13  1  0  0  0  0
M  END
>  <idnumber>
T5638432

>  <LogP>
2.023000000000000e+000

>  <rotating_bonds>
2.000000000000000e+000

>  <hb_acceptors>
2.000000000000000e+000

>  <hb_donors>
1.000000000000000e+000

>  <PSA>
4.199000000000000e+001

>  <clusterid>
588

>  <is_centroid>
@

>  <class1>
675

>  <class2>
682

>  <population1>
33654

>  <population2>
20351

>  <population>
612

>  <cansmi>
O=C(C1CC1)Nc1cccc2c1nccc2

>  <HBA2>
3

>  <HBD>
1

>  <logP>
2.6563

>  <TPSA>
41.99

>  <MW>
212.247

$$$$

 OpenBabel02121609142D

 22 24  0  0  0  0  0  0  0  0999 V2000
   -0.0208   -0.4542    0.0000 C   0  0  0  0  0  0  0  0  0  0  0  0
    1.5167    0.0458    0.0000 N   0  0  0  0  0  0  0  0  0  0  0  0
    0.5667    0.3583    0.0000 C   0  0  0  0  0  0  0  0  0  0  0  0
    1.5167   -0.9542    0.0000 N   0  0  0  0  0  0  0  0  0  0  0  0
   -1.0208   -0.4542    0.0000 C   0  0  0  0  0  0  0  0  0  0  0  0
    0.5667   -1.2625    0.0000 C   0  0  0  0  0  0  0  0  0  0  0  0
   -1.5208    0.4125    0.0000 C   0  0  0  0  0  0  0  0  0  0  0  0
   -2.5208    0.4125    0.0000 N   0  0  0  0  0  0  0  0  0  0  0  0
    2.3292    0.6333    0.0000 C   0  0  0  0  0  0  0  0  0  0  0  0
   -1.5208   -1.3167    0.0000 O   0  0  0  0  0  0  0  0  0  0  0  0
   -1.0208    1.2833    0.0000 O   0  0  0  0  0  0  0  0  0  0  0  0
    0.2625    1.3083    0.0000 C   0  0  0  0  0  0  0  0  0  0  0  0
    0.2625   -2.2125    0.0000 C   0  0  0  0  0  0  0  0  0  0  0  0
   -3.1083   -0.3917    0.0000 C   0  0  0  0  0  0  0  0  0  0  0  0
   -3.1083    1.2208    0.0000 C   0  0  0  0  0  0  0  0  0  0  0  0
    3.2417    0.2333    0.0000 C   0  0  0  0  0  0  0  0  0  0  0  0
    2.2250    1.6333    0.0000 C   0  0  0  0  0  0  0  0  0  0  0  0
   -4.0583    0.9125    0.0000 C   0  0  0  0  0  0  0  0  0  0  0  0
   -4.0583   -0.0875    0.0000 C   0  0  0  0  0  0  0  0  0  0  0  0
    3.0292    2.2208    0.0000 C   0  0  0  0  0  0  0  0  0  0  0  0
    4.0542    0.8208    0.0000 C   0  0  0  0  0  0  0  0  0  0  0  0
    3.9500    1.8125    0.0000 C   0  0  0  0  0  0  0  0  0  0  0  0
  2  3  1  0  0  0  0
  3  1  2  0  0  0  0
  4  6  2  0  0  0  0
  4  2  1  0  0  0  0
  5  1  1  0  0  0  0
  6  1  1  0  0  0  0
  7  5  1  0  0  0  0
  8  7  1  0  0  0  0
  9  2  1  0  0  0  0
 10  5  2  0  0  0  0
 11  7  2  0  0  0  0
 12  3  1  0  0  0  0
 13  6  1  0  0  0  0
 14  8  1  0  0  0  0
 15  8  1  0  0  0  0
 16  9  1  0  0  0  0
 17  9  2  0  0  0  0
 18 15  1  0  0  0  0
 18 19  1  0  0  0  0
 19 14  1  0  0  0  0
 20 17  1  0  0  0  0
 21 16  2  0  0  0  0
 21 22  1  0  0  0  0
 22 20  2  0  0  0  0
M  END
>  <idnumber>
T5638884

>  <LogP>
2.168000000000000e+000

>  <rotating_bonds>
3.000000000000000e+000

>  <hb_acceptors>
3.000000000000000e+000

>  <hb_donors>
0.000000000000000e+000

>  <PSA>
5.520000000000000e+001

>  <clusterid>
-1016

>  <is_centroid>
@

>  <class1>
631

>  <class2>
625

>  <class3>
642

>  <population1>
41612

>  <population2>
877209

>  <population3>
51183

>  <population>
1306

>  <cansmi>
O=C(C(=O)c1c(C)nn(c1C)c1ccccc1)N1CCCC1

>  <HBA2>
5

>  <HBD>
0

>  <logP>
2.2321

>  <TPSA>
55.2

>  <MW>
297.352

$$$$

 OpenBabel02121609142D

 22 25  0  0  0  0  0  0  0  0999 V2000
   -0.7958   -1.3500    0.0000 N   0  0  0  0  0  0  0  0  0  0  0  0
   -1.6583   -1.8500    0.0000 C   0  0  0  0  0  0  0  0  0  0  0  0
   -0.7958   -0.3500    0.0000 C   0  0  3  0  0  0  0  0  0  0  0  0
   -1.6583    0.1500    0.0000 N   0  0  0  0  0  0  0  0  0  0  0  0
   -2.5250   -1.3500    0.0000 C   0  0  0  0  0  0  0  0  0  0  0  0
   -2.5250   -0.3500    0.0000 C   0  0  0  0  0  0  0  0  0  0  0  0
    2.6667    1.6500    0.0000 N   0  0  0  0  0  0  0  0  0  0  0  0
    3.7542    2.8583    0.0000 N   0  0  0  0  0  0  0  0  0  0  0  0
    2.7750    2.6458    0.0000 C   0  0  0  0  0  0  0  0  0  0  0  0
    0.0667    0.1500    0.0000 C   0  0  0  0  0  0  0  0  0  0  0  0
    1.8042    1.1500    0.0000 C   0  0  0  0  0  0  0  0  0  0  0  0
   -1.6583   -2.8500    0.0000 O   0  0  0  0  0  0  0  0  0  0  0  0
    3.5792    1.2458    0.0000 C   0  0  0  0  0  0  0  0  0  0  0  0
    4.2542    1.9875    0.0000 C   0  0  0  0  0  0  0  0  0  0  0  0
    0.9375    1.6500    0.0000 C   0  0  0  0  0  0  0  0  0  0  0  0
    1.8042    0.1500    0.0000 C   0  0  0  0  0  0  0  0  0  0  0  0
    0.0667    1.1500    0.0000 C   0  0  0  0  0  0  0  0  0  0  0  0
    0.9375   -0.3500    0.0000 C   0  0  0  0  0  0  0  0  0  0  0  0
   -3.3958   -1.8500    0.0000 C   0  0  0  0  0  0  0  0  0  0  0  0
   -3.3958    0.1500    0.0000 C   0  0  0  0  0  0  0  0  0  0  0  0
   -4.2583   -1.3500    0.0000 C   0  0  0  0  0  0  0  0  0  0  0  0
   -4.2583   -0.3500    0.0000 C   0  0  0  0  0  0  0  0  0  0  0  0
  2  1  1  0  0  0  0
  3  1  1  0  0  0  0
  4  3  1  0  0  0  0
  5  2  1  0  0  0  0
  6  4  1  0  0  0  0
  6  5  2  0  0  0  0
  7 11  1  0  0  0  0
  8  9  2  0  0  0  0
  9  7  1  0  0  0  0
 10  3  1  0  0  0  0
 11 16  1  0  0  0  0
 12  2  2  0  0  0  0
 13  7  1  0  0  0  0
 14 13  2  0  0  0  0
 14  8  1  0  0  0  0
 15 17  1  0  0  0  0
 15 11  2  0  0  0  0
 16 18  2  0  0  0  0
 17 10  2  0  0  0  0
 18 10  1  0  0  0  0
 19  5  1  0  0  0  0
 20  6  1  0  0  0  0
 21 19  2  0  0  0  0
 22 20  2  0  0  0  0
 22 21  1  0  0  0  0
M  END
>  <idnumber>
T5639294

>  <LogP>
2.058000000000000e+000

>  <rotating_bonds>
2.000000000000000e+000

>  <hb_acceptors>
3.000000000000000e+000

>  <hb_donors>
2.000000000000000e+000

>  <PSA>
5.895000000000000e+001

>  <clusterid>
-1017

>  <is_centroid>
@

>  <class1>
697

>  <class2>
686

>  <class3>
625

>  <population1>
4727

>  <population2>
31113

>  <population3>
877209

>  <population>
47

>  <cansmi>
O=C1NC(Nc2c1cccc2)c1ccc(cc1)n1cncc1

>  <HBA2>
5

>  <HBD>
2

>  <logP>
3.1932

>  <TPSA>
58.95

>  <MW>
290.319

$$$$

 OpenBabel02121609142D

 15 16  0  0  0  0  0  0  0  0999 V2000
   -0.8708    1.5000    0.0000 C   0  0  0  0  0  0  0  0  0  0  0  0
   -0.8708    2.5000    0.0000 N   0  0  0  0  0  0  0  0  0  0  0  0
   -1.7333    1.0000    0.0000 N   0  0  0  0  0  0  0  0  0  0  0  0
   -0.0083    1.0000    0.0000 S   0  0  0  0  0  0  0  0  0  0  0  0
   -0.0083    0.0000    0.0000 C   0  0  0  0  0  0  0  0  0  0  0  0
    0.8625   -1.5000    0.0000 C   0  0  0  0  0  0  0  0  0  0  0  0
    1.7292   -2.0000    0.0000 C   0  0  0  0  0  0  0  0  0  0  0  0
    0.8625   -0.5000    0.0000 C   0  0  0  0  0  0  0  0  0  0  0  0
    1.7292   -3.0000    0.0000 Br  0  0  0  0  0  0  0  0  0  0  0  0
   -1.7333    3.0000    0.0000 C   0  0  0  0  0  0  0  0  0  0  0  0
   -2.6000    2.5000    0.0000 C   0  0  0  0  0  0  0  0  0  0  0  0
   -2.6000    1.5000    0.0000 C   0  0  0  0  0  0  0  0  0  0  0  0
    2.5917   -0.5000    0.0000 C   0  0  0  0  0  0  0  0  0  0  0  0
    2.5917   -1.5000    0.0000 C   0  0  0  0  0  0  0  0  0  0  0  0
    1.7292    0.0000    0.0000 C   0  0  0  0  0  0  0  0  0  0  0  0
  2  1  2  0  0  0  0
  3  1  1  0  0  0  0
  4  1  1  0  0  0  0
  5  4  1  0  0  0  0
  6  8  1  0  0  0  0
  7  6  2  0  0  0  0
  7 14  1  0  0  0  0
  8  5  1  0  0  0  0
  9  7  1  0  0  0  0
 10  2  1  0  0  0  0
 10 11  1  0  0  0  0
 11 12  1  0  0  0  0
 12  3  1  0  0  0  0
 13 15  1  0  0  0  0
 14 13  2  0  0  0  0
 15  8  2  0  0  0  0
M  END
>  <idnumber>
T5640402

>  <LogP>
2.707000000000000e+000

>  <rotating_bonds>
3.000000000000000e+000

>  <hb_acceptors>
3.000000000000000e+000

>  <hb_donors>
1.000000000000000e+000

>  <PSA>
4.969000000000001e+001

>  <clusterid>
590

>  <is_centroid>
@

>  <class1>
625

>  <class2>
847

>  <population1>
877209

>  <population2>
123

>  <population>
109

>  <cansmi>
Brc1cccc(c1)CSC1=NCCCN1

>  <HBA2>
3

>  <HBD>
1

>  <logP>
2.796

>  <TPSA>
49.69

>  <MW>
285.203

$$$$

 OpenBabel02121609142D

 14 16  0  0  0  0  0  0  0  0999 V2000
    1.1875    0.6958    0.0000 S   0  0  0  0  0  0  0  0  0  0  0  0
    0.6000    1.4958    0.0000 N   0  0  0  0  0  0  0  0  0  0  0  0
    0.5792   -0.0917    0.0000 C   0  0  0  0  0  0  0  0  0  0  0  0
   -0.3500    1.2000    0.0000 C   0  0  0  0  0  0  0  0  0  0  0  0
   -0.3500    0.2458    0.0000 C   0  0  0  0  0  0  0  0  0  0  0  0
    2.0542    1.2708    0.0000 O   0  0  0  0  0  0  0  0  0  0  0  0
    2.0417    0.1125    0.0000 O   0  0  0  0  0  0  0  0  0  0  0  0
   -1.1458   -0.3250    0.0000 C   0  0  0  0  0  0  0  0  0  0  0  0
   -1.2125    1.6958    0.0000 C   0  0  0  0  0  0  0  0  0  0  0  0
    0.7292   -1.0542    0.0000 C   0  0  0  0  0  0  0  0  0  0  0  0
   -2.0625    1.2083    0.0000 C   0  0  0  0  0  0  0  0  0  0  0  0
   -0.0125   -1.6875    0.0000 C   0  0  0  0  0  0  0  0  0  0  0  0
   -2.0583    0.2000    0.0000 C   0  0  0  0  0  0  0  0  0  0  0  0
   -0.9583   -1.3292    0.0000 C   0  0  0  0  0  0  0  0  0  0  0  0
  2  1  1  0  0  0  0
  3  1  1  0  0  0  0
  4  2  1  0  0  0  0
  4  5  2  0  0  0  0
  5  3  1  0  0  0  0
  6  1  2  0  0  0  0
  7  1  2  0  0  0  0
  8  5  1  0  0  0  0
  8 14  1  0  0  0  0
  9  4  1  0  0  0  0
 10  3  2  0  0  0  0
 11  9  2  0  0  0  0
 11 13  1  0  0  0  0
 12 10  1  0  0  0  0
 13  8  2  0  0  0  0
 14 12  2  0  0  0  0
M  END
>  <idnumber>
T5641097

>  <LogP>
1.732000000000000e+000

>  <rotating_bonds>
0.000000000000000e+000

>  <hb_acceptors>
3.000000000000000e+000

>  <hb_donors>
1.000000000000000e+000

>  <PSA>
5.455000000000000e+001

>  <clusterid>
-1027

>  <is_centroid>
@

>  <class1>
713

>  <population1>
426

>  <population>
426

>  <cansmi>
O=S1(=O)Nc2c3c1cccc3ccc2

>  <HBA2>
3

>  <HBD>
1

>  <logP>
3.1728

>  <TPSA>
54.55

>  <MW>
205.233

$$$$

 OpenBabel02121609142D

 17 18  0  0  0  0  0  0  0  0999 V2000
    1.2917   -0.2500    0.0000 C   0  0  0  0  0  0  0  0  0  0  0  0
   -0.4333   -0.2500    0.0000 N   0  0  0  0  0  0  0  0  0  0  0  0
   -2.1708   -0.2500    0.0000 C   0  0  0  0  0  0  0  0  0  0  0  0
    0.4292   -0.7500    0.0000 C   0  0  0  0  0  0  0  0  0  0  0  0
   -2.1708    0.7583    0.0000 N   0  0  0  0  0  0  0  0  0  0  0  0
    2.1625   -0.7500    0.0000 C   0  0  0  0  0  0  0  0  0  0  0  0
    1.2917    0.7583    0.0000 C   0  0  0  0  0  0  0  0  0  0  0  0
   -1.3000   -0.7500    0.0000 C   0  0  0  0  0  0  0  0  0  0  0  0
   -3.0333   -0.7500    0.0000 O   0  0  0  0  0  0  0  0  0  0  0  0
    3.0292   -0.2500    0.0000 C   0  0  0  0  0  0  0  0  0  0  0  0
    2.1625    1.2500    0.0000 C   0  0  0  0  0  0  0  0  0  0  0  0
   -1.3000    1.2500    0.0000 C   0  0  0  0  0  0  0  0  0  0  0  0
    3.0292    0.7583    0.0000 C   0  0  0  0  0  0  0  0  0  0  0  0
    2.1625    2.2500    0.0000 Br  0  0  0  0  0  0  0  0  0  0  0  0
   -0.4333    0.7583    0.0000 C   0  0  0  0  0  0  0  0  0  0  0  0
    2.1625   -1.7500    0.0000 O   0  0  0  0  0  0  0  0  0  0  0  0
    3.0292   -2.2500    0.0000 C   0  0  0  0  0  0  0  0  0  0  0  0
  2  4  1  0  0  0  0
  3  8  1  0  0  0  0
  3  5  1  0  0  0  0
  4  1  1  0  0  0  0
  5 12  1  0  0  0  0
  6  1  2  0  0  0  0
  7  1  1  0  0  0  0
  8  2  1  0  0  0  0
  9  3  2  0  0  0  0
 10  6  1  0  0  0  0
 10 13  2  0  0  0  0
 11  7  2  0  0  0  0
 12 15  1  0  0  0  0
 13 11  1  0  0  0  0
 14 11  1  0  0  0  0
 15  2  1  0  0  0  0
 16  6  1  0  0  0  0
 17 16  1  0  0  0  0
M  END
>  <idnumber>
T5641454

>  <LogP>
2.457000000000000e+000

>  <rotating_bonds>
3.000000000000000e+000

>  <hb_acceptors>
3.000000000000000e+000

>  <hb_donors>
1.000000000000000e+000

>  <PSA>
4.156999999999997e+001

>  <clusterid>
-1028

>  <is_centroid>
@

>  <class1>
625

>  <class2>
688

>  <population1>
877209

>  <population2>
1117

>  <population>
898

>  <cansmi>
COc1ccc(cc1CN1CCNC(=O)C1)Br

>  <HBA2>
4

>  <HBD>
1

>  <logP>
1.6562

>  <TPSA>
41.57

>  <MW>
299.164

$$$$

 OpenBabel02121609142D

 21 23  0  0  0  0  0  0  0  0999 V2000
    0.6167   -0.2917    0.0000 C   0  0  0  0  0  0  0  0  0  0  0  0
   -0.9208   -0.7917    0.0000 C   0  0  0  0  0  0  0  0  0  0  0  0
    0.0292   -1.1042    0.0000 C   0  0  0  0  0  0  0  0  0  0  0  0
    0.0292    0.5125    0.0000 N   0  0  0  0  0  0  0  0  0  0  0  0
   -0.9208    0.2083    0.0000 C   0  0  0  0  0  0  0  0  0  0  0  0
    1.6167   -0.2917    0.0000 C   0  0  0  0  0  0  0  0  0  0  0  0
   -1.7833   -1.2917    0.0000 C   0  0  0  0  0  0  0  0  0  0  0  0
    2.1167    0.5708    0.0000 N   0  0  0  0  0  0  0  0  0  0  0  0
   -1.7833    0.7083    0.0000 C   0  0  0  0  0  0  0  0  0  0  0  0
   -2.6500    0.2083    0.0000 C   0  0  0  0  0  0  0  0  0  0  0  0
   -2.6500   -0.7917    0.0000 C   0  0  0  0  0  0  0  0  0  0  0  0
    2.1167   -1.1625    0.0000 O   0  0  0  0  0  0  0  0  0  0  0  0
   -1.7833   -2.2917    0.0000 O   0  0  0  0  0  0  0  0  0  0  0  0
    0.3417   -2.0542    0.0000 C   0  0  0  0  0  0  0  0  0  0  0  0
    3.1167    0.5708    0.0000 C   0  0  0  0  0  0  0  0  0  0  0  0
    1.6167    1.4333    0.0000 C   0  0  0  0  0  0  0  0  0  0  0  0
   -3.3333    0.9375    0.0000 C   0  0  0  0  0  0  0  0  0  0  0  0
   -3.6250    0.4250    0.0000 C   0  0  0  0  0  0  0  0  0  0  0  0
    2.1167    2.3000    0.0000 C   0  0  0  0  0  0  0  0  0  0  0  0
    3.6167    1.4333    0.0000 C   0  0  0  0  0  0  0  0  0  0  0  0
    3.1167    2.3000    0.0000 C   0  0  0  0  0  0  0  0  0  0  0  0
  2  3  1  0  0  0  0
  3  1  2  0  0  0  0
  4  1  1  0  0  0  0
  5  4  1  0  0  0  0
  5  2  2  0  0  0  0
  6  1  1  0  0  0  0
  7  2  1  0  0  0  0
  8  6  1  0  0  0  0
  9  5  1  0  0  0  0
 10  9  1  0  0  0  0
 10 11  1  0  0  0  0
 11  7  1  0  0  0  0
 12  6  2  0  0  0  0
 13  7  2  0  0  0  0
 14  3  1  0  0  0  0
 15  8  1  0  0  0  0
 16  8  1  0  0  0  0
 17 10  1  0  0  0  0
 18 10  1  0  0  0  0
 19 16  1  0  0  0  0
 20 15  1  0  0  0  0
 20 21  1  0  0  0  0
 21 19  1  0  0  0  0
M  END
>  <idnumber>
T5641538

>  <LogP>
2.559000000000000e+000

>  <rotating_bonds>
1.000000000000000e+000

>  <hb_acceptors>
2.000000000000000e+000

>  <hb_donors>
1.000000000000000e+000

>  <PSA>
5.317000000000000e+001

>  <clusterid>
592

>  <is_centroid>
@

>  <class1>
863

>  <class2>
639

>  <population1>
155

>  <population2>
59855

>  <population>
12

>  <cansmi>
O=C(c1[nH]c2c(c1C)C(=O)CC(C2)(C)C)N1CCCCC1

>  <HBA2>
3

>  <HBD>
1

>  <logP>
3.0422

>  <TPSA>
53.17

>  <MW>
288.385

$$$$

 OpenBabel02121609142D

 22 24  0  0  0  0  0  0  0  0999 V2000
    2.0667    0.0000    0.0000 C   0  0  0  0  0  0  0  0  0  0  0  0
    2.9292   -0.5000    0.0000 C   0  0  0  0  0  0  0  0  0  0  0  0
    2.0667    1.0000    0.0000 C   0  0  0  0  0  0  0  0  0  0  0  0
    3.8000    0.0000    0.0000 N   0  0  0  0  0  0  0  0  0  0  0  0
    2.9292    1.5000    0.0000 C   0  0  0  0  0  0  0  0  0  0  0  0
    3.8000    1.0000    0.0000 C   0  0  0  0  0  0  0  0  0  0  0  0
   -0.5333   -0.5000    0.0000 C   0  0  0  0  0  0  0  0  0  0  0  0
    1.2000   -0.5000    0.0000 C   0  0  0  0  0  0  0  0  0  0  0  0
   -1.3958    0.0000    0.0000 C   0  0  0  0  0  0  0  0  0  0  0  0
    0.3292    0.0000    0.0000 N   0  0  0  0  0  0  0  0  0  0  0  0
   -2.2625   -0.5000    0.0000 C   0  0  0  0  0  0  0  0  0  0  0  0
   -3.1333    0.0000    0.0000 C   0  0  0  0  0  0  0  0  0  0  0  0
    2.9292   -1.5000    0.0000 O   0  0  0  0  0  0  0  0  0  0  0  0
   -3.1333    1.0000    0.0000 C   0  0  0  0  0  0  0  0  0  0  0  0
   -0.5333   -1.5000    0.0000 O   0  0  0  0  0  0  0  0  0  0  0  0
   -1.3958    1.0000    0.0000 C   0  0  0  0  0  0  0  0  0  0  0  0
   -2.2625    1.5000    0.0000 C   0  0  0  0  0  0  0  0  0  0  0  0
    1.2000    1.5000    0.0000 C   0  0  0  0  0  0  0  0  0  0  0  0
    4.6625    1.5000    0.0000 C   0  0  0  0  0  0  0  0  0  0  0  0
   -4.0833   -0.3042    0.0000 C   0  0  0  0  0  0  0  0  0  0  0  0
   -4.6708    0.5000    0.0000 C   0  0  0  0  0  0  0  0  0  0  0  0
   -4.0833    1.3125    0.0000 C   0  0  0  0  0  0  0  0  0  0  0  0
  2  1  1  0  0  0  0
  3  1  2  0  0  0  0
  4  2  1  0  0  0  0
  4  6  1  0  0  0  0
  5  3  1  0  0  0  0
  6  5  2  0  0  0  0
  7 10  1  0  0  0  0
  8  1  1  0  0  0  0
  9  7  1  0  0  0  0
 10  8  1  0  0  0  0
 11  9  2  0  0  0  0
 12 11  1  0  0  0  0
 12 14  2  0  0  0  0
 13  2  2  0  0  0  0
 14 17  1  0  0  0  0
 15  7  2  0  0  0  0
 16  9  1  0  0  0  0
 17 16  2  0  0  0  0
 18  3  1  0  0  0  0
 19  6  1  0  0  0  0
 20 12  1  0  0  0  0
 21 20  1  0  0  0  0
 22 14  1  0  0  0  0
 22 21  1  0  0  0  0
M  END
>  <idnumber>
T5641544

>  <LogP>
2.076000000000000e+000

>  <rotating_bonds>
3.000000000000000e+000

>  <hb_acceptors>
2.000000000000000e+000

>  <hb_donors>
2.000000000000000e+000

>  <PSA>
5.820000000000000e+001

>  <clusterid>
-1029

>  <is_centroid>
@

>  <class1>
644

>  <class2>
696

>  <population1>
7036

>  <population2>
4759

>  <population>
27

>  <cansmi>
O=C(c1ccc2c(c1)CCC2)NCc1c(C)cc([nH]c1=O)C

>  <HBA2>
3

>  <HBD>
2

>  <logP>
2.8013

>  <TPSA>
61.96

>  <MW>
296.364

$$$$

 OpenBabel02121609142D

 15 16  0  0  0  0  0  0  0  0999 V2000
   -2.1708   -1.2500    0.0000 C   0  0  0  0  0  0  0  0  0  0  0  0
   -1.3000    0.2500    0.0000 N   0  0  0  0  0  0  0  0  0  0  0  0
   -3.0333   -0.7417    0.0000 N   0  0  0  0  0  0  0  0  0  0  0  0
   -1.3000   -0.7417    0.0000 C   0  0  0  0  0  0  0  0  0  0  0  0
   -2.1708   -2.2500    0.0000 O   0  0  0  0  0  0  0  0  0  0  0  0
   -0.4333    0.7500    0.0000 C   0  0  0  0  0  0  0  0  0  0  0  0
   -3.0333    0.2500    0.0000 C   0  0  0  0  0  0  0  0  0  0  0  0
    0.4292    0.2500    0.0000 C   0  0  0  0  0  0  0  0  0  0  0  0
    1.2917    0.7500    0.0000 C   0  0  0  0  0  0  0  0  0  0  0  0
   -2.1708    0.7500    0.0000 C   0  0  0  0  0  0  0  0  0  0  0  0
    1.2917    1.7500    0.0000 C   0  0  0  0  0  0  0  0  0  0  0  0
    2.1625    0.2500    0.0000 C   0  0  0  0  0  0  0  0  0  0  0  0
    3.0292    0.7500    0.0000 C   0  0  0  0  0  0  0  0  0  0  0  0
    2.1625    2.2500    0.0000 C   0  0  0  0  0  0  0  0  0  0  0  0
    3.0292    1.7500    0.0000 C   0  0  0  0  0  0  0  0  0  0  0  0
  2  4  1  0  0  0  0
  3  1  1  0  0  0  0
  4  1  1  0  0  0  0
  5  1  2  0  0  0  0
  6  2  1  0  0  0  0
  7  3  1  0  0  0  0
  7 10  1  0  0  0  0
  8  6  1  0  0  0  0
  9  8  1  0  0  0  0
 10  2  1  0  0  0  0
 11  9  2  0  0  0  0
 12  9  1  0  0  0  0
 13 12  2  0  0  0  0
 14 11  1  0  0  0  0
 14 15  2  0  0  0  0
 15 13  1  0  0  0  0
M  END
>  <idnumber>
T5642724

>  <LogP>
1.857000000000000e+000

>  <rotating_bonds>
3.000000000000000e+000

>  <hb_acceptors>
2.000000000000000e+000

>  <hb_donors>
1.000000000000000e+000

>  <PSA>
3.234000000000000e+001

>  <clusterid>
-1030

>  <is_centroid>
@

>  <class1>
625

>  <class2>
688

>  <population1>
877209

>  <population2>
1117

>  <population>
898

>  <cansmi>
O=C1NCCN(C1)CCc1ccccc1

>  <HBA2>
3

>  <HBD>
1

>  <logP>
0.9276

>  <TPSA>
32.34

>  <MW>
204.268

$$$$

 OpenBabel02121609142D

 18 19  0  0  0  0  0  0  0  0999 V2000
    0.0000    1.2583    0.0000 C   0  0  0  0  0  0  0  0  0  0  0  0
    0.0000    0.2583    0.0000 N   0  0  0  0  0  0  0  0  0  0  0  0
    1.7292   -1.7500    0.0000 C   0  0  0  0  0  0  0  0  0  0  0  0
    1.7292   -2.7500    0.0000 C   0  0  0  0  0  0  0  0  0  0  0  0
    0.8625   -0.2500    0.0000 C   0  0  0  0  0  0  0  0  0  0  0  0
    0.8625   -1.2417    0.0000 C   0  0  0  0  0  0  0  0  0  0  0  0
    0.8625    1.7583    0.0000 O   0  0  0  0  0  0  0  0  0  0  0  0
   -0.8708    1.7583    0.0000 C   0  0  3  0  0  0  0  0  0  0  0  0
    2.5917   -3.2500    0.0000 O   0  0  0  0  0  0  0  0  0  0  0  0
   -2.6000    1.7583    0.0000 C   0  0  0  0  0  0  0  0  0  0  0  0
   -2.6000    2.7500    0.0000 C   0  0  0  0  0  0  0  0  0  0  0  0
    2.5917   -1.2500    0.0000 C   0  0  0  0  0  0  0  0  0  0  0  0
   -1.7333    1.2583    0.0000 C   0  0  0  0  0  0  0  0  0  0  0  0
    2.5917   -0.2500    0.0000 C   0  0  0  0  0  0  0  0  0  0  0  0
    1.7292    0.2500    0.0000 C   0  0  0  0  0  0  0  0  0  0  0  0
    0.8625   -3.2417    0.0000 C   0  0  0  0  0  0  0  0  0  0  0  0
   -1.7333    3.2500    0.0000 C   0  0  0  0  0  0  0  0  0  0  0  0
   -0.8708    2.7500    0.0000 C   0  0  0  0  0  0  0  0  0  0  0  0
  2  1  1  0  0  0  0
  3  6  2  0  0  0  0
  3 12  1  0  0  0  0
  4  3  1  0  0  0  0
  5  2  1  0  0  0  0
  6  5  1  0  0  0  0
  7  1  2  0  0  0  0
  8  1  1  0  0  0  0
  9  4  2  0  0  0  0
 10 13  1  0  0  0  0
 10 11  2  0  0  0  0
 11 17  1  0  0  0  0
 12 14  2  0  0  0  0
 13  8  1  0  0  0  0
 14 15  1  0  0  0  0
 15  5  2  0  0  0  0
 16  4  1  0  0  0  0
 17 18  1  0  0  0  0
 18  8  1  0  0  0  0
M  END
>  <idnumber>
T5644962

>  <LogP>
2.616000000000000e+000

>  <rotating_bonds>
3.000000000000000e+000

>  <hb_acceptors>
2.000000000000000e+000

>  <hb_donors>
1.000000000000000e+000

>  <PSA>
4.616999999999997e+001

>  <clusterid>
-1032

>  <is_centroid>
@

>  <class1>
810

>  <class2>
625

>  <population1>
20527

>  <population2>
877209

>  <population>
15295

>  <cansmi>
O=C(C1CCC=CC1)Nc1cccc(c1)C(=O)C

>  <HBA2>
3

>  <HBD>
1

>  <logP>
3.257

>  <TPSA>
46.17

>  <MW>
243.301

$$$$

 OpenBabel02121609142D

 17 19  0  0  0  0  0  0  0  0999 V2000
    0.4417   -1.3875    0.0000 C   0  0  0  0  0  0  0  0  0  0  0  0
    1.0292   -0.5792    0.0000 N   0  0  0  0  0  0  0  0  0  0  0  0
    0.4417    0.2333    0.0000 N   0  0  0  0  0  0  0  0  0  0  0  0
   -0.5083   -1.0792    0.0000 C   0  0  0  0  0  0  0  0  0  0  0  0
   -0.5083   -0.0792    0.0000 C   0  0  0  0  0  0  0  0  0  0  0  0
    0.7542   -2.3375    0.0000 C   0  0  0  0  0  0  0  0  0  0  0  0
    0.7542    1.1833    0.0000 C   0  0  0  0  0  0  0  0  0  0  0  0
    1.7292   -2.5417    0.0000 O   0  0  0  0  0  0  0  0  0  0  0  0
   -1.4583   -1.3875    0.0000 C   0  0  0  0  0  0  0  0  0  0  0  0
   -1.4583    0.2333    0.0000 C   0  0  0  0  0  0  0  0  0  0  0  0
    0.0792   -3.0792    0.0000 O   0  0  0  0  0  0  0  0  0  0  0  0
   -2.0458   -0.5792    0.0000 C   0  0  0  0  0  0  0  0  0  0  0  0
    1.7292    1.3958    0.0000 C   0  0  0  0  0  0  0  0  0  0  0  0
    0.0792    1.9250    0.0000 C   0  0  0  0  0  0  0  0  0  0  0  0
    0.3917    2.8750    0.0000 C   0  0  0  0  0  0  0  0  0  0  0  0
    2.0417    2.3458    0.0000 C   0  0  0  0  0  0  0  0  0  0  0  0
    1.3667    3.0833    0.0000 C   0  0  0  0  0  0  0  0  0  0  0  0
  2  1  2  0  0  0  0
  3  2  1  0  0  0  0
  3  5  1  0  0  0  0
  4  1  1  0  0  0  0
  5  4  2  0  0  0  0
  6  1  1  0  0  0  0
  7  3  1  0  0  0  0
  8  6  2  0  0  0  0
  9  4  1  0  0  0  0
 10  5  1  0  0  0  0
 10 12  1  0  0  0  0
 11  6  1  0  0  0  0
 12  9  1  0  0  0  0
 13  7  1  0  0  0  0
 14  7  2  0  0  0  0
 15 14  1  0  0  0  0
 16 13  2  0  0  0  0
 16 17  1  0  0  0  0
 17 15  2  0  0  0  0
M  END
>  <idnumber>
T5645453

>  <LogP>
2.895000000000000e+000

>  <rotating_bonds>
2.000000000000000e+000

>  <hb_acceptors>
3.000000000000000e+000

>  <hb_donors>
1.000000000000000e+000

>  <PSA>
5.512000000000001e+001

>  <clusterid>
-1033

>  <is_centroid>
@

>  <class1>
665

>  <class2>
625

>  <population1>
535

>  <population2>
877209

>  <population>
529

>  <cansmi>
OC(=O)c1nn(c2c1CCC2)c1ccccc1

>  <HBA2>
4

>  <HBD>
1

>  <logP>
2.0592

>  <TPSA>
55.12

>  <MW>
228.247

$$$$

 OpenBabel02121609142D

 22 25  0  0  0  0  0  0  0  0999 V2000
    0.2292   -0.9542    0.0000 C   0  0  0  0  0  0  0  0  0  0  0  0
   -0.7208   -1.2625    0.0000 C   0  0  0  0  0  0  0  0  0  0  0  0
    0.8167   -1.7625    0.0000 C   0  0  0  0  0  0  0  0  0  0  0  0
    0.2292   -2.5667    0.0000 C   0  0  0  0  0  0  0  0  0  0  0  0
   -0.7208   -2.2625    0.0000 C   0  0  0  0  0  0  0  0  0  0  0  0
    0.5417   -0.0042    0.0000 N   0  0  0  0  0  0  0  0  0  0  0  0
    1.1542    1.9000    0.0000 N   0  0  0  0  0  0  0  0  0  0  0  0
    1.4667    2.8500    0.0000 C   0  0  0  0  0  0  0  0  0  0  0  0
    1.5167    0.2083    0.0000 C   0  0  0  0  0  0  0  0  0  0  0  0
   -0.1333    0.7458    0.0000 C   0  0  0  0  0  0  0  0  0  0  0  0
    1.8292    1.1583    0.0000 C   0  0  0  0  0  0  0  0  0  0  0  0
    0.1792    1.6958    0.0000 C   0  0  0  0  0  0  0  0  0  0  0  0
    0.8000    3.5958    0.0000 O   0  0  0  0  0  0  0  0  0  0  0  0
    1.8167   -1.8667    0.0000 C   0  0  0  0  0  0  0  0  0  0  0  0
   -1.5833   -0.7625    0.0000 C   0  0  0  0  0  0  0  0  0  0  0  0
   -1.5833   -2.7625    0.0000 C   0  0  0  0  0  0  0  0  0  0  0  0
    0.6375   -3.4792    0.0000 C   0  0  0  0  0  0  0  0  0  0  0  0
    2.4417    3.0583    0.0000 C   0  0  0  0  0  0  0  0  0  0  0  0
   -2.4500   -1.2625    0.0000 C   0  0  0  0  0  0  0  0  0  0  0  0
    2.2167   -2.7792    0.0000 C   0  0  0  0  0  0  0  0  0  0  0  0
    1.6292   -3.5917    0.0000 C   0  0  0  0  0  0  0  0  0  0  0  0
   -2.4500   -2.2625    0.0000 C   0  0  0  0  0  0  0  0  0  0  0  0
  2  1  1  0  0  0  0
  3  1  1  0  0  0  0
  4  3  2  0  0  0  0
  5  2  2  0  0  0  0
  5  4  1  0  0  0  0
  6  1  1  0  0  0  0
  7 12  1  0  0  0  0
  8  7  1  0  0  0  0
  9  6  1  0  0  0  0
 10  6  1  0  0  0  0
 11  9  1  0  0  0  0
 11  7  1  0  0  0  0
 12 10  1  0  0  0  0
 13  8  2  0  0  0  0
 14  3  1  0  0  0  0
 15  2  1  0  0  0  0
 16  5  1  0  0  0  0
 16 22  2  0  0  0  0
 17  4  1  0  0  0  0
 17 21  2  0  0  0  0
 18  8  1  0  0  0  0
 19 15  2  0  0  0  0
 20 14  2  0  0  0  0
 21 20  1  0  0  0  0
 22 19  1  0  0  0  0
M  END
>  <idnumber>
T5647155

>  <LogP>
2.714000000000000e+000

>  <rotating_bonds>
1.000000000000000e+000

>  <hb_acceptors>
2.000000000000000e+000

>  <hb_donors>
0.000000000000000e+000

>  <PSA>
2.355000000000000e+001

>  <clusterid>
593

>  <is_centroid>
@

>  <class1>
812

>  <class2>
717

>  <population1>
999

>  <population2>
74368

>  <population>
113

>  <cansmi>
CC(=O)N1CCN(CC1)C1c2ccccc2c2c1cccc2

>  <HBA2>
3

>  <HBD>
0

>  <logP>
2.7963

>  <TPSA>
23.55

>  <MW>
292.375

$$$$

 OpenBabel02121609142D

 20 23  0  0  0  0  0  0  0  0999 V2000
    0.4625   -1.3875    0.0000 C   0  0  3  0  0  0  0  0  0  0  0  0
    0.0917    0.7833    0.0000 C   0  0  3  0  0  0  0  0  0  0  0  0
    0.3250   -0.4792    0.0000 C   0  0  0  0  0  0  0  0  0  0  0  0
    0.9125   -2.2292    0.0000 C   0  0  0  0  0  0  0  0  0  0  0  0
    1.3542   -0.9625    0.0000 C   0  0  0  0  0  0  0  0  0  0  0  0
   -0.4250   -1.1792    0.0000 C   0  0  0  0  0  0  0  0  0  0  0  0
    1.1292    0.8708    0.0000 C   0  0  0  0  0  0  0  0  0  0  0  0
   -0.8958    0.5375    0.0000 C   0  0  0  0  0  0  0  0  0  0  0  0
   -0.6125   -0.2417    0.0000 C   0  0  3  0  0  0  0  0  0  0  0  0
    1.3667   -0.0292    0.0000 C   0  0  3  0  0  0  0  0  0  0  0  0
   -0.2583    1.9833    0.0000 C   0  0  0  0  0  0  0  0  0  0  0  0
    0.1750   -2.8417    0.0000 O   0  0  0  0  0  0  0  0  0  0  0  0
    0.3917    0.3208    0.0000 C   0  0  0  0  0  0  0  0  0  0  0  0
    1.8625   -2.1500    0.0000 N   0  0  0  0  0  0  0  0  0  0  0  0
   -0.8458    1.3083    0.0000 C   0  0  0  0  0  0  0  0  0  0  0  0
   -0.7208    2.9583    0.0000 C   0  0  0  0  0  0  0  0  0  0  0  0
    2.2542   -3.0250    0.0000 C   0  0  0  0  0  0  0  0  0  0  0  0
   -1.7208    3.0333    0.0000 C   0  0  0  0  0  0  0  0  0  0  0  0
   -1.8458    1.3458    0.0000 C   0  0  0  0  0  0  0  0  0  0  0  0
   -2.2708    2.2208    0.0000 C   0  0  0  0  0  0  0  0  0  0  0  0
  2  3  1  0  0  0  0
  2  8  1  0  0  0  0
  2  7  1  0  0  0  0
  3  1  1  0  0  0  0
  4  1  1  0  0  0  0
  5  1  1  0  0  0  0
  6  1  1  0  0  0  0
  7 10  1  0  0  0  0
  8  9  1  0  0  0  0
  9  6  1  0  0  0  0
 10  5  1  0  0  0  0
 10 13  1  0  0  0  0
 11  2  1  0  0  0  0
 12  4  2  0  0  0  0
 13  9  1  0  0  0  0
 14  4  1  0  0  0  0
 15 11  1  0  0  0  0
 16 11  2  0  0  0  0
 17 14  1  0  0  0  0
 18 16  1  0  0  0  0
 19 15  2  0  0  0  0
 19 20  1  0  0  0  0
 20 18  2  0  0  0  0
M  END
>  <idnumber>
T5650153

>  <LogP>
2.989000000000000e+000

>  <rotating_bonds>
2.000000000000000e+000

>  <hb_acceptors>
1.000000000000000e+000

>  <hb_donors>
1.000000000000000e+000

>  <PSA>
2.910000000000000e+001

>  <clusterid>
-1036

>  <is_centroid>
@

>  <class1>
809

>  <class2>
625

>  <population1>
8162

>  <population2>
877209

>  <population>
5907

>  <cansmi>
CNC(=O)C12CC3CC(C1)CC(C2)(C3)c1ccccc1

>  <HBA2>
2

>  <HBD>
1

>  <logP>
3.6615

>  <TPSA>
29.1

>  <MW>
269.381

$$$$

 OpenBabel02121609142D

 19 21  0  0  0  0  0  0  0  0999 V2000
   -0.1000   -0.5000    0.0000 C   0  0  0  0  0  0  0  0  0  0  0  0
   -0.9708    0.0000    0.0000 C   0  0  0  0  0  0  0  0  0  0  0  0
   -1.8333   -0.5000    0.0000 C   0  0  0  0  0  0  0  0  0  0  0  0
    0.7667    0.0000    0.0000 N   0  0  0  0  0  0  0  0  0  0  0  0
   -2.6958    0.0000    0.0000 C   0  0  0  0  0  0  0  0  0  0  0  0
   -2.6958    1.0000    0.0000 C   0  0  0  0  0  0  0  0  0  0  0  0
   -0.1000   -1.5000    0.0000 O   0  0  0  0  0  0  0  0  0  0  0  0
    4.2292    1.0000    0.0000 N   0  0  0  0  0  0  0  0  0  0  0  0
   -0.9708    1.0000    0.0000 C   0  0  0  0  0  0  0  0  0  0  0  0
   -1.8333    1.5000    0.0000 C   0  0  0  0  0  0  0  0  0  0  0  0
    1.6292   -0.5000    0.0000 C   0  0  0  0  0  0  0  0  0  0  0  0
    2.5000    0.0000    0.0000 C   0  0  0  0  0  0  0  0  0  0  0  0
   -3.6458   -0.3042    0.0000 C   0  0  0  0  0  0  0  0  0  0  0  0
   -4.2375    0.5000    0.0000 C   0  0  0  0  0  0  0  0  0  0  0  0
   -3.6458    1.3125    0.0000 C   0  0  0  0  0  0  0  0  0  0  0  0
    3.3667    1.5000    0.0000 C   0  0  0  0  0  0  0  0  0  0  0  0
    4.2292    0.0000    0.0000 C   0  0  0  0  0  0  0  0  0  0  0  0
    2.5000    1.0000    0.0000 C   0  0  0  0  0  0  0  0  0  0  0  0
    3.3667   -0.5000    0.0000 C   0  0  0  0  0  0  0  0  0  0  0  0
  2  1  1  0  0  0  0
  3  2  2  0  0  0  0
  4  1  1  0  0  0  0
  5  3  1  0  0  0  0
  5  6  2  0  0  0  0
  6 10  1  0  0  0  0
  7  1  2  0  0  0  0
  8 17  1  0  0  0  0
  9  2  1  0  0  0  0
 10  9  2  0  0  0  0
 11  4  1  0  0  0  0
 12 11  1  0  0  0  0
 13  5  1  0  0  0  0
 14 13  1  0  0  0  0
 15  6  1  0  0  0  0
 15 14  1  0  0  0  0
 16 18  1  0  0  0  0
 16  8  2  0  0  0  0
 17 19  2  0  0  0  0
 18 12  2  0  0  0  0
 19 12  1  0  0  0  0
M  END
>  <idnumber>
T5651168

>  <LogP>
2.345000000000000e+000

>  <rotating_bonds>
3.000000000000000e+000

>  <hb_acceptors>
2.000000000000000e+000

>  <hb_donors>
1.000000000000000e+000

>  <PSA>
4.199000000000000e+001

>  <clusterid>
-1038

>  <is_centroid>
@

>  <class1>
644

>  <class2>
632

>  <population1>
7036

>  <population2>
79489

>  <population>
288

>  <cansmi>
O=C(c1ccc2c(c1)CCC2)NCc1ccncc1

>  <HBA2>
3

>  <HBD>
1

>  <logP>
2.8912

>  <TPSA>
41.99

>  <MW>
252.311

$$$$

 OpenBabel02121609142D

 17 18  0  0  0  0  0  0  0  0999 V2000
   -1.3000   -0.7500    0.0000 C   0  0  0  0  0  0  0  0  0  0  0  0
   -1.3000    0.2500    0.0000 C   0  0  0  0  0  0  0  0  0  0  0  0
   -0.4333   -1.2500    0.0000 N   0  0  0  0  0  0  0  0  0  0  0  0
   -2.1708   -2.2500    0.0000 N   0  0  0  0  0  0  0  0  0  0  0  0
   -0.4333    0.7500    0.0000 N   0  0  0  0  0  0  0  0  0  0  0  0
   -2.1708   -1.2500    0.0000 C   0  0  0  0  0  0  0  0  0  0  0  0
   -2.1708    0.7500    0.0000 O   0  0  0  0  0  0  0  0  0  0  0  0
   -0.4333   -2.2500    0.0000 C   0  0  0  0  0  0  0  0  0  0  0  0
   -1.3000   -2.7500    0.0000 C   0  0  0  0  0  0  0  0  0  0  0  0
   -0.4333    1.7500    0.0000 C   0  0  0  0  0  0  0  0  0  0  0  0
    0.4292    2.2500    0.0000 C   0  0  0  0  0  0  0  0  0  0  0  0
   -1.3000   -3.7500    0.0000 C   0  0  0  0  0  0  0  0  0  0  0  0
    1.2917    1.7500    0.0000 C   0  0  0  0  0  0  0  0  0  0  0  0
    0.4292    3.2500    0.0000 C   0  0  0  0  0  0  0  0  0  0  0  0
    1.2917    3.7500    0.0000 C   0  0  0  0  0  0  0  0  0  0  0  0
    2.1625    2.2500    0.0000 C   0  0  0  0  0  0  0  0  0  0  0  0
    2.1625    3.2500    0.0000 C   0  0  0  0  0  0  0  0  0  0  0  0
  2  1  1  0  0  0  0
  3  1  1  0  0  0  0
  4  6  1  0  0  0  0
  5  2  1  0  0  0  0
  6  1  2  0  0  0  0
  7  2  2  0  0  0  0
  8  3  2  0  0  0  0
  9  4  2  0  0  0  0
  9  8  1  0  0  0  0
 10  5  1  0  0  0  0
 11 10  1  0  0  0  0
 12  9  1  0  0  0  0
 13 11  1  0  0  0  0
 14 11  2  0  0  0  0
 15 14  1  0  0  0  0
 16 13  2  0  0  0  0
 16 17  1  0  0  0  0
 17 15  2  0  0  0  0
M  END
>  <idnumber>
T5651857

>  <LogP>
2.142000000000000e+000

>  <rotating_bonds>
3.000000000000000e+000

>  <hb_acceptors>
3.000000000000000e+000

>  <hb_donors>
1.000000000000000e+000

>  <PSA>
5.488000000000000e+001

>  <clusterid>
-1039

>  <is_centroid>
@

>  <class1>
815

>  <class2>
625

>  <population1>
7310

>  <population2>
877209

>  <population>
6854

>  <cansmi>
Cc1cnc(cn1)C(=O)NCc1ccccc1

>  <HBA2>
4

>  <HBD>
1

>  <logP>
2.1059

>  <TPSA>
54.88

>  <MW>
227.262

$$$$

 OpenBabel02121609142D

 20 22  0  0  0  0  0  0  0  0999 V2000
    0.4292    1.7583    0.0000 C   0  0  3  0  0  0  0  0  0  0  0  0
   -0.4333    1.2583    0.0000 O   0  0  0  0  0  0  0  0  0  0  0  0
    1.2917    1.2500    0.0000 C   0  0  0  0  0  0  0  0  0  0  0  0
   -0.4333    3.2583    0.0000 O   0  0  0  0  0  0  0  0  0  0  0  0
   -1.3000    1.7583    0.0000 C   0  0  0  0  0  0  0  0  0  0  0  0
    1.2917    0.2500    0.0000 N   0  0  0  0  0  0  0  0  0  0  0  0
    0.4292    2.7500    0.0000 C   0  0  0  0  0  0  0  0  0  0  0  0
   -1.3000    2.7500    0.0000 C   0  0  0  0  0  0  0  0  0  0  0  0
    2.1625    1.7500    0.0000 O   0  0  0  0  0  0  0  0  0  0  0  0
    2.1625   -0.2500    0.0000 C   0  0  0  0  0  0  0  0  0  0  0  0
    2.1625   -1.2500    0.0000 C   0  0  0  0  0  0  0  0  0  0  0  0
   -2.1708    1.2583    0.0000 C   0  0  0  0  0  0  0  0  0  0  0  0
   -2.1708    3.2583    0.0000 C   0  0  0  0  0  0  0  0  0  0  0  0
    1.2917   -1.7500    0.0000 C   0  0  0  0  0  0  0  0  0  0  0  0
    3.0292   -1.7500    0.0000 C   0  0  0  0  0  0  0  0  0  0  0  0
   -3.0333    1.7583    0.0000 C   0  0  0  0  0  0  0  0  0  0  0  0
   -3.0333    2.7500    0.0000 C   0  0  0  0  0  0  0  0  0  0  0  0
    3.0292   -2.7500    0.0000 C   0  0  0  0  0  0  0  0  0  0  0  0
    1.2917   -2.7500    0.0000 C   0  0  0  0  0  0  0  0  0  0  0  0
    2.1625   -3.2500    0.0000 C   0  0  0  0  0  0  0  0  0  0  0  0
  2  1  1  0  0  0  0
  3  1  1  0  0  0  0
  4  7  1  0  0  0  0
  5  2  1  0  0  0  0
  5  8  2  0  0  0  0
  6  3  1  0  0  0  0
  7  1  1  0  0  0  0
  8  4  1  0  0  0  0
  9  3  2  0  0  0  0
 10  6  1  0  0  0  0
 11 10  1  0  0  0  0
 12  5  1  0  0  0  0
 13  8  1  0  0  0  0
 14 11  1  0  0  0  0
 15 11  2  0  0  0  0
 16 12  2  0  0  0  0
 17 13  2  0  0  0  0
 17 16  1  0  0  0  0
 18 15  1  0  0  0  0
 19 14  2  0  0  0  0
 19 20  1  0  0  0  0
 20 18  2  0  0  0  0
M  END
>  <idnumber>
T5651859

>  <LogP>
2.629000000000000e+000

>  <rotating_bonds>
3.000000000000000e+000

>  <hb_acceptors>
3.000000000000000e+000

>  <hb_donors>
1.000000000000000e+000

>  <PSA>
4.756000000000000e+001

>  <clusterid>
-1040

>  <is_centroid>
@

>  <class1>
625

>  <class2>
730

>  <population1>
877209

>  <population2>
20896

>  <population>
20896

>  <cansmi>
O=C(C1COc2c(O1)cccc2)NCc1ccccc1

>  <HBA2>
4

>  <HBD>
1

>  <logP>
2.5337

>  <TPSA>
47.56

>  <MW>
269.295

$$$$

 OpenBabel02121609142D

 17 18  0  0  0  0  0  0  0  0999 V2000
    0.8625    0.7500    0.0000 C   0  0  0  0  0  0  0  0  0  0  0  0
    0.0000    0.2583    0.0000 N   0  0  0  0  0  0  0  0  0  0  0  0
    0.8625    1.7583    0.0000 C   0  0  0  0  0  0  0  0  0  0  0  0
    0.0000   -0.7500    0.0000 C   0  0  0  0  0  0  0  0  0  0  0  0
   -0.8708   -1.2500    0.0000 C   0  0  0  0  0  0  0  0  0  0  0  0
    0.0000    2.2583    0.0000 N   0  0  0  0  0  0  0  0  0  0  0  0
    1.7292    0.2583    0.0000 O   0  0  0  0  0  0  0  0  0  0  0  0
   -0.8708   -2.2500    0.0000 C   0  0  0  0  0  0  0  0  0  0  0  0
    1.7292    3.2583    0.0000 N   0  0  0  0  0  0  0  0  0  0  0  0
    0.8625   -1.2500    0.0000 C   0  0  0  0  0  0  0  0  0  0  0  0
    1.7292    2.2583    0.0000 C   0  0  0  0  0  0  0  0  0  0  0  0
    0.0000   -2.7500    0.0000 C   0  0  0  0  0  0  0  0  0  0  0  0
    0.8625   -2.2500    0.0000 C   0  0  0  0  0  0  0  0  0  0  0  0
    0.0000    3.2583    0.0000 C   0  0  0  0  0  0  0  0  0  0  0  0
   -1.7333   -0.7500    0.0000 C   0  0  0  0  0  0  0  0  0  0  0  0
    0.8625    3.7500    0.0000 C   0  0  0  0  0  0  0  0  0  0  0  0
    0.0000   -3.7500    0.0000 C   0  0  0  0  0  0  0  0  0  0  0  0
  2  1  1  0  0  0  0
  3  1  1  0  0  0  0
  4  2  1  0  0  0  0
  5  4  2  0  0  0  0
  6  3  2  0  0  0  0
  7  1  2  0  0  0  0
  8  5  1  0  0  0  0
  8 12  2  0  0  0  0
  9 11  2  0  0  0  0
 10  4  1  0  0  0  0
 11  3  1  0  0  0  0
 12 13  1  0  0  0  0
 13 10  2  0  0  0  0
 14  6  1  0  0  0  0
 14 16  2  0  0  0  0
 15  5  1  0  0  0  0
 16  9  1  0  0  0  0
 17 12  1  0  0  0  0
M  END
>  <idnumber>
T5651874

>  <LogP>
1.812000000000000e+000

>  <rotating_bonds>
2.000000000000000e+000

>  <hb_acceptors>
3.000000000000000e+000

>  <hb_donors>
1.000000000000000e+000

>  <PSA>
5.488000000000000e+001

>  <clusterid>
272

>  <is_centroid>
@

>  <class1>
815

>  <class2>
625

>  <population1>
7310

>  <population2>
877209

>  <population>
6854

>  <cansmi>
Cc1ccc(c(c1)C)NC(=O)c1cnccn1

>  <HBA2>
4

>  <HBD>
1

>  <logP>
2.4187

>  <TPSA>
54.88

>  <MW>
227.262

$$$$

 OpenBabel02121609142D

 12 13  0  0  0  0  0  0  0  0999 V2000
    0.8250    0.4708    0.0000 C   0  0  0  0  0  0  0  0  0  0  0  0
   -0.0583    0.0000    0.0000 C   0  0  0  0  0  0  0  0  0  0  0  0
    0.8917   -1.2625    0.0000 N   0  0  0  0  0  0  0  0  0  0  0  0
    0.3542   -0.4167    0.0000 C   0  0  0  0  0  0  0  0  0  0  0  0
    0.8250    1.4708    0.0000 C   0  0  0  0  0  0  0  0  0  0  0  0
    1.8250    0.4708    0.0000 C   0  0  0  0  0  0  0  0  0  0  0  0
    1.8250    1.4708    0.0000 C   0  0  0  0  0  0  0  0  0  0  0  0
   -0.9083    0.5333    0.0000 C   0  0  0  0  0  0  0  0  0  0  0  0
   -0.1000   -0.9917    0.0000 C   0  0  0  0  0  0  0  0  0  0  0  0
   -0.9833   -1.4625    0.0000 C   0  0  0  0  0  0  0  0  0  0  0  0
   -1.7958    0.0708    0.0000 C   0  0  0  0  0  0  0  0  0  0  0  0
   -1.8333   -0.9292    0.0000 C   0  0  0  0  0  0  0  0  0  0  0  0
  2  1  1  0  0  0  0
  3  4  1  0  0  0  0
  4  1  1  0  0  0  0
  5  1  1  0  0  0  0
  5  7  1  0  0  0  0
  6  1  1  0  0  0  0
  7  6  1  0  0  0  0
  8  2  1  0  0  0  0
  9  2  2  0  0  0  0
 10  9  1  0  0  0  0
 11  8  2  0  0  0  0
 11 12  1  0  0  0  0
 12 10  2  0  0  0  0
M  END
>  <idnumber>
T5652245

>  <LogP>
2.426000000000000e+000

>  <rotating_bonds>
2.000000000000000e+000

>  <hb_acceptors>
1.000000000000000e+000

>  <hb_donors>
1.000000000000000e+000

>  <PSA>
2.602000000000000e+001

>  <clusterid>
-1042

>  <is_centroid>
@

>  <class1>
722

>  <class2>
625

>  <population1>
1463

>  <population2>
877209

>  <population>
1259

>  <cansmi>
NCC1(CCC1)c1ccccc1

>  <HBA2>
1

>  <HBD>
1

>  <logP>
2.7673

>  <TPSA>
26.02

>  <MW>
161.243

$$$$

 OpenBabel02121609142D

 11 12  0  0  0  0  0  0  0  0999 V2000
    0.0917    0.3833    0.0000 C   0  0  0  0  0  0  0  0  0  0  0  0
    0.0917   -0.6167    0.0000 C   0  0  0  0  0  0  0  0  0  0  0  0
    1.6292   -0.1167    0.0000 N   0  0  0  0  0  0  0  0  0  0  0  0
    1.0417   -0.9250    0.0000 N   0  0  0  0  0  0  0  0  0  0  0  0
   -0.7708   -1.1167    0.0000 N   0  0  0  0  0  0  0  0  0  0  0  0
   -0.7708    0.8833    0.0000 C   0  0  0  0  0  0  0  0  0  0  0  0
    1.0417    0.6958    0.0000 C   0  0  0  0  0  0  0  0  0  0  0  0
   -1.6375    0.3833    0.0000 N   0  0  0  0  0  0  0  0  0  0  0  0
   -1.6375   -0.6167    0.0000 C   0  0  0  0  0  0  0  0  0  0  0  0
   -0.7708    1.8833    0.0000 O   0  0  0  0  0  0  0  0  0  0  0  0
    1.3542   -1.8792    0.0000 C   0  0  0  0  0  0  0  0  0  0  0  0
  2  1  2  0  0  0  0
  3  7  2  0  0  0  0
  4  2  1  0  0  0  0
  4  3  1  0  0  0  0
  5  2  1  0  0  0  0
  5  9  2  0  0  0  0
  6  1  1  0  0  0  0
  7  1  1  0  0  0  0
  8  6  1  0  0  0  0
  9  8  1  0  0  0  0
 10  6  2  0  0  0  0
 11  4  1  0  0  0  0
M  END
>  <idnumber>
T5652262

>  <LogP>
-8.140000000000001e-001

>  <rotating_bonds>
0.000000000000000e+000

>  <hb_acceptors>
3.000000000000000e+000

>  <hb_donors>
1.000000000000000e+000

>  <PSA>
5.928000000000000e+001

>  <clusterid>
-1043

>  <is_centroid>
@

>  <class1>
662

>  <population1>
1235

>  <population>
1235

>  <cansmi>
Cn1ncc2c1nc[nH]c2=O

>  <HBA2>
4

>  <HBD>
1

>  <logP>
-0.3434

>  <TPSA>
63.57

>  <MW>
150.138

$$$$

 OpenBabel02121609142D

 13 14  0  0  0  0  0  0  0  0999 V2000
   -0.6708   -0.0625    0.0000 C   0  0  0  0  0  0  0  0  0  0  0  0
    0.0000   -0.8042    0.0000 N   0  0  0  0  0  0  0  0  0  0  0  0
   -0.3625    0.8875    0.0000 C   0  0  3  0  0  0  0  0  0  0  0  0
   -0.9500    1.6958    0.0000 N   0  0  0  0  0  0  0  0  0  0  0  0
   -1.6500   -0.2667    0.0000 O   0  0  0  0  0  0  0  0  0  0  0  0
    1.3375   -2.2917    0.0000 O   0  0  0  0  0  0  0  0  0  0  0  0
   -0.3125   -1.7542    0.0000 C   0  0  0  0  0  0  0  0  0  0  0  0
    0.9750   -0.6000    0.0000 C   0  0  0  0  0  0  0  0  0  0  0  0
   -0.3625    2.5083    0.0000 C   0  0  0  0  0  0  0  0  0  0  0  0
    1.6417   -1.3417    0.0000 C   0  0  0  0  0  0  0  0  0  0  0  0
    0.3542   -2.5000    0.0000 C   0  0  0  0  0  0  0  0  0  0  0  0
    0.5875    1.1958    0.0000 C   0  0  0  0  0  0  0  0  0  0  0  0
    0.5875    2.1958    0.0000 C   0  0  0  0  0  0  0  0  0  0  0  0
  2  1  1  0  0  0  0
  3  1  1  0  0  0  0
  4  3  1  0  0  0  0
  5  1  2  0  0  0  0
  6 10  1  0  0  0  0
  7  2  1  0  0  0  0
  8  2  1  0  0  0  0
  9  4  1  0  0  0  0
 10  8  1  0  0  0  0
 11  7  1  0  0  0  0
 11  6  1  0  0  0  0
 12  3  1  0  0  0  0
 13 12  1  0  0  0  0
 13  9  1  0  0  0  0
M  END
>  <idnumber>
T5652278

>  <LogP>
-4.200000000000000e-002

>  <rotating_bonds>
1.000000000000000e+000

>  <hb_acceptors>
3.000000000000000e+000

>  <hb_donors>
1.000000000000000e+000

>  <PSA>
4.156999999999997e+001

>  <clusterid>
-1046

>  <is_centroid>
@

>  <class1>
642

>  <class2>
786

>  <population1>
51183

>  <population2>
48067

>  <population>
1715

>  <cansmi>
O=C(N1CCOCC1)C1CCCN1

>  <HBA2>
4

>  <HBD>
1

>  <logP>
-0.1361

>  <TPSA>
41.57

>  <MW>
184.236

$$$$

 OpenBabel02121609142D

 14 16  0  0  0  0  0  0  0  0999 V2000
   -0.6083   -0.4625    0.0000 C   0  0  0  0  0  0  0  0  0  0  0  0
    0.3417   -0.7750    0.0000 C   0  0  0  0  0  0  0  0  0  0  0  0
   -0.6083    0.5375    0.0000 C   0  0  0  0  0  0  0  0  0  0  0  0
    0.9292    0.0375    0.0000 C   0  0  0  0  0  0  0  0  0  0  0  0
    0.3417    0.8458    0.0000 C   0  0  0  0  0  0  0  0  0  0  0  0
    0.6542    1.7958    0.0000 O   0  0  0  0  0  0  0  0  0  0  0  0
    0.7500   -1.6875    0.0000 C   0  0  0  0  0  0  0  0  0  0  0  0
   -1.4708   -0.9625    0.0000 C   0  0  0  0  0  0  0  0  0  0  0  0
    1.9292   -0.0667    0.0000 C   0  0  0  0  0  0  0  0  0  0  0  0
   -1.4708    1.0375    0.0000 C   0  0  0  0  0  0  0  0  0  0  0  0
    1.7417   -1.7917    0.0000 C   0  0  0  0  0  0  0  0  0  0  0  0
    2.3292   -0.9792    0.0000 C   0  0  0  0  0  0  0  0  0  0  0  0
   -2.3375    0.5375    0.0000 C   0  0  0  0  0  0  0  0  0  0  0  0
   -2.3375   -0.4625    0.0000 C   0  0  0  0  0  0  0  0  0  0  0  0
  2  1  1  0  0  0  0
  3  1  2  0  0  0  0
  4  2  2  0  0  0  0
  5  3  1  0  0  0  0
  5  4  1  0  0  0  0
  6  5  1  0  0  0  0
  7  2  1  0  0  0  0
  8  1  1  0  0  0  0
  9  4  1  0  0  0  0
  9 12  2  0  0  0  0
 10  3  1  0  0  0  0
 10 13  2  0  0  0  0
 11  7  2  0  0  0  0
 12 11  1  0  0  0  0
 13 14  1  0  0  0  0
 14  8  2  0  0  0  0
M  END
>  <idnumber>
T5652308

>  <LogP>
2.438000000000000e+000

>  <rotating_bonds>
0.000000000000000e+000

>  <hb_acceptors>
1.000000000000000e+000

>  <hb_donors>
1.000000000000000e+000

>  <PSA>
2.023000000000000e+001

>  <clusterid>
-1047

>  <is_centroid>
@

>  <class1>
812

>  <population1>
999

>  <population>
999

>  <cansmi>
OC1c2ccccc2c2c1cccc2

>  <HBA2>
1

>  <HBD>
1

>  <logP>
2.7487

>  <TPSA>
20.23

>  <MW>
182.218

$$$$

 OpenBabel02121609142D

 17 19  0  0  0  0  0  0  0  0999 V2000
   -0.3875   -0.3167    0.0000 C   0  0  0  0  0  0  0  0  0  0  0  0
    0.2000   -1.1250    0.0000 N   0  0  0  0  0  0  0  0  0  0  0  0
    0.2000    0.4958    0.0000 C   0  0  0  0  0  0  0  0  0  0  0  0
    1.1500   -0.8167    0.0000 C   0  0  0  0  0  0  0  0  0  0  0  0
    1.1500    0.1833    0.0000 C   0  0  0  0  0  0  0  0  0  0  0  0
   -1.3875   -0.3167    0.0000 C   0  0  0  0  0  0  0  0  0  0  0  0
   -1.8875   -1.1792    0.0000 N   0  0  0  0  0  0  0  0  0  0  0  0
    2.0167    0.6833    0.0000 C   0  0  0  0  0  0  0  0  0  0  0  0
   -2.8875   -1.1792    0.0000 C   0  0  0  0  0  0  0  0  0  0  0  0
    2.0167   -1.3167    0.0000 C   0  0  0  0  0  0  0  0  0  0  0  0
   -3.7583   -0.6792    0.0000 C   0  0  0  0  0  0  0  0  0  0  0  0
   -3.7583   -1.6792    0.0000 C   0  0  0  0  0  0  0  0  0  0  0  0
    2.8792    0.1833    0.0000 C   0  0  0  0  0  0  0  0  0  0  0  0
   -1.8875    0.5500    0.0000 O   0  0  0  0  0  0  0  0  0  0  0  0
    2.8792   -0.8167    0.0000 C   0  0  0  0  0  0  0  0  0  0  0  0
    2.0167    1.6833    0.0000 C   0  0  0  0  0  0  0  0  0  0  0  0
    3.7500   -1.3167    0.0000 C   0  0  0  0  0  0  0  0  0  0  0  0
  2  1  1  0  0  0  0
  3  1  2  0  0  0  0
  4  2  1  0  0  0  0
  5  3  1  0  0  0  0
  5  4  2  0  0  0  0
  6  1  1  0  0  0  0
  7  6  1  0  0  0  0
  8  5  1  0  0  0  0
  9  7  1  0  0  0  0
 10  4  1  0  0  0  0
 11  9  1  0  0  0  0
 11 12  1  0  0  0  0
 12  9  1  0  0  0  0
 13  8  2  0  0  0  0
 14  6  2  0  0  0  0
 15 10  2  0  0  0  0
 15 13  1  0  0  0  0
 16  8  1  0  0  0  0
 17 15  1  0  0  0  0
M  END
>  <idnumber>
T5652421

>  <LogP>
2.799000000000000e+000

>  <rotating_bonds>
2.000000000000000e+000

>  <hb_acceptors>
1.000000000000000e+000

>  <hb_donors>
2.000000000000000e+000

>  <PSA>
4.489000000000003e+001

>  <clusterid>
-1048

>  <is_centroid>
@

>  <class1>
675

>  <class2>
748

>  <population1>
33654

>  <population2>
15713

>  <population>
742

>  <cansmi>
Cc1cc(C)c2c(c1)[nH]c(c2)C(=O)NC1CC1

>  <HBA2>
2

>  <HBD>
2

>  <logP>
3.0678

>  <TPSA>
44.89

>  <MW>
228.29

$$$$

 OpenBabel02121609142D

 22 25  0  0  0  0  0  0  0  0999 V2000
   -0.4333   -0.0667    0.0000 C   0  0  0  0  0  0  0  0  0  0  0  0
   -0.4333   -1.0667    0.0000 C   0  0  0  0  0  0  0  0  0  0  0  0
   -0.4333    1.9333    0.0000 N   0  0  0  0  0  0  0  0  0  0  0  0
    0.4292    1.4333    0.0000 C   0  0  0  0  0  0  0  0  0  0  0  0
    0.4292    0.4333    0.0000 C   0  0  0  0  0  0  0  0  0  0  0  0
   -1.3000    0.4333    0.0000 C   0  0  0  0  0  0  0  0  0  0  0  0
    0.4292   -1.5667    0.0000 N   0  0  0  0  0  0  0  0  0  0  0  0
   -1.3000    1.4333    0.0000 C   0  0  0  0  0  0  0  0  0  0  0  0
    0.4292   -2.5667    0.0000 C   0  0  0  0  0  0  0  0  0  0  0  0
    1.2917    1.9333    0.0000 C   0  0  0  0  0  0  0  0  0  0  0  0
    0.9292   -3.4292    0.0000 C   0  0  0  0  0  0  0  0  0  0  0  0
   -0.0708   -3.4292    0.0000 C   0  0  0  0  0  0  0  0  0  0  0  0
   -1.3000   -1.5667    0.0000 O   0  0  0  0  0  0  0  0  0  0  0  0
    2.1625    3.4333    0.0000 N   0  0  0  0  0  0  0  0  0  0  0  0
    1.2917    2.9333    0.0000 C   0  0  0  0  0  0  0  0  0  0  0  0
   -2.1708   -0.0667    0.0000 C   0  0  0  0  0  0  0  0  0  0  0  0
   -2.1708    1.9333    0.0000 C   0  0  0  0  0  0  0  0  0  0  0  0
    2.1625    1.4333    0.0000 C   0  0  0  0  0  0  0  0  0  0  0  0
    3.0292    2.9333    0.0000 C   0  0  0  0  0  0  0  0  0  0  0  0
    3.0292    1.9333    0.0000 C   0  0  0  0  0  0  0  0  0  0  0  0
   -3.0333    0.4333    0.0000 C   0  0  0  0  0  0  0  0  0  0  0  0
   -3.0333    1.4333    0.0000 C   0  0  0  0  0  0  0  0  0  0  0  0
  2  1  1  0  0  0  0
  3  8  2  0  0  0  0
  4  5  2  0  0  0  0
  4  3  1  0  0  0  0
  5  1  1  0  0  0  0
  6  1  2  0  0  0  0
  7  2  1  0  0  0  0
  8  6  1  0  0  0  0
  9  7  1  0  0  0  0
 10  4  1  0  0  0  0
 11  9  1  0  0  0  0
 12  9  1  0  0  0  0
 12 11  1  0  0  0  0
 13  2  2  0  0  0  0
 14 15  1  0  0  0  0
 14 19  2  0  0  0  0
 15 10  2  0  0  0  0
 16  6  1  0  0  0  0
 17  8  1  0  0  0  0
 17 22  2  0  0  0  0
 18 10  1  0  0  0  0
 19 20  1  0  0  0  0
 20 18  2  0  0  0  0
 21 16  2  0  0  0  0
 22 21  1  0  0  0  0
M  END
>  <idnumber>
T5652592

>  <LogP>
2.567000000000000e+000

>  <rotating_bonds>
3.000000000000000e+000

>  <hb_acceptors>
3.000000000000000e+000

>  <hb_donors>
1.000000000000000e+000

>  <PSA>
5.488000000000000e+001

>  <clusterid>
-1049

>  <is_centroid>
@

>  <class1>
675

>  <class2>
632

>  <class3>
682

>  <population1>
33654

>  <population2>
79489

>  <population3>
20351

>  <population>
612

>  <cansmi>
O=C(c1cc(nc2c1cccc2)c1cccnc1)NC1CC1

>  <HBA2>
4

>  <HBD>
1

>  <logP>
3.5799

>  <TPSA>
54.88

>  <MW>
289.331

$$$$

 OpenBabel02121609142D

 17 19  0  0  0  0  0  0  0  0999 V2000
   -0.0083   -1.5667    0.0000 C   0  0  3  0  0  0  0  0  0  0  0  0
   -0.0083   -0.5667    0.0000 C   0  0  0  0  0  0  0  0  0  0  0  0
    0.5000   -2.4292    0.0000 C   0  0  0  0  0  0  0  0  0  0  0  0
   -0.5000   -2.4292    0.0000 C   0  0  3  0  0  0  0  0  0  0  0  0
    0.8625   -0.0667    0.0000 N   0  0  0  0  0  0  0  0  0  0  0  0
    0.8625    0.9333    0.0000 C   0  0  3  0  0  0  0  0  0  0  0  0
   -0.0083    1.4333    0.0000 C   0  0  0  0  0  0  0  0  0  0  0  0
   -0.8708   -0.0667    0.0000 O   0  0  0  0  0  0  0  0  0  0  0  0
   -0.0083    2.4333    0.0000 C   0  0  0  0  0  0  0  0  0  0  0  0
   -1.3708   -2.9292    0.0000 C   0  0  0  0  0  0  0  0  0  0  0  0
    1.7292    1.4333    0.0000 C   0  0  0  0  0  0  0  0  0  0  0  0
    1.7292    2.4333    0.0000 C   0  0  0  0  0  0  0  0  0  0  0  0
   -0.8708    0.9333    0.0000 C   0  0  0  0  0  0  0  0  0  0  0  0
    0.8625    2.9333    0.0000 C   0  0  0  0  0  0  0  0  0  0  0  0
   -0.8708    2.9333    0.0000 C   0  0  0  0  0  0  0  0  0  0  0  0
   -1.7333    1.4333    0.0000 C   0  0  0  0  0  0  0  0  0  0  0  0
   -1.7333    2.4333    0.0000 C   0  0  0  0  0  0  0  0  0  0  0  0
  2  1  1  0  0  0  0
  3  1  1  0  0  0  0
  4  1  1  0  0  0  0
  4  3  1  0  0  0  0
  5  2  1  0  0  0  0
  6  5  1  0  0  0  0
  7  6  1  0  0  0  0
  8  2  2  0  0  0  0
  9  7  2  0  0  0  0
  9 14  1  0  0  0  0
 10  4  1  0  0  0  0
 11  6  1  0  0  0  0
 12 11  1  0  0  0  0
 13  7  1  0  0  0  0
 14 12  1  0  0  0  0
 15  9  1  0  0  0  0
 15 17  2  0  0  0  0
 16 13  2  0  0  0  0
 17 16  1  0  0  0  0
M  END
>  <idnumber>
T5655635

>  <LogP>
2.796000000000000e+000

>  <rotating_bonds>
2.000000000000000e+000

>  <hb_acceptors>
1.000000000000000e+000

>  <hb_donors>
1.000000000000000e+000

>  <PSA>
2.910000000000000e+001

>  <clusterid>
603

>  <is_centroid>
@

>  <class1>
675

>  <class2>
807

>  <population1>
33654

>  <population2>
5384

>  <population>
141

>  <cansmi>
CC1CC1C(=O)NC1CCCc2c1cccc2

>  <HBA2>
2

>  <HBD>
1

>  <logP>
3.2271

>  <TPSA>
29.1

>  <MW>
229.317

$$$$

 OpenBabel02121609142D

 18 20  0  0  0  0  0  0  0  0999 V2000
    0.7042   -0.9917    0.0000 C   0  0  0  0  0  0  0  0  0  0  0  0
    0.1125   -0.1792    0.0000 O   0  0  0  0  0  0  0  0  0  0  0  0
   -0.8375   -0.4917    0.0000 C   0  0  0  0  0  0  0  0  0  0  0  0
    1.7042   -0.9917    0.0000 C   0  0  0  0  0  0  0  0  0  0  0  0
    0.1125   -1.8000    0.0000 C   0  0  0  0  0  0  0  0  0  0  0  0
   -0.8375   -1.4917    0.0000 C   0  0  0  0  0  0  0  0  0  0  0  0
    2.2042   -0.1250    0.0000 N   0  0  0  0  0  0  0  0  0  0  0  0
    3.2042   -0.1250    0.0000 C   0  0  0  0  0  0  0  0  0  0  0  0
   -1.6458    0.0958    0.0000 C   0  0  0  0  0  0  0  0  0  0  0  0
    4.0667   -0.6250    0.0000 C   0  0  0  0  0  0  0  0  0  0  0  0
    4.0667    0.3750    0.0000 C   0  0  0  0  0  0  0  0  0  0  0  0
    2.2042   -1.8542    0.0000 O   0  0  0  0  0  0  0  0  0  0  0  0
   -1.5458    1.0958    0.0000 C   0  0  0  0  0  0  0  0  0  0  0  0
   -2.5583   -0.3042    0.0000 C   0  0  0  0  0  0  0  0  0  0  0  0
   -3.2625    1.2708    0.0000 C   0  0  0  0  0  0  0  0  0  0  0  0
   -2.3500    1.6833    0.0000 C   0  0  0  0  0  0  0  0  0  0  0  0
   -3.3708    0.2833    0.0000 C   0  0  0  0  0  0  0  0  0  0  0  0
   -4.0708    1.8625    0.0000 F   0  0  0  0  0  0  0  0  0  0  0  0
  2  1  1  0  0  0  0
  3  2  1  0  0  0  0
  3  6  2  0  0  0  0
  4  1  1  0  0  0  0
  5  1  2  0  0  0  0
  6  5  1  0  0  0  0
  7  4  1  0  0  0  0
  8  7  1  0  0  0  0
  9  3  1  0  0  0  0
 10  8  1  0  0  0  0
 10 11  1  0  0  0  0
 11  8  1  0  0  0  0
 12  4  2  0  0  0  0
 13  9  2  0  0  0  0
 14  9  1  0  0  0  0
 15 17  1  0  0  0  0
 16 13  1  0  0  0  0
 16 15  2  0  0  0  0
 17 14  2  0  0  0  0
 18 15  1  0  0  0  0
M  END
>  <idnumber>
T5656681

>  <LogP>
2.672000000000000e+000

>  <rotating_bonds>
3.000000000000000e+000

>  <hb_acceptors>
2.000000000000000e+000

>  <hb_donors>
1.000000000000000e+000

>  <PSA>
4.224000000000000e+001

>  <clusterid>
-1061

>  <is_centroid>
@

>  <class1>
675

>  <class2>
704

>  <class3>
625

>  <population1>
33654

>  <population2>
51112

>  <population3>
877209

>  <population>
700

>  <cansmi>
Fc1ccc(cc1)c1ccc(o1)C(=O)NC1CC1

>  <HBA2>
3

>  <HBD>
1

>  <logP>
3.3688

>  <TPSA>
42.24

>  <MW>
245.249

$$$$

 OpenBabel02121609142D

 22 24  0  0  0  0  0  0  0  0999 V2000
    0.8750   -1.6667    0.0000 C   0  0  0  0  0  0  0  0  0  0  0  0
    1.9542   -2.8667    0.0000 N   0  0  0  0  0  0  0  0  0  0  0  0
    1.7875   -1.2542    0.0000 C   0  0  0  0  0  0  0  0  0  0  0  0
    2.4542   -2.0042    0.0000 N   0  0  0  0  0  0  0  0  0  0  0  0
    0.9792   -2.6625    0.0000 C   0  0  0  0  0  0  0  0  0  0  0  0
    0.0042   -1.1667    0.0000 N   0  0  0  0  0  0  0  0  0  0  0  0
    0.0042   -0.1667    0.0000 C   0  0  0  0  0  0  0  0  0  0  0  0
   -0.8583    1.3333    0.0000 C   0  0  0  0  0  0  0  0  0  0  0  0
   -0.8583    0.3333    0.0000 C   0  0  0  0  0  0  0  0  0  0  0  0
   -1.7250    1.8333    0.0000 C   0  0  0  0  0  0  0  0  0  0  0  0
    0.8750    0.3333    0.0000 O   0  0  0  0  0  0  0  0  0  0  0  0
   -1.7250    2.8333    0.0000 C   0  0  0  0  0  0  0  0  0  0  0  0
    1.9917   -0.2792    0.0000 C   0  0  0  0  0  0  0  0  0  0  0  0
    3.4500   -1.9000    0.0000 C   0  0  0  0  0  0  0  0  0  0  0  0
    0.2375   -3.3292    0.0000 C   0  0  0  0  0  0  0  0  0  0  0  0
    0.0042    1.8333    0.0000 C   0  0  0  0  0  0  0  0  0  0  0  0
    0.0042    2.8333    0.0000 C   0  0  0  0  0  0  0  0  0  0  0  0
   -2.5958    1.3333    0.0000 C   0  0  0  0  0  0  0  0  0  0  0  0
   -0.8583    3.3333    0.0000 C   0  0  0  0  0  0  0  0  0  0  0  0
   -2.5958    3.3333    0.0000 C   0  0  0  0  0  0  0  0  0  0  0  0
   -3.4583    1.8333    0.0000 C   0  0  0  0  0  0  0  0  0  0  0  0
   -3.4583    2.8333    0.0000 C   0  0  0  0  0  0  0  0  0  0  0  0
  2  5  2  0  0  0  0
  2  4  1  0  0  0  0
  3  1  2  0  0  0  0
  4  3  1  0  0  0  0
  5  1  1  0  0  0  0
  6  1  1  0  0  0  0
  7  6  1  0  0  0  0
  8  9  1  0  0  0  0
  9  7  1  0  0  0  0
 10  8  2  0  0  0  0
 11  7  2  0  0  0  0
 12 10  1  0  0  0  0
 12 19  2  0  0  0  0
 13  3  1  0  0  0  0
 14  4  1  0  0  0  0
 15  5  1  0  0  0  0
 16  8  1  0  0  0  0
 17 16  2  0  0  0  0
 18 10  1  0  0  0  0
 19 17  1  0  0  0  0
 20 12  1  0  0  0  0
 20 22  2  0  0  0  0
 21 18  2  0  0  0  0
 22 21  1  0  0  0  0
M  END
>  <idnumber>
T5656764

>  <LogP>
1.633000000000000e+000

>  <rotating_bonds>
3.000000000000000e+000

>  <hb_acceptors>
2.000000000000000e+000

>  <hb_donors>
1.000000000000000e+000

>  <PSA>
4.692000000000000e+001

>  <clusterid>
-1062

>  <is_centroid>
@

>  <class1>
631

>  <class2>
796

>  <population1>
41612

>  <population2>
21922

>  <population>
491

>  <cansmi>
O=C(Nc1c(C)nn(c1C)C)Cc1cccc2c1cccc2

>  <HBA2>
4

>  <HBD>
1

>  <logP>
3.4443

>  <TPSA>
46.92

>  <MW>
293.363

$$$$

 OpenBabel02121609142D

 20 22  0  0  0  0  0  0  0  0999 V2000
   -0.9250    1.1083    0.0000 C   0  0  0  0  0  0  0  0  0  0  0  0
   -0.9250    2.7208    0.0000 N   0  0  0  0  0  0  0  0  0  0  0  0
   -0.3375    1.9125    0.0000 C   0  0  0  0  0  0  0  0  0  0  0  0
    0.3625   -0.0542    0.0000 C   0  0  0  0  0  0  0  0  0  0  0  0
   -1.8750    1.4125    0.0000 C   0  0  0  0  0  0  0  0  0  0  0  0
    0.6667   -1.0042    0.0000 N   0  0  0  0  0  0  0  0  0  0  0  0
   -0.6208    0.1583    0.0000 C   0  0  0  0  0  0  0  0  0  0  0  0
    1.6500   -1.2125    0.0000 C   0  0  0  0  0  0  0  0  0  0  0  0
   -1.8750    2.4125    0.0000 C   0  0  0  0  0  0  0  0  0  0  0  0
    1.0292    0.6875    0.0000 O   0  0  0  0  0  0  0  0  0  0  0  0
    1.9542   -2.1667    0.0000 C   0  0  0  0  0  0  0  0  0  0  0  0
   -2.7458    0.9125    0.0000 C   0  0  0  0  0  0  0  0  0  0  0  0
    2.3167   -0.4667    0.0000 C   0  0  0  0  0  0  0  0  0  0  0  0
   -2.7458    2.9125    0.0000 C   0  0  0  0  0  0  0  0  0  0  0  0
    1.2875   -2.9042    0.0000 C   0  0  0  0  0  0  0  0  0  0  0  0
    2.9375   -2.3750    0.0000 C   0  0  0  0  0  0  0  0  0  0  0  0
   -3.6083    1.4125    0.0000 C   0  0  0  0  0  0  0  0  0  0  0  0
    3.2917   -0.6792    0.0000 C   0  0  0  0  0  0  0  0  0  0  0  0
   -3.6083    2.4125    0.0000 C   0  0  0  0  0  0  0  0  0  0  0  0
    3.6042   -1.6292    0.0000 C   0  0  0  0  0  0  0  0  0  0  0  0
  2  3  1  0  0  0  0
  2  9  1  0  0  0  0
  3  1  2  0  0  0  0
  4  7  1  0  0  0  0
  5  1  1  0  0  0  0
  6  4  1  0  0  0  0
  7  1  1  0  0  0  0
  8  6  1  0  0  0  0
  9  5  2  0  0  0  0
 10  4  2  0  0  0  0
 11  8  2  0  0  0  0
 12  5  1  0  0  0  0
 13  8  1  0  0  0  0
 14  9  1  0  0  0  0
 14 19  2  0  0  0  0
 15 11  1  0  0  0  0
 16 11  1  0  0  0  0
 16 20  2  0  0  0  0
 17 12  2  0  0  0  0
 18 13  2  0  0  0  0
 19 17  1  0  0  0  0
 20 18  1  0  0  0  0
M  END
>  <idnumber>
T5657199

>  <LogP>
2.538000000000000e+000

>  <rotating_bonds>
3.000000000000000e+000

>  <hb_acceptors>
1.000000000000000e+000

>  <hb_donors>
2.000000000000000e+000

>  <PSA>
4.489000000000003e+001

>  <clusterid>
325

>  <is_centroid>
@

>  <class1>
748

>  <class2>
625

>  <population1>
15713

>  <population2>
877209

>  <population>
15713

>  <cansmi>
O=C(Cc1c[nH]c2c1cccc2)Nc1ccccc1C

>  <HBA2>
2

>  <HBD>
2

>  <logP>
3.7305

>  <TPSA>
44.89

>  <MW>
264.322

$$$$

 OpenBabel02121609142D

 20 22  0  0  0  0  0  0  0  0999 V2000
   -0.6208   -1.2292    0.0000 C   0  0  0  0  0  0  0  0  0  0  0  0
   -1.2083   -0.4167    0.0000 N   0  0  0  0  0  0  0  0  0  0  0  0
   -1.2083   -2.0375    0.0000 N   0  0  0  0  0  0  0  0  0  0  0  0
    1.8792   -0.3625    0.0000 C   0  0  0  0  0  0  0  0  0  0  0  0
    0.8792   -0.3625    0.0000 N   0  0  0  0  0  0  0  0  0  0  0  0
   -2.1583   -0.7292    0.0000 C   0  0  0  0  0  0  0  0  0  0  0  0
   -2.1583   -1.7292    0.0000 C   0  0  0  0  0  0  0  0  0  0  0  0
    0.3792   -1.2292    0.0000 C   0  0  3  0  0  0  0  0  0  0  0  0
    2.3792   -1.2292    0.0000 O   0  0  0  0  0  0  0  0  0  0  0  0
    2.3792    0.5000    0.0000 C   0  0  3  0  0  0  0  0  0  0  0  0
    2.3792    2.2333    0.0000 C   0  0  0  0  0  0  0  0  0  0  0  0
    3.3792    2.2333    0.0000 C   0  0  0  0  0  0  0  0  0  0  0  0
    1.8792    1.3708    0.0000 C   0  0  0  0  0  0  0  0  0  0  0  0
   -3.0208   -0.2292    0.0000 C   0  0  0  0  0  0  0  0  0  0  0  0
   -3.0208   -2.2292    0.0000 C   0  0  0  0  0  0  0  0  0  0  0  0
    0.8792   -2.0917    0.0000 C   0  0  0  0  0  0  0  0  0  0  0  0
    3.8792    1.3708    0.0000 C   0  0  0  0  0  0  0  0  0  0  0  0
    3.3792    0.5000    0.0000 C   0  0  0  0  0  0  0  0  0  0  0  0
   -3.8958   -1.7292    0.0000 C   0  0  0  0  0  0  0  0  0  0  0  0
   -3.8958   -0.7292    0.0000 C   0  0  0  0  0  0  0  0  0  0  0  0
  2  1  2  0  0  0  0
  3  1  1  0  0  0  0
  4  5  1  0  0  0  0
  5  8  1  0  0  0  0
  6  2  1  0  0  0  0
  6  7  2  0  0  0  0
  7  3  1  0  0  0  0
  8  1  1  0  0  0  0
  9  4  2  0  0  0  0
 10  4  1  0  0  0  0
 11 13  1  0  0  0  0
 11 12  2  0  0  0  0
 12 17  1  0  0  0  0
 13 10  1  0  0  0  0
 14  6  1  0  0  0  0
 15  7  1  0  0  0  0
 16  8  1  0  0  0  0
 17 18  1  0  0  0  0
 18 10  1  0  0  0  0
 19 15  2  0  0  0  0
 20 14  2  0  0  0  0
 20 19  1  0  0  0  0
M  END
>  <idnumber>
T5657200

>  <LogP>
2.229000000000000e+000

>  <rotating_bonds>
3.000000000000000e+000

>  <hb_acceptors>
2.000000000000000e+000

>  <hb_donors>
2.000000000000000e+000

>  <PSA>
5.778000000000000e+001

>  <clusterid>
604

>  <is_centroid>
@

>  <class1>
810

>  <class2>
685

>  <population1>
20527

>  <population2>
28767

>  <population>
241

>  <cansmi>
O=C(C1CCC=CC1)NC(c1nc2c([nH]1)cccc2)C

>  <HBA2>
3

>  <HBD>
2

>  <logP>
3.4873

>  <TPSA>
57.78

>  <MW>
269.342

$$$$

 OpenBabel02121609142D

 18 20  0  0  0  0  0  0  0  0999 V2000
    2.1625   -0.8167    0.0000 C   0  0  0  0  0  0  0  0  0  0  0  0
    2.1625   -1.8167    0.0000 C   0  0  0  0  0  0  0  0  0  0  0  0
    1.2917   -0.3167    0.0000 N   0  0  0  0  0  0  0  0  0  0  0  0
    1.6625   -2.6792    0.0000 C   0  0  0  0  0  0  0  0  0  0  0  0
    2.6625   -2.6792    0.0000 C   0  0  0  0  0  0  0  0  0  0  0  0
   -1.3000    1.1833    0.0000 C   0  0  0  0  0  0  0  0  0  0  0  0
    0.4292    1.1833    0.0000 C   0  0  0  0  0  0  0  0  0  0  0  0
   -0.4333    0.6833    0.0000 C   0  0  0  0  0  0  0  0  0  0  0  0
    1.2917    0.6833    0.0000 C   0  0  3  0  0  0  0  0  0  0  0  0
   -1.3000    2.1833    0.0000 C   0  0  0  0  0  0  0  0  0  0  0  0
   -2.1708    0.6833    0.0000 O   0  0  0  0  0  0  0  0  0  0  0  0
    3.0292   -0.3167    0.0000 O   0  0  0  0  0  0  0  0  0  0  0  0
   -2.1708    2.6833    0.0000 O   0  0  0  0  0  0  0  0  0  0  0  0
    0.4292    2.1833    0.0000 C   0  0  0  0  0  0  0  0  0  0  0  0
   -0.4333    2.6833    0.0000 C   0  0  0  0  0  0  0  0  0  0  0  0
   -3.0333    1.1833    0.0000 C   0  0  0  0  0  0  0  0  0  0  0  0
   -3.0333    2.1833    0.0000 C   0  0  0  0  0  0  0  0  0  0  0  0
    2.1625    1.1833    0.0000 C   0  0  0  0  0  0  0  0  0  0  0  0
  2  1  1  0  0  0  0
  3  1  1  0  0  0  0
  4  2  1  0  0  0  0
  4  5  1  0  0  0  0
  5  2  1  0  0  0  0
  6  8  1  0  0  0  0
  6 10  2  0  0  0  0
  7  9  1  0  0  0  0
  8  7  2  0  0  0  0
  9  3  1  0  0  0  0
 10 15  1  0  0  0  0
 11  6  1  0  0  0  0
 12  1  2  0  0  0  0
 13 10  1  0  0  0  0
 14  7  1  0  0  0  0
 15 14  2  0  0  0  0
 16 11  1  0  0  0  0
 17 13  1  0  0  0  0
 17 16  1  0  0  0  0
 18  9  1  0  0  0  0
M  END
>  <idnumber>
T5659100

>  <LogP>
1.537000000000000e+000

>  <rotating_bonds>
3.000000000000000e+000

>  <hb_acceptors>
3.000000000000000e+000

>  <hb_donors>
1.000000000000000e+000

>  <PSA>
4.756000000000000e+001

>  <clusterid>
-1065

>  <is_centroid>
@

>  <class1>
675

>  <class2>
730

>  <population1>
33654

>  <population2>
20896

>  <population>
448

>  <cansmi>
O=C(C1CC1)NC(c1ccc2c(c1)OCCO2)C

>  <HBA2>
4

>  <HBD>
1

>  <logP>
2.4359

>  <TPSA>
47.56

>  <MW>
247.29

$$$$

 OpenBabel02121609142D

 19 21  0  0  0  0  0  0  0  0999 V2000
    0.8750   -0.6667    0.0000 C   0  0  0  0  0  0  0  0  0  0  0  0
    0.0042   -0.1667    0.0000 C   0  0  3  0  0  0  0  0  0  0  0  0
    1.9542   -1.8667    0.0000 N   0  0  0  0  0  0  0  0  0  0  0  0
    0.0042    0.8333    0.0000 N   0  0  0  0  0  0  0  0  0  0  0  0
    2.4542   -1.0042    0.0000 N   0  0  0  0  0  0  0  0  0  0  0  0
    0.9792   -1.6625    0.0000 C   0  0  0  0  0  0  0  0  0  0  0  0
   -0.8583    1.3333    0.0000 C   0  0  0  0  0  0  0  0  0  0  0  0
    1.7875   -0.2542    0.0000 C   0  0  0  0  0  0  0  0  0  0  0  0
   -0.8583   -0.6667    0.0000 N   0  0  0  0  0  0  0  0  0  0  0  0
   -1.7250    0.8333    0.0000 C   0  0  0  0  0  0  0  0  0  0  0  0
   -1.7250   -0.1667    0.0000 C   0  0  0  0  0  0  0  0  0  0  0  0
   -0.8583    2.3333    0.0000 O   0  0  0  0  0  0  0  0  0  0  0  0
    3.4500   -0.9000    0.0000 C   0  0  0  0  0  0  0  0  0  0  0  0
    0.2375   -2.3292    0.0000 C   0  0  0  0  0  0  0  0  0  0  0  0
    1.9917    0.7208    0.0000 C   0  0  0  0  0  0  0  0  0  0  0  0
   -2.5958    1.3333    0.0000 C   0  0  0  0  0  0  0  0  0  0  0  0
   -2.5958   -0.6667    0.0000 C   0  0  0  0  0  0  0  0  0  0  0  0
   -3.4583    0.8333    0.0000 C   0  0  0  0  0  0  0  0  0  0  0  0
   -3.4583   -0.1667    0.0000 C   0  0  0  0  0  0  0  0  0  0  0  0
  2  1  1  0  0  0  0
  3  6  2  0  0  0  0
  3  5  1  0  0  0  0
  4  2  1  0  0  0  0
  5  8  1  0  0  0  0
  6  1  1  0  0  0  0
  7  4  1  0  0  0  0
  7 10  1  0  0  0  0
  8  1  2  0  0  0  0
  9  2  1  0  0  0  0
 10 11  2  0  0  0  0
 11  9  1  0  0  0  0
 12  7  2  0  0  0  0
 13  5  1  0  0  0  0
 14  6  1  0  0  0  0
 15  8  1  0  0  0  0
 16 10  1  0  0  0  0
 16 18  2  0  0  0  0
 17 11  1  0  0  0  0
 18 19  1  0  0  0  0
 19 17  2  0  0  0  0
M  END
>  <idnumber>
T5659968

>  <LogP>
8.730000000000000e-001

>  <rotating_bonds>
1.000000000000000e+000

>  <hb_acceptors>
3.000000000000000e+000

>  <hb_donors>
2.000000000000000e+000

>  <PSA>
5.895000000000000e+001

>  <clusterid>
605

>  <is_centroid>
@

>  <class1>
697

>  <class2>
631

>  <population1>
4727

>  <population2>
41612

>  <population>
241

>  <cansmi>
O=C1NC(Nc2c1cccc2)c1c(C)nn(c1C)C

>  <HBA2>
5

>  <HBD>
2

>  <logP>
2.3578

>  <TPSA>
58.95

>  <MW>
256.303

$$$$

 OpenBabel02121609142D

 19 21  0  0  0  0  0  0  0  0999 V2000
    0.3542    1.6083    0.0000 C   0  0  0  0  0  0  0  0  0  0  0  0
    1.2167    1.1083    0.0000 C   0  0  3  0  0  0  0  0  0  0  0  0
    1.2167    0.1083    0.0000 N   0  0  0  0  0  0  0  0  0  0  0  0
    0.3542   -0.3917    0.0000 C   0  0  0  0  0  0  0  0  0  0  0  0
    0.3542    2.6083    0.0000 C   0  0  0  0  0  0  0  0  0  0  0  0
    1.2167    3.1083    0.0000 O   0  0  0  0  0  0  0  0  0  0  0  0
   -0.5083    0.1083    0.0000 O   0  0  0  0  0  0  0  0  0  0  0  0
    0.3542   -1.3917    0.0000 C   0  0  0  0  0  0  0  0  0  0  0  0
    2.0875    1.6083    0.0000 C   0  0  0  0  0  0  0  0  0  0  0  0
    2.0875    2.6083    0.0000 C   0  0  0  0  0  0  0  0  0  0  0  0
   -0.5083    1.1083    0.0000 C   0  0  0  0  0  0  0  0  0  0  0  0
   -0.5083   -1.8917    0.0000 C   0  0  0  0  0  0  0  0  0  0  0  0
   -0.5083    3.1083    0.0000 C   0  0  0  0  0  0  0  0  0  0  0  0
   -0.6125   -2.8917    0.0000 C   0  0  0  0  0  0  0  0  0  0  0  0
   -1.4250   -1.4917    0.0000 C   0  0  0  0  0  0  0  0  0  0  0  0
   -1.3750    1.6083    0.0000 C   0  0  0  0  0  0  0  0  0  0  0  0
   -1.3750    2.6083    0.0000 C   0  0  0  0  0  0  0  0  0  0  0  0
   -2.0958   -2.2292    0.0000 C   0  0  0  0  0  0  0  0  0  0  0  0
   -1.5958   -3.1000    0.0000 C   0  0  0  0  0  0  0  0  0  0  0  0
  2  1  1  0  0  0  0
  3  2  1  0  0  0  0
  4  3  1  0  0  0  0
  5  1  2  0  0  0  0
  6  5  1  0  0  0  0
  7  4  2  0  0  0  0
  8  4  1  0  0  0  0
  9  2  1  0  0  0  0
  9 10  1  0  0  0  0
 10  6  1  0  0  0  0
 11  1  1  0  0  0  0
 12  8  1  0  0  0  0
 13  5  1  0  0  0  0
 13 17  2  0  0  0  0
 14 12  1  0  0  0  0
 15 12  1  0  0  0  0
 16 11  2  0  0  0  0
 17 16  1  0  0  0  0
 18 15  1  0  0  0  0
 18 19  1  0  0  0  0
 19 14  1  0  0  0  0
M  END
>  <idnumber>
T5660172

>  <LogP>
2.905000000000000e+000

>  <rotating_bonds>
3.000000000000000e+000

>  <hb_acceptors>
2.000000000000000e+000

>  <hb_donors>
1.000000000000000e+000

>  <PSA>
3.833000000000000e+001

>  <clusterid>
420

>  <is_centroid>
@

>  <class1>
674

>  <class2>
766

>  <population1>
16474

>  <population2>
1661

>  <population>
14

>  <cansmi>
O=C(NC1CCOc2c1cccc2)CC1CCCC1

>  <HBA2>
3

>  <HBD>
1

>  <logP>
3.5976

>  <TPSA>
38.33

>  <MW>
259.343

$$$$

 OpenBabel02121609142D

 13 14  0  0  0  0  0  0  0  0999 V2000
    0.3167    1.5708    0.0000 N   0  0  0  0  0  0  0  0  0  0  0  0
    0.0125    0.6208    0.0000 C   0  0  0  0  0  0  0  0  0  0  0  0
   -0.2708    2.3833    0.0000 N   0  0  0  0  0  0  0  0  0  0  0  0
   -0.9708    0.4125    0.0000 N   0  0  0  0  0  0  0  0  0  0  0  0
   -1.2250   -3.1792    0.0000 N   0  0  0  0  0  0  0  0  0  0  0  0
   -0.9208   -2.2292    0.0000 C   0  0  0  0  0  0  0  0  0  0  0  0
    1.2667    1.8833    0.0000 C   0  0  0  0  0  0  0  0  0  0  0  0
    1.2667    2.8833    0.0000 C   0  0  0  0  0  0  0  0  0  0  0  0
   -0.6083   -1.2792    0.0000 C   0  0  0  0  0  0  0  0  0  0  0  0
    0.3167    3.1875    0.0000 C   0  0  0  0  0  0  0  0  0  0  0  0
    0.6792   -0.1250    0.0000 C   0  0  0  0  0  0  0  0  0  0  0  0
   -1.2750   -0.5375    0.0000 C   0  0  0  0  0  0  0  0  0  0  0  0
    0.3667   -1.0750    0.0000 C   0  0  0  0  0  0  0  0  0  0  0  0
  2  1  1  0  0  0  0
  3  1  1  0  0  0  0
  4  2  2  0  0  0  0
  5  6  3  0  0  0  0
  6  9  1  0  0  0  0
  7  1  1  0  0  0  0
  8  7  2  0  0  0  0
  8 10  1  0  0  0  0
  9 13  1  0  0  0  0
 10  3  2  0  0  0  0
 11  2  1  0  0  0  0
 12  4  1  0  0  0  0
 12  9  2  0  0  0  0
 13 11  2  0  0  0  0
M  END
>  <idnumber>
T5662331

>  <LogP>
1.044000000000000e+000

>  <rotating_bonds>
2.000000000000000e+000

>  <hb_acceptors>
3.000000000000000e+000

>  <hb_donors>
0.000000000000000e+000

>  <PSA>
5.450000000000000e+001

>  <clusterid>
-1066

>  <is_centroid>
@

>  <class1>
631

>  <class2>
632

>  <population1>
41612

>  <population2>
79489

>  <population>
3006

>  <cansmi>
N#Cc1ccc(nc1)n1cccn1

>  <HBA2>
4

>  <HBD>
0

>  <logP>
1.13898

>  <TPSA>
54.5

>  <MW>
170.171

$$$$

 OpenBabel02121609142D

 15 17  0  0  0  0  0  0  0  0999 V2000
    0.5417    0.5250    0.0000 C   0  0  0  0  0  0  0  0  0  0  0  0
    1.1292    1.3333    0.0000 C   0  0  0  0  0  0  0  0  0  0  0  0
    0.5417    2.1458    0.0000 N   0  0  0  0  0  0  0  0  0  0  0  0
   -0.4083    0.8333    0.0000 C   0  0  0  0  0  0  0  0  0  0  0  0
   -0.4083    1.8333    0.0000 C   0  0  0  0  0  0  0  0  0  0  0  0
    1.4667   -2.3292    0.0000 N   0  0  0  0  0  0  0  0  0  0  0  0
    0.8500   -0.4250    0.0000 C   0  0  0  0  0  0  0  0  0  0  0  0
   -1.2750    0.3333    0.0000 C   0  0  0  0  0  0  0  0  0  0  0  0
    0.4917   -2.1167    0.0000 C   0  0  0  0  0  0  0  0  0  0  0  0
    2.1292   -1.5875    0.0000 C   0  0  0  0  0  0  0  0  0  0  0  0
   -1.2750    2.3333    0.0000 C   0  0  0  0  0  0  0  0  0  0  0  0
    0.1792   -1.1667    0.0000 C   0  0  0  0  0  0  0  0  0  0  0  0
    1.8292   -0.6292    0.0000 C   0  0  0  0  0  0  0  0  0  0  0  0
   -2.1458    0.8333    0.0000 C   0  0  0  0  0  0  0  0  0  0  0  0
   -2.1458    1.8333    0.0000 C   0  0  0  0  0  0  0  0  0  0  0  0
  2  1  2  0  0  0  0
  3  2  1  0  0  0  0
  3  5  1  0  0  0  0
  4  1  1  0  0  0  0
  5  4  2  0  0  0  0
  6 10  1  0  0  0  0
  7  1  1  0  0  0  0
  8  4  1  0  0  0  0
  9 12  1  0  0  0  0
  9  6  1  0  0  0  0
 10 13  1  0  0  0  0
 11  5  1  0  0  0  0
 11 15  2  0  0  0  0
 12  7  1  0  0  0  0
 13  7  1  0  0  0  0
 14  8  2  0  0  0  0
 15 14  1  0  0  0  0
M  END
>  <idnumber>
T5662344

>  <LogP>
2.333000000000000e+000

>  <rotating_bonds>
1.000000000000000e+000

>  <hb_acceptors>
1.000000000000000e+000

>  <hb_donors>
2.000000000000000e+000

>  <PSA>
2.782000000000000e+001

>  <clusterid>
-1067

>  <is_centroid>
@

>  <class1>
639

>  <class2>
748

>  <population1>
59855

>  <population2>
15713

>  <population>
739

>  <cansmi>
N1CCC(CC1)c1c[nH]c2c1cccc2

>  <HBA2>
1

>  <HBD>
2

>  <logP>
2.9637

>  <TPSA>
27.82

>  <MW>
200.28

$$$$

 OpenBabel02121609142D

 11 12  0  0  0  0  0  0  0  0999 V2000
   -0.5083    0.5583    0.0000 N   0  0  0  0  0  0  0  0  0  0  0  0
    1.0292    1.0583    0.0000 N   0  0  0  0  0  0  0  0  0  0  0  0
    0.4417    1.8708    0.0000 N   0  0  0  0  0  0  0  0  0  0  0  0
    0.4417    0.2500    0.0000 C   0  0  0  0  0  0  0  0  0  0  0  0
   -0.5083    1.5583    0.0000 C   0  0  0  0  0  0  0  0  0  0  0  0
   -1.4583    0.2500    0.0000 C   0  0  0  0  0  0  0  0  0  0  0  0
    0.7542   -0.7042    0.0000 C   0  0  0  0  0  0  0  0  0  0  0  0
    1.7292   -0.9125    0.0000 N   0  0  0  0  0  0  0  0  0  0  0  0
   -1.4583    1.8708    0.0000 C   0  0  0  0  0  0  0  0  0  0  0  0
   -2.0458    1.0583    0.0000 C   0  0  0  0  0  0  0  0  0  0  0  0
    2.0417   -1.8625    0.0000 C   0  0  0  0  0  0  0  0  0  0  0  0
  2  4  2  0  0  0  0
  2  3  1  0  0  0  0
  3  5  2  0  0  0  0
  4  1  1  0  0  0  0
  5  1  1  0  0  0  0
  6  1  1  0  0  0  0
  7  4  1  0  0  0  0
  8  7  1  0  0  0  0
  9  5  1  0  0  0  0
  9 10  1  0  0  0  0
 10  6  1  0  0  0  0
 11  8  1  0  0  0  0
M  END
>  <idnumber>
T5662352

>  <LogP>
-1.579000000000000e+000

>  <rotating_bonds>
2.000000000000000e+000

>  <hb_acceptors>
3.000000000000000e+000

>  <hb_donors>
1.000000000000000e+000

>  <PSA>
4.274000000000000e+001

>  <clusterid>
-1068

>  <is_centroid>
@

>  <class1>
784

>  <population1>
235

>  <population>
235

>  <cansmi>
CNCc1nnc2n1CCC2

>  <HBA2>
4

>  <HBD>
1

>  <logP>
0.3346

>  <TPSA>
42.74

>  <MW>
152.197

$$$$

 OpenBabel02121609142D

 13 14  0  0  0  0  0  0  0  0999 V2000
   -0.3500   -0.8042    0.0000 C   0  0  0  0  0  0  0  0  0  0  0  0
   -1.0208   -0.0625    0.0000 C   0  0  0  0  0  0  0  0  0  0  0  0
   -0.7125    0.8875    0.0000 C   0  0  0  0  0  0  0  0  0  0  0  0
    0.6250   -0.6000    0.0000 C   0  0  0  0  0  0  0  0  0  0  0  0
   -1.3000    1.6958    0.0000 O   0  0  0  0  0  0  0  0  0  0  0  0
    0.2375    1.1958    0.0000 C   0  0  0  0  0  0  0  0  0  0  0  0
   -0.7125    2.5083    0.0000 C   0  0  0  0  0  0  0  0  0  0  0  0
    0.9375    0.3500    0.0000 O   0  0  0  0  0  0  0  0  0  0  0  0
    0.2375    2.1958    0.0000 C   0  0  0  0  0  0  0  0  0  0  0  0
   -0.6625   -1.7542    0.0000 C   0  0  0  0  0  0  0  0  0  0  0  0
    1.2917   -1.3417    0.0000 C   0  0  0  0  0  0  0  0  0  0  0  0
    0.0042   -2.5000    0.0000 C   0  0  0  0  0  0  0  0  0  0  0  0
    0.9875   -2.2917    0.0000 C   0  0  0  0  0  0  0  0  0  0  0  0
  2  1  2  0  0  0  0
  3  2  1  0  0  0  0
  4  1  1  0  0  0  0
  5  3  1  0  0  0  0
  6  3  2  0  0  0  0
  7  5  1  0  0  0  0
  8  4  2  0  0  0  0
  9  6  1  0  0  0  0
  9  7  2  0  0  0  0
 10  1  1  0  0  0  0
 11  4  1  0  0  0  0
 11 13  1  0  0  0  0
 12 10  1  0  0  0  0
 13 12  1  0  0  0  0
M  END
>  <idnumber>
T5662363

>  <LogP>
2.384000000000000e+000

>  <rotating_bonds>
1.000000000000000e+000

>  <hb_acceptors>
1.000000000000000e+000

>  <hb_donors>
0.000000000000000e+000

>  <PSA>
3.021000000000000e+001

>  <clusterid>
-1069

>  <is_centroid>
@

>  <class1>
704

>  <class2>
839

>  <population1>
51112

>  <population2>
1494

>  <population>
48

>  <cansmi>
O=C1CCCC/C/1=C/c1ccco1

>  <HBA2>
2

>  <HBD>
0

>  <logP>
2.8061

>  <TPSA>
30.21

>  <MW>
176.212

$$$$

 OpenBabel02121609142D

 15 17  0  0  0  0  0  0  0  0999 V2000
   -0.4583    0.8125    0.0000 N   0  0  0  0  0  0  0  0  0  0  0  0
    0.1292    0.0000    0.0000 C   0  0  0  0  0  0  0  0  0  0  0  0
   -0.4583   -0.8042    0.0000 N   0  0  0  0  0  0  0  0  0  0  0  0
   -1.4083    0.5000    0.0000 C   0  0  0  0  0  0  0  0  0  0  0  0
   -1.4083   -0.5000    0.0000 C   0  0  0  0  0  0  0  0  0  0  0  0
    3.1292    0.0000    0.0000 N   0  0  0  0  0  0  0  0  0  0  0  0
    1.1292    0.0000    0.0000 C   0  0  0  0  0  0  0  0  0  0  0  0
   -2.2708    1.0000    0.0000 C   0  0  0  0  0  0  0  0  0  0  0  0
   -2.2708   -1.0000    0.0000 C   0  0  0  0  0  0  0  0  0  0  0  0
    2.6292    0.8708    0.0000 C   0  0  0  0  0  0  0  0  0  0  0  0
    2.6292   -0.8625    0.0000 C   0  0  0  0  0  0  0  0  0  0  0  0
    1.6292   -0.8625    0.0000 C   0  0  0  0  0  0  0  0  0  0  0  0
    1.6292    0.8708    0.0000 C   0  0  0  0  0  0  0  0  0  0  0  0
   -3.1375   -0.5000    0.0000 C   0  0  0  0  0  0  0  0  0  0  0  0
   -3.1375    0.5000    0.0000 C   0  0  0  0  0  0  0  0  0  0  0  0
  2  1  2  0  0  0  0
  3  2  1  0  0  0  0
  4  1  1  0  0  0  0
  5  4  2  0  0  0  0
  5  3  1  0  0  0  0
  6 10  1  0  0  0  0
  7  2  1  0  0  0  0
  8  4  1  0  0  0  0
  9  5  1  0  0  0  0
  9 14  2  0  0  0  0
 10 13  1  0  0  0  0
 11 12  1  0  0  0  0
 11  6  1  0  0  0  0
 12  7  1  0  0  0  0
 13  7  1  0  0  0  0
 14 15  1  0  0  0  0
 15  8  2  0  0  0  0
M  END
>  <idnumber>
T5662386

>  <LogP>
1.536000000000000e+000

>  <rotating_bonds>
1.000000000000000e+000

>  <hb_acceptors>
2.000000000000000e+000

>  <hb_donors>
2.000000000000000e+000

>  <PSA>
4.071000000000002e+001

>  <clusterid>
-1073

>  <is_centroid>
@

>  <class1>
639

>  <class2>
685

>  <population1>
59855

>  <population2>
28767

>  <population>
1323

>  <cansmi>
N1CCC(CC1)c1nc2c([nH]1)cccc2

>  <HBA2>
2

>  <HBD>
2

>  <logP>
2.3587

>  <TPSA>
40.71

>  <MW>
201.268

$$$$

 OpenBabel02121609142D

 13 14  0  0  0  0  0  0  0  0999 V2000
   -0.7125   -0.4042    0.0000 N   0  0  0  0  0  0  0  0  0  0  0  0
   -0.7125   -2.0250    0.0000 C   0  0  0  0  0  0  0  0  0  0  0  0
   -1.3000   -1.2167    0.0000 C   0  0  0  0  0  0  0  0  0  0  0  0
   -1.0208    0.5458    0.0000 C   0  0  0  0  0  0  0  0  0  0  0  0
    0.2375   -1.7167    0.0000 C   0  0  0  0  0  0  0  0  0  0  0  0
   -1.0208   -2.9750    0.0000 O   0  0  0  0  0  0  0  0  0  0  0  0
    0.2375   -0.7167    0.0000 C   0  0  0  0  0  0  0  0  0  0  0  0
   -0.3500    1.2875    0.0000 C   0  0  0  0  0  0  0  0  0  0  0  0
   -0.6625    2.2375    0.0000 C   0  0  0  0  0  0  0  0  0  0  0  0
    0.6250    1.0833    0.0000 C   0  0  0  0  0  0  0  0  0  0  0  0
    1.2917    1.8208    0.0000 C   0  0  0  0  0  0  0  0  0  0  0  0
    0.0042    2.9833    0.0000 C   0  0  0  0  0  0  0  0  0  0  0  0
    0.9875    2.7708    0.0000 C   0  0  0  0  0  0  0  0  0  0  0  0
  2  3  1  0  0  0  0
  2  5  1  0  0  0  0
  3  1  1  0  0  0  0
  4  1  1  0  0  0  0
  5  7  1  0  0  0  0
  6  2  2  0  0  0  0
  7  1  1  0  0  0  0
  8  4  1  0  0  0  0
  9  8  2  0  0  0  0
 10  8  1  0  0  0  0
 11 10  2  0  0  0  0
 12  9  1  0  0  0  0
 12 13  2  0  0  0  0
 13 11  1  0  0  0  0
M  END
>  <idnumber>
T5662393

>  <LogP>
1.916000000000000e+000

>  <rotating_bonds>
2.000000000000000e+000

>  <hb_acceptors>
2.000000000000000e+000

>  <hb_donors>
0.000000000000000e+000

>  <PSA>
2.031000000000000e+001

>  <clusterid>
-1074

>  <is_centroid>
@

>  <class1>
625

>  <class2>
753

>  <population1>
877209

>  <population2>
42

>  <population>
33

>  <cansmi>
O=C1CCN(C1)Cc1ccccc1

>  <HBA2>
2

>  <HBD>
0

>  <logP>
1.3993

>  <TPSA>
20.31

>  <MW>
175.227

$$$$

 OpenBabel02121609142D

 21 23  0  0  0  0  0  0  0  0999 V2000
    0.6042    2.8958    0.0000 N   0  0  0  0  0  0  0  0  0  0  0  0
    0.0167    3.7083    0.0000 C   0  0  0  0  0  0  0  0  0  0  0  0
    0.2917    1.9458    0.0000 C   0  0  0  0  0  0  0  0  0  0  0  0
    0.0375   -1.6542    0.0000 C   0  0  0  0  0  0  0  0  0  0  0  0
    0.6542    0.2500    0.0000 N   0  0  0  0  0  0  0  0  0  0  0  0
    0.6042    4.5042    0.0000 N   0  0  0  0  0  0  0  0  0  0  0  0
    1.0167   -1.4417    0.0000 C   0  0  0  0  0  0  0  0  0  0  0  0
    0.9625    1.2000    0.0000 C   0  0  0  0  0  0  0  0  0  0  0  0
   -0.9833    3.7083    0.0000 O   0  0  0  0  0  0  0  0  0  0  0  0
   -0.6833    1.7333    0.0000 O   0  0  0  0  0  0  0  0  0  0  0  0
   -0.6333   -0.9125    0.0000 C   0  0  0  0  0  0  0  0  0  0  0  0
   -0.2708   -2.6042    0.0000 C   0  0  0  0  0  0  0  0  0  0  0  0
    1.3250   -0.4917    0.0000 C   0  0  0  0  0  0  0  0  0  0  0  0
    1.5542    3.2083    0.0000 C   0  0  0  0  0  0  0  0  0  0  0  0
   -0.3250    0.0458    0.0000 C   0  0  0  0  0  0  0  0  0  0  0  0
    1.5542    4.2000    0.0000 C   0  0  0  0  0  0  0  0  0  0  0  0
   -1.2500   -2.8125    0.0000 C   0  0  0  0  0  0  0  0  0  0  0  0
    0.3917   -3.3500    0.0000 C   0  0  0  0  0  0  0  0  0  0  0  0
    0.0875   -4.3000    0.0000 C   0  0  0  0  0  0  0  0  0  0  0  0
   -1.5583   -3.7625    0.0000 C   0  0  0  0  0  0  0  0  0  0  0  0
   -0.8958   -4.5042    0.0000 C   0  0  0  0  0  0  0  0  0  0  0  0
  2  1  1  0  0  0  0
  3  1  1  0  0  0  0
  4 11  1  0  0  0  0
  5  8  1  0  0  0  0
  6  2  1  0  0  0  0
  7 13  1  0  0  0  0
  7  4  2  0  0  0  0
  8  3  1  0  0  0  0
  9  2  2  0  0  0  0
 10  3  2  0  0  0  0
 11 15  1  0  0  0  0
 12  4  1  0  0  0  0
 13  5  1  0  0  0  0
 14  1  1  0  0  0  0
 15  5  1  0  0  0  0
 16 14  1  0  0  0  0
 16  6  1  0  0  0  0
 17 12  1  0  0  0  0
 18 12  2  0  0  0  0
 19 18  1  0  0  0  0
 20 17  2  0  0  0  0
 20 21  1  0  0  0  0
 21 19  2  0  0  0  0
M  END
>  <idnumber>
T5662548

>  <LogP>
2.098000000000000e+000

>  <rotating_bonds>
3.000000000000000e+000

>  <hb_acceptors>
3.000000000000000e+000

>  <hb_donors>
1.000000000000000e+000

>  <PSA>
5.265000000000000e+001

>  <clusterid>
606

>  <is_centroid>
@

>  <class1>
715

>  <class2>
625

>  <class3>
798

>  <population1>
4585

>  <population2>
877209

>  <population3>
25583

>  <population>
105

>  <cansmi>
O=C(N1CCNC1=O)CN1CCC(=CC1)c1ccccc1

>  <HBA2>
5

>  <HBD>
1

>  <logP>
1.5321

>  <TPSA>
52.65

>  <MW>
285.341

$$$$

 OpenBabel02121609142D

 20 22  0  0  0  0  0  0  0  0999 V2000
    1.2792    0.6583    0.0000 N   0  0  0  0  0  0  0  0  0  0  0  0
    0.3292    0.3500    0.0000 C   0  0  0  0  0  0  0  0  0  0  0  0
   -0.2583    1.1583    0.0000 N   0  0  0  0  0  0  0  0  0  0  0  0
    0.3292    1.9708    0.0000 C   0  0  0  0  0  0  0  0  0  0  0  0
    1.2792    1.6583    0.0000 C   0  0  0  0  0  0  0  0  0  0  0  0
    2.0875    0.0708    0.0000 C   0  0  0  0  0  0  0  0  0  0  0  0
    0.0167   -0.6042    0.0000 O   0  0  0  0  0  0  0  0  0  0  0  0
    0.0167    2.9208    0.0000 O   0  0  0  0  0  0  0  0  0  0  0  0
   -1.2583    1.1583    0.0000 C   0  0  0  0  0  0  0  0  0  0  0  0
    2.0875    2.2458    0.0000 O   0  0  0  0  0  0  0  0  0  0  0  0
    1.9792   -0.9250    0.0000 C   0  0  0  0  0  0  0  0  0  0  0  0
   -1.8458    1.9708    0.0000 C   0  0  0  0  0  0  0  0  0  0  0  0
   -1.8458    0.3500    0.0000 C   0  0  0  0  0  0  0  0  0  0  0  0
    1.0667   -1.3292    0.0000 C   0  0  0  0  0  0  0  0  0  0  0  0
    2.7917   -1.5125    0.0000 C   0  0  0  0  0  0  0  0  0  0  0  0
   -2.7958    0.6583    0.0000 C   0  0  0  0  0  0  0  0  0  0  0  0
   -2.7958    1.6583    0.0000 C   0  0  0  0  0  0  0  0  0  0  0  0
    2.6875   -2.5042    0.0000 C   0  0  0  0  0  0  0  0  0  0  0  0
    0.9667   -2.3250    0.0000 C   0  0  0  0  0  0  0  0  0  0  0  0
    1.7750   -2.9125    0.0000 C   0  0  0  0  0  0  0  0  0  0  0  0
  2  1  1  0  0  0  0
  3  2  1  0  0  0  0
  4  5  1  0  0  0  0
  4  3  1  0  0  0  0
  5  1  1  0  0  0  0
  6  1  1  0  0  0  0
  7  2  2  0  0  0  0
  8  4  2  0  0  0  0
  9  3  1  0  0  0  0
 10  5  2  0  0  0  0
 11  6  1  0  0  0  0
 12  9  1  0  0  0  0
 13  9  1  0  0  0  0
 14 11  1  0  0  0  0
 15 11  2  0  0  0  0
 16 13  1  0  0  0  0
 17 12  1  0  0  0  0
 17 16  1  0  0  0  0
 18 15  1  0  0  0  0
 19 14  2  0  0  0  0
 19 20  1  0  0  0  0
 20 18  2  0  0  0  0
M  END
>  <idnumber>
T5665536

>  <LogP>
2.299000000000000e+000

>  <rotating_bonds>
3.000000000000000e+000

>  <hb_acceptors>
3.000000000000000e+000

>  <hb_donors>
0.000000000000000e+000

>  <PSA>
5.769000000000001e+001

>  <clusterid>
609

>  <is_centroid>
@

>  <class1>
625

>  <class2>
795

>  <class3>
674

>  <population1>
877209

>  <population2>
2116

>  <population3>
16474

>  <population>
262

>  <cansmi>
O=C1C(=O)N(C(=O)N1Cc1ccccc1)C1CCCC1

>  <HBA2>
5

>  <HBD>
0

>  <logP>
1.7958

>  <TPSA>
57.69

>  <MW>
272.299

$$$$

 OpenBabel02121609142D

 22 24  0  0  0  0  0  0  0  0999 V2000
   -2.1958    1.3208    0.0000 C   0  0  0  0  0  0  0  0  0  0  0  0
   -1.8833    2.2708    0.0000 C   0  0  0  0  0  0  0  0  0  0  0  0
   -1.5250    0.5750    0.0000 N   0  0  0  0  0  0  0  0  0  0  0  0
   -2.4708    3.0833    0.0000 N   0  0  0  0  0  0  0  0  0  0  0  0
   -0.1875   -0.9125    0.0000 N   0  0  0  0  0  0  0  0  0  0  0  0
   -0.9333    2.5833    0.0000 C   0  0  0  0  0  0  0  0  0  0  0  0
    0.4792   -1.6542    0.0000 C   0  0  0  0  0  0  0  0  0  0  0  0
   -1.8833    3.8958    0.0000 C   0  0  0  0  0  0  0  0  0  0  0  0
   -0.9333    3.5833    0.0000 C   0  0  0  0  0  0  0  0  0  0  0  0
   -3.1708    1.1125    0.0000 O   0  0  0  0  0  0  0  0  0  0  0  0
   -1.8333   -0.3750    0.0000 C   0  0  0  0  0  0  0  0  0  0  0  0
   -0.5458    0.7833    0.0000 C   0  0  0  0  0  0  0  0  0  0  0  0
   -1.1625   -1.1167    0.0000 C   0  0  0  0  0  0  0  0  0  0  0  0
    0.1167    0.0458    0.0000 C   0  0  0  0  0  0  0  0  0  0  0  0
    0.1750   -2.6042    0.0000 C   0  0  0  0  0  0  0  0  0  0  0  0
    1.4625   -1.4417    0.0000 C   0  0  0  0  0  0  0  0  0  0  0  0
    1.8167   -3.1417    0.0000 C   0  0  0  0  0  0  0  0  0  0  0  0
    0.8417   -3.3500    0.0000 C   0  0  0  0  0  0  0  0  0  0  0  0
    2.1292   -2.1875    0.0000 C   0  0  0  0  0  0  0  0  0  0  0  0
   -3.4708    3.0833    0.0000 C   0  0  0  0  0  0  0  0  0  0  0  0
    2.4917   -3.8792    0.0000 O   0  0  0  0  0  0  0  0  0  0  0  0
    3.4667   -3.6750    0.0000 C   0  0  0  0  0  0  0  0  0  0  0  0
  2  1  1  0  0  0  0
  3  1  1  0  0  0  0
  4  2  1  0  0  0  0
  5 14  1  0  0  0  0
  6  2  2  0  0  0  0
  7  5  1  0  0  0  0
  8  4  1  0  0  0  0
  9  6  1  0  0  0  0
  9  8  2  0  0  0  0
 10  1  2  0  0  0  0
 11  3  1  0  0  0  0
 12  3  1  0  0  0  0
 13 11  1  0  0  0  0
 13  5  1  0  0  0  0
 14 12  1  0  0  0  0
 15  7  2  0  0  0  0
 16  7  1  0  0  0  0
 17 19  1  0  0  0  0
 18 15  1  0  0  0  0
 18 17  2  0  0  0  0
 19 16  2  0  0  0  0
 20  4  1  0  0  0  0
 21 17  1  0  0  0  0
 22 21  1  0  0  0  0
M  END
>  <idnumber>
T5666016

>  <LogP>
1.224000000000000e+000

>  <rotating_bonds>
3.000000000000000e+000

>  <hb_acceptors>
3.000000000000000e+000

>  <hb_donors>
0.000000000000000e+000

>  <PSA>
3.771000000000000e+001

>  <clusterid>
361

>  <is_centroid>
@

>  <class1>
717

>  <class2>
625

>  <class3>
635

>  <population1>
74368

>  <population2>
877209

>  <population3>
31512

>  <population>
1395

>  <cansmi>
COc1ccc(cc1)N1CCN(CC1)C(=O)c1cccn1C

>  <HBA2>
5

>  <HBD>
0

>  <logP>
1.999

>  <TPSA>
37.71

>  <MW>
299.368

$$$$

 OpenBabel02121609142D

 21 23  0  0  0  0  0  0  0  0999 V2000
    0.7667   -0.2500    0.0000 C   0  0  0  0  0  0  0  0  0  0  0  0
   -3.5625    0.2500    0.0000 C   0  0  0  0  0  0  0  0  0  0  0  0
    1.6292    0.2500    0.0000 N   0  0  0  0  0  0  0  0  0  0  0  0
   -3.5625    1.2500    0.0000 C   0  0  0  0  0  0  0  0  0  0  0  0
   -4.5208   -0.0542    0.0000 O   0  0  0  0  0  0  0  0  0  0  0  0
   -0.1000    0.2500    0.0000 N   0  0  0  0  0  0  0  0  0  0  0  0
   -4.5208    1.5625    0.0000 O   0  0  0  0  0  0  0  0  0  0  0  0
   -5.1000    0.7583    0.0000 C   0  0  0  0  0  0  0  0  0  0  0  0
    0.7667   -1.2500    0.0000 O   0  0  0  0  0  0  0  0  0  0  0  0
   -2.6958   -0.2500    0.0000 C   0  0  0  0  0  0  0  0  0  0  0  0
   -2.6958    1.7500    0.0000 C   0  0  0  0  0  0  0  0  0  0  0  0
    2.5000   -0.2500    0.0000 C   0  0  0  0  0  0  0  0  0  0  0  0
   -1.8333    0.2500    0.0000 C   0  0  0  0  0  0  0  0  0  0  0  0
   -0.9708   -0.2500    0.0000 C   0  0  0  0  0  0  0  0  0  0  0  0
   -1.8333    1.2500    0.0000 C   0  0  0  0  0  0  0  0  0  0  0  0
    4.2292   -1.2500    0.0000 C   0  0  0  0  0  0  0  0  0  0  0  0
    3.3667    0.2500    0.0000 C   0  0  0  0  0  0  0  0  0  0  0  0
    2.5000   -1.2500    0.0000 C   0  0  0  0  0  0  0  0  0  0  0  0
    4.2292   -0.2500    0.0000 C   0  0  0  0  0  0  0  0  0  0  0  0
    3.3667   -1.7500    0.0000 C   0  0  0  0  0  0  0  0  0  0  0  0
    5.0917   -1.7500    0.0000 C   0  0  0  0  0  0  0  0  0  0  0  0
  2 10  1  0  0  0  0
  2  4  2  0  0  0  0
  3  1  1  0  0  0  0
  4 11  1  0  0  0  0
  5  2  1  0  0  0  0
  6  1  1  0  0  0  0
  7  4  1  0  0  0  0
  7  8  1  0  0  0  0
  8  5  1  0  0  0  0
  9  1  2  0  0  0  0
 10 13  2  0  0  0  0
 11 15  2  0  0  0  0
 12  3  1  0  0  0  0
 13 14  1  0  0  0  0
 14  6  1  0  0  0  0
 15 13  1  0  0  0  0
 16 20  2  0  0  0  0
 16 19  1  0  0  0  0
 17 12  1  0  0  0  0
 18 12  2  0  0  0  0
 19 17  2  0  0  0  0
 20 18  1  0  0  0  0
 21 16  1  0  0  0  0
M  END
>  <idnumber>
T5666385

>  <LogP>
2.933000000000000e+000

>  <rotating_bonds>
3.000000000000000e+000

>  <hb_acceptors>
3.000000000000000e+000

>  <hb_donors>
2.000000000000000e+000

>  <PSA>
5.959000000000000e+001

>  <clusterid>
612

>  <is_centroid>
@

>  <class1>
811

>  <class2>
625

>  <population1>
21222

>  <population2>
877209

>  <population>
21222

>  <cansmi>
O=C(Nc1ccc(cc1)C)NCc1ccc2c(c1)OCO2

>  <HBA2>
5

>  <HBD>
2

>  <logP>
3.5093

>  <TPSA>
59.59

>  <MW>
284.31

$$$$

 OpenBabel02121609142D

 22 25  0  0  0  0  0  0  0  0999 V2000
    1.2125   -0.1917    0.0000 C   0  0  0  0  0  0  0  0  0  0  0  0
    1.3167   -1.1875    0.0000 C   0  0  0  0  0  0  0  0  0  0  0  0
    2.2917   -1.3917    0.0000 N   0  0  0  0  0  0  0  0  0  0  0  0
    2.1250    0.2125    0.0000 C   0  0  0  0  0  0  0  0  0  0  0  0
    2.7917   -0.5292    0.0000 C   0  0  0  0  0  0  0  0  0  0  0  0
    0.3417    0.3083    0.0000 C   0  0  0  0  0  0  0  0  0  0  0  0
    2.7000   -2.3042    0.0000 C   0  0  0  0  0  0  0  0  0  0  0  0
    0.3417    1.3083    0.0000 N   0  0  0  0  0  0  0  0  0  0  0  0
    2.5917   -3.3042    0.0000 C   0  0  0  0  0  0  0  0  0  0  0  0
    3.5042   -2.8917    0.0000 C   0  0  0  0  0  0  0  0  0  0  0  0
   -2.2583    1.8083    0.0000 C   0  0  0  0  0  0  0  0  0  0  0  0
   -1.3875    1.3083    0.0000 C   0  0  0  0  0  0  0  0  0  0  0  0
   -2.2583    2.8083    0.0000 C   0  0  0  0  0  0  0  0  0  0  0  0
   -3.2083    1.5000    0.0000 O   0  0  0  0  0  0  0  0  0  0  0  0
   -0.5208    1.8083    0.0000 C   0  0  0  0  0  0  0  0  0  0  0  0
   -3.2083    3.1208    0.0000 O   0  0  0  0  0  0  0  0  0  0  0  0
   -0.5208   -0.1917    0.0000 O   0  0  0  0  0  0  0  0  0  0  0  0
   -3.7958    2.3083    0.0000 C   0  0  0  0  0  0  0  0  0  0  0  0
   -1.3875    3.3083    0.0000 C   0  0  0  0  0  0  0  0  0  0  0  0
    0.5667   -1.8542    0.0000 C   0  0  0  0  0  0  0  0  0  0  0  0
   -0.5208    2.8083    0.0000 C   0  0  0  0  0  0  0  0  0  0  0  0
    3.7875   -0.4250    0.0000 C   0  0  0  0  0  0  0  0  0  0  0  0
  2  1  2  0  0  0  0
  3  2  1  0  0  0  0
  4  1  1  0  0  0  0
  5  4  2  0  0  0  0
  5  3  1  0  0  0  0
  6  1  1  0  0  0  0
  7  3  1  0  0  0  0
  8  6  1  0  0  0  0
  9  7  1  0  0  0  0
  9 10  1  0  0  0  0
 10  7  1  0  0  0  0
 11 12  1  0  0  0  0
 11 13  2  0  0  0  0
 12 15  2  0  0  0  0
 13 19  1  0  0  0  0
 14 11  1  0  0  0  0
 15  8  1  0  0  0  0
 16 13  1  0  0  0  0
 16 18  1  0  0  0  0
 17  6  2  0  0  0  0
 18 14  1  0  0  0  0
 19 21  2  0  0  0  0
 20  2  1  0  0  0  0
 21 15  1  0  0  0  0
 22  5  1  0  0  0  0
M  END
>  <idnumber>
T5666435

>  <LogP>
2.534000000000000e+000

>  <rotating_bonds>
3.000000000000000e+000

>  <hb_acceptors>
3.000000000000000e+000

>  <hb_donors>
1.000000000000000e+000

>  <PSA>
5.249000000000002e+001

>  <clusterid>
-1077

>  <is_centroid>
@

>  <class1>
811

>  <class2>
675

>  <class3>
635

>  <population1>
21222

>  <population2>
33654

>  <population3>
31512

>  <population>
41

>  <cansmi>
O=C(c1cc(n(c1C)C1CC1)C)Nc1ccc2c(c1)OCO2

>  <HBA2>
5

>  <HBD>
1

>  <logP>
3.4938

>  <TPSA>
52.49

>  <MW>
298.336

$$$$

 OpenBabel02121609142D

 13 14  0  0  0  0  0  0  0  0999 V2000
    0.3167    1.5708    0.0000 N   0  0  0  0  0  0  0  0  0  0  0  0
    0.0125    0.6208    0.0000 C   0  0  0  0  0  0  0  0  0  0  0  0
   -0.9708    0.4125    0.0000 N   0  0  0  0  0  0  0  0  0  0  0  0
    0.3167    3.1875    0.0000 N   0  0  0  0  0  0  0  0  0  0  0  0
   -0.2708    2.3833    0.0000 C   0  0  0  0  0  0  0  0  0  0  0  0
   -1.2250   -3.1792    0.0000 N   0  0  0  0  0  0  0  0  0  0  0  0
   -0.9208   -2.2292    0.0000 C   0  0  0  0  0  0  0  0  0  0  0  0
    1.2667    1.8833    0.0000 C   0  0  0  0  0  0  0  0  0  0  0  0
    1.2667    2.8833    0.0000 C   0  0  0  0  0  0  0  0  0  0  0  0
   -0.6083   -1.2792    0.0000 C   0  0  0  0  0  0  0  0  0  0  0  0
    0.6792   -0.1250    0.0000 C   0  0  0  0  0  0  0  0  0  0  0  0
   -1.2750   -0.5375    0.0000 C   0  0  0  0  0  0  0  0  0  0  0  0
    0.3667   -1.0750    0.0000 C   0  0  0  0  0  0  0  0  0  0  0  0
  2  1  1  0  0  0  0
  3  2  2  0  0  0  0
  4  5  2  0  0  0  0
  5  1  1  0  0  0  0
  6  7  3  0  0  0  0
  7 10  1  0  0  0  0
  8  1  1  0  0  0  0
  9  8  2  0  0  0  0
  9  4  1  0  0  0  0
 10 13  1  0  0  0  0
 11  2  1  0  0  0  0
 12  3  1  0  0  0  0
 12 10  2  0  0  0  0
 13 11  2  0  0  0  0
M  END
>  <idnumber>
T5666513

>  <LogP>
1.020000000000000e-001

>  <rotating_bonds>
2.000000000000000e+000

>  <hb_acceptors>
3.000000000000000e+000

>  <hb_donors>
0.000000000000000e+000

>  <PSA>
5.450000000000000e+001

>  <clusterid>
-1080

>  <is_centroid>
@

>  <class1>
686

>  <class2>
632

>  <population1>
31113

>  <population2>
79489

>  <population>
860

>  <cansmi>
N#Cc1ccc(nc1)n1cncc1

>  <HBA2>
4

>  <HBD>
0

>  <logP>
1.13898

>  <TPSA>
54.5

>  <MW>
170.171

$$$$

 OpenBabel02121609142D

 16 17  0  0  0  0  0  0  0  0999 V2000
    0.4292   -0.5000    0.0000 C   0  0  0  0  0  0  0  0  0  0  0  0
    0.4292    0.5000    0.0000 C   0  0  0  0  0  0  0  0  0  0  0  0
   -0.4333    1.0000    0.0000 C   0  0  0  0  0  0  0  0  0  0  0  0
    1.2917   -1.0000    0.0000 N   0  0  0  0  0  0  0  0  0  0  0  0
   -0.4333    2.0000    0.0000 C   0  0  0  0  0  0  0  0  0  0  0  0
   -1.3000    2.5000    0.0000 N   0  0  0  0  0  0  0  0  0  0  0  0
   -0.4333   -1.0000    0.0000 O   0  0  0  0  0  0  0  0  0  0  0  0
    1.2917    1.0000    0.0000 C   0  0  0  0  0  0  0  0  0  0  0  0
    1.2917   -2.0000    0.0000 C   0  0  0  0  0  0  0  0  0  0  0  0
   -1.3000    0.5000    0.0000 C   0  0  0  0  0  0  0  0  0  0  0  0
    1.2917    2.0000    0.0000 C   0  0  0  0  0  0  0  0  0  0  0  0
   -2.1708    2.0000    0.0000 C   0  0  0  0  0  0  0  0  0  0  0  0
    0.4292    2.5000    0.0000 C   0  0  0  0  0  0  0  0  0  0  0  0
    0.4292   -2.5000    0.0000 C   0  0  0  0  0  0  0  0  0  0  0  0
    2.1625   -2.5000    0.0000 C   0  0  0  0  0  0  0  0  0  0  0  0
   -2.1708    1.0000    0.0000 C   0  0  0  0  0  0  0  0  0  0  0  0
  2  1  1  0  0  0  0
  3  2  2  0  0  0  0
  4  1  1  0  0  0  0
  5  3  1  0  0  0  0
  5 13  2  0  0  0  0
  6  5  1  0  0  0  0
  6 12  1  0  0  0  0
  7  1  2  0  0  0  0
  8  2  1  0  0  0  0
  9  4  1  0  0  0  0
 10  3  1  0  0  0  0
 11  8  2  0  0  0  0
 12 16  1  0  0  0  0
 13 11  1  0  0  0  0
 14  9  1  0  0  0  0
 15  9  1  0  0  0  0
 16 10  1  0  0  0  0
M  END
>  <idnumber>
T5666535

>  <LogP>
2.088000000000000e+000

>  <rotating_bonds>
2.000000000000000e+000

>  <hb_acceptors>
2.000000000000000e+000

>  <hb_donors>
2.000000000000000e+000

>  <PSA>
4.113000000000000e+001

>  <clusterid>
-1083

>  <is_centroid>
@

>  <class1>
814

>  <population1>
5317

>  <population>
5317

>  <cansmi>
CC(NC(=O)c1cccc2c1CCCN2)C

>  <HBA2>
3

>  <HBD>
2

>  <logP>
2.7118

>  <TPSA>
41.13

>  <MW>
218.295

$$$$

 OpenBabel02121609142D

 21 23  0  0  0  0  0  0  0  0999 V2000
    0.4917    0.3458    0.0000 C   0  0  0  0  0  0  0  0  0  0  0  0
   -0.4583    0.6500    0.0000 C   0  0  0  0  0  0  0  0  0  0  0  0
   -1.0458   -0.1542    0.0000 N   0  0  0  0  0  0  0  0  0  0  0  0
    0.4917   -0.6542    0.0000 C   0  0  0  0  0  0  0  0  0  0  0  0
    1.3000    0.9333    0.0000 C   0  0  0  0  0  0  0  0  0  0  0  0
   -0.4583   -0.9667    0.0000 C   0  0  0  0  0  0  0  0  0  0  0  0
    2.2167    0.5208    0.0000 N   0  0  0  0  0  0  0  0  0  0  0  0
   -2.0458   -0.1542    0.0000 C   0  0  0  0  0  0  0  0  0  0  0  0
    1.1917    1.9250    0.0000 O   0  0  0  0  0  0  0  0  0  0  0  0
    4.0417   -0.2917    0.0000 O   0  0  0  0  0  0  0  0  0  0  0  0
   -0.7708    1.6000    0.0000 C   0  0  0  0  0  0  0  0  0  0  0  0
   -0.7708   -1.9167    0.0000 C   0  0  0  0  0  0  0  0  0  0  0  0
    2.3167   -0.4667    0.0000 C   0  0  0  0  0  0  0  0  0  0  0  0
    3.0250    1.1083    0.0000 C   0  0  0  0  0  0  0  0  0  0  0  0
    3.9375    0.7083    0.0000 C   0  0  0  0  0  0  0  0  0  0  0  0
    3.2292   -0.8792    0.0000 C   0  0  0  0  0  0  0  0  0  0  0  0
   -2.5458    0.7083    0.0000 C   0  0  0  0  0  0  0  0  0  0  0  0
   -2.5458   -1.0250    0.0000 C   0  0  0  0  0  0  0  0  0  0  0  0
   -3.5458   -1.0250    0.0000 C   0  0  0  0  0  0  0  0  0  0  0  0
   -3.5458    0.7083    0.0000 C   0  0  0  0  0  0  0  0  0  0  0  0
   -4.0458   -0.1542    0.0000 C   0  0  0  0  0  0  0  0  0  0  0  0
  2  1  2  0  0  0  0
  3  2  1  0  0  0  0
  4  1  1  0  0  0  0
  5  1  1  0  0  0  0
  6  4  2  0  0  0  0
  6  3  1  0  0  0  0
  7  5  1  0  0  0  0
  8  3  1  0  0  0  0
  9  5  2  0  0  0  0
 10 15  1  0  0  0  0
 11  2  1  0  0  0  0
 12  6  1  0  0  0  0
 13  7  1  0  0  0  0
 14  7  1  0  0  0  0
 15 14  1  0  0  0  0
 16 13  1  0  0  0  0
 16 10  1  0  0  0  0
 17  8  1  0  0  0  0
 18  8  2  0  0  0  0
 19 18  1  0  0  0  0
 20 17  2  0  0  0  0
 20 21  1  0  0  0  0
 21 19  2  0  0  0  0
M  END
>  <idnumber>
T5666930

>  <LogP>
2.908000000000000e+000

>  <rotating_bonds>
2.000000000000000e+000

>  <hb_acceptors>
2.000000000000000e+000

>  <hb_donors>
0.000000000000000e+000

>  <PSA>
3.447000000000000e+001

>  <clusterid>
-1086

>  <is_centroid>
@

>  <class1>
635

>  <class2>
625

>  <class3>
786

>  <population1>
31512

>  <population2>
877209

>  <population3>
48067

>  <population>
823

>  <cansmi>
O=C(c1cc(n(c1C)c1ccccc1)C)N1CCOCC1

>  <HBA2>
4

>  <HBD>
0

>  <logP>
2.5044

>  <TPSA>
34.47

>  <MW>
284.353

$$$$

 OpenBabel02121609142D

 20 22  0  0  0  0  0  0  0  0999 V2000
    2.2792   -1.1042    0.0000 N   0  0  0  0  0  0  0  0  0  0  0  0
    1.6917   -0.3000    0.0000 N   0  0  0  0  0  0  0  0  0  0  0  0
    0.7417   -0.6042    0.0000 C   0  0  0  0  0  0  0  0  0  0  0  0
    1.6917   -1.9167    0.0000 N   0  0  0  0  0  0  0  0  0  0  0  0
    0.7417   -1.6042    0.0000 C   0  0  0  0  0  0  0  0  0  0  0  0
   -1.8583   -0.1042    0.0000 C   0  0  0  0  0  0  0  0  0  0  0  0
   -0.9958   -0.6042    0.0000 C   0  0  0  0  0  0  0  0  0  0  0  0
   -1.8583    0.8958    0.0000 N   0  0  0  0  0  0  0  0  0  0  0  0
   -0.1250   -0.1042    0.0000 C   0  0  0  0  0  0  0  0  0  0  0  0
   -0.1250   -2.1042    0.0000 C   0  0  0  0  0  0  0  0  0  0  0  0
   -0.9958   -1.6042    0.0000 C   0  0  0  0  0  0  0  0  0  0  0  0
   -2.7250   -0.6042    0.0000 O   0  0  0  0  0  0  0  0  0  0  0  0
    2.0000   -2.8667    0.0000 C   0  0  0  0  0  0  0  0  0  0  0  0
   -0.9583    1.3250    0.0000 C   0  0  0  0  0  0  0  0  0  0  0  0
   -2.7583    1.3250    0.0000 C   0  0  0  0  0  0  0  0  0  0  0  0
    2.9792   -3.0792    0.0000 C   0  0  0  0  0  0  0  0  0  0  0  0
   -2.9833    2.3000    0.0000 C   0  0  0  0  0  0  0  0  0  0  0  0
   -0.7333    2.3000    0.0000 C   0  0  0  0  0  0  0  0  0  0  0  0
   -1.3583    3.0833    0.0000 C   0  0  0  0  0  0  0  0  0  0  0  0
   -2.3583    3.0833    0.0000 C   0  0  0  0  0  0  0  0  0  0  0  0
  2  1  2  0  0  0  0
  3  2  1  0  0  0  0
  3  5  2  0  0  0  0
  4  1  1  0  0  0  0
  5  4  1  0  0  0  0
  6  7  1  0  0  0  0
  7  9  2  0  0  0  0
  7 11  1  0  0  0  0
  8  6  1  0  0  0  0
  9  3  1  0  0  0  0
 10  5  1  0  0  0  0
 11 10  2  0  0  0  0
 12  6  2  0  0  0  0
 13  4  1  0  0  0  0
 14  8  1  0  0  0  0
 15  8  1  0  0  0  0
 16 13  1  0  0  0  0
 17 15  1  0  0  0  0
 18 14  1  0  0  0  0
 19 18  1  0  0  0  0
 19 20  1  0  0  0  0
 20 17  1  0  0  0  0
M  END
>  <idnumber>
T5667087

>  <LogP>
2.153000000000000e+000

>  <rotating_bonds>
2.000000000000000e+000

>  <hb_acceptors>
3.000000000000000e+000

>  <hb_donors>
0.000000000000000e+000

>  <PSA>
5.102000000000000e+001

>  <clusterid>
614

>  <is_centroid>
@

>  <class1>
702

>  <population1>
14026

>  <population>
14026

>  <cansmi>
CCn1nnc2c1ccc(c2)C(=O)N1CCCCCC1

>  <HBA2>
5

>  <HBD>
0

>  <logP>
2.4053

>  <TPSA>
51.02

>  <MW>
272.346

$$$$

 OpenBabel02121609142D

 17 18  0  0  0  0  0  0  0  0999 V2000
    0.4292    1.0000    0.0000 C   0  0  0  0  0  0  0  0  0  0  0  0
   -0.4333    0.5000    0.0000 N   0  0  0  0  0  0  0  0  0  0  0  0
    1.2917    0.5000    0.0000 O   0  0  0  0  0  0  0  0  0  0  0  0
    0.4292    2.0083    0.0000 C   0  0  3  0  0  0  0  0  0  0  0  0
   -0.4333   -0.5000    0.0000 C   0  0  0  0  0  0  0  0  0  0  0  0
   -0.4333    3.5083    0.0000 C   0  0  0  0  0  0  0  0  0  0  0  0
    0.4292    4.0000    0.0000 C   0  0  0  0  0  0  0  0  0  0  0  0
   -0.4333   -2.5000    0.0000 C   0  0  0  0  0  0  0  0  0  0  0  0
    0.4292   -1.0000    0.0000 C   0  0  0  0  0  0  0  0  0  0  0  0
   -1.3000   -1.0000    0.0000 C   0  0  0  0  0  0  0  0  0  0  0  0
    0.4292   -2.0000    0.0000 C   0  0  0  0  0  0  0  0  0  0  0  0
   -1.3000   -2.0000    0.0000 C   0  0  0  0  0  0  0  0  0  0  0  0
   -0.4333   -3.5000    0.0000 O   0  0  0  0  0  0  0  0  0  0  0  0
   -0.4333    2.5083    0.0000 C   0  0  0  0  0  0  0  0  0  0  0  0
    1.2917    3.5083    0.0000 C   0  0  0  0  0  0  0  0  0  0  0  0
    1.2917    2.5083    0.0000 C   0  0  0  0  0  0  0  0  0  0  0  0
    0.4292   -4.0000    0.0000 C   0  0  0  0  0  0  0  0  0  0  0  0
  2  1  1  0  0  0  0
  3  1  2  0  0  0  0
  4  1  1  0  0  0  0
  5  2  1  0  0  0  0
  6 14  1  0  0  0  0
  6  7  2  0  0  0  0
  7 15  1  0  0  0  0
  8 12  2  0  0  0  0
  8 11  1  0  0  0  0
  9  5  1  0  0  0  0
 10  5  2  0  0  0  0
 11  9  2  0  0  0  0
 12 10  1  0  0  0  0
 13  8  1  0  0  0  0
 14  4  1  0  0  0  0
 15 16  1  0  0  0  0
 16  4  1  0  0  0  0
 17 13  1  0  0  0  0
M  END
>  <idnumber>
T5667475

>  <LogP>
2.783000000000000e+000

>  <rotating_bonds>
3.000000000000000e+000

>  <hb_acceptors>
2.000000000000000e+000

>  <hb_donors>
1.000000000000000e+000

>  <PSA>
3.833000000000000e+001

>  <clusterid>
615

>  <is_centroid>
@

>  <class1>
810

>  <class2>
625

>  <population1>
20527

>  <population2>
877209

>  <population>
15295

>  <cansmi>
COc1ccc(cc1)NC(=O)C1CCC=CC1

>  <HBA2>
3

>  <HBD>
1

>  <logP>
3.063

>  <TPSA>
38.33

>  <MW>
231.29

$$$$

 OpenBabel02121609142D

 19 21  0  0  0  0  0  0  0  0999 V2000
   -2.0125    0.2000    0.0000 N   0  0  0  0  0  0  0  0  0  0  0  0
   -2.6000    1.0083    0.0000 N   0  0  0  0  0  0  0  0  0  0  0  0
   -2.6000   -0.6042    0.0000 C   0  0  0  0  0  0  0  0  0  0  0  0
   -3.5500   -0.3000    0.0000 C   0  0  0  0  0  0  0  0  0  0  0  0
    1.9875    0.2000    0.0000 C   0  0  0  0  0  0  0  0  0  0  0  0
   -3.5500    0.7000    0.0000 C   0  0  0  0  0  0  0  0  0  0  0  0
    2.4875    1.0708    0.0000 N   0  0  0  0  0  0  0  0  0  0  0  0
   -1.0125    0.2000    0.0000 C   0  0  0  0  0  0  0  0  0  0  0  0
    3.4875    1.0708    0.0000 C   0  0  0  0  0  0  0  0  0  0  0  0
    0.9875    0.2000    0.0000 C   0  0  0  0  0  0  0  0  0  0  0  0
    4.3542    0.5708    0.0000 C   0  0  0  0  0  0  0  0  0  0  0  0
    4.3542    1.5708    0.0000 C   0  0  0  0  0  0  0  0  0  0  0  0
    2.4875   -0.6667    0.0000 O   0  0  0  0  0  0  0  0  0  0  0  0
   -0.5125   -0.6667    0.0000 C   0  0  0  0  0  0  0  0  0  0  0  0
   -0.5125    1.0708    0.0000 C   0  0  0  0  0  0  0  0  0  0  0  0
    0.4875    1.0708    0.0000 C   0  0  0  0  0  0  0  0  0  0  0  0
    0.4875   -0.6667    0.0000 C   0  0  0  0  0  0  0  0  0  0  0  0
   -2.2958   -1.5625    0.0000 C   0  0  0  0  0  0  0  0  0  0  0  0
   -4.3583    1.2875    0.0000 C   0  0  0  0  0  0  0  0  0  0  0  0
  2  1  1  0  0  0  0
  3  1  1  0  0  0  0
  4  3  2  0  0  0  0
  5 10  1  0  0  0  0
  6  2  2  0  0  0  0
  6  4  1  0  0  0  0
  7  5  1  0  0  0  0
  8  1  1  0  0  0  0
  9  7  1  0  0  0  0
 10 16  2  0  0  0  0
 11  9  1  0  0  0  0
 11 12  1  0  0  0  0
 12  9  1  0  0  0  0
 13  5  2  0  0  0  0
 14  8  1  0  0  0  0
 15  8  2  0  0  0  0
 16 15  1  0  0  0  0
 17 14  2  0  0  0  0
 17 10  1  0  0  0  0
 18  3  1  0  0  0  0
 19  6  1  0  0  0  0
M  END
>  <idnumber>
T5667994

>  <LogP>
2.331000000000000e+000

>  <rotating_bonds>
3.000000000000000e+000

>  <hb_acceptors>
2.000000000000000e+000

>  <hb_donors>
1.000000000000000e+000

>  <PSA>
4.692000000000000e+001

>  <clusterid>
617

>  <is_centroid>
@

>  <class1>
675

>  <class2>
631

>  <class3>
625

>  <population1>
33654

>  <population2>
41612

>  <population3>
877209

>  <population>
1398

>  <cansmi>
Cc1cc(n(n1)c1ccc(cc1)C(=O)NC1CC1)C

>  <HBA2>
4

>  <HBD>
1

>  <logP>
2.7722

>  <TPSA>
46.92

>  <MW>
255.315

$$$$

 OpenBabel02121609142D

 21 23  0  0  0  0  0  0  0  0999 V2000
   -1.6750    0.2083    0.0000 C   0  0  0  0  0  0  0  0  0  0  0  0
   -1.0083   -0.5375    0.0000 N   0  0  0  0  0  0  0  0  0  0  0  0
    0.3292   -2.0250    0.0000 C   0  0  0  0  0  0  0  0  0  0  0  0
    0.6417   -1.0750    0.0000 C   0  0  0  0  0  0  0  0  0  0  0  0
   -1.3708    1.1583    0.0000 N   0  0  0  0  0  0  0  0  0  0  0  0
   -1.7250    2.8500    0.0000 C   0  0  0  0  0  0  0  0  0  0  0  0
   -0.0333   -0.3292    0.0000 C   0  0  0  0  0  0  0  0  0  0  0  0
   -2.3125    3.6583    0.0000 O   0  0  0  0  0  0  0  0  0  0  0  0
   -1.3208   -1.4917    0.0000 C   0  0  0  0  0  0  0  0  0  0  0  0
   -2.6583   -0.0042    0.0000 O   0  0  0  0  0  0  0  0  0  0  0  0
   -0.6458   -2.2292    0.0000 C   0  0  0  0  0  0  0  0  0  0  0  0
   -0.7750    3.1583    0.0000 C   0  0  0  0  0  0  0  0  0  0  0  0
   -1.7250    4.4625    0.0000 C   0  0  0  0  0  0  0  0  0  0  0  0
    1.0000   -2.7667    0.0000 C   0  0  0  0  0  0  0  0  0  0  0  0
   -0.7750    4.1542    0.0000 C   0  0  0  0  0  0  0  0  0  0  0  0
   -2.0333    1.9000    0.0000 C   0  0  0  0  0  0  0  0  0  0  0  0
    0.6917   -3.7167    0.0000 C   0  0  0  0  0  0  0  0  0  0  0  0
    1.9792   -2.5625    0.0000 C   0  0  0  0  0  0  0  0  0  0  0  0
    2.6500   -3.3042    0.0000 C   0  0  0  0  0  0  0  0  0  0  0  0
    1.3625   -4.4625    0.0000 C   0  0  0  0  0  0  0  0  0  0  0  0
    2.3417   -4.2542    0.0000 C   0  0  0  0  0  0  0  0  0  0  0  0
  2  1  1  0  0  0  0
  3 11  1  0  0  0  0
  4  7  1  0  0  0  0
  4  3  2  0  0  0  0
  5  1  1  0  0  0  0
  6 16  1  0  0  0  0
  7  2  1  0  0  0  0
  8  6  1  0  0  0  0
  9  2  1  0  0  0  0
 10  1  2  0  0  0  0
 11  9  1  0  0  0  0
 12  6  2  0  0  0  0
 13  8  1  0  0  0  0
 14  3  1  0  0  0  0
 15 12  1  0  0  0  0
 15 13  2  0  0  0  0
 16  5  1  0  0  0  0
 17 14  1  0  0  0  0
 18 14  2  0  0  0  0
 19 18  1  0  0  0  0
 20 17  2  0  0  0  0
 20 21  1  0  0  0  0
 21 19  2  0  0  0  0
M  END
>  <idnumber>
T5668111

>  <LogP>
2.949000000000000e+000

>  <rotating_bonds>
3.000000000000000e+000

>  <hb_acceptors>
1.000000000000000e+000

>  <hb_donors>
1.000000000000000e+000

>  <PSA>
4.548000000000000e+001

>  <clusterid>
-1087

>  <is_centroid>
@

>  <class1>
704

>  <class2>
715

>  <class3>
625

>  <population1>
51112

>  <population2>
4585

>  <population3>
877209

>  <population>
85

>  <cansmi>
O=C(N1CCC(=CC1)c1ccccc1)NCc1ccco1

>  <HBA2>
4

>  <HBD>
1

>  <logP>
3.6073

>  <TPSA>
45.48

>  <MW>
282.337

$$$$

 OpenBabel02121609142D

 18 19  0  0  0  0  0  0  0  0999 V2000
   -0.5083    0.8750    0.0000 N   0  0  0  0  0  0  0  0  0  0  0  0
   -0.5083   -0.1250    0.0000 C   0  0  0  0  0  0  0  0  0  0  0  0
   -1.4583   -0.4292    0.0000 N   0  0  0  0  0  0  0  0  0  0  0  0
   -2.0458    0.3750    0.0000 C   0  0  0  0  0  0  0  0  0  0  0  0
   -1.4583    1.1833    0.0000 C   0  0  0  0  0  0  0  0  0  0  0  0
    0.3000    1.4625    0.0000 C   0  0  0  0  0  0  0  0  0  0  0  0
    0.3000   -0.7125    0.0000 O   0  0  0  0  0  0  0  0  0  0  0  0
   -3.0458    0.3750    0.0000 O   0  0  0  0  0  0  0  0  0  0  0  0
   -1.7708    2.1333    0.0000 O   0  0  0  0  0  0  0  0  0  0  0  0
   -1.7708   -1.3875    0.0000 C   0  0  0  0  0  0  0  0  0  0  0  0
    1.2167    1.0583    0.0000 C   0  0  0  0  0  0  0  0  0  0  0  0
   -1.1000   -2.1292    0.0000 C   0  0  0  0  0  0  0  0  0  0  0  0
   -2.7458   -1.5917    0.0000 C   0  0  0  0  0  0  0  0  0  0  0  0
    1.3167    0.0583    0.0000 C   0  0  0  0  0  0  0  0  0  0  0  0
    2.0250    1.6458    0.0000 C   0  0  0  0  0  0  0  0  0  0  0  0
    2.9375    1.2375    0.0000 C   0  0  0  0  0  0  0  0  0  0  0  0
    2.2292   -0.3417    0.0000 C   0  0  0  0  0  0  0  0  0  0  0  0
    3.0417    0.2458    0.0000 C   0  0  0  0  0  0  0  0  0  0  0  0
  2  1  1  0  0  0  0
  3  2  1  0  0  0  0
  3  4  1  0  0  0  0
  4  5  1  0  0  0  0
  5  1  1  0  0  0  0
  6  1  1  0  0  0  0
  7  2  2  0  0  0  0
  8  4  2  0  0  0  0
  9  5  2  0  0  0  0
 10  3  1  0  0  0  0
 11  6  1  0  0  0  0
 12 10  1  0  0  0  0
 13 10  1  0  0  0  0
 14 11  1  0  0  0  0
 15 11  2  0  0  0  0
 16 15  1  0  0  0  0
 17 14  2  0  0  0  0
 17 18  1  0  0  0  0
 18 16  2  0  0  0  0
M  END
>  <idnumber>
T5668654

>  <LogP>
1.755000000000000e+000

>  <rotating_bonds>
3.000000000000000e+000

>  <hb_acceptors>
3.000000000000000e+000

>  <hb_donors>
0.000000000000000e+000

>  <PSA>
5.769000000000001e+001

>  <clusterid>
501

>  <is_centroid>
@

>  <class1>
625

>  <class2>
795

>  <population1>
877209

>  <population2>
2116

>  <population>
1767

>  <cansmi>
O=C1C(=O)N(C(=O)N1Cc1ccccc1)C(C)C

>  <HBA2>
5

>  <HBD>
0

>  <logP>
1.2616

>  <TPSA>
57.69

>  <MW>
246.262

$$$$

 OpenBabel02121609142D

 16 17  0  0  0  0  0  0  0  0999 V2000
   -0.4333   -0.2500    0.0000 C   0  0  0  0  0  0  0  0  0  0  0  0
   -0.4333   -1.2417    0.0000 C   0  0  0  0  0  0  0  0  0  0  0  0
   -1.3000    0.2500    0.0000 C   0  0  0  0  0  0  0  0  0  0  0  0
    0.4292   -1.7417    0.0000 C   0  0  0  0  0  0  0  0  0  0  0  0
    2.1625   -1.7417    0.0000 N   0  0  0  0  0  0  0  0  0  0  0  0
   -2.1708    2.7500    0.0000 N   0  0  0  0  0  0  0  0  0  0  0  0
   -1.3000   -1.7417    0.0000 O   0  0  0  0  0  0  0  0  0  0  0  0
   -1.3000    1.2500    0.0000 C   0  0  0  0  0  0  0  0  0  0  0  0
    1.2917   -1.2417    0.0000 C   0  0  0  0  0  0  0  0  0  0  0  0
   -2.1708    1.7500    0.0000 C   0  0  0  0  0  0  0  0  0  0  0  0
    0.4292   -2.7417    0.0000 C   0  0  0  0  0  0  0  0  0  0  0  0
   -1.3000    3.2500    0.0000 C   0  0  0  0  0  0  0  0  0  0  0  0
    2.1625   -2.7417    0.0000 C   0  0  0  0  0  0  0  0  0  0  0  0
   -0.4333    1.7500    0.0000 C   0  0  0  0  0  0  0  0  0  0  0  0
    1.2917   -3.2417    0.0000 C   0  0  0  0  0  0  0  0  0  0  0  0
   -0.4333    2.7500    0.0000 C   0  0  0  0  0  0  0  0  0  0  0  0
  2  1  1  0  0  0  0
  3  1  2  0  0  0  0
  4  2  1  0  0  0  0
  5  9  1  0  0  0  0
  5 13  2  0  0  0  0
  6 10  1  0  0  0  0
  6 12  2  0  0  0  0
  7  2  2  0  0  0  0
  8  3  1  0  0  0  0
  9  4  2  0  0  0  0
 10  8  2  0  0  0  0
 11  4  1  0  0  0  0
 12 16  1  0  0  0  0
 13 15  1  0  0  0  0
 14  8  1  0  0  0  0
 15 11  2  0  0  0  0
 16 14  2  0  0  0  0
M  END
>  <idnumber>
T5669706

>  <LogP>
1.266000000000000e+000

>  <rotating_bonds>
3.000000000000000e+000

>  <hb_acceptors>
3.000000000000000e+000

>  <hb_donors>
0.000000000000000e+000

>  <PSA>
4.284999999999997e+001

>  <clusterid>
-1088

>  <is_centroid>
@

>  <class1>
632

>  <class2>
632

>  <population1>
79489

>  <population2>
79489

>  <population>
79489

>  <cansmi>
O=C(c1cccnc1)/C=C/c1cccnc1

>  <HBA2>
3

>  <HBD>
0

>  <logP>
2.3727

>  <TPSA>
42.85

>  <MW>
210.231

$$$$

 OpenBabel02121609142D

 16 17  0  0  0  0  0  0  0  0999 V2000
    0.0000   -1.1792    0.0000 C   0  0  0  0  0  0  0  0  0  0  0  0
   -0.6708   -0.4375    0.0000 C   0  0  0  0  0  0  0  0  0  0  0  0
   -0.3625    0.5208    0.0000 N   0  0  0  0  0  0  0  0  0  0  0  0
   -0.7208    2.2083    0.0000 C   0  0  0  0  0  0  0  0  0  0  0  0
    1.6417   -1.7125    0.0000 N   0  0  0  0  0  0  0  0  0  0  0  0
   -1.3083    3.0208    0.0000 O   0  0  0  0  0  0  0  0  0  0  0  0
   -0.3125   -2.1292    0.0000 C   0  0  0  0  0  0  0  0  0  0  0  0
   -1.6500   -0.6417    0.0000 O   0  0  0  0  0  0  0  0  0  0  0  0
    0.2292    2.5208    0.0000 C   0  0  0  0  0  0  0  0  0  0  0  0
   -0.7208    3.8333    0.0000 C   0  0  0  0  0  0  0  0  0  0  0  0
    0.2292    3.5208    0.0000 C   0  0  0  0  0  0  0  0  0  0  0  0
   -1.0333    1.2583    0.0000 C   0  0  0  0  0  0  0  0  0  0  0  0
    0.9750   -0.9667    0.0000 C   0  0  0  0  0  0  0  0  0  0  0  0
    0.3542   -2.8667    0.0000 C   0  0  0  0  0  0  0  0  0  0  0  0
    0.0500   -3.8250    0.0000 Br  0  0  0  0  0  0  0  0  0  0  0  0
    1.3375   -2.6667    0.0000 C   0  0  0  0  0  0  0  0  0  0  0  0
  2  1  1  0  0  0  0
  3  2  1  0  0  0  0
  4 12  1  0  0  0  0
  5 13  1  0  0  0  0
  6  4  1  0  0  0  0
  7  1  1  0  0  0  0
  8  2  2  0  0  0  0
  9  4  2  0  0  0  0
 10  6  1  0  0  0  0
 11  9  1  0  0  0  0
 11 10  2  0  0  0  0
 12  3  1  0  0  0  0
 13  1  2  0  0  0  0
 14  7  2  0  0  0  0
 14 16  1  0  0  0  0
 15 14  1  0  0  0  0
 16  5  2  0  0  0  0
M  END
>  <idnumber>
T5670111

>  <LogP>
2.194000000000000e+000

>  <rotating_bonds>
3.000000000000000e+000

>  <hb_acceptors>
2.000000000000000e+000

>  <hb_donors>
1.000000000000000e+000

>  <PSA>
5.513000000000000e+001

>  <clusterid>
618

>  <is_centroid>
@

>  <class1>
704

>  <class2>
632

>  <population1>
51112

>  <population2>
79489

>  <population>
3605

>  <cansmi>
Brc1cncc(c1)C(=O)NCc1ccco1

>  <HBA2>
4

>  <HBD>
1

>  <logP>
2.758

>  <TPSA>
55.13

>  <MW>
281.105

$$$$

 OpenBabel02121609142D

 15 16  0  0  0  0  0  0  0  0999 V2000
   -0.3625    0.0458    0.0000 C   0  0  0  0  0  0  0  0  0  0  0  0
   -0.6708   -0.9125    0.0000 C   0  0  0  0  0  0  0  0  0  0  0  0
   -1.0333    0.7833    0.0000 C   0  0  0  0  0  0  0  0  0  0  0  0
   -0.7208    1.7333    0.0000 C   0  0  0  0  0  0  0  0  0  0  0  0
   -0.7208    3.3583    0.0000 S   0  0  0  0  0  0  0  0  0  0  0  0
    0.0000   -1.6542    0.0000 C   0  0  0  0  0  0  0  0  0  0  0  0
   -1.3083    2.5458    0.0000 C   0  0  0  0  0  0  0  0  0  0  0  0
    0.2292    3.0458    0.0000 C   0  0  0  0  0  0  0  0  0  0  0  0
    0.2292    2.0458    0.0000 C   0  0  0  0  0  0  0  0  0  0  0  0
    1.6417   -2.1875    0.0000 N   0  0  0  0  0  0  0  0  0  0  0  0
   -1.6500   -1.1167    0.0000 O   0  0  0  0  0  0  0  0  0  0  0  0
    0.9750   -1.4417    0.0000 C   0  0  0  0  0  0  0  0  0  0  0  0
   -0.3125   -2.6042    0.0000 C   0  0  0  0  0  0  0  0  0  0  0  0
    1.3375   -3.1417    0.0000 C   0  0  0  0  0  0  0  0  0  0  0  0
    0.3542   -3.3500    0.0000 C   0  0  0  0  0  0  0  0  0  0  0  0
  2  1  1  0  0  0  0
  3  1  2  0  0  0  0
  4  3  1  0  0  0  0
  5  7  1  0  0  0  0
  6  2  1  0  0  0  0
  7  4  2  0  0  0  0
  8  9  2  0  0  0  0
  8  5  1  0  0  0  0
  9  4  1  0  0  0  0
 10 12  1  0  0  0  0
 10 14  2  0  0  0  0
 11  2  2  0  0  0  0
 12  6  2  0  0  0  0
 13  6  1  0  0  0  0
 14 15  1  0  0  0  0
 15 13  2  0  0  0  0
M  END
>  <idnumber>
T5670185

>  <LogP>
2.409000000000000e+000

>  <rotating_bonds>
3.000000000000000e+000

>  <hb_acceptors>
3.000000000000000e+000

>  <hb_donors>
0.000000000000000e+000

>  <PSA>
5.820000000000000e+001

>  <clusterid>
-1090

>  <is_centroid>
@

>  <class1>
645

>  <class2>
632

>  <population1>
105961

>  <population2>
79489

>  <population>
6022

>  <cansmi>
O=C(c1cccnc1)/C=C/c1cscc1

>  <HBA2>
3

>  <HBD>
0

>  <logP>
3.0392

>  <TPSA>
58.2

>  <MW>
215.271

$$$$

 OpenBabel02121609142D

 20 22  0  0  0  0  0  0  0  0999 V2000
   -0.3875    0.4333    0.0000 N   0  0  0  0  0  0  0  0  0  0  0  0
   -0.9750    1.2458    0.0000 C   0  0  0  0  0  0  0  0  0  0  0  0
   -0.9750   -0.3750    0.0000 C   0  0  0  0  0  0  0  0  0  0  0  0
   -1.9250   -0.0667    0.0000 C   0  0  0  0  0  0  0  0  0  0  0  0
   -1.9250    0.9333    0.0000 C   0  0  0  0  0  0  0  0  0  0  0  0
    0.6125    0.4333    0.0000 C   0  0  0  0  0  0  0  0  0  0  0  0
    1.1125   -0.4292    0.0000 C   0  0  0  0  0  0  0  0  0  0  0  0
    2.1125   -0.4292    0.0000 C   0  0  0  0  0  0  0  0  0  0  0  0
    2.7000   -1.2417    0.0000 N   0  0  0  0  0  0  0  0  0  0  0  0
   -0.6708    2.1958    0.0000 O   0  0  0  0  0  0  0  0  0  0  0  0
   -0.6708   -1.3250    0.0000 O   0  0  0  0  0  0  0  0  0  0  0  0
    2.7000    0.3833    0.0000 C   0  0  0  0  0  0  0  0  0  0  0  0
    3.6542   -0.9292    0.0000 C   0  0  0  0  0  0  0  0  0  0  0  0
    3.6542    0.0708    0.0000 C   0  0  0  0  0  0  0  0  0  0  0  0
    0.6125   -1.2917    0.0000 O   0  0  0  0  0  0  0  0  0  0  0  0
   -2.7958   -0.5667    0.0000 C   0  0  0  0  0  0  0  0  0  0  0  0
   -2.7958    1.4333    0.0000 C   0  0  0  0  0  0  0  0  0  0  0  0
    2.3917   -2.1917    0.0000 C   0  0  0  0  0  0  0  0  0  0  0  0
   -3.6583    0.9333    0.0000 C   0  0  0  0  0  0  0  0  0  0  0  0
   -3.6583   -0.0667    0.0000 C   0  0  0  0  0  0  0  0  0  0  0  0
  2  1  1  0  0  0  0
  3  1  1  0  0  0  0
  4  3  1  0  0  0  0
  5  2  1  0  0  0  0
  5  4  2  0  0  0  0
  6  1  1  0  0  0  0
  7  6  1  0  0  0  0
  8  7  1  0  0  0  0
  9  8  1  0  0  0  0
 10  2  2  0  0  0  0
 11  3  2  0  0  0  0
 12  8  2  0  0  0  0
 13  9  1  0  0  0  0
 13 14  2  0  0  0  0
 14 12  1  0  0  0  0
 15  7  2  0  0  0  0
 16  4  1  0  0  0  0
 17  5  1  0  0  0  0
 18  9  1  0  0  0  0
 19 17  2  0  0  0  0
 19 20  1  0  0  0  0
 20 16  2  0  0  0  0
M  END
>  <idnumber>
T5670325

>  <LogP>
1.812000000000000e+000

>  <rotating_bonds>
3.000000000000000e+000

>  <hb_acceptors>
3.000000000000000e+000

>  <hb_donors>
0.000000000000000e+000

>  <PSA>
5.938000000000002e+001

>  <clusterid>
-1091

>  <is_centroid>
@

>  <class1>
635

>  <class2>
661

>  <population1>
31512

>  <population2>
7628

>  <population>
187

>  <cansmi>
O=C1N(CC(=O)c2cccn2C)C(=O)c2c1cccc2

>  <HBA2>
5

>  <HBD>
0

>  <logP>
1.4419

>  <TPSA>
59.38

>  <MW>
268.267

$$$$

 OpenBabel02121609142D

 21 23  0  0  0  0  0  0  0  0999 V2000
    0.2250   -1.8292    0.0000 N   0  0  0  0  0  0  0  0  0  0  0  0
   -0.3625   -2.6417    0.0000 N   0  0  0  0  0  0  0  0  0  0  0  0
    1.1750   -2.1417    0.0000 C   0  0  0  0  0  0  0  0  0  0  0  0
    1.1750   -3.1417    0.0000 C   0  0  0  0  0  0  0  0  0  0  0  0
   -1.0125    1.9708    0.0000 C   0  0  0  0  0  0  0  0  0  0  0  0
   -0.3458    2.7125    0.0000 N   0  0  0  0  0  0  0  0  0  0  0  0
    0.2250   -3.4542    0.0000 C   0  0  0  0  0  0  0  0  0  0  0  0
   -0.0833   -0.8792    0.0000 C   0  0  0  0  0  0  0  0  0  0  0  0
   -0.7000    1.0208    0.0000 C   0  0  0  0  0  0  0  0  0  0  0  0
   -1.9875    2.1833    0.0000 O   0  0  0  0  0  0  0  0  0  0  0  0
   -1.0625   -0.6750    0.0000 C   0  0  0  0  0  0  0  0  0  0  0  0
    0.5792   -0.1417    0.0000 C   0  0  0  0  0  0  0  0  0  0  0  0
    0.2750    0.8125    0.0000 C   0  0  0  0  0  0  0  0  0  0  0  0
   -1.3708    0.2750    0.0000 C   0  0  0  0  0  0  0  0  0  0  0  0
    0.9917    4.1917    0.0000 O   0  0  0  0  0  0  0  0  0  0  0  0
    1.9792   -1.5542    0.0000 C   0  0  0  0  0  0  0  0  0  0  0  0
    0.6375    2.5083    0.0000 C   0  0  0  0  0  0  0  0  0  0  0  0
   -0.6500    3.6708    0.0000 C   0  0  0  0  0  0  0  0  0  0  0  0
   -0.0833   -4.4042    0.0000 C   0  0  0  0  0  0  0  0  0  0  0  0
    0.0167    4.4042    0.0000 C   0  0  0  0  0  0  0  0  0  0  0  0
    1.3042    3.2500    0.0000 C   0  0  0  0  0  0  0  0  0  0  0  0
  2  1  1  0  0  0  0
  3  1  1  0  0  0  0
  4  3  2  0  0  0  0
  5  9  1  0  0  0  0
  6  5  1  0  0  0  0
  7  2  2  0  0  0  0
  7  4  1  0  0  0  0
  8  1  1  0  0  0  0
  9 13  1  0  0  0  0
 10  5  2  0  0  0  0
 11  8  2  0  0  0  0
 12  8  1  0  0  0  0
 13 12  2  0  0  0  0
 14 11  1  0  0  0  0
 14  9  2  0  0  0  0
 15 20  1  0  0  0  0
 16  3  1  0  0  0  0
 17  6  1  0  0  0  0
 18  6  1  0  0  0  0
 19  7  1  0  0  0  0
 20 18  1  0  0  0  0
 21 17  1  0  0  0  0
 21 15  1  0  0  0  0
M  END
>  <idnumber>
T5670514

>  <LogP>
1.840000000000000e+000

>  <rotating_bonds>
2.000000000000000e+000

>  <hb_acceptors>
3.000000000000000e+000

>  <hb_donors>
0.000000000000000e+000

>  <PSA>
4.736000000000001e+001

>  <clusterid>
620

>  <is_centroid>
@

>  <class1>
631

>  <class2>
625

>  <class3>
786

>  <population1>
41612

>  <population2>
877209

>  <population3>
48067

>  <population>
1493

>  <cansmi>
O=C(c1ccc(cc1)n1nc(cc1C)C)N1CCOCC1

>  <HBA2>
5

>  <HBD>
0

>  <logP>
1.8994

>  <TPSA>
47.36

>  <MW>
285.341

$$$$

 OpenBabel02121609142D

 17 19  0  0  0  0  0  0  0  0999 V2000
    0.4292   -0.7500    0.0000 N   0  0  0  0  0  0  0  0  0  0  0  0
   -0.4333   -1.2500    0.0000 C   0  0  0  0  0  0  0  0  0  0  0  0
    0.4292    0.2500    0.0000 C   0  0  3  0  0  0  0  0  0  0  0  0
   -0.4333    0.7500    0.0000 N   0  0  0  0  0  0  0  0  0  0  0  0
   -1.3000   -0.7500    0.0000 C   0  0  0  0  0  0  0  0  0  0  0  0
   -1.3000    0.2500    0.0000 C   0  0  0  0  0  0  0  0  0  0  0  0
   -0.4333   -2.2500    0.0000 O   0  0  0  0  0  0  0  0  0  0  0  0
    1.2917    0.7500    0.0000 C   0  0  0  0  0  0  0  0  0  0  0  0
   -2.1708   -1.2500    0.0000 C   0  0  0  0  0  0  0  0  0  0  0  0
   -2.1708    0.7500    0.0000 C   0  0  0  0  0  0  0  0  0  0  0  0
    2.1625    0.2500    0.0000 C   0  0  0  0  0  0  0  0  0  0  0  0
    1.2917    1.7583    0.0000 C   0  0  0  0  0  0  0  0  0  0  0  0
   -3.0333   -0.7500    0.0000 C   0  0  0  0  0  0  0  0  0  0  0  0
   -3.0333    0.2500    0.0000 C   0  0  0  0  0  0  0  0  0  0  0  0
    2.1625    2.2500    0.0000 C   0  0  0  0  0  0  0  0  0  0  0  0
    3.0292    0.7500    0.0000 C   0  0  0  0  0  0  0  0  0  0  0  0
    3.0292    1.7583    0.0000 C   0  0  0  0  0  0  0  0  0  0  0  0
  2  1  1  0  0  0  0
  3  1  1  0  0  0  0
  4  3  1  0  0  0  0
  5  2  1  0  0  0  0
  6  4  1  0  0  0  0
  6  5  2  0  0  0  0
  7  2  2  0  0  0  0
  8  3  1  0  0  0  0
  9  5  1  0  0  0  0
 10  6  1  0  0  0  0
 11  8  1  0  0  0  0
 12  8  2  0  0  0  0
 13  9  2  0  0  0  0
 14 10  2  0  0  0  0
 14 13  1  0  0  0  0
 15 12  1  0  0  0  0
 16 11  2  0  0  0  0
 16 17  1  0  0  0  0
 17 15  2  0  0  0  0
M  END
>  <idnumber>
T5671140

>  <LogP>
2.320000000000000e+000

>  <rotating_bonds>
1.000000000000000e+000

>  <hb_acceptors>
2.000000000000000e+000

>  <hb_donors>
2.000000000000000e+000

>  <PSA>
4.113000000000000e+001

>  <clusterid>
575

>  <is_centroid>
@

>  <class1>
697

>  <class2>
625

>  <population1>
4727

>  <population2>
877209

>  <population>
4727

>  <cansmi>
O=C1NC(Nc2c1cccc2)c1ccccc1

>  <HBA2>
3

>  <HBD>
2

>  <logP>
3.0075

>  <TPSA>
41.13

>  <MW>
224.258

$$$$

 OpenBabel02121609142D

 21 23  0  0  0  0  0  0  0  0999 V2000
    0.1292   -1.7167    0.0000 C   0  0  0  0  0  0  0  0  0  0  0  0
   -0.4583   -2.5250    0.0000 C   0  0  0  0  0  0  0  0  0  0  0  0
   -1.4083   -2.2167    0.0000 C   0  0  0  0  0  0  0  0  0  0  0  0
    1.1292   -1.7167    0.0000 C   0  0  0  0  0  0  0  0  0  0  0  0
   -1.4083   -1.2167    0.0000 C   0  0  0  0  0  0  0  0  0  0  0  0
   -0.4583   -0.9042    0.0000 C   0  0  0  0  0  0  0  0  0  0  0  0
    2.6292    2.6125    0.0000 C   0  0  0  0  0  0  0  0  0  0  0  0
    3.1292    1.7500    0.0000 N   0  0  0  0  0  0  0  0  0  0  0  0
   -0.1458   -3.4750    0.0000 O   0  0  0  0  0  0  0  0  0  0  0  0
    3.1292    3.4833    0.0000 O   0  0  0  0  0  0  0  0  0  0  0  0
    1.6292   -0.8500    0.0000 C   0  0  0  0  0  0  0  0  0  0  0  0
    2.6292    0.8833    0.0000 C   0  0  0  0  0  0  0  0  0  0  0  0
    1.1292    0.0208    0.0000 C   0  0  0  0  0  0  0  0  0  0  0  0
    2.6292   -0.8500    0.0000 C   0  0  0  0  0  0  0  0  0  0  0  0
    1.6292    0.8833    0.0000 C   0  0  0  0  0  0  0  0  0  0  0  0
    3.1292    0.0208    0.0000 C   0  0  0  0  0  0  0  0  0  0  0  0
   -2.2708   -2.7167    0.0000 C   0  0  0  0  0  0  0  0  0  0  0  0
   -2.2708   -0.7167    0.0000 C   0  0  0  0  0  0  0  0  0  0  0  0
    1.6292    2.6125    0.0000 C   0  0  0  0  0  0  0  0  0  0  0  0
   -3.1375   -2.2167    0.0000 C   0  0  0  0  0  0  0  0  0  0  0  0
   -3.1375   -1.2167    0.0000 C   0  0  0  0  0  0  0  0  0  0  0  0
  2  1  1  0  0  0  0
  3  2  1  0  0  0  0
  4  1  2  0  0  0  0
  5  6  1  0  0  0  0
  5  3  2  0  0  0  0
  6  1  1  0  0  0  0
  7  8  1  0  0  0  0
  8 12  1  0  0  0  0
  9  2  2  0  0  0  0
 10  7  2  0  0  0  0
 11  4  1  0  0  0  0
 12 16  2  0  0  0  0
 12 15  1  0  0  0  0
 13 11  1  0  0  0  0
 14 11  2  0  0  0  0
 15 13  2  0  0  0  0
 16 14  1  0  0  0  0
 17  3  1  0  0  0  0
 18  5  1  0  0  0  0
 19  7  1  0  0  0  0
 20 17  2  0  0  0  0
 21 18  2  0  0  0  0
 21 20  1  0  0  0  0
M  END
>  <idnumber>
T5672231

>  <LogP>
2.858000000000000e+000

>  <rotating_bonds>
2.000000000000000e+000

>  <hb_acceptors>
2.000000000000000e+000

>  <hb_donors>
1.000000000000000e+000

>  <PSA>
4.616999999999997e+001

>  <clusterid>
-1096

>  <is_centroid>
@

>  <class1>
625

>  <class2>
840

>  <population1>
877209

>  <population2>
683

>  <population>
683

>  <cansmi>
CC(=O)Nc1ccc(cc1)/C=C/1\Cc2c(C1=O)cccc2

>  <HBA2>
3

>  <HBD>
1

>  <logP>
3.5404

>  <TPSA>
46.17

>  <MW>
277.317

$$$$

 OpenBabel02121609142D

 22 24  0  0  0  0  0  0  0  0999 V2000
    0.0000    0.0083    0.0000 C   0  0  0  0  0  0  0  0  0  0  0  0
    0.8625   -0.5000    0.0000 N   0  0  0  0  0  0  0  0  0  0  0  0
    0.8625   -1.5000    0.0000 N   0  0  0  0  0  0  0  0  0  0  0  0
    0.0000   -1.9917    0.0000 C   0  0  0  0  0  0  0  0  0  0  0  0
    0.0000    1.0000    0.0000 C   0  0  0  0  0  0  0  0  0  0  0  0
   -0.8708   -0.5000    0.0000 C   0  0  0  0  0  0  0  0  0  0  0  0
   -0.8708   -1.5000    0.0000 C   0  0  0  0  0  0  0  0  0  0  0  0
    0.8625    1.5000    0.0000 N   0  0  0  0  0  0  0  0  0  0  0  0
    0.0000   -3.0000    0.0000 O   0  0  0  0  0  0  0  0  0  0  0  0
   -0.8708    1.5000    0.0000 O   0  0  0  0  0  0  0  0  0  0  0  0
    1.7292   -1.9917    0.0000 C   0  0  0  0  0  0  0  0  0  0  0  0
   -1.7333    0.0083    0.0000 C   0  0  0  0  0  0  0  0  0  0  0  0
   -1.7333   -1.9917    0.0000 C   0  0  0  0  0  0  0  0  0  0  0  0
    1.7292    1.0000    0.0000 C   0  0  0  0  0  0  0  0  0  0  0  0
    0.8625    2.5000    0.0000 C   0  0  0  0  0  0  0  0  0  0  0  0
    1.7292   -3.0000    0.0000 C   0  0  0  0  0  0  0  0  0  0  0  0
    2.5917   -1.5000    0.0000 C   0  0  0  0  0  0  0  0  0  0  0  0
   -2.6000   -0.5000    0.0000 C   0  0  0  0  0  0  0  0  0  0  0  0
   -2.6000   -1.5000    0.0000 C   0  0  0  0  0  0  0  0  0  0  0  0
    1.7292    3.0000    0.0000 C   0  0  0  0  0  0  0  0  0  0  0  0
    2.5917    1.5000    0.0000 C   0  0  0  0  0  0  0  0  0  0  0  0
    2.5917    2.5000    0.0000 C   0  0  0  0  0  0  0  0  0  0  0  0
  2  1  2  0  0  0  0
  3  2  1  0  0  0  0
  3  4  1  0  0  0  0
  4  7  1  0  0  0  0
  5  1  1  0  0  0  0
  6  1  1  0  0  0  0
  7  6  2  0  0  0  0
  8  5  1  0  0  0  0
  9  4  2  0  0  0  0
 10  5  2  0  0  0  0
 11  3  1  0  0  0  0
 12  6  1  0  0  0  0
 13  7  1  0  0  0  0
 13 19  2  0  0  0  0
 14  8  1  0  0  0  0
 15  8  1  0  0  0  0
 16 11  1  0  0  0  0
 17 11  1  0  0  0  0
 18 12  2  0  0  0  0
 19 18  1  0  0  0  0
 20 15  1  0  0  0  0
 21 14  1  0  0  0  0
 21 22  1  0  0  0  0
 22 20  1  0  0  0  0
M  END
>  <idnumber>
T5673671

>  <LogP>
1.364000000000000e+000

>  <rotating_bonds>
2.000000000000000e+000

>  <hb_acceptors>
3.000000000000000e+000

>  <hb_donors>
0.000000000000000e+000

>  <PSA>
5.298000000000000e+001

>  <clusterid>
252

>  <is_centroid>
@

>  <class1>
792

>  <class2>
639

>  <population1>
7197

>  <population2>
59855

>  <population>
288

>  <cansmi>
O=C(c1nn(C(C)C)c(=O)c2c1cccc2)N1CCCCC1

>  <HBA2>
5

>  <HBD>
0

>  <logP>
2.5414

>  <TPSA>
55.2

>  <MW>
299.368

$$$$

 OpenBabel02121609142D

 19 21  0  0  0  0  0  0  0  0999 V2000
   -0.4333    0.5000    0.0000 C   0  0  0  0  0  0  0  0  0  0  0  0
   -1.3000    1.0000    0.0000 C   0  0  0  0  0  0  0  0  0  0  0  0
    0.4292   -0.9917    0.0000 N   0  0  0  0  0  0  0  0  0  0  0  0
   -0.4333   -0.4917    0.0000 C   0  0  0  0  0  0  0  0  0  0  0  0
    0.4292    1.0000    0.0000 C   0  0  0  0  0  0  0  0  0  0  0  0
   -1.3000    2.0000    0.0000 C   0  0  0  0  0  0  0  0  0  0  0  0
    0.4292    2.0000    0.0000 C   0  0  0  0  0  0  0  0  0  0  0  0
   -0.4333    2.5000    0.0000 C   0  0  0  0  0  0  0  0  0  0  0  0
    2.1625   -0.9917    0.0000 C   0  0  0  0  0  0  0  0  0  0  0  0
    1.2917   -2.5000    0.0000 C   0  0  0  0  0  0  0  0  0  0  0  0
    0.4292   -2.0000    0.0000 C   0  0  0  0  0  0  0  0  0  0  0  0
    1.2917   -0.4917    0.0000 C   0  0  0  0  0  0  0  0  0  0  0  0
    2.1625   -2.0000    0.0000 C   0  0  0  0  0  0  0  0  0  0  0  0
    1.2917    0.5000    0.0000 O   0  0  0  0  0  0  0  0  0  0  0  0
    3.0292   -2.5000    0.0000 O   0  0  0  0  0  0  0  0  0  0  0  0
   -2.1708    0.5000    0.0000 C   0  0  0  0  0  0  0  0  0  0  0  0
   -2.1708    2.5000    0.0000 C   0  0  0  0  0  0  0  0  0  0  0  0
   -3.0333    1.0000    0.0000 C   0  0  0  0  0  0  0  0  0  0  0  0
   -3.0333    2.0000    0.0000 C   0  0  0  0  0  0  0  0  0  0  0  0
  2  1  2  0  0  0  0
  3  4  1  0  0  0  0
  4  1  1  0  0  0  0
  5  1  1  0  0  0  0
  6  2  1  0  0  0  0
  6  8  2  0  0  0  0
  7  5  2  0  0  0  0
  8  7  1  0  0  0  0
  9 12  1  0  0  0  0
 10 11  1  0  0  0  0
 10 13  1  0  0  0  0
 11  3  1  0  0  0  0
 12  3  1  0  0  0  0
 13  9  1  0  0  0  0
 14  5  1  0  0  0  0
 15 13  1  0  0  0  0
 16  2  1  0  0  0  0
 17  6  1  0  0  0  0
 17 19  2  0  0  0  0
 18 16  2  0  0  0  0
 19 18  1  0  0  0  0
M  END
>  <idnumber>
T5673720

>  <LogP>
1.539000000000000e+000

>  <rotating_bonds>
2.000000000000000e+000

>  <hb_acceptors>
3.000000000000000e+000

>  <hb_donors>
2.000000000000000e+000

>  <PSA>
4.370000000000000e+001

>  <clusterid>
625

>  <is_centroid>
@

>  <class1>
796

>  <class2>
639

>  <population1>
21922

>  <population2>
59855

>  <population>
1232

>  <cansmi>
OC1CCN(CC1)Cc1c(O)ccc2c1cccc2

>  <HBA2>
3

>  <HBD>
2

>  <logP>
2.44

>  <TPSA>
43.7

>  <MW>
257.328

$$$$

 OpenBabel02121609142D

 15 15  0  0  0  0  0  0  0  0999 V2000
    0.1292   -0.5000    0.0000 C   0  0  0  0  0  0  0  0  0  0  0  0
    0.1292    0.5083    0.0000 N   0  0  0  0  0  0  0  0  0  0  0  0
    1.0000   -1.0000    0.0000 N   0  0  0  0  0  0  0  0  0  0  0  0
   -0.7333   -1.0000    0.0000 O   0  0  0  0  0  0  0  0  0  0  0  0
    0.1292    2.5000    0.0000 N   0  0  0  0  0  0  0  0  0  0  0  0
    2.7292   -2.0000    0.0000 O   0  0  0  0  0  0  0  0  0  0  0  0
   -2.7333   -0.1042    0.0000 Cl  0  0  0  0  0  0  0  0  0  0  0  0
    1.0000    1.0000    0.0000 C   0  0  0  0  0  0  0  0  0  0  0  0
   -0.7333    1.0000    0.0000 C   0  0  0  0  0  0  0  0  0  0  0  0
    1.0000   -2.0000    0.0000 C   0  0  0  0  0  0  0  0  0  0  0  0
    1.8625   -0.5000    0.0000 C   0  0  0  0  0  0  0  0  0  0  0  0
   -0.7333    2.0000    0.0000 C   0  0  0  0  0  0  0  0  0  0  0  0
    1.0000    2.0000    0.0000 C   0  0  0  0  0  0  0  0  0  0  0  0
    2.7292   -1.0000    0.0000 C   0  0  0  0  0  0  0  0  0  0  0  0
    1.8625   -2.5000    0.0000 C   0  0  0  0  0  0  0  0  0  0  0  0
  2  1  1  0  0  0  0
  3  1  1  0  0  0  0
  4  1  2  0  0  0  0
  5 12  1  0  0  0  0
  6 14  1  0  0  0  0
  8  2  1  0  0  0  0
  9  2  1  0  0  0  0
 10  3  1  0  0  0  0
 11  3  1  0  0  0  0
 12  9  1  0  0  0  0
 13  8  1  0  0  0  0
 13  5  1  0  0  0  0
 14 11  1  0  0  0  0
 15 10  1  0  0  0  0
 15  6  1  0  0  0  0
M  END
>  <idnumber>
T5674389

>  <LogP>
4.440000000000000e-001

>  <rotating_bonds>
0.000000000000000e+000

>  <hb_acceptors>
3.000000000000000e+000

>  <hb_donors>
1.000000000000000e+000

>  <PSA>
4.481000000000002e+001

>  <clusterid>
-1098

>  <is_centroid>
@

>  <class1>
717

>  <class2>
786

>  <population1>
74368

>  <population2>
48067

>  <population>
1763

>  <cansmi>
O=C(N1CCOCC1)N1CCNCC1.Cl

>  <HBA2>
5

>  <HBD>
2

>  <logP>
0.3504

>  <TPSA>
44.81

>  <MW>
235.711

$$$$

 OpenBabel02121609142D

 14 15  0  0  0  0  0  0  0  0999 V2000
   -1.0708   -0.5000    0.0000 C   0  0  0  0  0  0  0  0  0  0  0  0
   -1.0708    0.5000    0.0000 C   0  0  0  0  0  0  0  0  0  0  0  0
   -1.8583   -1.1167    0.0000 O   0  0  0  0  0  0  0  0  0  0  0  0
   -1.8583    1.1250    0.0000 O   0  0  0  0  0  0  0  0  0  0  0  0
   -0.2083   -1.0000    0.0000 C   0  0  0  0  0  0  0  0  0  0  0  0
   -0.2083    1.0000    0.0000 C   0  0  0  0  0  0  0  0  0  0  0  0
    0.6542   -0.5000    0.0000 C   0  0  0  0  0  0  0  0  0  0  0  0
    0.6542    0.5000    0.0000 C   0  0  0  0  0  0  0  0  0  0  0  0
    3.2542   -1.0000    0.0000 N   0  0  0  0  0  0  0  0  0  0  0  0
   -3.2625    0.0000    0.0000 C   0  0  0  0  0  0  0  0  0  0  0  0
   -2.8333   -0.9000    0.0000 C   0  0  0  0  0  0  0  0  0  0  0  0
   -2.8333    0.9083    0.0000 C   0  0  0  0  0  0  0  0  0  0  0  0
    2.3917   -0.5000    0.0000 C   0  0  0  0  0  0  0  0  0  0  0  0
    1.5250   -1.0000    0.0000 C   0  0  0  0  0  0  0  0  0  0  0  0
  2  1  2  0  0  0  0
  3  1  1  0  0  0  0
  4  2  1  0  0  0  0
  5  1  1  0  0  0  0
  6  2  1  0  0  0  0
  7  5  2  0  0  0  0
  8  7  1  0  0  0  0
  8  6  2  0  0  0  0
  9 13  1  0  0  0  0
 10 11  1  0  0  0  0
 11  3  1  0  0  0  0
 12  4  1  0  0  0  0
 12 10  1  0  0  0  0
 13 14  1  0  0  0  0
 14  7  1  0  0  0  0
M  END
>  <idnumber>
T5674418

>  <LogP>
1.516000000000000e+000

>  <rotating_bonds>
2.000000000000000e+000

>  <hb_acceptors>
3.000000000000000e+000

>  <hb_donors>
1.000000000000000e+000

>  <PSA>
4.448000000000000e+001

>  <clusterid>
-1100

>  <is_centroid>
@

>  <class1>
820

>  <population1>
6542

>  <population>
6542

>  <cansmi>
NCCc1ccc2c(c1)OCCCO2

>  <HBA2>
3

>  <HBD>
1

>  <logP>
2.0494

>  <TPSA>
44.48

>  <MW>
193.242

$$$$

 OpenBabel02121609142D

 18 19  0  0  0  0  0  0  0  0999 V2000
    0.6125   -0.3625    0.0000 C   0  0  0  0  0  0  0  0  0  0  0  0
    0.0250    0.4458    0.0000 N   0  0  0  0  0  0  0  0  0  0  0  0
    0.0250   -1.1750    0.0000 N   0  0  0  0  0  0  0  0  0  0  0  0
    1.6125   -0.3625    0.0000 C   0  0  0  0  0  0  0  0  0  0  0  0
    2.1125    0.5000    0.0000 C   0  0  0  0  0  0  0  0  0  0  0  0
    3.1125    0.5000    0.0000 C   0  0  0  0  0  0  0  0  0  0  0  0
   -0.9250    0.1375    0.0000 C   0  0  0  0  0  0  0  0  0  0  0  0
   -0.9250   -0.8625    0.0000 C   0  0  0  0  0  0  0  0  0  0  0  0
    3.7000    1.3125    0.0000 O   0  0  0  0  0  0  0  0  0  0  0  0
    3.7000   -0.3042    0.0000 C   0  0  0  0  0  0  0  0  0  0  0  0
    4.6542    1.0000    0.0000 C   0  0  0  0  0  0  0  0  0  0  0  0
    1.6125    1.3708    0.0000 O   0  0  0  0  0  0  0  0  0  0  0  0
    4.6542    0.0000    0.0000 C   0  0  0  0  0  0  0  0  0  0  0  0
   -4.6583    0.0458    0.0000 Cl  0  0  0  0  0  0  0  0  0  0  0  0
   -1.7958    0.6375    0.0000 C   0  0  0  0  0  0  0  0  0  0  0  0
   -1.7958   -1.3625    0.0000 C   0  0  0  0  0  0  0  0  0  0  0  0
   -2.6583    0.1375    0.0000 C   0  0  0  0  0  0  0  0  0  0  0  0
   -2.6583   -0.8625    0.0000 C   0  0  0  0  0  0  0  0  0  0  0  0
  2  1  2  0  0  0  0
  3  1  1  0  0  0  0
  4  1  1  0  0  0  0
  5  4  1  0  0  0  0
  6  5  1  0  0  0  0
  7  2  1  0  0  0  0
  7  8  2  0  0  0  0
  8  3  1  0  0  0  0
  9  6  1  0  0  0  0
 10  6  2  0  0  0  0
 11  9  1  0  0  0  0
 12  5  2  0  0  0  0
 13 10  1  0  0  0  0
 13 11  2  0  0  0  0
 15  7  1  0  0  0  0
 16  8  1  0  0  0  0
 17 15  2  0  0  0  0
 17 18  1  0  0  0  0
 18 16  2  0  0  0  0
M  END
>  <idnumber>
T5674455

>  <LogP>
1.948000000000000e+000

>  <rotating_bonds>
3.000000000000000e+000

>  <hb_acceptors>
2.000000000000000e+000

>  <hb_donors>
1.000000000000000e+000

>  <PSA>
5.889000000000000e+001

>  <clusterid>
-1102

>  <is_centroid>
@

>  <class1>
704

>  <class2>
685

>  <population1>
51112

>  <population2>
28767

>  <population>
990

>  <cansmi>
O=C(c1ccco1)Cc1nc2c([nH]1)cccc2.Cl

>  <HBA2>
3

>  <HBD>
2

>  <logP>
3.3833

>  <TPSA>
58.89

>  <MW>
262.692

$$$$

 OpenBabel02121609142D

 20 22  0  0  0  0  0  0  0  0999 V2000
    0.4292   -1.2500    0.0000 C   0  0  0  0  0  0  0  0  0  0  0  0
    1.2917   -1.7500    0.0000 N   0  0  0  0  0  0  0  0  0  0  0  0
   -1.3000    1.7583    0.0000 C   0  0  0  0  0  0  0  0  0  0  0  0
   -0.4333    0.2583    0.0000 O   0  0  0  0  0  0  0  0  0  0  0  0
    0.4292   -0.2500    0.0000 C   0  0  0  0  0  0  0  0  0  0  0  0
   -0.4333    1.2583    0.0000 C   0  0  0  0  0  0  0  0  0  0  0  0
   -0.4333   -1.7500    0.0000 O   0  0  0  0  0  0  0  0  0  0  0  0
    3.0292   -2.7500    0.0000 O   0  0  0  0  0  0  0  0  0  0  0  0
   -1.3000    2.7583    0.0000 C   0  0  0  0  0  0  0  0  0  0  0  0
    1.2917   -2.7500    0.0000 C   0  0  0  0  0  0  0  0  0  0  0  0
    2.1625   -1.2500    0.0000 C   0  0  0  0  0  0  0  0  0  0  0  0
    0.4292    2.7583    0.0000 C   0  0  0  0  0  0  0  0  0  0  0  0
    0.4292    1.7583    0.0000 C   0  0  0  0  0  0  0  0  0  0  0  0
    3.0292   -1.7500    0.0000 C   0  0  0  0  0  0  0  0  0  0  0  0
    2.1625   -3.2500    0.0000 C   0  0  0  0  0  0  0  0  0  0  0  0
   -2.1708    1.2583    0.0000 C   0  0  0  0  0  0  0  0  0  0  0  0
   -0.4333    3.2583    0.0000 C   0  0  0  0  0  0  0  0  0  0  0  0
   -2.1708    3.2583    0.0000 C   0  0  0  0  0  0  0  0  0  0  0  0
   -3.0333    1.7583    0.0000 C   0  0  0  0  0  0  0  0  0  0  0  0
   -3.0333    2.7583    0.0000 C   0  0  0  0  0  0  0  0  0  0  0  0
  2  1  1  0  0  0  0
  3  6  2  0  0  0  0
  4  5  1  0  0  0  0
  5  1  1  0  0  0  0
  6  4  1  0  0  0  0
  7  1  2  0  0  0  0
  8 14  1  0  0  0  0
  9  3  1  0  0  0  0
  9 17  2  0  0  0  0
 10  2  1  0  0  0  0
 11  2  1  0  0  0  0
 12 13  2  0  0  0  0
 13  6  1  0  0  0  0
 14 11  1  0  0  0  0
 15 10  1  0  0  0  0
 15  8  1  0  0  0  0
 16  3  1  0  0  0  0
 17 12  1  0  0  0  0
 18  9  1  0  0  0  0
 18 20  2  0  0  0  0
 19 16  2  0  0  0  0
 20 19  1  0  0  0  0
M  END
>  <idnumber>
T5674733

>  <LogP>
2.546000000000000e+000

>  <rotating_bonds>
3.000000000000000e+000

>  <hb_acceptors>
3.000000000000000e+000

>  <hb_donors>
0.000000000000000e+000

>  <PSA>
3.877000000000000e+001

>  <clusterid>
261

>  <is_centroid>
@

>  <class1>
796

>  <class2>
786

>  <population1>
21922

>  <population2>
48067

>  <population>
803

>  <cansmi>
O=C(N1CCOCC1)COc1cccc2c1cccc2

>  <HBA2>
4

>  <HBD>
0

>  <logP>
2.0153

>  <TPSA>
38.77

>  <MW>
271.311

$$$$

 OpenBabel02121609142D

 18 20  0  0  0  0  0  0  0  0999 V2000
    0.1292    0.4208    0.0000 N   0  0  0  0  0  0  0  0  0  0  0  0
   -0.4583   -0.3875    0.0000 C   0  0  0  0  0  0  0  0  0  0  0  0
   -0.4583    1.2333    0.0000 C   0  0  0  0  0  0  0  0  0  0  0  0
   -1.4083    0.9208    0.0000 C   0  0  3  0  0  0  0  0  0  0  0  0
   -1.4083   -0.0792    0.0000 C   0  0  3  0  0  0  0  0  0  0  0  0
    1.1292    0.4208    0.0000 C   0  0  0  0  0  0  0  0  0  0  0  0
   -0.1458    2.1833    0.0000 O   0  0  0  0  0  0  0  0  0  0  0  0
   -0.1458   -1.3375    0.0000 O   0  0  0  0  0  0  0  0  0  0  0  0
   -3.1375   -0.0792    0.0000 C   0  0  0  0  0  0  0  0  0  0  0  0
   -3.1375    0.9208    0.0000 C   0  0  0  0  0  0  0  0  0  0  0  0
   -2.2708   -0.5792    0.0000 C   0  0  0  0  0  0  0  0  0  0  0  0
   -2.2708    1.4208    0.0000 C   0  0  0  0  0  0  0  0  0  0  0  0
    1.6292   -0.4417    0.0000 C   0  0  0  0  0  0  0  0  0  0  0  0
    1.1292   -1.3125    0.0000 C   0  0  0  0  0  0  0  0  0  0  0  0
    2.6292   -0.4417    0.0000 C   0  0  0  0  0  0  0  0  0  0  0  0
    3.1292   -1.3125    0.0000 C   0  0  0  0  0  0  0  0  0  0  0  0
    1.6292   -2.1750    0.0000 C   0  0  0  0  0  0  0  0  0  0  0  0
    2.6292   -2.1750    0.0000 C   0  0  0  0  0  0  0  0  0  0  0  0
  2  1  1  0  0  0  0
  3  1  1  0  0  0  0
  4  3  1  0  0  0  0
  4  5  1  0  0  0  0
  5  2  1  0  0  0  0
  6  1  1  0  0  0  0
  7  3  2  0  0  0  0
  8  2  2  0  0  0  0
  9 11  1  0  0  0  0
 10 12  1  0  0  0  0
 10  9  2  0  0  0  0
 11  5  1  0  0  0  0
 12  4  1  0  0  0  0
 13  6  1  0  0  0  0
 14 13  1  0  0  0  0
 15 13  2  0  0  0  0
 16 15  1  0  0  0  0
 17 14  2  0  0  0  0
 17 18  1  0  0  0  0
 18 16  2  0  0  0  0
M  END
>  <idnumber>
T5674734

>  <LogP>
1.920000000000000e+000

>  <rotating_bonds>
2.000000000000000e+000

>  <hb_acceptors>
2.000000000000000e+000

>  <hb_donors>
0.000000000000000e+000

>  <PSA>
3.738000000000000e+001

>  <clusterid>
518

>  <is_centroid>
@

>  <class1>
625

>  <class2>
804

>  <population1>
877209

>  <population2>
1311

>  <population>
1063

>  <cansmi>
O=C1C2CC=CCC2C(=O)N1Cc1ccccc1

>  <HBA2>
3

>  <HBD>
0

>  <logP>
2.0757

>  <TPSA>
37.38

>  <MW>
241.285

$$$$

 OpenBabel02121609142D

 22 24  0  0  0  0  0  0  0  0999 V2000
   -0.9833    1.5458    0.0000 C   0  0  0  0  0  0  0  0  0  0  0  0
   -0.9833    0.5458    0.0000 C   0  0  0  0  0  0  0  0  0  0  0  0
   -1.8458    2.0458    0.0000 N   0  0  0  0  0  0  0  0  0  0  0  0
   -2.7125    0.5458    0.0000 N   0  0  0  0  0  0  0  0  0  0  0  0
   -2.7125    1.5458    0.0000 C   0  0  0  0  0  0  0  0  0  0  0  0
   -1.8458    0.0458    0.0000 C   0  0  0  0  0  0  0  0  0  0  0  0
   -0.0333    1.8500    0.0000 N   0  0  0  0  0  0  0  0  0  0  0  0
   -0.0333    0.2333    0.0000 N   0  0  0  0  0  0  0  0  0  0  0  0
    0.5542    1.0458    0.0000 C   0  0  0  0  0  0  0  0  0  0  0  0
    0.2792   -0.7167    0.0000 C   0  0  0  0  0  0  0  0  0  0  0  0
   -3.5833    2.0458    0.0000 O   0  0  0  0  0  0  0  0  0  0  0  0
   -1.8458   -0.9542    0.0000 O   0  0  0  0  0  0  0  0  0  0  0  0
    1.2542   -0.9250    0.0000 C   0  0  0  0  0  0  0  0  0  0  0  0
   -1.8458    3.0458    0.0000 C   0  0  0  0  0  0  0  0  0  0  0  0
   -3.5833    0.0458    0.0000 C   0  0  0  0  0  0  0  0  0  0  0  0
    2.9042   -0.3917    0.0000 C   0  0  0  0  0  0  0  0  0  0  0  0
    2.5417   -2.0875    0.0000 C   0  0  0  0  0  0  0  0  0  0  0  0
    1.9250   -0.1792    0.0000 C   0  0  0  0  0  0  0  0  0  0  0  0
    1.5667   -1.8792    0.0000 C   0  0  0  0  0  0  0  0  0  0  0  0
    3.2125   -1.3417    0.0000 C   0  0  0  0  0  0  0  0  0  0  0  0
    3.5750    0.3500    0.0000 C   0  0  0  0  0  0  0  0  0  0  0  0
    2.8542   -3.0375    0.0000 C   0  0  0  0  0  0  0  0  0  0  0  0
  2  1  2  0  0  0  0
  3  1  1  0  0  0  0
  4  5  1  0  0  0  0
  5  3  1  0  0  0  0
  6  2  1  0  0  0  0
  6  4  1  0  0  0  0
  7  1  1  0  0  0  0
  8  2  1  0  0  0  0
  8  9  1  0  0  0  0
  9  7  2  0  0  0  0
 10  8  1  0  0  0  0
 11  5  2  0  0  0  0
 12  6  2  0  0  0  0
 13 10  1  0  0  0  0
 14  3  1  0  0  0  0
 15  4  1  0  0  0  0
 16 18  1  0  0  0  0
 17 19  2  0  0  0  0
 18 13  2  0  0  0  0
 19 13  1  0  0  0  0
 20 17  1  0  0  0  0
 20 16  2  0  0  0  0
 21 16  1  0  0  0  0
 22 17  1  0  0  0  0
M  END
>  <idnumber>
T5674944

>  <LogP>
2.726000000000000e+000

>  <rotating_bonds>
2.000000000000000e+000

>  <hb_acceptors>
3.000000000000000e+000

>  <hb_donors>
0.000000000000000e+000

>  <PSA>
5.844000000000000e+001

>  <clusterid>
508

>  <is_centroid>
@

>  <class1>
625

>  <class2>
681

>  <population1>
877209

>  <population2>
12892

>  <population>
10409

>  <cansmi>
Cc1cc(C)cc(c1)Cn1cnc2c1c(=O)n(C)c(=O)n2C

>  <HBA2>
6

>  <HBD>
0

>  <logP>
1.0988

>  <TPSA>
61.82

>  <MW>
298.34

$$$$

 OpenBabel02121609142D

 16 17  0  0  0  0  0  0  0  0999 V2000
   -0.0083    0.0000    0.0000 C   0  0  0  0  0  0  0  0  0  0  0  0
    0.8625   -0.5000    0.0000 C   0  0  0  0  0  0  0  0  0  0  0  0
   -0.0083    1.0000    0.0000 N   0  0  0  0  0  0  0  0  0  0  0  0
   -0.8708    1.5000    0.0000 C   0  0  0  0  0  0  0  0  0  0  0  0
    2.5917   -0.5000    0.0000 N   0  0  0  0  0  0  0  0  0  0  0  0
    0.8625   -1.5000    0.0000 C   0  0  0  0  0  0  0  0  0  0  0  0
   -1.7333    1.0000    0.0000 N   0  0  0  0  0  0  0  0  0  0  0  0
   -0.8708   -0.5000    0.0000 O   0  0  0  0  0  0  0  0  0  0  0  0
    1.7292    0.0000    0.0000 C   0  0  0  0  0  0  0  0  0  0  0  0
    1.7292   -1.9917    0.0000 C   0  0  0  0  0  0  0  0  0  0  0  0
    1.7292   -2.9917    0.0000 Br  0  0  0  0  0  0  0  0  0  0  0  0
    2.5917   -1.5000    0.0000 C   0  0  0  0  0  0  0  0  0  0  0  0
   -2.6000    1.5000    0.0000 C   0  0  0  0  0  0  0  0  0  0  0  0
   -0.8708    2.5000    0.0000 C   0  0  0  0  0  0  0  0  0  0  0  0
   -2.6000    2.5000    0.0000 C   0  0  0  0  0  0  0  0  0  0  0  0
   -1.7333    3.0000    0.0000 C   0  0  0  0  0  0  0  0  0  0  0  0
  2  1  1  0  0  0  0
  3  1  1  0  0  0  0
  4  3  1  0  0  0  0
  5  9  1  0  0  0  0
  6  2  1  0  0  0  0
  7  4  2  0  0  0  0
  8  1  2  0  0  0  0
  9  2  2  0  0  0  0
 10  6  2  0  0  0  0
 10 12  1  0  0  0  0
 11 10  1  0  0  0  0
 12  5  2  0  0  0  0
 13  7  1  0  0  0  0
 13 15  2  0  0  0  0
 14  4  1  0  0  0  0
 15 16  1  0  0  0  0
 16 14  2  0  0  0  0
M  END
>  <idnumber>
T5675953

>  <LogP>
1.703000000000000e+000

>  <rotating_bonds>
2.000000000000000e+000

>  <hb_acceptors>
3.000000000000000e+000

>  <hb_donors>
1.000000000000000e+000

>  <PSA>
5.488000000000000e+001

>  <clusterid>
163

>  <is_centroid>
@

>  <class1>
632

>  <class2>
632

>  <population1>
79489

>  <population2>
79489

>  <population>
79489

>  <cansmi>
Brc1cncc(c1)C(=O)Nc1ccccn1

>  <HBA2>
4

>  <HBD>
1

>  <logP>
2.5644

>  <TPSA>
54.88

>  <MW>
278.105

$$$$

 OpenBabel02121609142D

 21 23  0  0  0  0  0  0  0  0999 V2000
    0.4292    0.2500    0.0000 N   0  0  0  0  0  0  0  0  0  0  0  0
    0.4292    1.2500    0.0000 C   0  0  0  0  0  0  0  0  0  0  0  0
    0.4292   -1.7500    0.0000 N   0  0  0  0  0  0  0  0  0  0  0  0
    0.4292   -2.7500    0.0000 C   0  0  0  0  0  0  0  0  0  0  0  0
    1.2917   -3.2500    0.0000 N   0  0  0  0  0  0  0  0  0  0  0  0
   -0.4333    1.7500    0.0000 C   0  0  0  0  0  0  0  0  0  0  0  0
   -0.4333   -0.2500    0.0000 C   0  0  0  0  0  0  0  0  0  0  0  0
    1.2917   -0.2500    0.0000 C   0  0  0  0  0  0  0  0  0  0  0  0
    1.2917   -1.2500    0.0000 C   0  0  0  0  0  0  0  0  0  0  0  0
   -0.4333   -1.2500    0.0000 C   0  0  0  0  0  0  0  0  0  0  0  0
    1.2917    1.7500    0.0000 O   0  0  0  0  0  0  0  0  0  0  0  0
   -0.4333    2.7583    0.0000 C   0  0  0  0  0  0  0  0  0  0  0  0
   -0.4333   -3.2500    0.0000 C   0  0  0  0  0  0  0  0  0  0  0  0
    1.2917   -4.2500    0.0000 C   0  0  0  0  0  0  0  0  0  0  0  0
    0.4292    3.2583    0.0000 C   0  0  0  0  0  0  0  0  0  0  0  0
   -1.3000    3.2583    0.0000 C   0  0  0  0  0  0  0  0  0  0  0  0
   -0.4333   -4.2500    0.0000 C   0  0  0  0  0  0  0  0  0  0  0  0
    0.4292   -4.7500    0.0000 C   0  0  0  0  0  0  0  0  0  0  0  0
   -1.3000    4.2500    0.0000 C   0  0  0  0  0  0  0  0  0  0  0  0
    0.4292    4.2500    0.0000 C   0  0  0  0  0  0  0  0  0  0  0  0
   -0.4333    4.7500    0.0000 C   0  0  0  0  0  0  0  0  0  0  0  0
  2  1  1  0  0  0  0
  3  9  1  0  0  0  0
  4  3  1  0  0  0  0
  5  4  2  0  0  0  0
  6  2  1  0  0  0  0
  7  1  1  0  0  0  0
  8  1  1  0  0  0  0
  9  8  1  0  0  0  0
 10  7  1  0  0  0  0
 10  3  1  0  0  0  0
 11  2  2  0  0  0  0
 12  6  1  0  0  0  0
 13  4  1  0  0  0  0
 14  5  1  0  0  0  0
 14 18  2  0  0  0  0
 15 12  1  0  0  0  0
 16 12  2  0  0  0  0
 17 13  2  0  0  0  0
 18 17  1  0  0  0  0
 19 16  1  0  0  0  0
 20 15  2  0  0  0  0
 20 21  1  0  0  0  0
 21 19  2  0  0  0  0
M  END
>  <idnumber>
T5676113

>  <LogP>
2.917000000000000e+000

>  <rotating_bonds>
3.000000000000000e+000

>  <hb_acceptors>
3.000000000000000e+000

>  <hb_donors>
0.000000000000000e+000

>  <PSA>
3.644000000000000e+001

>  <clusterid>
-1106

>  <is_centroid>
@

>  <class1>
717

>  <class2>
632

>  <class3>
625

>  <population1>
74368

>  <population2>
79489

>  <population3>
877209

>  <population>
5587

>  <cansmi>
O=C(N1CCN(CC1)c1ccccn1)Cc1ccccc1

>  <HBA2>
4

>  <HBD>
0

>  <logP>
1.9758

>  <TPSA>
36.44

>  <MW>
281.352

$$$$

 OpenBabel02121609142D

 18 20  0  0  0  0  0  0  0  0999 V2000
   -0.1083    1.1083    0.0000 N   0  0  0  0  0  0  0  0  0  0  0  0
    0.2042    0.1583    0.0000 C   0  0  0  0  0  0  0  0  0  0  0  0
   -1.0583    1.4125    0.0000 C   0  0  0  0  0  0  0  0  0  0  0  0
    1.1792   -0.0542    0.0000 N   0  0  0  0  0  0  0  0  0  0  0  0
    0.4875    1.9125    0.0000 C   0  0  0  0  0  0  0  0  0  0  0  0
   -0.4625   -0.5917    0.0000 O   0  0  0  0  0  0  0  0  0  0  0  0
   -1.0583    2.4125    0.0000 C   0  0  0  0  0  0  0  0  0  0  0  0
   -0.1083    2.7208    0.0000 C   0  0  0  0  0  0  0  0  0  0  0  0
    2.7792   -2.1667    0.0000 N   0  0  0  0  0  0  0  0  0  0  0  0
    1.4917   -1.0042    0.0000 C   0  0  0  0  0  0  0  0  0  0  0  0
   -1.9208    0.9125    0.0000 C   0  0  0  0  0  0  0  0  0  0  0  0
    2.4667   -1.2125    0.0000 C   0  0  0  0  0  0  0  0  0  0  0  0
    2.1125   -2.9042    0.0000 C   0  0  0  0  0  0  0  0  0  0  0  0
   -1.9208    2.9125    0.0000 C   0  0  0  0  0  0  0  0  0  0  0  0
    0.8250   -1.7500    0.0000 C   0  0  0  0  0  0  0  0  0  0  0  0
   -2.7833    1.4125    0.0000 C   0  0  0  0  0  0  0  0  0  0  0  0
    1.1292   -2.7000    0.0000 C   0  0  0  0  0  0  0  0  0  0  0  0
   -2.7833    2.4125    0.0000 C   0  0  0  0  0  0  0  0  0  0  0  0
  2  1  1  0  0  0  0
  3  1  1  0  0  0  0
  4  2  1  0  0  0  0
  5  1  1  0  0  0  0
  6  2  2  0  0  0  0
  7  3  2  0  0  0  0
  8  5  1  0  0  0  0
  8  7  1  0  0  0  0
  9 12  1  0  0  0  0
  9 13  2  0  0  0  0
 10  4  1  0  0  0  0
 11  3  1  0  0  0  0
 12 10  2  0  0  0  0
 13 17  1  0  0  0  0
 14  7  1  0  0  0  0
 14 18  2  0  0  0  0
 15 10  1  0  0  0  0
 16 11  2  0  0  0  0
 17 15  2  0  0  0  0
 18 16  1  0  0  0  0
M  END
>  <idnumber>
T5676593

>  <LogP>
2.636000000000000e+000

>  <rotating_bonds>
1.000000000000000e+000

>  <hb_acceptors>
2.000000000000000e+000

>  <hb_donors>
1.000000000000000e+000

>  <PSA>
4.523000000000000e+001

>  <clusterid>
-1108

>  <is_centroid>
@

>  <class1>
732

>  <class2>
632

>  <population1>
13534

>  <population2>
79489

>  <population>
631

>  <cansmi>
O=C(N1CCc2c1cccc2)Nc1cccnc1

>  <HBA2>
4

>  <HBD>
1

>  <logP>
2.8142

>  <TPSA>
45.23

>  <MW>
239.273

$$$$

 OpenBabel02121609142D

 20 22  0  0  0  0  0  0  0  0999 V2000
    1.2917    0.2500    0.0000 C   0  0  0  0  0  0  0  0  0  0  0  0
   -1.3000    1.7500    0.0000 C   0  0  0  0  0  0  0  0  0  0  0  0
   -0.4333    1.2500    0.0000 C   0  0  0  0  0  0  0  0  0  0  0  0
    1.2917    1.2500    0.0000 N   0  0  0  0  0  0  0  0  0  0  0  0
   -1.3000    2.7500    0.0000 C   0  0  0  0  0  0  0  0  0  0  0  0
    0.4292    1.7500    0.0000 C   0  0  0  0  0  0  0  0  0  0  0  0
   -2.1708    1.2500    0.0000 O   0  0  0  0  0  0  0  0  0  0  0  0
   -2.1708    3.2583    0.0000 O   0  0  0  0  0  0  0  0  0  0  0  0
    0.4292   -0.2500    0.0000 O   0  0  0  0  0  0  0  0  0  0  0  0
   -0.4333    3.2583    0.0000 C   0  0  0  0  0  0  0  0  0  0  0  0
    2.1625   -0.2500    0.0000 C   0  0  0  0  0  0  0  0  0  0  0  0
    0.4292    2.7500    0.0000 C   0  0  0  0  0  0  0  0  0  0  0  0
    2.1625   -1.2500    0.0000 C   0  0  0  0  0  0  0  0  0  0  0  0
   -3.0333    1.7500    0.0000 C   0  0  0  0  0  0  0  0  0  0  0  0
   -3.0333    2.7500    0.0000 C   0  0  0  0  0  0  0  0  0  0  0  0
    3.0292   -1.7500    0.0000 C   0  0  0  0  0  0  0  0  0  0  0  0
    1.2917   -1.7500    0.0000 C   0  0  0  0  0  0  0  0  0  0  0  0
    1.2917   -2.7500    0.0000 C   0  0  0  0  0  0  0  0  0  0  0  0
    3.0292   -2.7500    0.0000 C   0  0  0  0  0  0  0  0  0  0  0  0
    2.1625   -3.2500    0.0000 C   0  0  0  0  0  0  0  0  0  0  0  0
  2  3  1  0  0  0  0
  2  5  2  0  0  0  0
  3  6  2  0  0  0  0
  4  1  1  0  0  0  0
  5 10  1  0  0  0  0
  6  4  1  0  0  0  0
  7  2  1  0  0  0  0
  8  5  1  0  0  0  0
  9  1  2  0  0  0  0
 10 12  2  0  0  0  0
 11  1  1  0  0  0  0
 12  6  1  0  0  0  0
 13 11  1  0  0  0  0
 14  7  1  0  0  0  0
 15  8  1  0  0  0  0
 15 14  1  0  0  0  0
 16 13  2  0  0  0  0
 17 13  1  0  0  0  0
 18 17  2  0  0  0  0
 19 16  1  0  0  0  0
 19 20  2  0  0  0  0
 20 18  1  0  0  0  0
M  END
>  <idnumber>
T5676614

>  <LogP>
2.715000000000000e+000

>  <rotating_bonds>
3.000000000000000e+000

>  <hb_acceptors>
3.000000000000000e+000

>  <hb_donors>
1.000000000000000e+000

>  <PSA>
4.756000000000000e+001

>  <clusterid>
631

>  <is_centroid>
@

>  <class1>
625

>  <class2>
730

>  <population1>
877209

>  <population2>
20896

>  <population>
20896

>  <cansmi>
O=C(Cc1ccccc1)Nc1ccc2c(c1)OCCO2

>  <HBA2>
4

>  <HBD>
1

>  <logP>
2.712

>  <TPSA>
47.56

>  <MW>
269.295

$$$$

 OpenBabel02121609142D

 20 22  0  0  0  0  0  0  0  0999 V2000
   -0.6208    0.0000    0.0000 N   0  0  0  0  0  0  0  0  0  0  0  0
   -1.2083    0.8125    0.0000 C   0  0  0  0  0  0  0  0  0  0  0  0
   -1.2083   -0.8042    0.0000 C   0  0  0  0  0  0  0  0  0  0  0  0
   -2.1583   -0.5000    0.0000 C   0  0  0  0  0  0  0  0  0  0  0  0
   -2.1583    0.5000    0.0000 C   0  0  0  0  0  0  0  0  0  0  0  0
    0.3792    0.0000    0.0000 C   0  0  0  0  0  0  0  0  0  0  0  0
   -0.8958    1.7625    0.0000 O   0  0  0  0  0  0  0  0  0  0  0  0
   -0.8958   -1.7542    0.0000 O   0  0  0  0  0  0  0  0  0  0  0  0
    0.8792   -0.8625    0.0000 C   0  0  3  0  0  0  0  0  0  0  0  0
    1.8792   -0.8625    0.0000 C   0  0  0  0  0  0  0  0  0  0  0  0
    0.3792   -1.7292    0.0000 O   0  0  0  0  0  0  0  0  0  0  0  0
   -3.0208    1.0000    0.0000 C   0  0  0  0  0  0  0  0  0  0  0  0
   -3.0208   -1.0000    0.0000 C   0  0  0  0  0  0  0  0  0  0  0  0
    2.3792   -1.7292    0.0000 C   0  0  0  0  0  0  0  0  0  0  0  0
    2.3792    0.0000    0.0000 C   0  0  0  0  0  0  0  0  0  0  0  0
   -3.8958   -0.5000    0.0000 C   0  0  0  0  0  0  0  0  0  0  0  0
   -3.8958    0.5000    0.0000 C   0  0  0  0  0  0  0  0  0  0  0  0
    3.3792    0.0000    0.0000 C   0  0  0  0  0  0  0  0  0  0  0  0
    3.3792   -1.7292    0.0000 C   0  0  0  0  0  0  0  0  0  0  0  0
    3.8792   -0.8625    0.0000 C   0  0  0  0  0  0  0  0  0  0  0  0
  2  1  1  0  0  0  0
  3  1  1  0  0  0  0
  4  3  1  0  0  0  0
  5  2  1  0  0  0  0
  5  4  2  0  0  0  0
  6  1  1  0  0  0  0
  7  2  2  0  0  0  0
  8  3  2  0  0  0  0
  9  6  1  0  0  0  0
 10  9  1  0  0  0  0
 11  9  1  0  0  0  0
 12  5  1  0  0  0  0
 13  4  1  0  0  0  0
 14 10  1  0  0  0  0
 15 10  2  0  0  0  0
 16 13  2  0  0  0  0
 17 12  2  0  0  0  0
 17 16  1  0  0  0  0
 18 15  1  0  0  0  0
 19 14  2  0  0  0  0
 19 20  1  0  0  0  0
 20 18  2  0  0  0  0
M  END
>  <idnumber>
T5676809

>  <LogP>
2.254000000000000e+000

>  <rotating_bonds>
3.000000000000000e+000

>  <hb_acceptors>
3.000000000000000e+000

>  <hb_donors>
1.000000000000000e+000

>  <PSA>
5.761000000000000e+001

>  <clusterid>
-1109

>  <is_centroid>
@

>  <class1>
625

>  <class2>
661

>  <population1>
877209

>  <population2>
7628

>  <population>
7628

>  <cansmi>
OC(c1ccccc1)CN1C(=O)c2c(C1=O)cccc2

>  <HBA2>
4

>  <HBD>
1

>  <logP>
1.9541

>  <TPSA>
57.61

>  <MW>
267.279

$$$$

 OpenBabel02121609142D

 17 19  0  0  0  0  0  0  0  0999 V2000
   -0.6208   -0.3625    0.0000 C   0  0  0  0  0  0  0  0  0  0  0  0
   -1.2083    0.4458    0.0000 N   0  0  0  0  0  0  0  0  0  0  0  0
   -1.2083   -1.1750    0.0000 N   0  0  0  0  0  0  0  0  0  0  0  0
   -2.1583    0.1375    0.0000 C   0  0  3  0  0  0  0  0  0  0  0  0
   -2.1583   -0.8625    0.0000 C   0  0  3  0  0  0  0  0  0  0  0  0
    0.3792   -0.3625    0.0000 S   0  0  0  0  0  0  0  0  0  0  0  0
    0.8792    0.5083    0.0000 C   0  0  0  0  0  0  0  0  0  0  0  0
    1.8792    0.5083    0.0000 C   0  0  0  0  0  0  0  0  0  0  0  0
   -3.0208    0.6375    0.0000 C   0  0  0  0  0  0  0  0  0  0  0  0
   -3.0208   -1.3625    0.0000 C   0  0  0  0  0  0  0  0  0  0  0  0
    2.3792   -0.3625    0.0000 C   0  0  0  0  0  0  0  0  0  0  0  0
    2.3792    1.3708    0.0000 C   0  0  0  0  0  0  0  0  0  0  0  0
   -3.8958    0.1375    0.0000 C   0  0  0  0  0  0  0  0  0  0  0  0
   -3.8958   -0.8625    0.0000 C   0  0  0  0  0  0  0  0  0  0  0  0
    3.3792    1.3708    0.0000 C   0  0  0  0  0  0  0  0  0  0  0  0
    3.3792   -0.3625    0.0000 C   0  0  0  0  0  0  0  0  0  0  0  0
    3.8792    0.5083    0.0000 C   0  0  0  0  0  0  0  0  0  0  0  0
  2  1  2  0  0  0  0
  3  1  1  0  0  0  0
  4  2  1  0  0  0  0
  4  5  1  0  0  0  0
  5  3  1  0  0  0  0
  6  1  1  0  0  0  0
  7  6  1  0  0  0  0
  8  7  1  0  0  0  0
  9  4  1  0  0  0  0
 10  5  1  0  0  0  0
 11  8  1  0  0  0  0
 12  8  2  0  0  0  0
 13  9  1  0  0  0  0
 13 14  1  0  0  0  0
 14 10  1  0  0  0  0
 15 12  1  0  0  0  0
 16 11  2  0  0  0  0
 16 17  1  0  0  0  0
 17 15  2  0  0  0  0
M  END
>  <idnumber>
T5677202

>  <LogP>
2.717000000000000e+000

>  <rotating_bonds>
3.000000000000000e+000

>  <hb_acceptors>
3.000000000000000e+000

>  <hb_donors>
1.000000000000000e+000

>  <PSA>
4.969000000000001e+001

>  <clusterid>
-1110

>  <is_centroid>
@

>  <class1>
625

>  <class2>
706

>  <population1>
877209

>  <population2>
54

>  <population>
49

>  <cansmi>
c1ccc(cc1)CSC1=NC2C(N1)CCCC2

>  <HBA2>
3

>  <HBD>
1

>  <logP>
2.9546

>  <TPSA>
49.69

>  <MW>
246.371

$$$$

 OpenBabel02121609142D

 21 24  0  0  0  0  0  0  0  0999 V2000
   -1.1333    0.0000    0.0000 C   0  0  0  0  0  0  0  0  0  0  0  0
    1.4667   -0.5000    0.0000 C   0  0  0  0  0  0  0  0  0  0  0  0
    0.6042    0.0000    0.0000 C   0  0  0  0  0  0  0  0  0  0  0  0
   -2.0833   -0.3042    0.0000 C   0  0  0  0  0  0  0  0  0  0  0  0
   -0.2625   -0.5000    0.0000 C   0  0  0  0  0  0  0  0  0  0  0  0
   -1.1333    1.0000    0.0000 C   0  0  0  0  0  0  0  0  0  0  0  0
    2.3292    0.0000    0.0000 N   0  0  0  0  0  0  0  0  0  0  0  0
   -2.6708    0.5000    0.0000 C   0  0  0  0  0  0  0  0  0  0  0  0
   -2.0833    1.3125    0.0000 C   0  0  0  0  0  0  0  0  0  0  0  0
    1.4667   -1.5000    0.0000 O   0  0  0  0  0  0  0  0  0  0  0  0
   -0.2625    1.5000    0.0000 C   0  0  0  0  0  0  0  0  0  0  0  0
    0.6042    1.0000    0.0000 C   0  0  0  0  0  0  0  0  0  0  0  0
    4.0667    1.0000    0.0000 O   0  0  0  0  0  0  0  0  0  0  0  0
    2.3292    1.0000    0.0000 C   0  0  0  0  0  0  0  0  0  0  0  0
    3.2000   -0.5000    0.0000 C   0  0  0  0  0  0  0  0  0  0  0  0
   -2.4875   -1.2167    0.0000 C   0  0  0  0  0  0  0  0  0  0  0  0
   -3.6625    0.3958    0.0000 C   0  0  0  0  0  0  0  0  0  0  0  0
    4.0667    0.0000    0.0000 C   0  0  0  0  0  0  0  0  0  0  0  0
    3.2000    1.5000    0.0000 C   0  0  0  0  0  0  0  0  0  0  0  0
   -3.4833   -1.3250    0.0000 C   0  0  0  0  0  0  0  0  0  0  0  0
   -4.0708   -0.5167    0.0000 C   0  0  0  0  0  0  0  0  0  0  0  0
  2  3  1  0  0  0  0
  3  5  2  0  0  0  0
  3 12  1  0  0  0  0
  4  1  1  0  0  0  0
  5  1  1  0  0  0  0
  6  1  2  0  0  0  0
  7  2  1  0  0  0  0
  8  4  2  0  0  0  0
  9  6  1  0  0  0  0
  9  8  1  0  0  0  0
 10  2  2  0  0  0  0
 11  6  1  0  0  0  0
 12 11  2  0  0  0  0
 13 18  1  0  0  0  0
 14  7  1  0  0  0  0
 15  7  1  0  0  0  0
 16  4  1  0  0  0  0
 17  8  1  0  0  0  0
 17 21  2  0  0  0  0
 18 15  1  0  0  0  0
 19 14  1  0  0  0  0
 19 13  1  0  0  0  0
 20 16  2  0  0  0  0
 21 20  1  0  0  0  0
M  END
>  <idnumber>
T5677603

>  <LogP>
2.705000000000000e+000

>  <rotating_bonds>
1.000000000000000e+000

>  <hb_acceptors>
2.000000000000000e+000

>  <hb_donors>
0.000000000000000e+000

>  <PSA>
2.954000000000000e+001

>  <clusterid>
-1112

>  <is_centroid>
@

>  <class1>
812

>  <class2>
786

>  <population1>
999

>  <population2>
48067

>  <population>
29

>  <cansmi>
O=C(c1ccc2c(c1)c1ccccc1C2)N1CCOCC1

>  <HBA2>
3

>  <HBD>
0

>  <logP>
2.6681

>  <TPSA>
29.54

>  <MW>
279.333

$$$$

 OpenBabel02121609142D

 19 21  0  0  0  0  0  0  0  0999 V2000
    1.2000    0.2500    0.0000 C   0  0  0  0  0  0  0  0  0  0  0  0
    0.3292   -0.2500    0.0000 N   0  0  0  0  0  0  0  0  0  0  0  0
    2.0667   -0.2500    0.0000 C   0  0  0  0  0  0  0  0  0  0  0  0
   -2.2625    0.2500    0.0000 C   0  0  0  0  0  0  0  0  0  0  0  0
   -1.3958   -0.2500    0.0000 C   0  0  0  0  0  0  0  0  0  0  0  0
   -2.2625    1.2500    0.0000 C   0  0  0  0  0  0  0  0  0  0  0  0
   -3.2208   -0.0542    0.0000 O   0  0  0  0  0  0  0  0  0  0  0  0
   -0.5333    0.2500    0.0000 C   0  0  0  0  0  0  0  0  0  0  0  0
   -3.2208    1.5625    0.0000 O   0  0  0  0  0  0  0  0  0  0  0  0
    1.2000    1.2500    0.0000 O   0  0  0  0  0  0  0  0  0  0  0  0
   -3.8083    0.7500    0.0000 C   0  0  0  0  0  0  0  0  0  0  0  0
    2.0667   -1.2500    0.0000 C   0  0  0  0  0  0  0  0  0  0  0  0
   -1.3958    1.7500    0.0000 C   0  0  0  0  0  0  0  0  0  0  0  0
   -0.5333    1.2500    0.0000 C   0  0  0  0  0  0  0  0  0  0  0  0
    2.9292    0.2500    0.0000 C   0  0  0  0  0  0  0  0  0  0  0  0
    1.2000   -1.7500    0.0000 C   0  0  0  0  0  0  0  0  0  0  0  0
    2.9292   -1.7500    0.0000 C   0  0  0  0  0  0  0  0  0  0  0  0
    3.8000   -0.2500    0.0000 C   0  0  0  0  0  0  0  0  0  0  0  0
    3.8000   -1.2500    0.0000 C   0  0  0  0  0  0  0  0  0  0  0  0
  2  1  1  0  0  0  0
  3  1  1  0  0  0  0
  4  5  1  0  0  0  0
  4  6  2  0  0  0  0
  5  8  2  0  0  0  0
  6 13  1  0  0  0  0
  7  4  1  0  0  0  0
  8  2  1  0  0  0  0
  9  6  1  0  0  0  0
  9 11  1  0  0  0  0
 10  1  2  0  0  0  0
 11  7  1  0  0  0  0
 12  3  2  0  0  0  0
 13 14  2  0  0  0  0
 14  8  1  0  0  0  0
 15  3  1  0  0  0  0
 16 12  1  0  0  0  0
 17 12  1  0  0  0  0
 17 19  2  0  0  0  0
 18 15  2  0  0  0  0
 19 18  1  0  0  0  0
M  END
>  <idnumber>
T5677719

>  <LogP>
2.466000000000000e+000

>  <rotating_bonds>
2.000000000000000e+000

>  <hb_acceptors>
3.000000000000000e+000

>  <hb_donors>
1.000000000000000e+000

>  <PSA>
4.756000000000000e+001

>  <clusterid>
633

>  <is_centroid>
@

>  <class1>
811

>  <class2>
625

>  <population1>
21222

>  <population2>
877209

>  <population>
21222

>  <cansmi>
O=C(c1ccccc1C)Nc1ccc2c(c1)OCO2

>  <HBA2>
4

>  <HBD>
1

>  <logP>
3.049

>  <TPSA>
47.56

>  <MW>
255.269

$$$$

 OpenBabel02121609142D

 20 22  0  0  0  0  0  0  0  0999 V2000
   -0.6208    0.0000    0.0000 N   0  0  0  0  0  0  0  0  0  0  0  0
   -1.2083    0.8125    0.0000 C   0  0  0  0  0  0  0  0  0  0  0  0
   -1.2083   -0.8042    0.0000 C   0  0  0  0  0  0  0  0  0  0  0  0
    0.3792    0.0000    0.0000 C   0  0  0  0  0  0  0  0  0  0  0  0
   -2.1583   -0.5000    0.0000 C   0  0  3  0  0  0  0  0  0  0  0  0
   -2.1583    0.5000    0.0000 C   0  0  3  0  0  0  0  0  0  0  0  0
    0.8792   -0.8625    0.0000 C   0  0  0  0  0  0  0  0  0  0  0  0
    1.8792   -0.8625    0.0000 N   0  0  0  0  0  0  0  0  0  0  0  0
   -0.8958   -1.7542    0.0000 O   0  0  0  0  0  0  0  0  0  0  0  0
   -0.8958    1.7625    0.0000 O   0  0  0  0  0  0  0  0  0  0  0  0
    0.3792   -1.7292    0.0000 O   0  0  0  0  0  0  0  0  0  0  0  0
   -3.8958    0.5000    0.0000 C   0  0  0  0  0  0  0  0  0  0  0  0
   -3.8958   -0.5000    0.0000 C   0  0  0  0  0  0  0  0  0  0  0  0
   -3.0208    1.0000    0.0000 C   0  0  0  0  0  0  0  0  0  0  0  0
   -3.0208   -1.0000    0.0000 C   0  0  0  0  0  0  0  0  0  0  0  0
    2.3792   -1.7292    0.0000 C   0  0  0  0  0  0  0  0  0  0  0  0
    2.3792    0.0000    0.0000 C   0  0  0  0  0  0  0  0  0  0  0  0
    3.3792    0.0000    0.0000 C   0  0  0  0  0  0  0  0  0  0  0  0
    3.3792   -1.7292    0.0000 C   0  0  0  0  0  0  0  0  0  0  0  0
    3.8792   -0.8625    0.0000 C   0  0  0  0  0  0  0  0  0  0  0  0
  2  1  1  0  0  0  0
  3  1  1  0  0  0  0
  4  1  1  0  0  0  0
  5  3  1  0  0  0  0
  6  2  1  0  0  0  0
  6  5  1  0  0  0  0
  7  4  1  0  0  0  0
  8  7  1  0  0  0  0
  9  3  2  0  0  0  0
 10  2  2  0  0  0  0
 11  7  2  0  0  0  0
 12 14  1  0  0  0  0
 12 13  2  0  0  0  0
 13 15  1  0  0  0  0
 14  6  1  0  0  0  0
 15  5  1  0  0  0  0
 16  8  1  0  0  0  0
 17  8  1  0  0  0  0
 18 17  1  0  0  0  0
 19 16  1  0  0  0  0
 19 20  1  0  0  0  0
 20 18  1  0  0  0  0
M  END
>  <idnumber>
T5677844

>  <LogP>
8.240000000000001e-001

>  <rotating_bonds>
2.000000000000000e+000

>  <hb_acceptors>
3.000000000000000e+000

>  <hb_donors>
0.000000000000000e+000

>  <PSA>
5.769000000000001e+001

>  <clusterid>
634

>  <is_centroid>
@

>  <class1>
639

>  <class2>
804

>  <population1>
59855

>  <population2>
1311

>  <population>
43

>  <cansmi>
O=C1N(CC(=O)N2CCCCC2)C(=O)C2C1CC=CC2

>  <HBA2>
5

>  <HBD>
0

>  <logP>
0.8259

>  <TPSA>
57.69

>  <MW>
276.331

$$$$

 OpenBabel02121609142D

 21 23  0  0  0  0  0  0  0  0999 V2000
    0.0000   -0.9917    0.0000 C   0  0  0  0  0  0  0  0  0  0  0  0
    0.8625   -0.5000    0.0000 C   0  0  0  0  0  0  0  0  0  0  0  0
    0.0000   -1.9917    0.0000 C   0  0  0  0  0  0  0  0  0  0  0  0
   -0.8708   -0.5000    0.0000 C   0  0  0  0  0  0  0  0  0  0  0  0
   -0.8708   -2.5000    0.0000 O   0  0  0  0  0  0  0  0  0  0  0  0
    0.8625    0.5000    0.0000 N   0  0  0  0  0  0  0  0  0  0  0  0
   -1.7333   -0.9917    0.0000 C   0  0  0  0  0  0  0  0  0  0  0  0
   -1.7333   -1.9917    0.0000 C   0  0  0  0  0  0  0  0  0  0  0  0
    1.7292   -0.9917    0.0000 O   0  0  0  0  0  0  0  0  0  0  0  0
    0.8625   -2.5000    0.0000 O   0  0  0  0  0  0  0  0  0  0  0  0
    1.7292    1.0083    0.0000 C   0  0  0  0  0  0  0  0  0  0  0  0
    0.0000    1.0083    0.0000 C   0  0  0  0  0  0  0  0  0  0  0  0
   -2.6000   -0.5000    0.0000 C   0  0  0  0  0  0  0  0  0  0  0  0
   -2.6000   -2.5000    0.0000 C   0  0  0  0  0  0  0  0  0  0  0  0
    2.5917    0.5000    0.0000 C   0  0  0  0  0  0  0  0  0  0  0  0
    1.7292    2.0083    0.0000 C   0  0  0  0  0  0  0  0  0  0  0  0
   -3.4708   -0.9917    0.0000 C   0  0  0  0  0  0  0  0  0  0  0  0
   -3.4708   -1.9917    0.0000 C   0  0  0  0  0  0  0  0  0  0  0  0
    2.5917    2.5000    0.0000 C   0  0  0  0  0  0  0  0  0  0  0  0
    3.4625    1.0083    0.0000 C   0  0  0  0  0  0  0  0  0  0  0  0
    3.4625    2.0083    0.0000 C   0  0  0  0  0  0  0  0  0  0  0  0
  2  1  1  0  0  0  0
  3  1  1  0  0  0  0
  4  1  2  0  0  0  0
  5  3  1  0  0  0  0
  5  8  1  0  0  0  0
  6  2  1  0  0  0  0
  7  4  1  0  0  0  0
  8  7  2  0  0  0  0
  9  2  2  0  0  0  0
 10  3  2  0  0  0  0
 11  6  1  0  0  0  0
 12  6  1  0  0  0  0
 13  7  1  0  0  0  0
 14  8  1  0  0  0  0
 15 11  1  0  0  0  0
 16 11  2  0  0  0  0
 17 13  2  0  0  0  0
 18 17  1  0  0  0  0
 18 14  2  0  0  0  0
 19 16  1  0  0  0  0
 20 15  2  0  0  0  0
 20 21  1  0  0  0  0
 21 19  2  0  0  0  0
M  END
>  <idnumber>
T5677861

>  <LogP>
1.944000000000000e+000

>  <rotating_bonds>
2.000000000000000e+000

>  <hb_acceptors>
2.000000000000000e+000

>  <hb_donors>
0.000000000000000e+000

>  <PSA>
4.661000000000000e+001

>  <clusterid>
554

>  <is_centroid>
@

>  <class1>
625

>  <class2>
799

>  <population1>
877209

>  <population2>
7929

>  <population>
7929

>  <cansmi>
CN(C(=O)c1cc2ccccc2oc1=O)c1ccccc1

>  <HBA2>
4

>  <HBD>
0

>  <logP>
3.0696

>  <TPSA>
50.52

>  <MW>
279.29

$$$$

 OpenBabel02121609142D

 20 22  0  0  0  0  0  0  0  0999 V2000
    1.3250    0.8583    0.0000 C   0  0  0  0  0  0  0  0  0  0  0  0
    2.5292   -0.2292    0.0000 N   0  0  0  0  0  0  0  0  0  0  0  0
   -0.1750    1.7208    0.0000 C   0  0  0  0  0  0  0  0  0  0  0  0
    2.3167    0.7500    0.0000 C   0  0  0  0  0  0  0  0  0  0  0  0
    1.6625   -0.7292    0.0000 C   0  0  0  0  0  0  0  0  0  0  0  0
    0.8250    1.7208    0.0000 C   0  0  0  0  0  0  0  0  0  0  0  0
   -0.7625    0.9125    0.0000 C   0  0  0  0  0  0  0  0  0  0  0  0
    0.9167   -0.0542    0.0000 C   0  0  0  0  0  0  0  0  0  0  0  0
   -1.7125    1.2208    0.0000 C   0  0  0  0  0  0  0  0  0  0  0  0
   -1.7125    2.2208    0.0000 C   0  0  0  0  0  0  0  0  0  0  0  0
   -0.7625    2.5333    0.0000 C   0  0  0  0  0  0  0  0  0  0  0  0
    1.5542   -1.7167    0.0000 C   0  0  0  0  0  0  0  0  0  0  0  0
    1.4542   -2.7167    0.0000 N   0  0  0  0  0  0  0  0  0  0  0  0
   -0.4583   -0.0292    0.0000 O   0  0  0  0  0  0  0  0  0  0  0  0
    3.4417   -0.6292    0.0000 C   0  0  0  0  0  0  0  0  0  0  0  0
    2.9875    1.4958    0.0000 C   0  0  0  0  0  0  0  0  0  0  0  0
   -2.5833    0.7208    0.0000 C   0  0  0  0  0  0  0  0  0  0  0  0
   -2.5833    2.7208    0.0000 C   0  0  0  0  0  0  0  0  0  0  0  0
   -3.4458    1.2208    0.0000 C   0  0  0  0  0  0  0  0  0  0  0  0
   -3.4458    2.2208    0.0000 C   0  0  0  0  0  0  0  0  0  0  0  0
  2  4  1  0  0  0  0
  3  6  2  0  0  0  0
  4  1  2  0  0  0  0
  5  8  2  0  0  0  0
  5  2  1  0  0  0  0
  6  1  1  0  0  0  0
  7  3  1  0  0  0  0
  8  1  1  0  0  0  0
  9  7  1  0  0  0  0
 10 11  1  0  0  0  0
 10  9  2  0  0  0  0
 11  3  1  0  0  0  0
 12  5  1  0  0  0  0
 13 12  3  0  0  0  0
 14  7  2  0  0  0  0
 15  2  1  0  0  0  0
 16  4  1  0  0  0  0
 17  9  1  0  0  0  0
 18 10  1  0  0  0  0
 19 17  2  0  0  0  0
 20 18  2  0  0  0  0
 20 19  1  0  0  0  0
M  END
>  <idnumber>
T5677975

>  <LogP>
2.973000000000000e+000

>  <rotating_bonds>
2.000000000000000e+000

>  <hb_acceptors>
2.000000000000000e+000

>  <hb_donors>
0.000000000000000e+000

>  <PSA>
4.579000000000001e+001

>  <clusterid>
-1121

>  <is_centroid>
@

>  <class1>
840

>  <class2>
635

>  <population1>
683

>  <population2>
31512

>  <population>
10

>  <cansmi>
N#Cc1cc(c(n1C)C)/C=C\1/Cc2c(C1=O)cccc2

>  <HBA2>
3

>  <HBD>
0

>  <logP>
3.02758

>  <TPSA>
45.79

>  <MW>
262.306

$$$$

 OpenBabel02121609142D

 20 22  0  0  0  0  0  0  0  0999 V2000
    0.4292   -0.2500    0.0000 C   0  0  0  0  0  0  0  0  0  0  0  0
   -0.4333    0.2500    0.0000 N   0  0  0  0  0  0  0  0  0  0  0  0
   -1.3000    1.7583    0.0000 C   0  0  0  0  0  0  0  0  0  0  0  0
   -0.4333    1.2500    0.0000 C   0  0  3  0  0  0  0  0  0  0  0  0
    0.4292   -1.2500    0.0000 N   0  0  0  0  0  0  0  0  0  0  0  0
   -1.3000    2.7583    0.0000 C   0  0  0  0  0  0  0  0  0  0  0  0
    1.2917    0.2500    0.0000 O   0  0  0  0  0  0  0  0  0  0  0  0
   -0.4333    3.2500    0.0000 O   0  0  0  0  0  0  0  0  0  0  0  0
    0.4292    1.7583    0.0000 C   0  0  0  0  0  0  0  0  0  0  0  0
    0.4292    2.7583    0.0000 C   0  0  0  0  0  0  0  0  0  0  0  0
    1.2917   -1.7500    0.0000 C   0  0  0  0  0  0  0  0  0  0  0  0
   -2.1708    1.2500    0.0000 C   0  0  0  0  0  0  0  0  0  0  0  0
   -2.1708    3.2500    0.0000 C   0  0  0  0  0  0  0  0  0  0  0  0
    1.2917   -2.7500    0.0000 C   0  0  0  0  0  0  0  0  0  0  0  0
    2.1625   -1.2500    0.0000 C   0  0  0  0  0  0  0  0  0  0  0  0
   -3.0333    1.7583    0.0000 C   0  0  0  0  0  0  0  0  0  0  0  0
   -3.0333    2.7583    0.0000 C   0  0  0  0  0  0  0  0  0  0  0  0
    3.0292   -1.7500    0.0000 C   0  0  0  0  0  0  0  0  0  0  0  0
    2.1625   -3.2500    0.0000 C   0  0  0  0  0  0  0  0  0  0  0  0
    3.0292   -2.7500    0.0000 C   0  0  0  0  0  0  0  0  0  0  0  0
  2  1  1  0  0  0  0
  3  4  1  0  0  0  0
  4  2  1  0  0  0  0
  5  1  1  0  0  0  0
  6  3  2  0  0  0  0
  6  8  1  0  0  0  0
  7  1  2  0  0  0  0
  8 10  1  0  0  0  0
  9  4  1  0  0  0  0
 10  9  1  0  0  0  0
 11  5  1  0  0  0  0
 12  3  1  0  0  0  0
 13  6  1  0  0  0  0
 13 17  2  0  0  0  0
 14 11  1  0  0  0  0
 15 11  2  0  0  0  0
 16 12  2  0  0  0  0
 17 16  1  0  0  0  0
 18 15  1  0  0  0  0
 19 14  2  0  0  0  0
 19 20  1  0  0  0  0
 20 18  2  0  0  0  0
M  END
>  <idnumber>
T5678277

>  <LogP>
2.733000000000000e+000

>  <rotating_bonds>
2.000000000000000e+000

>  <hb_acceptors>
2.000000000000000e+000

>  <hb_donors>
2.000000000000000e+000

>  <PSA>
5.036000000000001e+001

>  <clusterid>
635

>  <is_centroid>
@

>  <class1>
625

>  <class2>
766

>  <population1>
877209

>  <population2>
1661

>  <population>
1661

>  <cansmi>
O=C(NC1CCOc2c1cccc2)Nc1ccccc1

>  <HBA2>
4

>  <HBD>
2

>  <logP>
3.7958

>  <TPSA>
50.36

>  <MW>
268.31

$$$$

 OpenBabel02121609142D

 19 20  0  0  0  0  0  0  0  0999 V2000
   -0.8708    2.2500    0.0000 C   0  0  0  0  0  0  0  0  0  0  0  0
   -0.8708    1.2500    0.0000 N   0  0  0  0  0  0  0  0  0  0  0  0
   -0.8708   -0.7500    0.0000 C   0  0  0  0  0  0  0  0  0  0  0  0
    0.0000   -0.2500    0.0000 C   0  0  0  0  0  0  0  0  0  0  0  0
    0.8625    4.2500    0.0000 C   0  0  0  0  0  0  0  0  0  0  0  0
    1.7292    4.7500    0.0000 C   0  0  0  0  0  0  0  0  0  0  0  0
    0.0000    0.7500    0.0000 C   0  0  0  0  0  0  0  0  0  0  0  0
   -0.8708   -1.7500    0.0000 C   0  0  0  0  0  0  0  0  0  0  0  0
   -1.7333    0.7500    0.0000 C   0  0  0  0  0  0  0  0  0  0  0  0
   -1.7333    2.7500    0.0000 O   0  0  0  0  0  0  0  0  0  0  0  0
   -1.7333   -0.2500    0.0000 C   0  0  0  0  0  0  0  0  0  0  0  0
    0.0000    2.7500    0.0000 N   0  0  0  0  0  0  0  0  0  0  0  0
   -1.7333   -2.2500    0.0000 C   0  0  0  0  0  0  0  0  0  0  0  0
    0.0000   -2.2500    0.0000 C   0  0  0  0  0  0  0  0  0  0  0  0
   -0.8708   -3.7500    0.0000 C   0  0  0  0  0  0  0  0  0  0  0  0
   -1.7333   -3.2500    0.0000 C   0  0  0  0  0  0  0  0  0  0  0  0
    0.0000   -3.2500    0.0000 C   0  0  0  0  0  0  0  0  0  0  0  0
   -0.8708   -4.7500    0.0000 F   0  0  0  0  0  0  0  0  0  0  0  0
    0.0000    3.7500    0.0000 C   0  0  0  0  0  0  0  0  0  0  0  0
  2  1  1  0  0  0  0
  3 11  1  0  0  0  0
  3  4  2  0  0  0  0
  4  7  1  0  0  0  0
  5 19  1  0  0  0  0
  6  5  3  0  0  0  0
  7  2  1  0  0  0  0
  8  3  1  0  0  0  0
  9  2  1  0  0  0  0
 10  1  2  0  0  0  0
 11  9  1  0  0  0  0
 12  1  1  0  0  0  0
 13  8  2  0  0  0  0
 14  8  1  0  0  0  0
 15 17  1  0  0  0  0
 16 13  1  0  0  0  0
 16 15  2  0  0  0  0
 17 14  2  0  0  0  0
 18 15  1  0  0  0  0
 19 12  1  0  0  0  0
M  END
>  <idnumber>
T5678499

>  <LogP>
2.668000000000000e+000

>  <rotating_bonds>
3.000000000000000e+000

>  <hb_acceptors>
2.000000000000000e+000

>  <hb_donors>
1.000000000000000e+000

>  <PSA>
3.234000000000000e+001

>  <clusterid>
637

>  <is_centroid>
@

>  <class1>
715

>  <class2>
625

>  <population1>
4585

>  <population2>
877209

>  <population>
4053

>  <cansmi>
C#CCNC(=O)N1CCC(=CC1)c1ccc(cc1)F

>  <HBA2>
3

>  <HBD>
1

>  <logP>
2.5864

>  <TPSA>
32.34

>  <MW>
258.291

$$$$

 OpenBabel02121609142D

 15 17  0  0  0  0  0  0  0  0999 V2000
   -1.0500   -0.8042    0.0000 N   0  0  0  0  0  0  0  0  0  0  0  0
   -0.4625    0.0000    0.0000 C   0  0  0  0  0  0  0  0  0  0  0  0
   -2.0000    0.5000    0.0000 N   0  0  0  0  0  0  0  0  0  0  0  0
   -2.0000   -0.5000    0.0000 C   0  0  0  0  0  0  0  0  0  0  0  0
   -1.0500    0.8125    0.0000 C   0  0  0  0  0  0  0  0  0  0  0  0
    0.5375    0.0000    0.0000 C   0  0  0  0  0  0  0  0  0  0  0  0
    1.0375   -0.8625    0.0000 C   0  0  0  0  0  0  0  0  0  0  0  0
    1.0375    0.8708    0.0000 C   0  0  0  0  0  0  0  0  0  0  0  0
   -2.9583    0.8125    0.0000 C   0  0  0  0  0  0  0  0  0  0  0  0
    2.5375    0.0000    0.0000 C   0  0  0  0  0  0  0  0  0  0  0  0
   -2.9583   -0.8042    0.0000 C   0  0  0  0  0  0  0  0  0  0  0  0
    2.0375   -0.8625    0.0000 C   0  0  0  0  0  0  0  0  0  0  0  0
    2.0375    0.8708    0.0000 C   0  0  0  0  0  0  0  0  0  0  0  0
    3.5375    0.0000    0.0000 O   0  0  0  0  0  0  0  0  0  0  0  0
   -3.5458    0.0000    0.0000 C   0  0  0  0  0  0  0  0  0  0  0  0
  2  1  1  0  0  0  0
  3  4  1  0  0  0  0
  4  1  2  0  0  0  0
  5  2  2  0  0  0  0
  5  3  1  0  0  0  0
  6  2  1  0  0  0  0
  7  6  2  0  0  0  0
  8  6  1  0  0  0  0
  9  3  1  0  0  0  0
  9 15  1  0  0  0  0
 10 13  1  0  0  0  0
 11  4  1  0  0  0  0
 12  7  1  0  0  0  0
 12 10  2  0  0  0  0
 13  8  2  0  0  0  0
 14 10  1  0  0  0  0
 15 11  1  0  0  0  0
M  END
>  <idnumber>
T5679054

>  <LogP>
1.899000000000000e+000

>  <rotating_bonds>
1.000000000000000e+000

>  <hb_acceptors>
2.000000000000000e+000

>  <hb_donors>
1.000000000000000e+000

>  <PSA>
3.805000000000000e+001

>  <clusterid>
50

>  <is_centroid>
@

>  <class1>
765

>  <class2>
625

>  <population1>
27

>  <population2>
877209

>  <population>
26

>  <cansmi>
Oc1ccc(cc1)c1cn2c(n1)CCC2

>  <HBA2>
3

>  <HBD>
1

>  <logP>
2.2019

>  <TPSA>
38.05

>  <MW>
200.236

$$$$

 OpenBabel02121609142D

 18 20  0  0  0  0  0  0  0  0999 V2000
    0.0000    0.2500    0.0000 N   0  0  0  0  0  0  0  0  0  0  0  0
   -0.8708   -0.2500    0.0000 C   0  0  0  0  0  0  0  0  0  0  0  0
    0.0000    1.2583    0.0000 N   0  0  0  0  0  0  0  0  0  0  0  0
   -1.7333    0.2500    0.0000 C   0  0  0  0  0  0  0  0  0  0  0  0
   -0.8708    1.7583    0.0000 C   0  0  0  0  0  0  0  0  0  0  0  0
    0.8625   -0.2417    0.0000 C   0  0  0  0  0  0  0  0  0  0  0  0
   -0.8708   -1.2500    0.0000 O   0  0  0  0  0  0  0  0  0  0  0  0
   -1.7333    1.2500    0.0000 C   0  0  0  0  0  0  0  0  0  0  0  0
    0.8625   -1.2417    0.0000 C   0  0  0  0  0  0  0  0  0  0  0  0
    1.7292    0.2583    0.0000 C   0  0  0  0  0  0  0  0  0  0  0  0
    2.5917   -1.2500    0.0000 C   0  0  0  0  0  0  0  0  0  0  0  0
    1.7292   -1.7417    0.0000 C   0  0  0  0  0  0  0  0  0  0  0  0
    2.5917   -0.2417    0.0000 C   0  0  0  0  0  0  0  0  0  0  0  0
    3.4625   -1.7500    0.0000 O   0  0  0  0  0  0  0  0  0  0  0  0
   -2.6000   -0.2500    0.0000 C   0  0  0  0  0  0  0  0  0  0  0  0
   -2.6000    1.7500    0.0000 C   0  0  0  0  0  0  0  0  0  0  0  0
   -3.4708    0.2500    0.0000 C   0  0  0  0  0  0  0  0  0  0  0  0
   -3.4708    1.2500    0.0000 C   0  0  0  0  0  0  0  0  0  0  0  0
  2  1  1  0  0  0  0
  3  1  1  0  0  0  0
  4  2  1  0  0  0  0
  4  8  2  0  0  0  0
  5  3  2  0  0  0  0
  6  1  1  0  0  0  0
  7  2  2  0  0  0  0
  8  5  1  0  0  0  0
  9  6  2  0  0  0  0
 10  6  1  0  0  0  0
 11 13  1  0  0  0  0
 12  9  1  0  0  0  0
 12 11  2  0  0  0  0
 13 10  2  0  0  0  0
 14 11  1  0  0  0  0
 15  4  1  0  0  0  0
 16  8  1  0  0  0  0
 17 15  2  0  0  0  0
 18 16  2  0  0  0  0
 18 17  1  0  0  0  0
M  END
>  <idnumber>
T5679099

>  <LogP>
1.665000000000000e+000

>  <rotating_bonds>
1.000000000000000e+000

>  <hb_acceptors>
3.000000000000000e+000

>  <hb_donors>
1.000000000000000e+000

>  <PSA>
5.290000000000000e+001

>  <clusterid>
-1126

>  <is_centroid>
@

>  <class1>
792

>  <class2>
625

>  <population1>
7197

>  <population2>
877209

>  <population>
7197

>  <cansmi>
Oc1ccc(cc1)n1ncc2c(c1=O)cccc2

>  <HBA2>
4

>  <HBD>
1

>  <logP>
2.0913

>  <TPSA>
55.12

>  <MW>
238.241

$$$$

 OpenBabel02121609142D

 18 19  0  0  0  0  0  0  0  0999 V2000
   -0.1333   -0.4042    0.0000 C   0  0  0  0  0  0  0  0  0  0  0  0
    0.7292   -0.9042    0.0000 N   0  0  0  0  0  0  0  0  0  0  0  0
   -0.1333    0.5958    0.0000 N   0  0  0  0  0  0  0  0  0  0  0  0
   -1.8625    2.5958    0.0000 N   0  0  0  0  0  0  0  0  0  0  0  0
   -0.9958   -0.9042    0.0000 O   0  0  0  0  0  0  0  0  0  0  0  0
   -0.9958    2.0958    0.0000 C   0  0  0  0  0  0  0  0  0  0  0  0
   -0.9958    1.0958    0.0000 C   0  0  0  0  0  0  0  0  0  0  0  0
    0.7292   -1.9042    0.0000 C   0  0  0  0  0  0  0  0  0  0  0  0
   -1.8625    3.5958    0.0000 C   0  0  0  0  0  0  0  0  0  0  0  0
   -0.1333    2.5958    0.0000 C   0  0  0  0  0  0  0  0  0  0  0  0
   -0.1708   -2.3375    0.0000 C   0  0  0  0  0  0  0  0  0  0  0  0
    1.6375   -2.3375    0.0000 C   0  0  0  0  0  0  0  0  0  0  0  0
   -0.9958    4.0917    0.0000 C   0  0  0  0  0  0  0  0  0  0  0  0
   -0.1333    3.5958    0.0000 C   0  0  0  0  0  0  0  0  0  0  0  0
    1.8542   -3.3125    0.0000 C   0  0  0  0  0  0  0  0  0  0  0  0
   -0.3875   -3.3125    0.0000 C   0  0  0  0  0  0  0  0  0  0  0  0
    0.2292   -4.0917    0.0000 C   0  0  0  0  0  0  0  0  0  0  0  0
    1.2292   -4.0917    0.0000 C   0  0  0  0  0  0  0  0  0  0  0  0
  2  1  1  0  0  0  0
  3  1  1  0  0  0  0
  4  6  2  0  0  0  0
  5  1  2  0  0  0  0
  6  7  1  0  0  0  0
  7  3  1  0  0  0  0
  8  2  1  0  0  0  0
  9  4  1  0  0  0  0
  9 13  2  0  0  0  0
 10  6  1  0  0  0  0
 11  8  1  0  0  0  0
 12  8  1  0  0  0  0
 13 14  1  0  0  0  0
 14 10  2  0  0  0  0
 15 12  1  0  0  0  0
 16 11  1  0  0  0  0
 17 16  1  0  0  0  0
 17 18  1  0  0  0  0
 18 15  1  0  0  0  0
M  END
>  <idnumber>
T5679515

>  <LogP>
2.313000000000000e+000

>  <rotating_bonds>
3.000000000000000e+000

>  <hb_acceptors>
2.000000000000000e+000

>  <hb_donors>
2.000000000000000e+000

>  <PSA>
5.402000000000000e+001

>  <clusterid>
639

>  <is_centroid>
@

>  <class1>
833

>  <class2>
632

>  <population1>
2589

>  <population2>
79489

>  <population>
121

>  <cansmi>
O=C(NC1CCCCCC1)NCc1ccccn1

>  <HBA2>
4

>  <HBD>
2

>  <logP>
3.3854

>  <TPSA>
54.02

>  <MW>
247.336

$$$$

 OpenBabel02121609142D

 22 24  0  0  0  0  0  0  0  0999 V2000
   -0.1000    0.2500    0.0000 C   0  0  0  0  0  0  0  0  0  0  0  0
   -0.9708   -0.2500    0.0000 N   0  0  0  0  0  0  0  0  0  0  0  0
   -3.5625    0.2500    0.0000 C   0  0  0  0  0  0  0  0  0  0  0  0
    0.7667   -0.2500    0.0000 C   0  0  0  0  0  0  0  0  0  0  0  0
    4.2292   -1.2500    0.0000 C   0  0  0  0  0  0  0  0  0  0  0  0
    3.3667   -1.7500    0.0000 N   0  0  0  0  0  0  0  0  0  0  0  0
   -1.8333    0.2500    0.0000 C   0  0  0  0  0  0  0  0  0  0  0  0
   -2.6958   -0.2500    0.0000 C   0  0  0  0  0  0  0  0  0  0  0  0
   -0.1000    1.2500    0.0000 O   0  0  0  0  0  0  0  0  0  0  0  0
   -3.5625    1.2500    0.0000 C   0  0  0  0  0  0  0  0  0  0  0  0
    5.0917   -1.7500    0.0000 O   0  0  0  0  0  0  0  0  0  0  0  0
    0.7667   -1.2500    0.0000 C   0  0  0  0  0  0  0  0  0  0  0  0
    1.6292    0.2500    0.0000 C   0  0  0  0  0  0  0  0  0  0  0  0
   -2.6958    1.7500    0.0000 C   0  0  0  0  0  0  0  0  0  0  0  0
    2.5000   -1.2500    0.0000 C   0  0  0  0  0  0  0  0  0  0  0  0
   -1.8333    1.2500    0.0000 C   0  0  0  0  0  0  0  0  0  0  0  0
    1.6292   -1.7500    0.0000 C   0  0  0  0  0  0  0  0  0  0  0  0
    2.5000   -0.2500    0.0000 C   0  0  0  0  0  0  0  0  0  0  0  0
   -4.5208   -0.0542    0.0000 C   0  0  0  0  0  0  0  0  0  0  0  0
   -5.1000    0.7583    0.0000 C   0  0  0  0  0  0  0  0  0  0  0  0
   -4.5208    1.5625    0.0000 C   0  0  0  0  0  0  0  0  0  0  0  0
    4.2292   -0.2500    0.0000 C   0  0  0  0  0  0  0  0  0  0  0  0
  2  1  1  0  0  0  0
  3  8  1  0  0  0  0
  3 10  2  0  0  0  0
  4  1  1  0  0  0  0
  5  6  1  0  0  0  0
  6 15  1  0  0  0  0
  7  2  1  0  0  0  0
  8  7  2  0  0  0  0
  9  1  2  0  0  0  0
 10 14  1  0  0  0  0
 11  5  2  0  0  0  0
 12  4  2  0  0  0  0
 13  4  1  0  0  0  0
 14 16  2  0  0  0  0
 15 18  1  0  0  0  0
 16  7  1  0  0  0  0
 17 12  1  0  0  0  0
 17 15  2  0  0  0  0
 18 13  2  0  0  0  0
 19  3  1  0  0  0  0
 20 19  1  0  0  0  0
 21 10  1  0  0  0  0
 21 20  1  0  0  0  0
 22  5  1  0  0  0  0
M  END
>  <idnumber>
T5679599

>  <LogP>
2.976000000000000e+000

>  <rotating_bonds>
3.000000000000000e+000

>  <hb_acceptors>
2.000000000000000e+000

>  <hb_donors>
2.000000000000000e+000

>  <PSA>
5.820000000000000e+001

>  <clusterid>
641

>  <is_centroid>
@

>  <class1>
625

>  <class2>
644

>  <population1>
877209

>  <population2>
7036

>  <population>
7036

>  <cansmi>
CC(=O)Nc1ccc(cc1)C(=O)Nc1ccc2c(c1)CCC2

>  <HBA2>
4

>  <HBD>
2

>  <logP>
3.532

>  <TPSA>
58.2

>  <MW>
294.348

$$$$

 OpenBabel02121609142D

 16 17  0  0  0  0  0  0  0  0999 V2000
   -0.1458    1.3625    0.0000 C   0  0  0  0  0  0  0  0  0  0  0  0
    0.5250    0.6208    0.0000 N   0  0  0  0  0  0  0  0  0  0  0  0
   -1.0708   -1.4917    0.0000 N   0  0  0  0  0  0  0  0  0  0  0  0
   -0.4000   -2.2292    0.0000 C   0  0  0  0  0  0  0  0  0  0  0  0
   -1.1208    1.1583    0.0000 O   0  0  0  0  0  0  0  0  0  0  0  0
    0.1667    2.3125    0.0000 C   0  0  0  0  0  0  0  0  0  0  0  0
    0.2167   -0.3292    0.0000 C   0  0  0  0  0  0  0  0  0  0  0  0
   -0.7625   -0.5375    0.0000 C   0  0  0  0  0  0  0  0  0  0  0  0
    0.5792   -2.0250    0.0000 C   0  0  0  0  0  0  0  0  0  0  0  0
   -0.7083   -3.1792    0.0000 O   0  0  0  0  0  0  0  0  0  0  0  0
    0.8875   -1.0750    0.0000 C   0  0  0  0  0  0  0  0  0  0  0  0
    1.1167    2.6208    0.0000 C   0  0  0  0  0  0  0  0  0  0  0  0
   -0.4208    3.1208    0.0000 C   0  0  0  0  0  0  0  0  0  0  0  0
   -0.0458   -3.9292    0.0000 C   0  0  0  0  0  0  0  0  0  0  0  0
    0.1667    3.9333    0.0000 C   0  0  0  0  0  0  0  0  0  0  0  0
    1.1167    3.6208    0.0000 C   0  0  0  0  0  0  0  0  0  0  0  0
  2  1  1  0  0  0  0
  3  8  1  0  0  0  0
  3  4  2  0  0  0  0
  4  9  1  0  0  0  0
  5  1  2  0  0  0  0
  6  1  1  0  0  0  0
  7  2  1  0  0  0  0
  8  7  2  0  0  0  0
  9 11  2  0  0  0  0
 10  4  1  0  0  0  0
 11  7  1  0  0  0  0
 12  6  1  0  0  0  0
 13  6  1  0  0  0  0
 14 10  1  0  0  0  0
 15 13  1  0  0  0  0
 16 12  1  0  0  0  0
 16 15  1  0  0  0  0
M  END
>  <idnumber>
T5679655

>  <LogP>
2.803000000000000e+000

>  <rotating_bonds>
3.000000000000000e+000

>  <hb_acceptors>
3.000000000000000e+000

>  <hb_donors>
1.000000000000000e+000

>  <PSA>
5.121999999999999e+001

>  <clusterid>
643

>  <is_centroid>
@

>  <class1>
674

>  <class2>
632

>  <population1>
16474

>  <population2>
79489

>  <population>
605

>  <cansmi>
COc1ccc(cn1)NC(=O)C1CCCC1

>  <HBA2>
4

>  <HBD>
1

>  <logP>
2.2919

>  <TPSA>
51.22

>  <MW>
220.268

$$$$

 OpenBabel02121609142D

 17 18  0  0  0  0  0  0  0  0999 V2000
    1.2917   -0.5000    0.0000 C   0  0  0  0  0  0  0  0  0  0  0  0
    0.4292    0.0000    0.0000 N   0  0  0  0  0  0  0  0  0  0  0  0
   -2.1708    3.5000    0.0000 N   0  0  0  0  0  0  0  0  0  0  0  0
   -1.3000    3.0000    0.0000 C   0  0  0  0  0  0  0  0  0  0  0  0
    2.1625    0.0000    0.0000 O   0  0  0  0  0  0  0  0  0  0  0  0
    0.4292    1.0000    0.0000 C   0  0  0  0  0  0  0  0  0  0  0  0
    1.2917   -1.5000    0.0000 C   0  0  3  0  0  0  0  0  0  0  0  0
    2.1625   -3.0000    0.0000 C   0  0  0  0  0  0  0  0  0  0  0  0
    1.2917   -3.5000    0.0000 C   0  0  0  0  0  0  0  0  0  0  0  0
   -0.4333    2.5000    0.0000 C   0  0  0  0  0  0  0  0  0  0  0  0
   -0.4333    1.5000    0.0000 C   0  0  0  0  0  0  0  0  0  0  0  0
    2.1625   -2.0000    0.0000 C   0  0  0  0  0  0  0  0  0  0  0  0
    1.2917    2.5000    0.0000 C   0  0  0  0  0  0  0  0  0  0  0  0
    1.2917    1.5000    0.0000 C   0  0  0  0  0  0  0  0  0  0  0  0
    0.4292   -3.0000    0.0000 C   0  0  0  0  0  0  0  0  0  0  0  0
    0.4292    3.0000    0.0000 C   0  0  0  0  0  0  0  0  0  0  0  0
    0.4292   -2.0000    0.0000 C   0  0  0  0  0  0  0  0  0  0  0  0
  2  1  1  0  0  0  0
  3  4  3  0  0  0  0
  4 10  1  0  0  0  0
  5  1  2  0  0  0  0
  6  2  1  0  0  0  0
  7  1  1  0  0  0  0
  8 12  1  0  0  0  0
  8  9  2  0  0  0  0
  9 15  1  0  0  0  0
 10 11  1  0  0  0  0
 10 16  2  0  0  0  0
 11  6  2  0  0  0  0
 12  7  1  0  0  0  0
 13 14  2  0  0  0  0
 14  6  1  0  0  0  0
 15 17  1  0  0  0  0
 16 13  1  0  0  0  0
 17  7  1  0  0  0  0
M  END
>  <idnumber>
T5679704

>  <LogP>
2.739000000000000e+000

>  <rotating_bonds>
3.000000000000000e+000

>  <hb_acceptors>
2.000000000000000e+000

>  <hb_donors>
1.000000000000000e+000

>  <PSA>
5.289000000000002e+001

>  <clusterid>
-1129

>  <is_centroid>
@

>  <class1>
810

>  <class2>
625

>  <population1>
20527

>  <population2>
877209

>  <population>
15295

>  <cansmi>
N#Cc1cccc(c1)NC(=O)C1CCC=CC1

>  <HBA2>
3

>  <HBD>
1

>  <logP>
2.92608

>  <TPSA>
52.89

>  <MW>
226.274

$$$$

 OpenBabel02121609142D

 22 25  0  0  0  0  0  0  0  0999 V2000
    0.2292   -0.9542    0.0000 C   0  0  0  0  0  0  0  0  0  0  0  0
   -0.7208   -1.2625    0.0000 C   0  0  0  0  0  0  0  0  0  0  0  0
    0.8167   -1.7625    0.0000 C   0  0  0  0  0  0  0  0  0  0  0  0
    0.2292   -2.5667    0.0000 C   0  0  0  0  0  0  0  0  0  0  0  0
   -0.7208   -2.2625    0.0000 C   0  0  0  0  0  0  0  0  0  0  0  0
    0.5417   -0.0042    0.0000 N   0  0  3  0  0  0  0  0  0  0  0  0
    1.4667    2.8500    0.0000 C   0  0  0  0  0  0  0  0  0  0  0  0
    1.1542    1.9000    0.0000 C   0  0  3  0  0  0  0  0  0  0  0  0
    1.5167    0.2083    0.0000 C   0  0  0  0  0  0  0  0  0  0  0  0
   -0.1333    0.7458    0.0000 C   0  0  0  0  0  0  0  0  0  0  0  0
    0.8000    3.5958    0.0000 O   0  0  0  0  0  0  0  0  0  0  0  0
    1.8292    1.1583    0.0000 C   0  0  0  0  0  0  0  0  0  0  0  0
    0.1792    1.6958    0.0000 C   0  0  0  0  0  0  0  0  0  0  0  0
    2.4417    3.0583    0.0000 N   0  0  0  0  0  0  0  0  0  0  0  0
    1.8167   -1.8667    0.0000 C   0  0  0  0  0  0  0  0  0  0  0  0
   -1.5833   -0.7625    0.0000 C   0  0  0  0  0  0  0  0  0  0  0  0
   -1.5833   -2.7625    0.0000 C   0  0  0  0  0  0  0  0  0  0  0  0
    0.6375   -3.4792    0.0000 C   0  0  0  0  0  0  0  0  0  0  0  0
   -2.4500   -1.2625    0.0000 C   0  0  0  0  0  0  0  0  0  0  0  0
    2.2167   -2.7792    0.0000 C   0  0  0  0  0  0  0  0  0  0  0  0
    1.6292   -3.5917    0.0000 C   0  0  0  0  0  0  0  0  0  0  0  0
   -2.4500   -2.2625    0.0000 C   0  0  0  0  0  0  0  0  0  0  0  0
  2  1  1  0  0  0  0
  3  1  1  0  0  0  0
  4  3  2  0  0  0  0
  5  2  2  0  0  0  0
  5  4  1  0  0  0  0
  6  1  1  0  0  0  0
  7  8  1  0  0  0  0
  8 13  1  0  0  0  0
  9  6  1  0  0  0  0
 10  6  1  0  0  0  0
 11  7  2  0  0  0  0
 12  9  1  0  0  0  0
 12  8  1  0  0  0  0
 13 10  1  0  0  0  0
 14  7  1  0  0  0  0
 15  3  1  0  0  0  0
 16  2  1  0  0  0  0
 17  5  1  0  0  0  0
 17 22  2  0  0  0  0
 18  4  1  0  0  0  0
 18 21  2  0  0  0  0
 19 16  2  0  0  0  0
 20 15  2  0  0  0  0
 21 20  1  0  0  0  0
 22 19  1  0  0  0  0
M  END
>  <idnumber>
T5679721

>  <LogP>
1.976000000000000e+000

>  <rotating_bonds>
2.000000000000000e+000

>  <hb_acceptors>
2.000000000000000e+000

>  <hb_donors>
1.000000000000000e+000

>  <PSA>
4.633000000000000e+001

>  <clusterid>
644

>  <is_centroid>
@

>  <class1>
812

>  <class2>
639

>  <population1>
999

>  <population2>
59855

>  <population>
35

>  <cansmi>
NC(=O)C1CCN(CC1)C1c2ccccc2c2c1cccc2

>  <HBA2>
3

>  <HBD>
1

>  <logP>
3.5919

>  <TPSA>
46.33

>  <MW>
292.375

$$$$

 OpenBabel02121609142D

 17 18  0  0  0  0  0  0  0  0999 V2000
   -0.3958   -0.6500    0.0000 N   0  0  0  0  0  0  0  0  0  0  0  0
    0.5542   -0.9542    0.0000 C   0  0  0  0  0  0  0  0  0  0  0  0
   -0.9833   -1.4542    0.0000 C   0  0  0  0  0  0  0  0  0  0  0  0
    0.5542   -1.9542    0.0000 N   0  0  0  0  0  0  0  0  0  0  0  0
   -0.3958   -2.2667    0.0000 C   0  0  0  0  0  0  0  0  0  0  0  0
   -0.7000    0.3000    0.0000 C   0  0  0  0  0  0  0  0  0  0  0  0
    1.3667   -0.3667    0.0000 O   0  0  0  0  0  0  0  0  0  0  0  0
   -1.9833   -1.4542    0.0000 O   0  0  0  0  0  0  0  0  0  0  0  0
   -0.0333    1.0458    0.0000 C   0  0  0  0  0  0  0  0  0  0  0  0
    1.3042    2.5333    0.0000 C   0  0  0  0  0  0  0  0  0  0  0  0
    1.9750    3.2750    0.0000 Br  0  0  0  0  0  0  0  0  0  0  0  0
   -0.4083   -3.2667    0.0000 C   0  0  0  0  0  0  0  0  0  0  0  0
   -0.9708   -3.0875    0.0000 C   0  0  0  0  0  0  0  0  0  0  0  0
    0.9417    0.8375    0.0000 C   0  0  0  0  0  0  0  0  0  0  0  0
   -0.3458    1.9958    0.0000 C   0  0  0  0  0  0  0  0  0  0  0  0
    0.3292    2.7375    0.0000 C   0  0  0  0  0  0  0  0  0  0  0  0
    1.6167    1.5833    0.0000 C   0  0  0  0  0  0  0  0  0  0  0  0
  2  1  1  0  0  0  0
  3  1  1  0  0  0  0
  4  2  1  0  0  0  0
  5  3  1  0  0  0  0
  5  4  1  0  0  0  0
  6  1  1  0  0  0  0
  7  2  2  0  0  0  0
  8  3  2  0  0  0  0
  9  6  1  0  0  0  0
 10 16  2  0  0  0  0
 11 10  1  0  0  0  0
 12  5  1  0  0  0  0
 13  5  1  0  0  0  0
 14  9  1  0  0  0  0
 15  9  2  0  0  0  0
 16 15  1  0  0  0  0
 17 14  2  0  0  0  0
 17 10  1  0  0  0  0
M  END
>  <idnumber>
T5679756

>  <LogP>
2.604000000000000e+000

>  <rotating_bonds>
2.000000000000000e+000

>  <hb_acceptors>
2.000000000000000e+000

>  <hb_donors>
1.000000000000000e+000

>  <PSA>
4.941000000000003e+001

>  <clusterid>
-1130

>  <is_centroid>
@

>  <class1>
643

>  <class2>
625

>  <population1>
24294

>  <population2>
877209

>  <population>
21686

>  <cansmi>
Brc1ccc(cc1)CN1C(=O)NC(C1=O)(C)C

>  <HBA2>
4

>  <HBD>
1

>  <logP>
2.5462

>  <TPSA>
49.41

>  <MW>
297.148

$$$$

 OpenBabel02121609142D

 20 22  0  0  0  0  0  0  0  0999 V2000
    1.1542   -1.4792    0.0000 N   0  0  0  0  0  0  0  0  0  0  0  0
   -1.4208    2.4583    0.0000 N   0  0  0  0  0  0  0  0  0  0  0  0
    0.1792   -1.2750    0.0000 C   0  0  0  0  0  0  0  0  0  0  0  0
   -1.4208    0.8375    0.0000 C   0  0  0  0  0  0  0  0  0  0  0  0
   -0.8333    1.6458    0.0000 C   0  0  0  0  0  0  0  0  0  0  0  0
   -2.3708    1.1458    0.0000 C   0  0  0  0  0  0  0  0  0  0  0  0
   -2.3708    2.1458    0.0000 C   0  0  0  0  0  0  0  0  0  0  0  0
   -0.1333   -0.3250    0.0000 C   0  0  0  0  0  0  0  0  0  0  0  0
   -1.1083   -0.1167    0.0000 C   0  0  0  0  0  0  0  0  0  0  0  0
    1.8292   -0.7375    0.0000 C   0  0  0  0  0  0  0  0  0  0  0  0
    1.4667   -2.4292    0.0000 C   0  0  0  0  0  0  0  0  0  0  0  0
   -0.4875   -2.0167    0.0000 O   0  0  0  0  0  0  0  0  0  0  0  0
    2.4417   -2.6417    0.0000 C   0  0  0  0  0  0  0  0  0  0  0  0
    2.8042   -0.9417    0.0000 C   0  0  0  0  0  0  0  0  0  0  0  0
    3.1167   -1.8917    0.0000 C   0  0  0  0  0  0  0  0  0  0  0  0
   -3.2333    0.6458    0.0000 C   0  0  0  0  0  0  0  0  0  0  0  0
   -3.2333    2.6458    0.0000 C   0  0  0  0  0  0  0  0  0  0  0  0
    4.0917   -2.1042    0.0000 C   0  0  0  0  0  0  0  0  0  0  0  0
   -4.1000    1.1458    0.0000 C   0  0  0  0  0  0  0  0  0  0  0  0
   -4.1000    2.1458    0.0000 C   0  0  0  0  0  0  0  0  0  0  0  0
  2  5  1  0  0  0  0
  2  7  1  0  0  0  0
  3  1  1  0  0  0  0
  4  9  1  0  0  0  0
  5  4  2  0  0  0  0
  6  4  1  0  0  0  0
  7  6  2  0  0  0  0
  8  3  1  0  0  0  0
  9  8  1  0  0  0  0
 10  1  1  0  0  0  0
 11  1  1  0  0  0  0
 12  3  2  0  0  0  0
 13 11  1  0  0  0  0
 14 10  1  0  0  0  0
 15 13  1  0  0  0  0
 15 14  1  0  0  0  0
 16  6  1  0  0  0  0
 17  7  1  0  0  0  0
 17 20  2  0  0  0  0
 18 15  1  0  0  0  0
 19 16  2  0  0  0  0
 20 19  1  0  0  0  0
M  END
>  <idnumber>
T5679989

>  <LogP>
2.587000000000000e+000

>  <rotating_bonds>
3.000000000000000e+000

>  <hb_acceptors>
1.000000000000000e+000

>  <hb_donors>
1.000000000000000e+000

>  <PSA>
3.610000000000000e+001

>  <clusterid>
522

>  <is_centroid>
@

>  <class1>
748

>  <class2>
639

>  <population1>
15713

>  <population2>
59855

>  <population>
739

>  <cansmi>
CC1CCN(CC1)C(=O)CCc1c[nH]c2c1cccc2

>  <HBA2>
2

>  <HBD>
1

>  <logP>
3.2969

>  <TPSA>
36.1

>  <MW>
270.369

$$$$

 OpenBabel02121609142D

 20 22  0  0  0  0  0  0  0  0999 V2000
   -3.0750   -0.3042    0.0000 N   0  0  0  0  0  0  0  0  0  0  0  0
    2.2042   -0.5000    0.0000 C   0  0  0  0  0  0  0  0  0  0  0  0
   -2.1208    0.0083    0.0000 C   0  0  0  0  0  0  0  0  0  0  0  0
   -3.6625    0.5000    0.0000 C   0  0  0  0  0  0  0  0  0  0  0  0
   -3.0750    1.3125    0.0000 O   0  0  0  0  0  0  0  0  0  0  0  0
    3.0750    0.0083    0.0000 N   0  0  0  0  0  0  0  0  0  0  0  0
   -2.1208    1.0083    0.0000 C   0  0  0  0  0  0  0  0  0  0  0  0
    1.3417    0.0083    0.0000 C   0  0  3  0  0  0  0  0  0  0  0  0
    0.4750   -0.5000    0.0000 N   0  0  0  0  0  0  0  0  0  0  0  0
   -1.2583   -0.5000    0.0000 C   0  0  0  0  0  0  0  0  0  0  0  0
   -0.3958    0.0083    0.0000 C   0  0  0  0  0  0  0  0  0  0  0  0
    2.2042   -1.5000    0.0000 O   0  0  0  0  0  0  0  0  0  0  0  0
   -1.2583    1.5000    0.0000 C   0  0  0  0  0  0  0  0  0  0  0  0
   -0.3958    1.0083    0.0000 C   0  0  0  0  0  0  0  0  0  0  0  0
    3.9875   -0.4042    0.0000 C   0  0  0  0  0  0  0  0  0  0  0  0
    3.1792    0.9958    0.0000 C   0  0  0  0  0  0  0  0  0  0  0  0
   -4.6625    0.5000    0.0000 C   0  0  0  0  0  0  0  0  0  0  0  0
    1.3417    1.0083    0.0000 C   0  0  0  0  0  0  0  0  0  0  0  0
    4.1542    1.2083    0.0000 C   0  0  0  0  0  0  0  0  0  0  0  0
    4.6542    0.3375    0.0000 C   0  0  0  0  0  0  0  0  0  0  0  0
  2  8  1  0  0  0  0
  3  1  1  0  0  0  0
  4  1  2  0  0  0  0
  5  4  1  0  0  0  0
  6  2  1  0  0  0  0
  7  3  2  0  0  0  0
  7  5  1  0  0  0  0
  8  9  1  0  0  0  0
  9 11  1  0  0  0  0
 10  3  1  0  0  0  0
 11 10  2  0  0  0  0
 12  2  2  0  0  0  0
 13  7  1  0  0  0  0
 14 11  1  0  0  0  0
 14 13  2  0  0  0  0
 15  6  1  0  0  0  0
 16  6  1  0  0  0  0
 17  4  1  0  0  0  0
 18  8  1  0  0  0  0
 19 16  1  0  0  0  0
 20 15  1  0  0  0  0
 20 19  1  0  0  0  0
M  END
>  <idnumber>
T5680069

>  <LogP>
1.902000000000000e+000

>  <rotating_bonds>
3.000000000000000e+000

>  <hb_acceptors>
3.000000000000000e+000

>  <hb_donors>
1.000000000000000e+000

>  <PSA>
5.837000000000000e+001

>  <clusterid>
-1131

>  <is_centroid>
@

>  <class1>
752

>  <class2>
642

>  <population1>
4005

>  <population2>
51183

>  <population>
123

>  <cansmi>
O=C(C(Nc1ccc2c(c1)nc(o2)C)C)N1CCCC1

>  <HBA2>
5

>  <HBD>
1

>  <logP>
2.5699

>  <TPSA>
58.37

>  <MW>
273.33

$$$$

 OpenBabel02121609142D

 22 24  0  0  0  0  0  0  0  0999 V2000
   -1.3000    2.0000    0.0000 N   0  0  0  0  0  0  0  0  0  0  0  0
   -1.3000    1.0000    0.0000 C   0  0  0  0  0  0  0  0  0  0  0  0
   -0.4333    2.5000    0.0000 C   0  0  0  0  0  0  0  0  0  0  0  0
   -0.4333    0.5000    0.0000 N   0  0  0  0  0  0  0  0  0  0  0  0
    0.4292    2.0000    0.0000 C   0  0  0  0  0  0  0  0  0  0  0  0
    0.4292    1.0000    0.0000 C   0  0  0  0  0  0  0  0  0  0  0  0
   -2.1708    2.5000    0.0000 C   0  0  0  0  0  0  0  0  0  0  0  0
   -2.1708    0.5000    0.0000 C   0  0  0  0  0  0  0  0  0  0  0  0
    2.1625   -1.0000    0.0000 C   0  0  0  0  0  0  0  0  0  0  0  0
   -3.0333    2.0000    0.0000 C   0  0  0  0  0  0  0  0  0  0  0  0
   -3.0333    1.0000    0.0000 C   0  0  0  0  0  0  0  0  0  0  0  0
    1.2917   -0.5000    0.0000 N   0  0  0  0  0  0  0  0  0  0  0  0
   -0.4333    3.5000    0.0000 O   0  0  0  0  0  0  0  0  0  0  0  0
    3.0292   -0.5000    0.0000 C   0  0  0  0  0  0  0  0  0  0  0  0
    2.1625   -2.0000    0.0000 C   0  0  0  0  0  0  0  0  0  0  0  0
    1.2917    0.5000    0.0000 C   0  0  0  0  0  0  0  0  0  0  0  0
    3.8917   -1.0000    0.0000 C   0  0  0  0  0  0  0  0  0  0  0  0
    3.0292   -2.5000    0.0000 C   0  0  0  0  0  0  0  0  0  0  0  0
    3.8917   -2.0000    0.0000 C   0  0  0  0  0  0  0  0  0  0  0  0
   -3.9000    2.5000    0.0000 C   0  0  0  0  0  0  0  0  0  0  0  0
    3.0292    0.5000    0.0000 C   0  0  0  0  0  0  0  0  0  0  0  0
    3.0292   -3.5000    0.0000 C   0  0  0  0  0  0  0  0  0  0  0  0
  2  1  1  0  0  0  0
  3  1  1  0  0  0  0
  4  2  2  0  0  0  0
  4  6  1  0  0  0  0
  5  3  1  0  0  0  0
  6  5  2  0  0  0  0
  7  1  1  0  0  0  0
  8  2  1  0  0  0  0
  8 11  2  0  0  0  0
  9 12  1  0  0  0  0
 10  7  2  0  0  0  0
 11 10  1  0  0  0  0
 12 16  1  0  0  0  0
 13  3  2  0  0  0  0
 14  9  2  0  0  0  0
 15  9  1  0  0  0  0
 16  6  1  0  0  0  0
 17 14  1  0  0  0  0
 18 15  2  0  0  0  0
 19 18  1  0  0  0  0
 19 17  2  0  0  0  0
 20 10  1  0  0  0  0
 21 14  1  0  0  0  0
 22 18  1  0  0  0  0
M  END
>  <idnumber>
T5680081

>  <LogP>
2.152000000000000e+000

>  <rotating_bonds>
3.000000000000000e+000

>  <hb_acceptors>
3.000000000000000e+000

>  <hb_donors>
1.000000000000000e+000

>  <PSA>
4.470000000000000e+001

>  <clusterid>
608

>  <is_centroid>
@

>  <class1>
625

>  <class2>
806

>  <population1>
877209

>  <population2>
5354

>  <population>
3644

>  <cansmi>
Cc1ccc(c(c1)NCc1cc(=O)n2c(n1)ccc(c2)C)C

>  <HBA2>
4

>  <HBD>
1

>  <logP>
3.3048

>  <TPSA>
46.4

>  <MW>
293.363

$$$$

 OpenBabel02121609142D

 21 23  0  0  0  0  0  0  0  0999 V2000
    0.8625    0.5000    0.0000 C   0  0  0  0  0  0  0  0  0  0  0  0
    0.0000    1.0000    0.0000 N   0  0  0  0  0  0  0  0  0  0  0  0
    0.0000    2.0000    0.0000 C   0  0  3  0  0  0  0  0  0  0  0  0
   -0.8708    2.5000    0.0000 C   0  0  0  0  0  0  0  0  0  0  0  0
    0.8625   -0.4917    0.0000 N   0  0  0  0  0  0  0  0  0  0  0  0
    1.7292    1.0000    0.0000 O   0  0  0  0  0  0  0  0  0  0  0  0
    2.5917   -3.5000    0.0000 N   0  0  0  0  0  0  0  0  0  0  0  0
   -0.8708    3.5000    0.0000 C   0  0  0  0  0  0  0  0  0  0  0  0
    1.7292   -2.0000    0.0000 C   0  0  0  0  0  0  0  0  0  0  0  0
    1.7292   -0.9917    0.0000 C   0  0  0  0  0  0  0  0  0  0  0  0
    2.5917   -2.5000    0.0000 C   0  0  0  0  0  0  0  0  0  0  0  0
    0.8625    2.5000    0.0000 C   0  0  0  0  0  0  0  0  0  0  0  0
    0.8625    3.5000    0.0000 C   0  0  0  0  0  0  0  0  0  0  0  0
   -1.7333    2.0000    0.0000 C   0  0  0  0  0  0  0  0  0  0  0  0
    0.0000    4.0000    0.0000 C   0  0  0  0  0  0  0  0  0  0  0  0
    1.7292   -4.0000    0.0000 C   0  0  0  0  0  0  0  0  0  0  0  0
   -1.7333    4.0000    0.0000 C   0  0  0  0  0  0  0  0  0  0  0  0
    0.8625   -2.5000    0.0000 C   0  0  0  0  0  0  0  0  0  0  0  0
    0.8625   -3.5000    0.0000 C   0  0  0  0  0  0  0  0  0  0  0  0
   -2.6000    2.5000    0.0000 C   0  0  0  0  0  0  0  0  0  0  0  0
   -2.6000    3.5000    0.0000 C   0  0  0  0  0  0  0  0  0  0  0  0
  2  1  1  0  0  0  0
  3  2  1  0  0  0  0
  4  3  1  0  0  0  0
  5  1  1  0  0  0  0
  6  1  2  0  0  0  0
  7 11  1  0  0  0  0
  7 16  2  0  0  0  0
  8  4  2  0  0  0  0
  8 15  1  0  0  0  0
  9 10  1  0  0  0  0
 10  5  1  0  0  0  0
 11  9  2  0  0  0  0
 12  3  1  0  0  0  0
 13 12  1  0  0  0  0
 14  4  1  0  0  0  0
 15 13  1  0  0  0  0
 16 19  1  0  0  0  0
 17  8  1  0  0  0  0
 17 21  2  0  0  0  0
 18  9  1  0  0  0  0
 19 18  2  0  0  0  0
 20 14  2  0  0  0  0
 21 20  1  0  0  0  0
M  END
>  <idnumber>
T5680450

>  <LogP>
2.364000000000000e+000

>  <rotating_bonds>
3.000000000000000e+000

>  <hb_acceptors>
2.000000000000000e+000

>  <hb_donors>
2.000000000000000e+000

>  <PSA>
5.402000000000000e+001

>  <clusterid>
-1132

>  <is_centroid>
@

>  <class1>
632

>  <class2>
807

>  <population1>
79489

>  <population2>
5384

>  <population>
259

>  <cansmi>
O=C(NC1CCCc2c1cccc2)NCc1cccnc1

>  <HBA2>
4

>  <HBD>
2

>  <logP>
3.7402

>  <TPSA>
54.02

>  <MW>
281.352

$$$$

 OpenBabel02121609142D

 22 24  0  0  0  0  0  0  0  0999 V2000
   -1.7333   -0.5000    0.0000 C   0  0  0  0  0  0  0  0  0  0  0  0
   -0.8708   -1.0000    0.0000 N   0  0  0  0  0  0  0  0  0  0  0  0
    0.8625   -2.0000    0.0000 N   0  0  0  0  0  0  0  0  0  0  0  0
    1.7292   -2.5000    0.0000 C   0  0  0  0  0  0  0  0  0  0  0  0
   -1.7333    0.5000    0.0000 N   0  0  0  0  0  0  0  0  0  0  0  0
    2.5917   -2.0000    0.0000 N   0  0  0  0  0  0  0  0  0  0  0  0
   -0.8708   -2.0000    0.0000 C   0  0  0  0  0  0  0  0  0  0  0  0
    0.0000   -0.5000    0.0000 C   0  0  0  0  0  0  0  0  0  0  0  0
    0.8625   -1.0000    0.0000 C   0  0  0  0  0  0  0  0  0  0  0  0
    0.0000   -2.5000    0.0000 C   0  0  0  0  0  0  0  0  0  0  0  0
   -2.6000   -1.0000    0.0000 O   0  0  0  0  0  0  0  0  0  0  0  0
   -2.6000    1.0000    0.0000 C   0  0  0  0  0  0  0  0  0  0  0  0
   -2.6000    2.0083    0.0000 C   0  0  0  0  0  0  0  0  0  0  0  0
    1.7292   -3.5000    0.0000 C   0  0  0  0  0  0  0  0  0  0  0  0
    3.4625   -2.5000    0.0000 C   0  0  0  0  0  0  0  0  0  0  0  0
   -1.7333    2.5000    0.0000 C   0  0  0  0  0  0  0  0  0  0  0  0
   -3.4708    2.5000    0.0000 C   0  0  0  0  0  0  0  0  0  0  0  0
    2.5917   -4.0000    0.0000 C   0  0  0  0  0  0  0  0  0  0  0  0
    3.4625   -3.5000    0.0000 C   0  0  0  0  0  0  0  0  0  0  0  0
   -3.4708    3.5000    0.0000 C   0  0  0  0  0  0  0  0  0  0  0  0
   -1.7333    3.5000    0.0000 C   0  0  0  0  0  0  0  0  0  0  0  0
   -2.6000    4.0000    0.0000 C   0  0  0  0  0  0  0  0  0  0  0  0
  2  1  1  0  0  0  0
  3  9  1  0  0  0  0
  4  3  1  0  0  0  0
  5  1  1  0  0  0  0
  6  4  2  0  0  0  0
  7  2  1  0  0  0  0
  8  2  1  0  0  0  0
  9  8  1  0  0  0  0
 10  7  1  0  0  0  0
 10  3  1  0  0  0  0
 11  1  2  0  0  0  0
 12  5  1  0  0  0  0
 13 12  1  0  0  0  0
 14  4  1  0  0  0  0
 15  6  1  0  0  0  0
 15 19  2  0  0  0  0
 16 13  1  0  0  0  0
 17 13  2  0  0  0  0
 18 14  2  0  0  0  0
 19 18  1  0  0  0  0
 20 17  1  0  0  0  0
 21 16  2  0  0  0  0
 21 22  1  0  0  0  0
 22 20  2  0  0  0  0
M  END
>  <idnumber>
T5680470

>  <LogP>
1.667000000000000e+000

>  <rotating_bonds>
3.000000000000000e+000

>  <hb_acceptors>
3.000000000000000e+000

>  <hb_donors>
1.000000000000000e+000

>  <PSA>
4.847000000000000e+001

>  <clusterid>
-1133

>  <is_centroid>
@

>  <class1>
717

>  <class2>
632

>  <class3>
625

>  <population1>
74368

>  <population2>
79489

>  <population3>
877209

>  <population>
5587

>  <cansmi>
O=C(N1CCN(CC1)c1ccccn1)NCc1ccccc1

>  <HBA2>
5

>  <HBD>
1

>  <logP>
2.5072

>  <TPSA>
48.47

>  <MW>
296.367

$$$$

 OpenBabel02121609142D

 20 22  0  0  0  0  0  0  0  0999 V2000
    0.0125   -1.0750    0.0000 C   0  0  0  0  0  0  0  0  0  0  0  0
    0.0125   -0.0750    0.0000 C   0  0  0  0  0  0  0  0  0  0  0  0
   -0.7958   -1.6625    0.0000 C   0  0  0  0  0  0  0  0  0  0  0  0
    0.8167   -1.6625    0.0000 C   0  0  0  0  0  0  0  0  0  0  0  0
   -0.4875   -2.6125    0.0000 O   0  0  0  0  0  0  0  0  0  0  0  0
    0.8792    0.4250    0.0000 N   0  0  0  0  0  0  0  0  0  0  0  0
    0.5125   -2.6125    0.0000 C   0  0  0  0  0  0  0  0  0  0  0  0
    0.8792    1.4250    0.0000 C   0  0  0  0  0  0  0  0  0  0  0  0
    0.0125    1.9250    0.0000 C   0  0  0  0  0  0  0  0  0  0  0  0
   -0.8583    1.4250    0.0000 N   0  0  0  0  0  0  0  0  0  0  0  0
   -0.8583    0.4250    0.0000 O   0  0  0  0  0  0  0  0  0  0  0  0
    0.0125    2.9250    0.0000 C   0  0  0  0  0  0  0  0  0  0  0  0
   -1.7500   -1.3542    0.0000 C   0  0  0  0  0  0  0  0  0  0  0  0
    1.7417    1.9250    0.0000 C   0  0  0  0  0  0  0  0  0  0  0  0
    1.1000   -3.4167    0.0000 C   0  0  0  0  0  0  0  0  0  0  0  0
    1.7417    2.9250    0.0000 C   0  0  0  0  0  0  0  0  0  0  0  0
   -1.7208    1.9250    0.0000 C   0  0  0  0  0  0  0  0  0  0  0  0
    0.8792    3.4250    0.0000 C   0  0  0  0  0  0  0  0  0  0  0  0
   -0.8583    3.4250    0.0000 C   0  0  0  0  0  0  0  0  0  0  0  0
   -1.7208    2.9250    0.0000 C   0  0  0  0  0  0  0  0  0  0  0  0
  2  1  1  0  0  0  0
  3  1  2  0  0  0  0
  4  1  1  0  0  0  0
  5  3  1  0  0  0  0
  6  2  1  0  0  0  0
  7  4  2  0  0  0  0
  7  5  1  0  0  0  0
  8  6  1  0  0  0  0
  9  8  2  0  0  0  0
 10  9  1  0  0  0  0
 11  2  2  0  0  0  0
 12  9  1  0  0  0  0
 12 18  2  0  0  0  0
 13  3  1  0  0  0  0
 14  8  1  0  0  0  0
 15  7  1  0  0  0  0
 16 14  2  0  0  0  0
 17 10  2  0  0  0  0
 18 16  1  0  0  0  0
 19 12  1  0  0  0  0
 20 19  2  0  0  0  0
 20 17  1  0  0  0  0
M  END
>  <idnumber>
T5680486

>  <LogP>
2.992000000000000e+000

>  <rotating_bonds>
2.000000000000000e+000

>  <hb_acceptors>
2.000000000000000e+000

>  <hb_donors>
1.000000000000000e+000

>  <PSA>
5.513000000000000e+001

>  <clusterid>
-1134

>  <is_centroid>
@

>  <class1>
704

>  <class2>
682

>  <population1>
51112

>  <population2>
20351

>  <population>
1351

>  <cansmi>
Cc1oc(c(c1)C(=O)Nc1cccc2c1nccc2)C

>  <HBA2>
4

>  <HBD>
1

>  <logP>
3.7699

>  <TPSA>
55.13

>  <MW>
266.295

$$$$

 OpenBabel02121609142D

 16 17  0  0  0  0  0  0  0  0999 V2000
   -0.9500   -0.4167    0.0000 C   0  0  0  0  0  0  0  0  0  0  0  0
    0.0000   -0.1042    0.0000 N   0  0  0  0  0  0  0  0  0  0  0  0
    0.0000    0.8958    0.0000 C   0  0  0  0  0  0  0  0  0  0  0  0
   -1.5375    0.3958    0.0000 C   0  0  0  0  0  0  0  0  0  0  0  0
   -0.9500    1.2083    0.0000 O   0  0  0  0  0  0  0  0  0  0  0  0
   -1.2583   -1.3667    0.0000 C   0  0  0  0  0  0  0  0  0  0  0  0
    0.8125    1.4833    0.0000 C   0  0  0  0  0  0  0  0  0  0  0  0
   -2.2375   -1.5750    0.0000 O   0  0  0  0  0  0  0  0  0  0  0  0
   -0.5875   -2.1042    0.0000 O   0  0  0  0  0  0  0  0  0  0  0  0
   -2.5375    0.3958    0.0000 C   0  0  0  0  0  0  0  0  0  0  0  0
    1.7250    1.0750    0.0000 C   0  0  0  0  0  0  0  0  0  0  0  0
    0.7042    2.4750    0.0000 C   0  0  0  0  0  0  0  0  0  0  0  0
   -0.9000   -3.0542    0.0000 C   0  0  0  0  0  0  0  0  0  0  0  0
    1.5167    3.0625    0.0000 C   0  0  0  0  0  0  0  0  0  0  0  0
    2.5292    1.6625    0.0000 C   0  0  0  0  0  0  0  0  0  0  0  0
    2.4292    2.6583    0.0000 C   0  0  0  0  0  0  0  0  0  0  0  0
  2  1  1  0  0  0  0
  3  2  2  0  0  0  0
  3  5  1  0  0  0  0
  4  1  2  0  0  0  0
  5  4  1  0  0  0  0
  6  1  1  0  0  0  0
  7  3  1  0  0  0  0
  8  6  2  0  0  0  0
  9  6  1  0  0  0  0
 10  4  1  0  0  0  0
 11  7  1  0  0  0  0
 12  7  2  0  0  0  0
 13  9  1  0  0  0  0
 14 12  1  0  0  0  0
 15 11  2  0  0  0  0
 15 16  1  0  0  0  0
 16 14  2  0  0  0  0
M  END
>  <idnumber>
T5680521

>  <LogP>
1.910000000000000e+000

>  <rotating_bonds>
3.000000000000000e+000

>  <hb_acceptors>
2.000000000000000e+000

>  <hb_donors>
0.000000000000000e+000

>  <PSA>
5.233000000000001e+001

>  <clusterid>
-1136

>  <is_centroid>
@

>  <class1>
789

>  <class2>
625

>  <population1>
4296

>  <population2>
877209

>  <population>
4081

>  <cansmi>
COC(=O)c1nc(oc1C)c1ccccc1

>  <HBA2>
4

>  <HBD>
0

>  <logP>
2.4366

>  <TPSA>
52.33

>  <MW>
217.221

$$$$

 OpenBabel02121609142D

 22 24  0  0  0  0  0  0  0  0999 V2000
   -1.3000    0.5000    0.0000 N   0  0  0  0  0  0  0  0  0  0  0  0
   -1.3000   -0.5000    0.0000 C   0  0  0  0  0  0  0  0  0  0  0  0
   -2.1708    1.0000    0.0000 C   0  0  0  0  0  0  0  0  0  0  0  0
   -0.4333   -1.0000    0.0000 C   0  0  0  0  0  0  0  0  0  0  0  0
    3.0292   -2.0000    0.0000 C   0  0  0  0  0  0  0  0  0  0  0  0
    2.1625   -2.4917    0.0000 N   0  0  0  0  0  0  0  0  0  0  0  0
   -2.1708   -1.0000    0.0000 O   0  0  0  0  0  0  0  0  0  0  0  0
   -2.1708    2.0000    0.0000 C   0  0  0  0  0  0  0  0  0  0  0  0
    3.8917   -2.4917    0.0000 O   0  0  0  0  0  0  0  0  0  0  0  0
   -0.4333   -2.0000    0.0000 C   0  0  0  0  0  0  0  0  0  0  0  0
    0.4292   -0.5000    0.0000 C   0  0  0  0  0  0  0  0  0  0  0  0
   -0.4333    1.0000    0.0000 C   0  0  0  0  0  0  0  0  0  0  0  0
    1.2917   -2.0000    0.0000 C   0  0  0  0  0  0  0  0  0  0  0  0
    1.2917   -1.0000    0.0000 C   0  0  0  0  0  0  0  0  0  0  0  0
    0.4292   -2.4917    0.0000 C   0  0  0  0  0  0  0  0  0  0  0  0
   -3.0333    0.5000    0.0000 C   0  0  0  0  0  0  0  0  0  0  0  0
   -0.4333    2.0000    0.0000 C   0  0  0  0  0  0  0  0  0  0  0  0
   -1.3000    2.5000    0.0000 C   0  0  0  0  0  0  0  0  0  0  0  0
    3.0292   -1.0000    0.0000 C   0  0  0  0  0  0  0  0  0  0  0  0
   -3.0333    2.5000    0.0000 C   0  0  0  0  0  0  0  0  0  0  0  0
   -3.9000    1.0000    0.0000 C   0  0  0  0  0  0  0  0  0  0  0  0
   -3.9000    2.0000    0.0000 C   0  0  0  0  0  0  0  0  0  0  0  0
  2  1  1  0  0  0  0
  3  1  1  0  0  0  0
  4  2  1  0  0  0  0
  5  6  1  0  0  0  0
  6 13  1  0  0  0  0
  7  2  2  0  0  0  0
  8  3  2  0  0  0  0
  8 18  1  0  0  0  0
  9  5  2  0  0  0  0
 10  4  2  0  0  0  0
 11  4  1  0  0  0  0
 12  1  1  0  0  0  0
 13 14  1  0  0  0  0
 14 11  2  0  0  0  0
 15 10  1  0  0  0  0
 15 13  2  0  0  0  0
 16  3  1  0  0  0  0
 17 12  1  0  0  0  0
 18 17  1  0  0  0  0
 19  5  1  0  0  0  0
 20  8  1  0  0  0  0
 20 22  2  0  0  0  0
 21 16  2  0  0  0  0
 22 21  1  0  0  0  0
M  END
>  <idnumber>
T5680866

>  <LogP>
2.528000000000000e+000

>  <rotating_bonds>
2.000000000000000e+000

>  <hb_acceptors>
2.000000000000000e+000

>  <hb_donors>
1.000000000000000e+000

>  <PSA>
4.941000000000003e+001

>  <clusterid>
-1139

>  <is_centroid>
@

>  <class1>
814

>  <class2>
625

>  <population1>
5317

>  <population2>
877209

>  <population>
5317

>  <cansmi>
CC(=O)Nc1ccc(cc1)C(=O)N1CCCc2c1cccc2

>  <HBA2>
4

>  <HBD>
1

>  <logP>
3.376

>  <TPSA>
49.41

>  <MW>
294.348

$$$$

 OpenBabel02121609142D

 22 24  0  0  0  0  0  0  0  0999 V2000
   -0.6208    0.8583    0.0000 N   0  0  0  0  0  0  0  0  0  0  0  0
   -1.2083    1.6625    0.0000 C   0  0  0  0  0  0  0  0  0  0  0  0
   -1.2083    0.0458    0.0000 C   0  0  0  0  0  0  0  0  0  0  0  0
    0.3792    0.8583    0.0000 C   0  0  0  0  0  0  0  0  0  0  0  0
    0.8792   -0.0125    0.0000 C   0  0  0  0  0  0  0  0  0  0  0  0
   -2.1583    0.3583    0.0000 C   0  0  3  0  0  0  0  0  0  0  0  0
   -2.1583    1.3583    0.0000 C   0  0  3  0  0  0  0  0  0  0  0  0
    1.8792   -0.0125    0.0000 N   0  0  0  0  0  0  0  0  0  0  0  0
   -0.8958    2.6125    0.0000 O   0  0  0  0  0  0  0  0  0  0  0  0
   -0.8958   -0.9042    0.0000 O   0  0  0  0  0  0  0  0  0  0  0  0
    0.3792   -0.8792    0.0000 O   0  0  0  0  0  0  0  0  0  0  0  0
    2.3792   -0.8792    0.0000 C   0  0  0  0  0  0  0  0  0  0  0  0
   -3.8958    1.3583    0.0000 C   0  0  0  0  0  0  0  0  0  0  0  0
   -3.8958    0.3583    0.0000 C   0  0  0  0  0  0  0  0  0  0  0  0
   -3.0208    1.8583    0.0000 C   0  0  0  0  0  0  0  0  0  0  0  0
   -3.0208   -0.1417    0.0000 C   0  0  0  0  0  0  0  0  0  0  0  0
    2.3792    0.8583    0.0000 C   0  0  0  0  0  0  0  0  0  0  0  0
    1.8792   -1.7417    0.0000 C   0  0  0  0  0  0  0  0  0  0  0  0
    3.3792   -0.8792    0.0000 C   0  0  0  0  0  0  0  0  0  0  0  0
    3.8792   -1.7417    0.0000 C   0  0  0  0  0  0  0  0  0  0  0  0
    2.3792   -2.6042    0.0000 C   0  0  0  0  0  0  0  0  0  0  0  0
    3.3792   -2.6042    0.0000 C   0  0  0  0  0  0  0  0  0  0  0  0
  2  1  1  0  0  0  0
  3  1  1  0  0  0  0
  4  1  1  0  0  0  0
  5  4  1  0  0  0  0
  6  3  1  0  0  0  0
  7  2  1  0  0  0  0
  7  6  1  0  0  0  0
  8  5  1  0  0  0  0
  9  2  2  0  0  0  0
 10  3  2  0  0  0  0
 11  5  2  0  0  0  0
 12  8  1  0  0  0  0
 13 15  1  0  0  0  0
 13 14  2  0  0  0  0
 14 16  1  0  0  0  0
 15  7  1  0  0  0  0
 16  6  1  0  0  0  0
 17  8  1  0  0  0  0
 18 12  1  0  0  0  0
 19 12  2  0  0  0  0
 20 19  1  0  0  0  0
 21 18  2  0  0  0  0
 21 22  1  0  0  0  0
 22 20  2  0  0  0  0
M  END
>  <idnumber>
T5681098

>  <LogP>
1.540000000000000e+000

>  <rotating_bonds>
3.000000000000000e+000

>  <hb_acceptors>
3.000000000000000e+000

>  <hb_donors>
0.000000000000000e+000

>  <PSA>
5.769000000000001e+001

>  <clusterid>
-1140

>  <is_centroid>
@

>  <class1>
625

>  <class2>
804

>  <population1>
877209

>  <population2>
1311

>  <population>
1063

>  <cansmi>
CN(c1ccccc1)C(=O)CN1C(=O)C2C(C1=O)CC=CC2

>  <HBA2>
5

>  <HBD>
0

>  <logP>
1.5385

>  <TPSA>
57.69

>  <MW>
298.336

$$$$

 OpenBabel02121609142D

 19 21  0  0  0  0  0  0  0  0999 V2000
    1.6292   -0.5000    0.0000 C   0  0  0  0  0  0  0  0  0  0  0  0
   -2.6958    0.0000    0.0000 C   0  0  0  0  0  0  0  0  0  0  0  0
    0.7667    0.0000    0.0000 N   0  0  0  0  0  0  0  0  0  0  0  0
   -2.6958    1.0083    0.0000 C   0  0  0  0  0  0  0  0  0  0  0  0
   -3.6458   -0.3042    0.0000 O   0  0  0  0  0  0  0  0  0  0  0  0
   -3.6458    1.3125    0.0000 O   0  0  0  0  0  0  0  0  0  0  0  0
   -4.2375    0.5000    0.0000 C   0  0  0  0  0  0  0  0  0  0  0  0
   -1.8333   -0.5000    0.0000 C   0  0  0  0  0  0  0  0  0  0  0  0
    1.6292   -1.5000    0.0000 O   0  0  0  0  0  0  0  0  0  0  0  0
    2.5000    0.0000    0.0000 C   0  0  3  0  0  0  0  0  0  0  0  0
   -1.8333    1.5000    0.0000 C   0  0  0  0  0  0  0  0  0  0  0  0
    3.3667    1.5000    0.0000 C   0  0  0  0  0  0  0  0  0  0  0  0
    4.2292    1.0083    0.0000 C   0  0  0  0  0  0  0  0  0  0  0  0
   -0.9708    0.0000    0.0000 C   0  0  0  0  0  0  0  0  0  0  0  0
   -0.1000   -0.5000    0.0000 C   0  0  0  0  0  0  0  0  0  0  0  0
   -0.9708    1.0083    0.0000 C   0  0  0  0  0  0  0  0  0  0  0  0
    2.5000    1.0083    0.0000 C   0  0  0  0  0  0  0  0  0  0  0  0
    4.2292    0.0000    0.0000 C   0  0  0  0  0  0  0  0  0  0  0  0
    3.3667   -0.5000    0.0000 C   0  0  0  0  0  0  0  0  0  0  0  0
  2  8  1  0  0  0  0
  2  4  2  0  0  0  0
  3  1  1  0  0  0  0
  4 11  1  0  0  0  0
  5  2  1  0  0  0  0
  6  4  1  0  0  0  0
  6  7  1  0  0  0  0
  7  5  1  0  0  0  0
  8 14  2  0  0  0  0
  9  1  2  0  0  0  0
 10  1  1  0  0  0  0
 11 16  2  0  0  0  0
 12 17  1  0  0  0  0
 12 13  2  0  0  0  0
 13 18  1  0  0  0  0
 14 15  1  0  0  0  0
 15  3  1  0  0  0  0
 16 14  1  0  0  0  0
 17 10  1  0  0  0  0
 18 19  1  0  0  0  0
 19 10  1  0  0  0  0
M  END
>  <idnumber>
T5681717

>  <LogP>
2.062000000000000e+000

>  <rotating_bonds>
3.000000000000000e+000

>  <hb_acceptors>
3.000000000000000e+000

>  <hb_donors>
1.000000000000000e+000

>  <PSA>
4.756000000000000e+001

>  <clusterid>
-1142

>  <is_centroid>
@

>  <class1>
810

>  <class2>
811

>  <population1>
20527

>  <population2>
21222

>  <population>
243

>  <cansmi>
O=C(C1CCC=CC1)NCc1ccc2c(c1)OCO2

>  <HBA2>
4

>  <HBD>
1

>  <logP>
2.7787

>  <TPSA>
47.56

>  <MW>
259.3

$$$$

 OpenBabel02121609142D

 17 18  0  0  0  0  0  0  0  0999 V2000
   -0.4333    0.2500    0.0000 C   0  0  0  0  0  0  0  0  0  0  0  0
    0.4292   -0.2500    0.0000 N   0  0  0  0  0  0  0  0  0  0  0  0
    1.2917    0.2500    0.0000 C   0  0  0  0  0  0  0  0  0  0  0  0
   -0.4333    1.2500    0.0000 O   0  0  0  0  0  0  0  0  0  0  0  0
   -1.3000   -0.2500    0.0000 C   0  0  3  0  0  0  0  0  0  0  0  0
    2.1625   -0.2500    0.0000 C   0  0  0  0  0  0  0  0  0  0  0  0
   -2.1708   -1.7500    0.0000 C   0  0  0  0  0  0  0  0  0  0  0  0
   -3.0333   -1.2500    0.0000 C   0  0  0  0  0  0  0  0  0  0  0  0
   -1.3000   -1.2500    0.0000 C   0  0  0  0  0  0  0  0  0  0  0  0
    1.2917    1.2500    0.0000 C   0  0  0  0  0  0  0  0  0  0  0  0
    2.1625   -1.2500    0.0000 C   0  0  0  0  0  0  0  0  0  0  0  0
   -3.0333   -0.2500    0.0000 C   0  0  0  0  0  0  0  0  0  0  0  0
    3.0292    0.2500    0.0000 C   0  0  0  0  0  0  0  0  0  0  0  0
   -2.1708    0.2500    0.0000 C   0  0  0  0  0  0  0  0  0  0  0  0
    3.0292   -1.7500    0.0000 C   0  0  0  0  0  0  0  0  0  0  0  0
    2.1625    1.7500    0.0000 C   0  0  0  0  0  0  0  0  0  0  0  0
    3.0292    1.2500    0.0000 C   0  0  0  0  0  0  0  0  0  0  0  0
  2  1  1  0  0  0  0
  3  2  1  0  0  0  0
  4  1  2  0  0  0  0
  5  1  1  0  0  0  0
  6  3  2  0  0  0  0
  7  9  1  0  0  0  0
  7  8  2  0  0  0  0
  8 12  1  0  0  0  0
  9  5  1  0  0  0  0
 10  3  1  0  0  0  0
 11  6  1  0  0  0  0
 12 14  1  0  0  0  0
 13  6  1  0  0  0  0
 13 17  2  0  0  0  0
 14  5  1  0  0  0  0
 15 11  1  0  0  0  0
 16 10  2  0  0  0  0
 17 16  1  0  0  0  0
M  END
>  <idnumber>
T5681976

>  <LogP>
2.866000000000000e+000

>  <rotating_bonds>
3.000000000000000e+000

>  <hb_acceptors>
1.000000000000000e+000

>  <hb_donors>
1.000000000000000e+000

>  <PSA>
2.910000000000000e+001

>  <clusterid>
332

>  <is_centroid>
@

>  <class1>
810

>  <class2>
625

>  <population1>
20527

>  <population2>
877209

>  <population>
15295

>  <cansmi>
CCc1ccccc1NC(=O)C1CCC=CC1

>  <HBA2>
2

>  <HBD>
1

>  <logP>
3.6168

>  <TPSA>
29.1

>  <MW>
229.317

$$$$

 OpenBabel02121609142D

 18 20  0  0  0  0  0  0  0  0999 V2000
    1.2917   -0.4792    0.0000 C   0  0  0  0  0  0  0  0  0  0  0  0
    0.4292    0.0208    0.0000 N   0  0  0  0  0  0  0  0  0  0  0  0
    1.2917   -1.4792    0.0000 C   0  0  0  0  0  0  0  0  0  0  0  0
    0.4292    1.0208    0.0000 C   0  0  3  0  0  0  0  0  0  0  0  0
   -0.4333    1.5208    0.0000 C   0  0  0  0  0  0  0  0  0  0  0  0
    2.1042   -2.0667    0.0000 O   0  0  0  0  0  0  0  0  0  0  0  0
    2.1625    0.0208    0.0000 O   0  0  0  0  0  0  0  0  0  0  0  0
    0.4875   -2.0667    0.0000 C   0  0  0  0  0  0  0  0  0  0  0  0
    1.7917   -3.0167    0.0000 C   0  0  0  0  0  0  0  0  0  0  0  0
   -0.4333    2.5208    0.0000 C   0  0  0  0  0  0  0  0  0  0  0  0
    0.7917   -3.0167    0.0000 C   0  0  0  0  0  0  0  0  0  0  0  0
    1.2917    1.5208    0.0000 C   0  0  0  0  0  0  0  0  0  0  0  0
    1.2917    2.5208    0.0000 C   0  0  0  0  0  0  0  0  0  0  0  0
   -1.3000    1.0208    0.0000 C   0  0  0  0  0  0  0  0  0  0  0  0
    0.4292    3.0208    0.0000 C   0  0  0  0  0  0  0  0  0  0  0  0
   -1.3000    3.0208    0.0000 C   0  0  0  0  0  0  0  0  0  0  0  0
   -2.1708    1.5208    0.0000 C   0  0  0  0  0  0  0  0  0  0  0  0
   -2.1708    2.5208    0.0000 C   0  0  0  0  0  0  0  0  0  0  0  0
  2  1  1  0  0  0  0
  3  1  1  0  0  0  0
  4  2  1  0  0  0  0
  5  4  1  0  0  0  0
  6  3  1  0  0  0  0
  7  1  2  0  0  0  0
  8  3  2  0  0  0  0
  9  6  1  0  0  0  0
 10  5  2  0  0  0  0
 10 15  1  0  0  0  0
 11  8  1  0  0  0  0
 11  9  2  0  0  0  0
 12  4  1  0  0  0  0
 13 12  1  0  0  0  0
 14  5  1  0  0  0  0
 15 13  1  0  0  0  0
 16 10  1  0  0  0  0
 16 18  2  0  0  0  0
 17 14  2  0  0  0  0
 18 17  1  0  0  0  0
M  END
>  <idnumber>
T5682028

>  <LogP>
2.978000000000000e+000

>  <rotating_bonds>
2.000000000000000e+000

>  <hb_acceptors>
1.000000000000000e+000

>  <hb_donors>
1.000000000000000e+000

>  <PSA>
4.224000000000000e+001

>  <clusterid>
-1143

>  <is_centroid>
@

>  <class1>
704

>  <class2>
807

>  <population1>
51112

>  <population2>
5384

>  <population>
201

>  <cansmi>
O=C(c1ccco1)NC1CCCc2c1cccc2

>  <HBA2>
3

>  <HBD>
1

>  <logP>
3.4779

>  <TPSA>
42.24

>  <MW>
241.285

$$$$

 OpenBabel02121609142D

 20 22  0  0  0  0  0  0  0  0999 V2000
    2.0250   -0.4500    0.0000 C   0  0  0  0  0  0  0  0  0  0  0  0
   -0.5208    0.1833    0.0000 C   0  0  0  0  0  0  0  0  0  0  0  0
    0.3042   -0.3917    0.0000 N   0  0  0  0  0  0  0  0  0  0  0  0
   -2.2208    0.2583    0.0000 C   0  0  0  0  0  0  0  0  0  0  0  0
   -1.4083   -0.2917    0.0000 C   0  0  0  0  0  0  0  0  0  0  0  0
    1.1792    0.0958    0.0000 C   0  0  3  0  0  0  0  0  0  0  0  0
    2.9042    0.0208    0.0000 N   0  0  0  0  0  0  0  0  0  0  0  0
   -2.2208    1.2333    0.0000 C   0  0  0  0  0  0  0  0  0  0  0  0
   -3.1333   -0.1125    0.0000 C   0  0  0  0  0  0  0  0  0  0  0  0
    1.9792   -1.4417    0.0000 O   0  0  0  0  0  0  0  0  0  0  0  0
   -0.4833    1.1833    0.0000 C   0  0  0  0  0  0  0  0  0  0  0  0
   -1.3375    1.7083    0.0000 C   0  0  0  0  0  0  0  0  0  0  0  0
   -3.1958    1.5125    0.0000 C   0  0  0  0  0  0  0  0  0  0  0  0
   -3.7583    0.6833    0.0000 C   0  0  0  0  0  0  0  0  0  0  0  0
   -1.5208   -1.2917    0.0000 C   0  0  0  0  0  0  0  0  0  0  0  0
   -2.4333   -1.7042    0.0000 C   0  0  0  0  0  0  0  0  0  0  0  0
    1.2167    1.0958    0.0000 C   0  0  0  0  0  0  0  0  0  0  0  0
   -3.2458   -1.1125    0.0000 C   0  0  0  0  0  0  0  0  0  0  0  0
    2.9417    1.0208    0.0000 C   0  0  0  0  0  0  0  0  0  0  0  0
    3.7500   -0.5167    0.0000 C   0  0  0  0  0  0  0  0  0  0  0  0
  2  3  1  0  0  0  0
  3  6  1  0  0  0  0
  4  5  1  0  0  0  0
  4  8  2  0  0  0  0
  5  2  2  0  0  0  0
  6  1  1  0  0  0  0
  7  1  1  0  0  0  0
  8 12  1  0  0  0  0
  9  4  1  0  0  0  0
  9 18  2  0  0  0  0
 10  1  2  0  0  0  0
 11  2  1  0  0  0  0
 12 11  2  0  0  0  0
 13  8  1  0  0  0  0
 13 14  1  0  0  0  0
 14  9  1  0  0  0  0
 15  5  1  0  0  0  0
 16 15  2  0  0  0  0
 17  6  1  0  0  0  0
 18 16  1  0  0  0  0
 19  7  1  0  0  0  0
 20  7  1  0  0  0  0
M  END
>  <idnumber>
T5682260

>  <LogP>
2.903000000000000e+000

>  <rotating_bonds>
3.000000000000000e+000

>  <hb_acceptors>
2.000000000000000e+000

>  <hb_donors>
1.000000000000000e+000

>  <PSA>
3.234000000000000e+001

>  <clusterid>
651

>  <is_centroid>
@

>  <class1>
666

>  <population1>
317

>  <population>
317

>  <cansmi>
CN(C(=O)C(Nc1ccc2c3c1cccc3CC2)C)C

>  <HBA2>
3

>  <HBD>
1

>  <logP>
2.9

>  <TPSA>
32.34

>  <MW>
268.353

$$$$

 OpenBabel02121609142D

 22 24  0  0  0  0  0  0  0  0999 V2000
    1.2917    0.2500    0.0000 C   0  0  0  0  0  0  0  0  0  0  0  0
    0.4292    0.7500    0.0000 N   0  0  0  0  0  0  0  0  0  0  0  0
   -1.3000    1.7583    0.0000 N   0  0  0  0  0  0  0  0  0  0  0  0
    1.2917   -0.7500    0.0000 N   0  0  0  0  0  0  0  0  0  0  0  0
   -2.1708    2.2500    0.0000 C   0  0  0  0  0  0  0  0  0  0  0  0
   -3.0333    1.7583    0.0000 N   0  0  0  0  0  0  0  0  0  0  0  0
    2.1625    0.7500    0.0000 O   0  0  0  0  0  0  0  0  0  0  0  0
    0.4292    1.7500    0.0000 C   0  0  0  0  0  0  0  0  0  0  0  0
   -0.4333    0.2500    0.0000 C   0  0  0  0  0  0  0  0  0  0  0  0
   -1.3000    0.7500    0.0000 C   0  0  0  0  0  0  0  0  0  0  0  0
   -0.4333    2.2500    0.0000 C   0  0  0  0  0  0  0  0  0  0  0  0
    2.1625   -1.2500    0.0000 C   0  0  0  0  0  0  0  0  0  0  0  0
    2.1625   -2.2500    0.0000 C   0  0  0  0  0  0  0  0  0  0  0  0
    3.0292   -2.7417    0.0000 C   0  0  0  0  0  0  0  0  0  0  0  0
   -2.1708    3.2500    0.0000 C   0  0  0  0  0  0  0  0  0  0  0  0
    3.8917   -1.2500    0.0000 C   0  0  0  0  0  0  0  0  0  0  0  0
   -3.9000    2.2500    0.0000 C   0  0  0  0  0  0  0  0  0  0  0  0
    3.0292   -0.7500    0.0000 C   0  0  0  0  0  0  0  0  0  0  0  0
    3.8917   -2.2500    0.0000 C   0  0  0  0  0  0  0  0  0  0  0  0
    3.0292   -3.7500    0.0000 C   0  0  0  0  0  0  0  0  0  0  0  0
   -3.0333    3.7500    0.0000 C   0  0  0  0  0  0  0  0  0  0  0  0
   -3.9000    3.2500    0.0000 C   0  0  0  0  0  0  0  0  0  0  0  0
  2  1  1  0  0  0  0
  3 10  1  0  0  0  0
  4  1  1  0  0  0  0
  5  3  1  0  0  0  0
  6  5  2  0  0  0  0
  7  1  2  0  0  0  0
  8  2  1  0  0  0  0
  9  2  1  0  0  0  0
 10  9  1  0  0  0  0
 11  8  1  0  0  0  0
 11  3  1  0  0  0  0
 12  4  1  0  0  0  0
 13 12  1  0  0  0  0
 14 13  2  0  0  0  0
 14 19  1  0  0  0  0
 15  5  1  0  0  0  0
 16 18  1  0  0  0  0
 17  6  1  0  0  0  0
 17 22  2  0  0  0  0
 18 12  2  0  0  0  0
 19 16  2  0  0  0  0
 20 14  1  0  0  0  0
 21 15  2  0  0  0  0
 22 21  1  0  0  0  0
M  END
>  <idnumber>
T5682791

>  <LogP>
1.547000000000000e+000

>  <rotating_bonds>
2.000000000000000e+000

>  <hb_acceptors>
3.000000000000000e+000

>  <hb_donors>
1.000000000000000e+000

>  <PSA>
4.847000000000000e+001

>  <clusterid>
653

>  <is_centroid>
@

>  <class1>
625

>  <class2>
717

>  <class3>
632

>  <population1>
877209

>  <population2>
74368

>  <population3>
79489

>  <population>
5587

>  <cansmi>
Cc1cccc(c1)NC(=O)N1CCN(CC1)c1ccccn1

>  <HBA2>
5

>  <HBD>
1

>  <logP>
2.82

>  <TPSA>
48.47

>  <MW>
296.367

$$$$

 OpenBabel02121609142D

 21 23  0  0  0  0  0  0  0  0999 V2000
   -0.3708    0.4208    0.0000 N   0  0  0  0  0  0  0  0  0  0  0  0
   -0.9583    1.2333    0.0000 C   0  0  0  0  0  0  0  0  0  0  0  0
   -0.9583   -0.3875    0.0000 C   0  0  0  0  0  0  0  0  0  0  0  0
    0.6292    0.4208    0.0000 C   0  0  0  0  0  0  0  0  0  0  0  0
   -1.9083   -0.0792    0.0000 C   0  0  3  0  0  0  0  0  0  0  0  0
   -1.9083    0.9208    0.0000 C   0  0  3  0  0  0  0  0  0  0  0  0
    1.1292   -0.4417    0.0000 C   0  0  0  0  0  0  0  0  0  0  0  0
   -0.6458    2.1833    0.0000 O   0  0  0  0  0  0  0  0  0  0  0  0
   -0.6458   -1.3375    0.0000 O   0  0  0  0  0  0  0  0  0  0  0  0
    0.6292   -1.3125    0.0000 C   0  0  0  0  0  0  0  0  0  0  0  0
    2.1292   -0.4417    0.0000 C   0  0  0  0  0  0  0  0  0  0  0  0
    1.1292   -2.1750    0.0000 C   0  0  0  0  0  0  0  0  0  0  0  0
   -3.6375   -0.0792    0.0000 C   0  0  0  0  0  0  0  0  0  0  0  0
   -3.6375    0.9208    0.0000 C   0  0  0  0  0  0  0  0  0  0  0  0
    2.6292   -1.3125    0.0000 C   0  0  0  0  0  0  0  0  0  0  0  0
   -2.7708   -0.5792    0.0000 C   0  0  0  0  0  0  0  0  0  0  0  0
   -2.7708    1.4208    0.0000 C   0  0  0  0  0  0  0  0  0  0  0  0
    2.1292   -2.1750    0.0000 C   0  0  0  0  0  0  0  0  0  0  0  0
   -0.3333   -1.0500    0.0000 O   0  0  0  0  0  0  0  0  0  0  0  0
    3.6292   -1.3125    0.0000 C   0  0  0  0  0  0  0  0  0  0  0  0
   -0.3333   -0.0542    0.0000 C   0  0  0  0  0  0  0  0  0  0  0  0
  2  1  1  0  0  0  0
  3  1  1  0  0  0  0
  4  1  1  0  0  0  0
  5  3  1  0  0  0  0
  6  2  1  0  0  0  0
  6  5  1  0  0  0  0
  7  4  1  0  0  0  0
  8  2  2  0  0  0  0
  9  3  2  0  0  0  0
 10  7  2  0  0  0  0
 11  7  1  0  0  0  0
 12 10  1  0  0  0  0
 12 18  2  0  0  0  0
 13 16  1  0  0  0  0
 14 17  1  0  0  0  0
 14 13  2  0  0  0  0
 15 11  2  0  0  0  0
 16  5  1  0  0  0  0
 17  6  1  0  0  0  0
 18 15  1  0  0  0  0
 19 10  1  0  0  0  0
 20 15  1  0  0  0  0
 21 19  1  0  0  0  0
M  END
>  <idnumber>
T5683055

>  <LogP>
2.338000000000000e+000

>  <rotating_bonds>
3.000000000000000e+000

>  <hb_acceptors>
3.000000000000000e+000

>  <hb_donors>
0.000000000000000e+000

>  <PSA>
4.661000000000000e+001

>  <clusterid>
-1148

>  <is_centroid>
@

>  <class1>
625

>  <class2>
804

>  <population1>
877209

>  <population2>
1311

>  <population>
1063

>  <cansmi>
COc1ccc(cc1CN1C(=O)C2C(C1=O)CC=CC2)C

>  <HBA2>
4

>  <HBD>
0

>  <logP>
2.3927

>  <TPSA>
46.61

>  <MW>
285.338

$$$$

 OpenBabel02121609142D

 20 23  0  0  0  0  0  0  0  0999 V2000
    0.0000    0.3208    0.0000 C   0  0  0  0  0  0  0  0  0  0  0  0
    0.0000   -0.6792    0.0000 C   0  0  0  0  0  0  0  0  0  0  0  0
    0.0000   -2.6792    0.0000 O   0  0  0  0  0  0  0  0  0  0  0  0
   -0.8708   -1.1792    0.0000 C   0  0  0  0  0  0  0  0  0  0  0  0
    0.8625   -1.1792    0.0000 C   0  0  0  0  0  0  0  0  0  0  0  0
    0.8625   -2.1792    0.0000 C   0  0  0  0  0  0  0  0  0  0  0  0
   -0.8708   -2.1792    0.0000 C   0  0  0  0  0  0  0  0  0  0  0  0
   -0.8708    0.8208    0.0000 N   0  0  0  0  0  0  0  0  0  0  0  0
   -0.8708    1.8208    0.0000 C   0  0  0  0  0  0  0  0  0  0  0  0
    0.8625    0.8208    0.0000 O   0  0  0  0  0  0  0  0  0  0  0  0
   -0.3708    2.6833    0.0000 C   0  0  0  0  0  0  0  0  0  0  0  0
   -1.3708    2.6833    0.0000 C   0  0  0  0  0  0  0  0  0  0  0  0
    1.7292   -0.6792    0.0000 C   0  0  0  0  0  0  0  0  0  0  0  0
   -1.7333   -0.6792    0.0000 C   0  0  0  0  0  0  0  0  0  0  0  0
   -1.7333   -2.6792    0.0000 C   0  0  0  0  0  0  0  0  0  0  0  0
    1.7292   -2.6792    0.0000 C   0  0  0  0  0  0  0  0  0  0  0  0
   -2.6000   -1.1792    0.0000 C   0  0  0  0  0  0  0  0  0  0  0  0
    2.5917   -1.1792    0.0000 C   0  0  0  0  0  0  0  0  0  0  0  0
    2.5917   -2.1792    0.0000 C   0  0  0  0  0  0  0  0  0  0  0  0
   -2.6000   -2.1792    0.0000 C   0  0  0  0  0  0  0  0  0  0  0  0
  2  1  1  0  0  0  0
  3  6  1  0  0  0  0
  4  2  1  0  0  0  0
  5  2  1  0  0  0  0
  6  5  2  0  0  0  0
  7  4  2  0  0  0  0
  7  3  1  0  0  0  0
  8  1  1  0  0  0  0
  9  8  1  0  0  0  0
 10  1  2  0  0  0  0
 11  9  1  0  0  0  0
 11 12  1  0  0  0  0
 12  9  1  0  0  0  0
 13  5  1  0  0  0  0
 14  4  1  0  0  0  0
 15  7  1  0  0  0  0
 15 20  2  0  0  0  0
 16  6  1  0  0  0  0
 16 19  2  0  0  0  0
 17 14  2  0  0  0  0
 18 13  2  0  0  0  0
 19 18  1  0  0  0  0
 20 17  1  0  0  0  0
M  END
>  <idnumber>
T5684444

>  <LogP>
2.708000000000000e+000

>  <rotating_bonds>
2.000000000000000e+000

>  <hb_acceptors>
1.000000000000000e+000

>  <hb_donors>
1.000000000000000e+000

>  <PSA>
3.833000000000000e+001

>  <clusterid>
657

>  <is_centroid>
@

>  <class1>
675

>  <class2>
827

>  <population1>
33654

>  <population2>
472

>  <population>
11

>  <cansmi>
O=C(C1c2ccccc2Oc2c1cccc2)NC1CC1

>  <HBA2>
3

>  <HBD>
1

>  <logP>
3.5937

>  <TPSA>
38.33

>  <MW>
265.307

$$$$

 OpenBabel02121609142D

 22 24  0  0  0  0  0  0  0  0999 V2000
   -1.3000    0.0083    0.0000 N   0  0  0  0  0  0  0  0  0  0  0  0
   -0.4333   -0.5000    0.0000 C   0  0  0  0  0  0  0  0  0  0  0  0
    0.4292    0.0083    0.0000 C   0  0  0  0  0  0  0  0  0  0  0  0
   -2.1708   -0.5000    0.0000 C   0  0  0  0  0  0  0  0  0  0  0  0
   -3.0333    0.0083    0.0000 C   0  0  0  0  0  0  0  0  0  0  0  0
    3.8917    0.0083    0.0000 C   0  0  0  0  0  0  0  0  0  0  0  0
    3.0292   -0.5000    0.0000 N   0  0  0  0  0  0  0  0  0  0  0  0
   -1.3000    1.0083    0.0000 C   0  0  0  0  0  0  0  0  0  0  0  0
    1.2917   -0.5000    0.0000 C   0  0  0  0  0  0  0  0  0  0  0  0
   -0.4333   -1.5000    0.0000 O   0  0  0  0  0  0  0  0  0  0  0  0
   -3.0333    1.0083    0.0000 C   0  0  0  0  0  0  0  0  0  0  0  0
    2.1625    0.0083    0.0000 C   0  0  0  0  0  0  0  0  0  0  0  0
    4.7625   -0.5000    0.0000 O   0  0  0  0  0  0  0  0  0  0  0  0
   -2.1708    1.5000    0.0000 C   0  0  0  0  0  0  0  0  0  0  0  0
    0.4292    1.0083    0.0000 C   0  0  0  0  0  0  0  0  0  0  0  0
    1.2917    1.5000    0.0000 C   0  0  0  0  0  0  0  0  0  0  0  0
   -3.9000   -0.5000    0.0000 C   0  0  0  0  0  0  0  0  0  0  0  0
    3.8917    1.0083    0.0000 C   0  0  0  0  0  0  0  0  0  0  0  0
    2.1625    1.0083    0.0000 C   0  0  0  0  0  0  0  0  0  0  0  0
   -3.9000    1.5000    0.0000 C   0  0  0  0  0  0  0  0  0  0  0  0
   -4.7708    0.0083    0.0000 C   0  0  0  0  0  0  0  0  0  0  0  0
   -4.7708    1.0083    0.0000 C   0  0  0  0  0  0  0  0  0  0  0  0
  2  1  1  0  0  0  0
  3  2  1  0  0  0  0
  4  1  1  0  0  0  0
  5  4  1  0  0  0  0
  5 11  2  0  0  0  0
  6  7  1  0  0  0  0
  7 12  1  0  0  0  0
  8  1  1  0  0  0  0
  9  3  1  0  0  0  0
 10  2  2  0  0  0  0
 11 14  1  0  0  0  0
 12  9  2  0  0  0  0
 12 19  1  0  0  0  0
 13  6  2  0  0  0  0
 14  8  1  0  0  0  0
 15  3  2  0  0  0  0
 16 15  1  0  0  0  0
 17  5  1  0  0  0  0
 18  6  1  0  0  0  0
 19 16  2  0  0  0  0
 20 11  1  0  0  0  0
 21 17  2  0  0  0  0
 22 20  2  0  0  0  0
 22 21  1  0  0  0  0
M  END
>  <idnumber>
T5685826

>  <LogP>
2.568000000000000e+000

>  <rotating_bonds>
2.000000000000000e+000

>  <hb_acceptors>
2.000000000000000e+000

>  <hb_donors>
1.000000000000000e+000

>  <PSA>
4.941000000000003e+001

>  <clusterid>
-1153

>  <is_centroid>
@

>  <class1>
750

>  <class2>
625

>  <population1>
7929

>  <population2>
877209

>  <population>
7929

>  <cansmi>
CC(=O)Nc1cccc(c1)C(=O)N1CCc2c(C1)cccc2

>  <HBA2>
4

>  <HBD>
1

>  <logP>
2.8544

>  <TPSA>
49.41

>  <MW>
294.348

$$$$

 OpenBabel02121609142D

 12 13  0  0  0  0  0  0  0  0999 V2000
    0.0125    0.1458    0.0000 C   0  0  0  0  0  0  0  0  0  0  0  0
    0.3167    1.0958    0.0000 N   0  0  0  0  0  0  0  0  0  0  0  0
   -0.9708   -0.0625    0.0000 N   0  0  0  0  0  0  0  0  0  0  0  0
    0.6792   -0.6000    0.0000 C   0  0  0  0  0  0  0  0  0  0  0  0
   -1.2750   -1.0167    0.0000 C   0  0  0  0  0  0  0  0  0  0  0  0
   -0.6083   -1.7542    0.0000 C   0  0  0  0  0  0  0  0  0  0  0  0
   -0.9208   -2.7042    0.0000 N   0  0  0  0  0  0  0  0  0  0  0  0
    0.3667   -1.5500    0.0000 C   0  0  0  0  0  0  0  0  0  0  0  0
    1.2667    1.4083    0.0000 C   0  0  0  0  0  0  0  0  0  0  0  0
   -0.2708    1.9083    0.0000 C   0  0  0  0  0  0  0  0  0  0  0  0
    0.3167    2.7125    0.0000 C   0  0  0  0  0  0  0  0  0  0  0  0
    1.2667    2.4083    0.0000 C   0  0  0  0  0  0  0  0  0  0  0  0
  2  1  1  0  0  0  0
  3  1  2  0  0  0  0
  4  1  1  0  0  0  0
  5  3  1  0  0  0  0
  5  6  2  0  0  0  0
  6  8  1  0  0  0  0
  7  6  1  0  0  0  0
  8  4  2  0  0  0  0
  9  2  1  0  0  0  0
 10  2  1  0  0  0  0
 11 10  1  0  0  0  0
 12  9  1  0  0  0  0
 12 11  1  0  0  0  0
M  END
>  <idnumber>
T5685862

>  <LogP>
1.666000000000000e+000

>  <rotating_bonds>
1.000000000000000e+000

>  <hb_acceptors>
3.000000000000000e+000

>  <hb_donors>
1.000000000000000e+000

>  <PSA>
4.215000000000000e+001

>  <clusterid>
659

>  <is_centroid>
@

>  <class1>
642

>  <class2>
632

>  <population1>
51183

>  <population2>
79489

>  <population>
3055

>  <cansmi>
Nc1ccc(nc1)N1CCCC1

>  <HBA2>
3

>  <HBD>
1

>  <logP>
1.9102

>  <TPSA>
42.15

>  <MW>
163.22

$$$$

 OpenBabel02121609142D

 19 21  0  0  0  0  0  0  0  0999 V2000
    1.8625    0.2708    0.0000 C   0  0  0  0  0  0  0  0  0  0  0  0
    1.0000   -0.2292    0.0000 C   0  0  0  0  0  0  0  0  0  0  0  0
    1.8625    1.2708    0.0000 C   0  0  0  0  0  0  0  0  0  0  0  0
    0.1292    0.2708    0.0000 C   0  0  0  0  0  0  0  0  0  0  0  0
    0.1292    1.2708    0.0000 C   0  0  0  0  0  0  0  0  0  0  0  0
    2.7292   -0.2292    0.0000 C   0  0  0  0  0  0  0  0  0  0  0  0
    1.0000    1.7708    0.0000 C   0  0  0  0  0  0  0  0  0  0  0  0
    3.5917    1.2708    0.0000 N   0  0  0  0  0  0  0  0  0  0  0  0
   -0.7333   -0.2292    0.0000 O   0  0  0  0  0  0  0  0  0  0  0  0
   -0.7333    1.7708    0.0000 O   0  0  0  0  0  0  0  0  0  0  0  0
    2.7292    1.7708    0.0000 C   0  0  0  0  0  0  0  0  0  0  0  0
    3.5917    0.2708    0.0000 C   0  0  0  0  0  0  0  0  0  0  0  0
   -3.6000    0.3125    0.0000 Cl  0  0  0  0  0  0  0  0  0  0  0  0
    1.9167   -0.8167    0.0000 C   0  0  0  0  0  0  0  0  0  0  0  0
    3.5375   -0.8167    0.0000 C   0  0  0  0  0  0  0  0  0  0  0  0
   -1.6000    1.2708    0.0000 C   0  0  0  0  0  0  0  0  0  0  0  0
   -1.6000    0.2708    0.0000 C   0  0  0  0  0  0  0  0  0  0  0  0
    2.2292   -1.7667    0.0000 C   0  0  0  0  0  0  0  0  0  0  0  0
    3.2292   -1.7667    0.0000 C   0  0  0  0  0  0  0  0  0  0  0  0
  2  1  1  0  0  0  0
  3  1  2  0  0  0  0
  4  2  2  0  0  0  0
  5  7  2  0  0  0  0
  5  4  1  0  0  0  0
  6  1  1  0  0  0  0
  7  3  1  0  0  0  0
  8 12  1  0  0  0  0
  8 11  1  0  0  0  0
  9  4  1  0  0  0  0
 10  5  1  0  0  0  0
 11  3  1  0  0  0  0
 12  6  1  0  0  0  0
 14  6  1  0  0  0  0
 15  6  1  0  0  0  0
 16 10  1  0  0  0  0
 16 17  1  0  0  0  0
 17  9  1  0  0  0  0
 18 14  1  0  0  0  0
 18 19  1  0  0  0  0
 19 15  1  0  0  0  0
M  END
>  <idnumber>
T5685884

>  <LogP>
2.951000000000000e+000

>  <rotating_bonds>
0.000000000000000e+000

>  <hb_acceptors>
3.000000000000000e+000

>  <hb_donors>
1.000000000000000e+000

>  <PSA>
3.049000000000000e+001

>  <clusterid>
660

>  <is_centroid>
@

>  <class1>
756

>  <population1>
107

>  <population>
107

>  <cansmi>
C1CCC2(C1)CNCc1c2cc2OCCOc2c1.Cl

>  <HBA2>
3

>  <HBD>
2

>  <logP>
3.5036

>  <TPSA>
30.49

>  <MW>
281.778

$$$$

 OpenBabel02121609142D

 15 16  0  0  0  0  0  0  0  0999 V2000
   -2.2625   -0.5000    0.0000 C   0  0  0  0  0  0  0  0  0  0  0  0
   -1.3958   -1.0000    0.0000 C   0  0  0  0  0  0  0  0  0  0  0  0
   -2.2625    0.5000    0.0000 C   0  0  0  0  0  0  0  0  0  0  0  0
    1.2000   -0.5000    0.0000 C   0  0  0  0  0  0  0  0  0  0  0  0
    0.3292   -1.0000    0.0000 N   0  0  0  0  0  0  0  0  0  0  0  0
   -3.2208   -0.8042    0.0000 O   0  0  0  0  0  0  0  0  0  0  0  0
   -3.2208    0.8125    0.0000 O   0  0  0  0  0  0  0  0  0  0  0  0
   -0.5333   -0.5000    0.0000 C   0  0  0  0  0  0  0  0  0  0  0  0
   -3.8083    0.0000    0.0000 C   0  0  0  0  0  0  0  0  0  0  0  0
    1.2000    0.5000    0.0000 O   0  0  0  0  0  0  0  0  0  0  0  0
   -1.3958    1.0000    0.0000 C   0  0  0  0  0  0  0  0  0  0  0  0
   -0.5333    0.5000    0.0000 C   0  0  0  0  0  0  0  0  0  0  0  0
    2.0667   -1.0000    0.0000 C   0  0  0  0  0  0  0  0  0  0  0  0
    2.9292   -0.5000    0.0000 C   0  0  0  0  0  0  0  0  0  0  0  0
    3.8000   -1.0000    0.0000 C   0  0  0  0  0  0  0  0  0  0  0  0
  2  1  1  0  0  0  0
  3  1  2  0  0  0  0
  4  5  1  0  0  0  0
  5  8  1  0  0  0  0
  6  1  1  0  0  0  0
  7  3  1  0  0  0  0
  7  9  1  0  0  0  0
  8  2  2  0  0  0  0
  8 12  1  0  0  0  0
  9  6  1  0  0  0  0
 10  4  2  0  0  0  0
 11  3  1  0  0  0  0
 12 11  2  0  0  0  0
 13  4  1  0  0  0  0
 14 13  1  0  0  0  0
 15 14  1  0  0  0  0
M  END
>  <idnumber>
T5685984

>  <LogP>
1.876000000000000e+000

>  <rotating_bonds>
3.000000000000000e+000

>  <hb_acceptors>
3.000000000000000e+000

>  <hb_donors>
1.000000000000000e+000

>  <PSA>
4.756000000000000e+001

>  <clusterid>
47

>  <is_centroid>
@

>  <class1>
811

>  <population1>
21222

>  <population>
21222

>  <cansmi>
CCCC(=O)Nc1ccc2c(c1)OCO2

>  <HBA2>
4

>  <HBD>
1

>  <logP>
2.2269

>  <TPSA>
47.56

>  <MW>
207.226

$$$$

 OpenBabel02121609142D

 16 18  0  0  0  0  0  0  0  0999 V2000
   -0.1083    0.1333    0.0000 N   0  0  0  0  0  0  0  0  0  0  0  0
    0.2000   -0.8167    0.0000 C   0  0  0  0  0  0  0  0  0  0  0  0
   -1.0583    0.4458    0.0000 C   0  0  0  0  0  0  0  0  0  0  0  0
    1.1792   -1.0250    0.0000 C   0  0  0  0  0  0  0  0  0  0  0  0
    0.4792    0.9458    0.0000 C   0  0  0  0  0  0  0  0  0  0  0  0
    1.9167   -0.3542    0.0000 O   0  0  0  0  0  0  0  0  0  0  0  0
   -0.4708   -1.5625    0.0000 O   0  0  0  0  0  0  0  0  0  0  0  0
   -1.0583    1.4458    0.0000 C   0  0  0  0  0  0  0  0  0  0  0  0
    1.5792   -1.9375    0.0000 C   0  0  0  0  0  0  0  0  0  0  0  0
   -0.1083    1.7500    0.0000 C   0  0  0  0  0  0  0  0  0  0  0  0
    2.7875   -0.8542    0.0000 C   0  0  0  0  0  0  0  0  0  0  0  0
    2.5792   -1.8292    0.0000 C   0  0  0  0  0  0  0  0  0  0  0  0
   -1.9250   -0.0542    0.0000 C   0  0  0  0  0  0  0  0  0  0  0  0
   -1.9250    1.9458    0.0000 C   0  0  0  0  0  0  0  0  0  0  0  0
   -2.7958    0.4458    0.0000 C   0  0  0  0  0  0  0  0  0  0  0  0
   -2.7958    1.4458    0.0000 C   0  0  0  0  0  0  0  0  0  0  0  0
  2  1  1  0  0  0  0
  3  1  1  0  0  0  0
  4  2  1  0  0  0  0
  5  1  1  0  0  0  0
  6  4  1  0  0  0  0
  7  2  2  0  0  0  0
  8  3  2  0  0  0  0
  9  4  2  0  0  0  0
 10  5  1  0  0  0  0
 10  8  1  0  0  0  0
 11  6  1  0  0  0  0
 12  9  1  0  0  0  0
 12 11  2  0  0  0  0
 13  3  1  0  0  0  0
 14  8  1  0  0  0  0
 14 16  2  0  0  0  0
 15 13  2  0  0  0  0
 16 15  1  0  0  0  0
M  END
>  <idnumber>
T5686077

>  <LogP>
1.807000000000000e+000

>  <rotating_bonds>
1.000000000000000e+000

>  <hb_acceptors>
1.000000000000000e+000

>  <hb_donors>
0.000000000000000e+000

>  <PSA>
3.345000000000000e+001

>  <clusterid>
662

>  <is_centroid>
@

>  <class1>
704

>  <class2>
732

>  <population1>
51112

>  <population2>
13534

>  <population>
413

>  <cansmi>
O=C(N1CCc2c1cccc2)c1ccco1

>  <HBA2>
3

>  <HBD>
0

>  <logP>
2.5475

>  <TPSA>
33.45

>  <MW>
213.232

$$$$

 OpenBabel02121609142D

 21 23  0  0  0  0  0  0  0  0999 V2000
    1.2917   -1.2500    0.0000 N   0  0  0  0  0  0  0  0  0  0  0  0
    0.4292   -0.7500    0.0000 C   0  0  0  0  0  0  0  0  0  0  0  0
    1.2917   -2.2500    0.0000 C   0  0  0  0  0  0  0  0  0  0  0  0
   -1.3000    2.2500    0.0000 C   0  0  0  0  0  0  0  0  0  0  0  0
   -0.4333    0.7500    0.0000 O   0  0  0  0  0  0  0  0  0  0  0  0
    0.4292    0.2500    0.0000 C   0  0  0  0  0  0  0  0  0  0  0  0
   -0.4333    1.7500    0.0000 C   0  0  0  0  0  0  0  0  0  0  0  0
   -0.4333   -1.2500    0.0000 O   0  0  0  0  0  0  0  0  0  0  0  0
   -1.3000    3.2500    0.0000 C   0  0  0  0  0  0  0  0  0  0  0  0
    2.1625   -0.7500    0.0000 C   0  0  0  0  0  0  0  0  0  0  0  0
    2.1625   -2.7500    0.0000 C   0  0  3  0  0  0  0  0  0  0  0  0
    2.1625   -3.7500    0.0000 O   0  0  0  0  0  0  0  0  0  0  0  0
    3.0292   -1.2500    0.0000 C   0  0  0  0  0  0  0  0  0  0  0  0
    0.4292    3.2500    0.0000 C   0  0  0  0  0  0  0  0  0  0  0  0
    0.4292    2.2500    0.0000 C   0  0  0  0  0  0  0  0  0  0  0  0
   -2.1708    1.7500    0.0000 C   0  0  0  0  0  0  0  0  0  0  0  0
   -0.4333    3.7500    0.0000 C   0  0  0  0  0  0  0  0  0  0  0  0
    3.0292   -2.2500    0.0000 C   0  0  0  0  0  0  0  0  0  0  0  0
   -2.1708    3.7500    0.0000 C   0  0  0  0  0  0  0  0  0  0  0  0
   -3.0333    2.2500    0.0000 C   0  0  0  0  0  0  0  0  0  0  0  0
   -3.0333    3.2500    0.0000 C   0  0  0  0  0  0  0  0  0  0  0  0
  2  1  1  0  0  0  0
  3  1  1  0  0  0  0
  4  7  2  0  0  0  0
  5  6  1  0  0  0  0
  6  2  1  0  0  0  0
  7  5  1  0  0  0  0
  8  2  2  0  0  0  0
  9  4  1  0  0  0  0
  9 17  2  0  0  0  0
 10  1  1  0  0  0  0
 11  3  1  0  0  0  0
 11 18  1  0  0  0  0
 12 11  1  0  0  0  0
 13 10  1  0  0  0  0
 14 15  2  0  0  0  0
 15  7  1  0  0  0  0
 16  4  1  0  0  0  0
 17 14  1  0  0  0  0
 18 13  1  0  0  0  0
 19  9  1  0  0  0  0
 19 21  2  0  0  0  0
 20 16  2  0  0  0  0
 21 20  1  0  0  0  0
M  END
>  <idnumber>
T5686438

>  <LogP>
2.458000000000000e+000

>  <rotating_bonds>
3.000000000000000e+000

>  <hb_acceptors>
3.000000000000000e+000

>  <hb_donors>
1.000000000000000e+000

>  <PSA>
4.977000000000000e+001

>  <clusterid>
-1158

>  <is_centroid>
@

>  <class1>
796

>  <class2>
639

>  <population1>
21922

>  <population2>
59855

>  <population>
1232

>  <cansmi>
OC1CCCN(C1)C(=O)COc1cccc2c1cccc2

>  <HBA2>
4

>  <HBD>
1

>  <logP>
2.1398

>  <TPSA>
49.77

>  <MW>
285.338

$$$$

 OpenBabel02121609142D

 22 24  0  0  0  0  0  0  0  0999 V2000
    1.0125   -0.3042    0.0000 C   0  0  0  0  0  0  0  0  0  0  0  0
    1.9250   -0.7125    0.0000 C   0  0  0  0  0  0  0  0  0  0  0  0
    1.1167    0.6875    0.0000 N   0  0  0  0  0  0  0  0  0  0  0  0
    2.5917    0.0333    0.0000 C   0  0  0  0  0  0  0  0  0  0  0  0
    2.0917    0.8958    0.0000 C   0  0  0  0  0  0  0  0  0  0  0  0
    0.1417   -0.8042    0.0000 C   0  0  0  0  0  0  0  0  0  0  0  0
   -0.7208   -0.3042    0.0000 N   0  0  0  0  0  0  0  0  0  0  0  0
   -1.5833   -0.8042    0.0000 C   0  0  0  0  0  0  0  0  0  0  0  0
    3.5917   -0.0750    0.0000 C   0  0  0  0  0  0  0  0  0  0  0  0
   -2.4500   -0.3042    0.0000 C   0  0  0  0  0  0  0  0  0  0  0  0
   -0.7208    0.6958    0.0000 C   0  0  0  0  0  0  0  0  0  0  0  0
    0.1417   -1.8042    0.0000 O   0  0  0  0  0  0  0  0  0  0  0  0
   -2.4500    0.6958    0.0000 C   0  0  0  0  0  0  0  0  0  0  0  0
    3.9917   -0.9875    0.0000 O   0  0  0  0  0  0  0  0  0  0  0  0
   -1.5833    1.1958    0.0000 C   0  0  0  0  0  0  0  0  0  0  0  0
    2.1292   -1.6917    0.0000 C   0  0  0  0  0  0  0  0  0  0  0  0
    2.5042    1.8083    0.0000 C   0  0  0  0  0  0  0  0  0  0  0  0
   -3.3208   -0.8042    0.0000 C   0  0  0  0  0  0  0  0  0  0  0  0
    4.1792    0.7333    0.0000 C   0  0  0  0  0  0  0  0  0  0  0  0
   -3.3208    1.1958    0.0000 C   0  0  0  0  0  0  0  0  0  0  0  0
   -4.1833   -0.3042    0.0000 C   0  0  0  0  0  0  0  0  0  0  0  0
   -4.1833    0.6958    0.0000 C   0  0  0  0  0  0  0  0  0  0  0  0
  2  1  2  0  0  0  0
  3  1  1  0  0  0  0
  4  2  1  0  0  0  0
  4  5  2  0  0  0  0
  5  3  1  0  0  0  0
  6  1  1  0  0  0  0
  7  6  1  0  0  0  0
  8  7  1  0  0  0  0
  9  4  1  0  0  0  0
 10  8  1  0  0  0  0
 10 13  2  0  0  0  0
 11  7  1  0  0  0  0
 12  6  2  0  0  0  0
 13 15  1  0  0  0  0
 14  9  2  0  0  0  0
 15 11  1  0  0  0  0
 16  2  1  0  0  0  0
 17  5  1  0  0  0  0
 18 10  1  0  0  0  0
 19  9  1  0  0  0  0
 20 13  1  0  0  0  0
 21 18  2  0  0  0  0
 22 20  2  0  0  0  0
 22 21  1  0  0  0  0
M  END
>  <idnumber>
T5686575

>  <LogP>
2.756000000000000e+000

>  <rotating_bonds>
2.000000000000000e+000

>  <hb_acceptors>
2.000000000000000e+000

>  <hb_donors>
1.000000000000000e+000

>  <PSA>
5.317000000000000e+001

>  <clusterid>
664

>  <is_centroid>
@

>  <class1>
750

>  <class2>
635

>  <population1>
7929

>  <population2>
31512

>  <population>
100

>  <cansmi>
O=C(c1[nH]c(c(c1C)C(=O)C)C)N1CCc2c(C1)cccc2

>  <HBA2>
3

>  <HBD>
1

>  <logP>
2.9705

>  <TPSA>
53.17

>  <MW>
296.364

$$$$

 OpenBabel02121609142D

 20 22  0  0  0  0  0  0  0  0999 V2000
   -1.7333    0.0000    0.0000 N   0  0  0  0  0  0  0  0  0  0  0  0
   -1.7333   -0.9917    0.0000 C   0  0  0  0  0  0  0  0  0  0  0  0
   -0.8708    0.5083    0.0000 C   0  0  0  0  0  0  0  0  0  0  0  0
   -0.8708   -1.5000    0.0000 N   0  0  0  0  0  0  0  0  0  0  0  0
   -0.0083    0.0083    0.0000 C   0  0  0  0  0  0  0  0  0  0  0  0
   -0.0083   -0.9917    0.0000 C   0  0  0  0  0  0  0  0  0  0  0  0
   -2.6000    0.5083    0.0000 C   0  0  0  0  0  0  0  0  0  0  0  0
   -2.6000   -1.4917    0.0000 C   0  0  0  0  0  0  0  0  0  0  0  0
    1.7292   -0.9917    0.0000 N   0  0  0  0  0  0  0  0  0  0  0  0
   -3.4708    0.0083    0.0000 C   0  0  0  0  0  0  0  0  0  0  0  0
   -3.4708   -0.9917    0.0000 C   0  0  0  0  0  0  0  0  0  0  0  0
    0.8625   -1.4917    0.0000 C   0  0  0  0  0  0  0  0  0  0  0  0
   -0.8708    1.5083    0.0000 O   0  0  0  0  0  0  0  0  0  0  0  0
    2.5917   -1.4917    0.0000 C   0  0  0  0  0  0  0  0  0  0  0  0
    1.7292    0.0083    0.0000 C   0  0  0  0  0  0  0  0  0  0  0  0
    3.4625   -0.9917    0.0000 C   0  0  3  0  0  0  0  0  0  0  0  0
    2.5917    0.5083    0.0000 C   0  0  0  0  0  0  0  0  0  0  0  0
   -4.3333    0.5000    0.0000 C   0  0  0  0  0  0  0  0  0  0  0  0
    3.4625    0.0083    0.0000 C   0  0  0  0  0  0  0  0  0  0  0  0
    4.3292   -1.5000    0.0000 C   0  0  0  0  0  0  0  0  0  0  0  0
  2  1  1  0  0  0  0
  3  1  1  0  0  0  0
  4  2  2  0  0  0  0
  4  6  1  0  0  0  0
  5  3  1  0  0  0  0
  6  5  2  0  0  0  0
  7  1  1  0  0  0  0
  8  2  1  0  0  0  0
  8 11  2  0  0  0  0
  9 12  1  0  0  0  0
 10  7  2  0  0  0  0
 11 10  1  0  0  0  0
 12  6  1  0  0  0  0
 13  3  2  0  0  0  0
 14  9  1  0  0  0  0
 15  9  1  0  0  0  0
 16 14  1  0  0  0  0
 16 19  1  0  0  0  0
 17 15  1  0  0  0  0
 18 10  1  0  0  0  0
 19 17  1  0  0  0  0
 20 16  1  0  0  0  0
M  END
>  <idnumber>
T5686619

>  <LogP>
1.753000000000000e+000

>  <rotating_bonds>
2.000000000000000e+000

>  <hb_acceptors>
3.000000000000000e+000

>  <hb_donors>
0.000000000000000e+000

>  <PSA>
3.591000000000000e+001

>  <clusterid>
500

>  <is_centroid>
@

>  <class1>
639

>  <class2>
806

>  <population1>
59855

>  <population2>
5354

>  <population>
191

>  <cansmi>
CC1CCCN(C1)Cc1cc(=O)n2c(n1)ccc(c2)C

>  <HBA2>
4

>  <HBD>
0

>  <logP>
2.1727

>  <TPSA>
37.61

>  <MW>
271.357

$$$$

 OpenBabel02121609142D

 19 21  0  0  0  0  0  0  0  0999 V2000
    1.9917   -0.7750    0.0000 C   0  0  0  0  0  0  0  0  0  0  0  0
   -0.5833    3.1583    0.0000 N   0  0  0  0  0  0  0  0  0  0  0  0
    2.3042   -1.7292    0.0000 N   0  0  0  0  0  0  0  0  0  0  0  0
    0.0042    2.3500    0.0000 C   0  0  0  0  0  0  0  0  0  0  0  0
   -0.5833    1.5458    0.0000 C   0  0  0  0  0  0  0  0  0  0  0  0
   -1.5333    1.8500    0.0000 C   0  0  0  0  0  0  0  0  0  0  0  0
   -1.5333    2.8500    0.0000 C   0  0  0  0  0  0  0  0  0  0  0  0
    2.6667   -0.0292    0.0000 O   0  0  0  0  0  0  0  0  0  0  0  0
    1.0167   -0.5667    0.0000 N   0  0  0  0  0  0  0  0  0  0  0  0
    0.7042    0.3833    0.0000 C   0  0  0  0  0  0  0  0  0  0  0  0
    1.7167   -2.5375    0.0000 C   0  0  0  0  0  0  0  0  0  0  0  0
    3.2542   -2.0375    0.0000 C   0  0  0  0  0  0  0  0  0  0  0  0
   -0.2708    0.5958    0.0000 C   0  0  0  0  0  0  0  0  0  0  0  0
   -2.3958    1.3500    0.0000 C   0  0  0  0  0  0  0  0  0  0  0  0
   -2.3958    3.3583    0.0000 C   0  0  0  0  0  0  0  0  0  0  0  0
    3.2542   -3.0375    0.0000 C   0  0  0  0  0  0  0  0  0  0  0  0
    2.3042   -3.3417    0.0000 C   0  0  0  0  0  0  0  0  0  0  0  0
   -3.2625    1.8500    0.0000 C   0  0  0  0  0  0  0  0  0  0  0  0
   -3.2625    2.8500    0.0000 C   0  0  0  0  0  0  0  0  0  0  0  0
  2  4  1  0  0  0  0
  2  7  1  0  0  0  0
  3  1  1  0  0  0  0
  4  5  2  0  0  0  0
  5 13  1  0  0  0  0
  6  5  1  0  0  0  0
  7  6  2  0  0  0  0
  8  1  2  0  0  0  0
  9  1  1  0  0  0  0
 10  9  1  0  0  0  0
 11  3  1  0  0  0  0
 12  3  1  0  0  0  0
 13 10  1  0  0  0  0
 14  6  1  0  0  0  0
 15  7  1  0  0  0  0
 15 19  2  0  0  0  0
 16 12  1  0  0  0  0
 17 11  1  0  0  0  0
 17 16  1  0  0  0  0
 18 14  2  0  0  0  0
 19 18  1  0  0  0  0
M  END
>  <idnumber>
T5686637

>  <LogP>
2.149000000000000e+000

>  <rotating_bonds>
3.000000000000000e+000

>  <hb_acceptors>
1.000000000000000e+000

>  <hb_donors>
2.000000000000000e+000

>  <PSA>
4.813000000000000e+001

>  <clusterid>
-1160

>  <is_centroid>
@

>  <class1>
748

>  <class2>
642

>  <population1>
15713

>  <population2>
51183

>  <population>
523

>  <cansmi>
O=C(N1CCCC1)NCCc1c[nH]c2c1cccc2

>  <HBA2>
3

>  <HBD>
2

>  <logP>
2.8446

>  <TPSA>
48.13

>  <MW>
257.331

$$$$

 OpenBabel02121609142D

 21 23  0  0  0  0  0  0  0  0999 V2000
    0.4292   -1.7500    0.0000 C   0  0  0  0  0  0  0  0  0  0  0  0
   -0.4333    2.7500    0.0000 N   0  0  0  0  0  0  0  0  0  0  0  0
   -0.4333   -1.2500    0.0000 N   0  0  0  0  0  0  0  0  0  0  0  0
   -0.4333    1.7500    0.0000 C   0  0  0  0  0  0  0  0  0  0  0  0
    1.2917   -1.2500    0.0000 O   0  0  0  0  0  0  0  0  0  0  0  0
    0.4292   -2.7500    0.0000 C   0  0  3  0  0  0  0  0  0  0  0  0
   -0.4333    4.7500    0.0000 O   0  0  0  0  0  0  0  0  0  0  0  0
   -1.3000    1.2500    0.0000 C   0  0  0  0  0  0  0  0  0  0  0  0
    0.4292    1.2500    0.0000 C   0  0  0  0  0  0  0  0  0  0  0  0
   -0.4333   -0.2500    0.0000 C   0  0  0  0  0  0  0  0  0  0  0  0
    1.2917   -4.2500    0.0000 C   0  0  0  0  0  0  0  0  0  0  0  0
    0.4292   -4.7500    0.0000 C   0  0  0  0  0  0  0  0  0  0  0  0
   -1.3000    0.2500    0.0000 C   0  0  0  0  0  0  0  0  0  0  0  0
    0.4292    0.2500    0.0000 C   0  0  0  0  0  0  0  0  0  0  0  0
   -1.3000    3.2500    0.0000 C   0  0  0  0  0  0  0  0  0  0  0  0
    0.4292    3.2500    0.0000 C   0  0  0  0  0  0  0  0  0  0  0  0
    1.2917   -3.2500    0.0000 C   0  0  0  0  0  0  0  0  0  0  0  0
   -1.3000    4.2500    0.0000 C   0  0  0  0  0  0  0  0  0  0  0  0
    0.4292    4.2500    0.0000 C   0  0  0  0  0  0  0  0  0  0  0  0
   -0.4333   -4.2500    0.0000 C   0  0  0  0  0  0  0  0  0  0  0  0
   -0.4333   -3.2500    0.0000 C   0  0  0  0  0  0  0  0  0  0  0  0
  2  4  1  0  0  0  0
  3  1  1  0  0  0  0
  4  9  1  0  0  0  0
  5  1  2  0  0  0  0
  6  1  1  0  0  0  0
  7 19  1  0  0  0  0
  8 13  1  0  0  0  0
  8  4  2  0  0  0  0
  9 14  2  0  0  0  0
 10  3  1  0  0  0  0
 11 17  1  0  0  0  0
 11 12  2  0  0  0  0
 12 20  1  0  0  0  0
 13 10  2  0  0  0  0
 14 10  1  0  0  0  0
 15  2  1  0  0  0  0
 16  2  1  0  0  0  0
 17  6  1  0  0  0  0
 18 15  1  0  0  0  0
 18  7  1  0  0  0  0
 19 16  1  0  0  0  0
 20 21  1  0  0  0  0
 21  6  1  0  0  0  0
M  END
>  <idnumber>
T5686676

>  <LogP>
2.528000000000000e+000

>  <rotating_bonds>
3.000000000000000e+000

>  <hb_acceptors>
3.000000000000000e+000

>  <hb_donors>
1.000000000000000e+000

>  <PSA>
4.156999999999997e+001

>  <clusterid>
665

>  <is_centroid>
@

>  <class1>
810

>  <class2>
786

>  <class3>
625

>  <population1>
20527

>  <population2>
48067

>  <population3>
877209

>  <population>
599

>  <cansmi>
O=C(C1CCC=CC1)Nc1ccc(cc1)N1CCOCC1

>  <HBA2>
4

>  <HBD>
1

>  <logP>
2.956

>  <TPSA>
41.57

>  <MW>
286.369

$$$$

 OpenBabel02121609142D

 21 23  0  0  0  0  0  0  0  0999 V2000
    1.0917   -0.5542    0.0000 C   0  0  0  0  0  0  0  0  0  0  0  0
    1.0917    0.4458    0.0000 N   0  0  0  0  0  0  0  0  0  0  0  0
    1.9542   -1.0542    0.0000 C   0  0  0  0  0  0  0  0  0  0  0  0
   -1.5083    0.9458    0.0000 C   0  0  0  0  0  0  0  0  0  0  0  0
   -0.6375    0.4458    0.0000 C   0  0  0  0  0  0  0  0  0  0  0  0
   -1.5083    1.9458    0.0000 C   0  0  0  0  0  0  0  0  0  0  0  0
    0.2292    0.9458    0.0000 C   0  0  0  0  0  0  0  0  0  0  0  0
    0.2292   -1.0542    0.0000 O   0  0  0  0  0  0  0  0  0  0  0  0
   -2.2875    0.3208    0.0000 O   0  0  0  0  0  0  0  0  0  0  0  0
   -2.2875    2.5625    0.0000 O   0  0  0  0  0  0  0  0  0  0  0  0
    1.9542   -2.0542    0.0000 C   0  0  0  0  0  0  0  0  0  0  0  0
   -0.6375    2.4458    0.0000 C   0  0  0  0  0  0  0  0  0  0  0  0
    0.2292    1.9458    0.0000 C   0  0  0  0  0  0  0  0  0  0  0  0
   -3.6958    1.4458    0.0000 C   0  0  0  0  0  0  0  0  0  0  0  0
   -3.2625    0.5375    0.0000 C   0  0  0  0  0  0  0  0  0  0  0  0
   -3.2625    2.3458    0.0000 C   0  0  0  0  0  0  0  0  0  0  0  0
    2.8250   -0.5542    0.0000 C   0  0  0  0  0  0  0  0  0  0  0  0
    1.0917   -2.5542    0.0000 C   0  0  0  0  0  0  0  0  0  0  0  0
    2.8250   -2.5542    0.0000 C   0  0  0  0  0  0  0  0  0  0  0  0
    3.6917   -1.0542    0.0000 C   0  0  0  0  0  0  0  0  0  0  0  0
    3.6917   -2.0542    0.0000 C   0  0  0  0  0  0  0  0  0  0  0  0
  2  1  1  0  0  0  0
  3  1  1  0  0  0  0
  4  5  1  0  0  0  0
  4  6  2  0  0  0  0
  5  7  2  0  0  0  0
  6 12  1  0  0  0  0
  7  2  1  0  0  0  0
  8  1  2  0  0  0  0
  9  4  1  0  0  0  0
 10  6  1  0  0  0  0
 11  3  2  0  0  0  0
 12 13  2  0  0  0  0
 13  7  1  0  0  0  0
 14 15  1  0  0  0  0
 15  9  1  0  0  0  0
 16 10  1  0  0  0  0
 16 14  1  0  0  0  0
 17  3  1  0  0  0  0
 18 11  1  0  0  0  0
 19 11  1  0  0  0  0
 19 21  2  0  0  0  0
 20 17  2  0  0  0  0
 21 20  1  0  0  0  0
M  END
>  <idnumber>
T5686881

>  <LogP>
2.984000000000000e+000

>  <rotating_bonds>
2.000000000000000e+000

>  <hb_acceptors>
3.000000000000000e+000

>  <hb_donors>
1.000000000000000e+000

>  <PSA>
4.756000000000000e+001

>  <clusterid>
442

>  <is_centroid>
@

>  <class1>
820

>  <class2>
625

>  <population1>
6542

>  <population2>
877209

>  <population>
6542

>  <cansmi>
O=C(c1ccccc1C)Nc1ccc2c(c1)OCCCO2

>  <HBA2>
4

>  <HBD>
1

>  <logP>
3.4816

>  <TPSA>
47.56

>  <MW>
283.322

$$$$

 OpenBabel02121609142D

 17 19  0  0  0  0  0  0  0  0999 V2000
   -0.3375    0.4583    0.0000 N   0  0  0  0  0  0  0  0  0  0  0  0
   -0.0333   -0.5000    0.0000 C   0  0  0  0  0  0  0  0  0  0  0  0
    0.9417   -0.7042    0.0000 C   0  0  0  0  0  0  0  0  0  0  0  0
    1.3542   -1.6167    0.0000 S   0  0  0  0  0  0  0  0  0  0  0  0
   -1.2958    0.7625    0.0000 C   0  0  0  0  0  0  0  0  0  0  0  0
    1.6917   -0.0292    0.0000 C   0  0  0  0  0  0  0  0  0  0  0  0
    0.2500    1.2625    0.0000 C   0  0  0  0  0  0  0  0  0  0  0  0
    2.3500   -1.5167    0.0000 C   0  0  0  0  0  0  0  0  0  0  0  0
    2.5542   -0.5375    0.0000 C   0  0  0  0  0  0  0  0  0  0  0  0
   -0.7000   -1.2417    0.0000 O   0  0  0  0  0  0  0  0  0  0  0  0
   -1.2958    1.7625    0.0000 C   0  0  0  0  0  0  0  0  0  0  0  0
   -0.3375    2.0708    0.0000 C   0  0  0  0  0  0  0  0  0  0  0  0
   -2.1583    0.2625    0.0000 C   0  0  0  0  0  0  0  0  0  0  0  0
    3.0167   -2.2542    0.0000 C   0  0  0  0  0  0  0  0  0  0  0  0
   -2.1583    2.2708    0.0000 C   0  0  0  0  0  0  0  0  0  0  0  0
   -3.0208    0.7625    0.0000 C   0  0  0  0  0  0  0  0  0  0  0  0
   -3.0208    1.7625    0.0000 C   0  0  0  0  0  0  0  0  0  0  0  0
  2  1  1  0  0  0  0
  3  2  1  0  0  0  0
  4  3  1  0  0  0  0
  5  1  1  0  0  0  0
  6  3  2  0  0  0  0
  7  1  1  0  0  0  0
  8  4  1  0  0  0  0
  8  9  2  0  0  0  0
  9  6  1  0  0  0  0
 10  2  2  0  0  0  0
 11  5  2  0  0  0  0
 12  7  1  0  0  0  0
 12 11  1  0  0  0  0
 13  5  1  0  0  0  0
 14  8  1  0  0  0  0
 15 11  1  0  0  0  0
 15 17  2  0  0  0  0
 16 13  2  0  0  0  0
 17 16  1  0  0  0  0
M  END
>  <idnumber>
T5687777

>  <LogP>
2.906000000000000e+000

>  <rotating_bonds>
1.000000000000000e+000

>  <hb_acceptors>
2.000000000000000e+000

>  <hb_donors>
0.000000000000000e+000

>  <PSA>
4.855000000000000e+001

>  <clusterid>
666

>  <is_centroid>
@

>  <class1>
645

>  <class2>
732

>  <population1>
105961

>  <population2>
13534

>  <population>
847

>  <cansmi>
Cc1ccc(s1)C(=O)N1CCc2c1cccc2

>  <HBA2>
3

>  <HBD>
0

>  <logP>
3.3244

>  <TPSA>
48.55

>  <MW>
243.324

$$$$

 OpenBabel02121609142D

 16 18  0  0  0  0  0  0  0  0999 V2000
   -0.0083   -1.0000    0.0000 C   0  0  0  0  0  0  0  0  0  0  0  0
    0.8625   -0.5000    0.0000 N   0  0  0  0  0  0  0  0  0  0  0  0
   -0.8708   -0.5000    0.0000 C   0  0  0  0  0  0  0  0  0  0  0  0
    0.8625    0.5000    0.0000 C   0  0  0  0  0  0  0  0  0  0  0  0
   -0.0083    1.0000    0.0000 N   0  0  0  0  0  0  0  0  0  0  0  0
   -0.8708    0.5000    0.0000 C   0  0  0  0  0  0  0  0  0  0  0  0
   -0.0083   -2.0000    0.0000 O   0  0  0  0  0  0  0  0  0  0  0  0
   -1.7333   -1.0000    0.0000 C   0  0  0  0  0  0  0  0  0  0  0  0
    1.7292    0.0000    0.0000 C   0  0  0  0  0  0  0  0  0  0  0  0
    0.8625    1.5000    0.0000 C   0  0  0  0  0  0  0  0  0  0  0  0
   -1.7333    1.0000    0.0000 C   0  0  0  0  0  0  0  0  0  0  0  0
   -2.6000   -0.5000    0.0000 C   0  0  0  0  0  0  0  0  0  0  0  0
    1.7292    2.0000    0.0000 C   0  0  0  0  0  0  0  0  0  0  0  0
    2.5917    0.5000    0.0000 C   0  0  0  0  0  0  0  0  0  0  0  0
   -2.6000    0.5000    0.0000 C   0  0  0  0  0  0  0  0  0  0  0  0
    2.5917    1.5000    0.0000 C   0  0  0  0  0  0  0  0  0  0  0  0
  2  1  1  0  0  0  0
  3  1  1  0  0  0  0
  4  2  1  0  0  0  0
  4  5  1  0  0  0  0
  5  6  1  0  0  0  0
  6  3  2  0  0  0  0
  7  1  2  0  0  0  0
  8  3  1  0  0  0  0
  9  4  1  0  0  0  0
 10  4  1  0  0  0  0
 11  6  1  0  0  0  0
 11 15  2  0  0  0  0
 12  8  2  0  0  0  0
 13 10  1  0  0  0  0
 14  9  1  0  0  0  0
 14 16  1  0  0  0  0
 15 12  1  0  0  0  0
 16 13  1  0  0  0  0
M  END
>  <idnumber>
T5687794

>  <LogP>
2.562000000000000e+000

>  <rotating_bonds>
0.000000000000000e+000

>  <hb_acceptors>
2.000000000000000e+000

>  <hb_donors>
2.000000000000000e+000

>  <PSA>
4.113000000000000e+001

>  <clusterid>
-1163

>  <is_centroid>
@

>  <class1>
853

>  <population1>
24

>  <population>
24

>  <cansmi>
O=C1NC2(CCCCC2)Nc2c1cccc2

>  <HBA2>
3

>  <HBD>
2

>  <logP>
2.9691

>  <TPSA>
41.13

>  <MW>
216.279

$$$$

 OpenBabel02121609142D

 17 18  0  0  0  0  0  0  0  0999 V2000
   -0.4333   -0.2500    0.0000 C   0  0  0  0  0  0  0  0  0  0  0  0
   -1.3000    0.2500    0.0000 N   0  0  0  0  0  0  0  0  0  0  0  0
   -0.4333   -1.2500    0.0000 N   0  0  0  0  0  0  0  0  0  0  0  0
    0.4292    0.2500    0.0000 O   0  0  0  0  0  0  0  0  0  0  0  0
    2.1625   -1.7500    0.0000 N   0  0  0  0  0  0  0  0  0  0  0  0
   -1.3000    1.2500    0.0000 C   0  0  0  0  0  0  0  0  0  0  0  0
    0.4292   -1.7500    0.0000 C   0  0  0  0  0  0  0  0  0  0  0  0
   -2.1708   -0.2500    0.0000 C   0  0  0  0  0  0  0  0  0  0  0  0
    1.2917   -1.2500    0.0000 C   0  0  0  0  0  0  0  0  0  0  0  0
    2.1625   -2.7500    0.0000 C   0  0  0  0  0  0  0  0  0  0  0  0
   -2.1708    1.7500    0.0000 C   0  0  0  0  0  0  0  0  0  0  0  0
   -0.4333    1.7500    0.0000 C   0  0  0  0  0  0  0  0  0  0  0  0
    0.4292   -2.7500    0.0000 C   0  0  0  0  0  0  0  0  0  0  0  0
    1.2917   -3.2500    0.0000 C   0  0  0  0  0  0  0  0  0  0  0  0
   -0.4333    2.7500    0.0000 C   0  0  0  0  0  0  0  0  0  0  0  0
   -2.1708    2.7500    0.0000 C   0  0  0  0  0  0  0  0  0  0  0  0
   -1.3000    3.2500    0.0000 C   0  0  0  0  0  0  0  0  0  0  0  0
  2  1  1  0  0  0  0
  3  1  1  0  0  0  0
  4  1  2  0  0  0  0
  5  9  1  0  0  0  0
  5 10  2  0  0  0  0
  6  2  1  0  0  0  0
  7  3  1  0  0  0  0
  8  2  1  0  0  0  0
  9  7  2  0  0  0  0
 10 14  1  0  0  0  0
 11  6  1  0  0  0  0
 12  6  1  0  0  0  0
 13  7  1  0  0  0  0
 14 13  2  0  0  0  0
 15 12  1  0  0  0  0
 16 11  1  0  0  0  0
 16 17  1  0  0  0  0
 17 15  1  0  0  0  0
M  END
>  <idnumber>
T5689900

>  <LogP>
2.483000000000000e+000

>  <rotating_bonds>
2.000000000000000e+000

>  <hb_acceptors>
2.000000000000000e+000

>  <hb_donors>
1.000000000000000e+000

>  <PSA>
4.523000000000000e+001

>  <clusterid>
668

>  <is_centroid>
@

>  <class1>
797

>  <class2>
632

>  <population1>
40410

>  <population2>
79489

>  <population>
2014

>  <cansmi>
O=C(N(C1CCCCC1)C)Nc1cccnc1

>  <HBA2>
4

>  <HBD>
1

>  <logP>
2.951

>  <TPSA>
45.23

>  <MW>
233.309

$$$$

 OpenBabel02121609142D

 21 23  0  0  0  0  0  0  0  0999 V2000
    0.0000    0.5000    0.0000 C   0  0  0  0  0  0  0  0  0  0  0  0
    0.8625    1.0000    0.0000 C   0  0  0  0  0  0  0  0  0  0  0  0
    0.8625    2.0000    0.0000 C   0  0  0  0  0  0  0  0  0  0  0  0
    0.0000    2.5000    0.0000 O   0  0  0  0  0  0  0  0  0  0  0  0
   -0.8708    2.0000    0.0000 C   0  0  0  0  0  0  0  0  0  0  0  0
   -0.8708    1.0000    0.0000 C   0  0  0  0  0  0  0  0  0  0  0  0
    1.7292    0.5000    0.0000 C   0  0  0  0  0  0  0  0  0  0  0  0
   -0.8708   -0.9917    0.0000 N   0  0  0  0  0  0  0  0  0  0  0  0
    1.7292    2.5000    0.0000 C   0  0  0  0  0  0  0  0  0  0  0  0
    0.0000   -0.4917    0.0000 C   0  0  0  0  0  0  0  0  0  0  0  0
    2.5917    1.0000    0.0000 C   0  0  0  0  0  0  0  0  0  0  0  0
    2.5917    2.0000    0.0000 C   0  0  0  0  0  0  0  0  0  0  0  0
   -1.7333    2.5000    0.0000 O   0  0  0  0  0  0  0  0  0  0  0  0
   -1.7333   -2.5000    0.0000 C   0  0  0  0  0  0  0  0  0  0  0  0
   -2.6000   -0.9917    0.0000 C   0  0  0  0  0  0  0  0  0  0  0  0
   -0.8708   -2.0000    0.0000 C   0  0  0  0  0  0  0  0  0  0  0  0
   -1.7333   -0.4917    0.0000 C   0  0  0  0  0  0  0  0  0  0  0  0
   -2.6000   -2.0000    0.0000 C   0  0  0  0  0  0  0  0  0  0  0  0
   -3.4708   -2.5000    0.0000 O   0  0  0  0  0  0  0  0  0  0  0  0
    3.4625    0.5000    0.0000 C   0  0  0  0  0  0  0  0  0  0  0  0
    3.4625    2.5000    0.0000 C   0  0  0  0  0  0  0  0  0  0  0  0
  2  1  1  0  0  0  0
  3  2  1  0  0  0  0
  3  4  1  0  0  0  0
  4  5  1  0  0  0  0
  5  6  1  0  0  0  0
  6  1  2  0  0  0  0
  7  2  2  0  0  0  0
  8 10  1  0  0  0  0
  9  3  2  0  0  0  0
 10  1  1  0  0  0  0
 11  7  1  0  0  0  0
 12 11  2  0  0  0  0
 12  9  1  0  0  0  0
 13  5  2  0  0  0  0
 14 16  1  0  0  0  0
 14 18  1  0  0  0  0
 15 17  1  0  0  0  0
 16  8  1  0  0  0  0
 17  8  1  0  0  0  0
 18 15  1  0  0  0  0
 19 18  1  0  0  0  0
 20 11  1  0  0  0  0
 21 12  1  0  0  0  0
M  END
>  <idnumber>
T5689942

>  <LogP>
1.300000000000000e+000

>  <rotating_bonds>
2.000000000000000e+000

>  <hb_acceptors>
3.000000000000000e+000

>  <hb_donors>
1.000000000000000e+000

>  <PSA>
4.977000000000000e+001

>  <clusterid>
600

>  <is_centroid>
@

>  <class1>
639

>  <class2>
799

>  <population1>
59855

>  <population2>
7929

>  <population>
283

>  <cansmi>
OC1CCN(CC1)Cc1cc(=O)oc2c1cc(C)c(c2)C

>  <HBA2>
4

>  <HBD>
1

>  <logP>
2.3044

>  <TPSA>
53.68

>  <MW>
287.354

$$$$

 OpenBabel02121609142D

 21 23  0  0  0  0  0  0  0  0999 V2000
    2.9792    0.0208    0.0000 C   0  0  0  0  0  0  0  0  0  0  0  0
    1.9792    0.0208    0.0000 C   0  0  0  0  0  0  0  0  0  0  0  0
    3.5667   -0.7917    0.0000 C   0  0  0  0  0  0  0  0  0  0  0  0
   -2.5208    0.8833    0.0000 N   0  0  0  0  0  0  0  0  0  0  0  0
    1.4792    0.8833    0.0000 N   0  0  0  0  0  0  0  0  0  0  0  0
    3.5667    0.8250    0.0000 C   0  0  0  0  0  0  0  0  0  0  0  0
    4.5167   -0.4792    0.0000 O   0  0  0  0  0  0  0  0  0  0  0  0
   -1.5208    0.8833    0.0000 C   0  0  0  0  0  0  0  0  0  0  0  0
    4.5167    0.5208    0.0000 C   0  0  0  0  0  0  0  0  0  0  0  0
    1.4792   -0.8500    0.0000 O   0  0  0  0  0  0  0  0  0  0  0  0
   -4.5208    0.8833    0.0000 O   0  0  0  0  0  0  0  0  0  0  0  0
    0.4792    0.8833    0.0000 C   0  0  0  0  0  0  0  0  0  0  0  0
   -1.0208    1.7500    0.0000 C   0  0  0  0  0  0  0  0  0  0  0  0
   -1.0208    0.0208    0.0000 C   0  0  0  0  0  0  0  0  0  0  0  0
   -0.0208    1.7500    0.0000 C   0  0  0  0  0  0  0  0  0  0  0  0
   -0.0208    0.0208    0.0000 C   0  0  0  0  0  0  0  0  0  0  0  0
   -3.0208    1.7500    0.0000 C   0  0  0  0  0  0  0  0  0  0  0  0
   -3.0208    0.0208    0.0000 C   0  0  0  0  0  0  0  0  0  0  0  0
    3.2542   -1.7417    0.0000 C   0  0  0  0  0  0  0  0  0  0  0  0
   -4.0208    0.0208    0.0000 C   0  0  0  0  0  0  0  0  0  0  0  0
   -4.0208    1.7500    0.0000 C   0  0  0  0  0  0  0  0  0  0  0  0
  2  1  1  0  0  0  0
  3  1  2  0  0  0  0
  4  8  1  0  0  0  0
  5  2  1  0  0  0  0
  6  1  1  0  0  0  0
  7  3  1  0  0  0  0
  7  9  1  0  0  0  0
  8 14  2  0  0  0  0
  9  6  2  0  0  0  0
 10  2  2  0  0  0  0
 11 20  1  0  0  0  0
 12  5  1  0  0  0  0
 13 15  2  0  0  0  0
 13  8  1  0  0  0  0
 14 16  1  0  0  0  0
 15 12  1  0  0  0  0
 16 12  2  0  0  0  0
 17  4  1  0  0  0  0
 18  4  1  0  0  0  0
 19  3  1  0  0  0  0
 20 18  1  0  0  0  0
 21 17  1  0  0  0  0
 21 11  1  0  0  0  0
M  END
>  <idnumber>
T5690059

>  <LogP>
1.805000000000000e+000

>  <rotating_bonds>
3.000000000000000e+000

>  <hb_acceptors>
3.000000000000000e+000

>  <hb_donors>
1.000000000000000e+000

>  <PSA>
5.471000000000003e+001

>  <clusterid>
669

>  <is_centroid>
@

>  <class1>
704

>  <class2>
786

>  <class3>
625

>  <population1>
51112

>  <population2>
48067

>  <population3>
877209

>  <population>
1367

>  <cansmi>
O=C(c1ccoc1C)Nc1ccc(cc1)N1CCOCC1

>  <HBA2>
5

>  <HBD>
1

>  <logP>
2.8149

>  <TPSA>
54.71

>  <MW>
286.326

$$$$

 OpenBabel02121609142D

 18 19  0  0  0  0  0  0  0  0999 V2000
    0.7917   -0.2292    0.0000 N   0  0  0  0  0  0  0  0  0  0  0  0
    0.4375    1.4708    0.0000 C   0  0  0  0  0  0  0  0  0  0  0  0
    0.1250    0.5208    0.0000 C   0  0  0  0  0  0  0  0  0  0  0  0
    0.4875   -1.1792    0.0000 C   0  0  0  0  0  0  0  0  0  0  0  0
   -0.4958   -1.3875    0.0000 C   0  0  0  0  0  0  0  0  0  0  0  0
    0.4375    3.0833    0.0000 S   0  0  0  0  0  0  0  0  0  0  0  0
   -0.1500    2.2750    0.0000 C   0  0  0  0  0  0  0  0  0  0  0  0
    1.3875    1.7750    0.0000 C   0  0  0  0  0  0  0  0  0  0  0  0
   -0.8500    0.3083    0.0000 O   0  0  0  0  0  0  0  0  0  0  0  0
    1.1542   -1.9167    0.0000 C   0  0  0  0  0  0  0  0  0  0  0  0
    1.3875    2.7750    0.0000 C   0  0  0  0  0  0  0  0  0  0  0  0
   -1.1583   -0.6417    0.0000 C   0  0  0  0  0  0  0  0  0  0  0  0
   -0.8000   -2.3375    0.0000 C   0  0  0  0  0  0  0  0  0  0  0  0
   -0.1333   -3.0792    0.0000 C   0  0  0  0  0  0  0  0  0  0  0  0
    0.8417   -2.8667    0.0000 C   0  0  0  0  0  0  0  0  0  0  0  0
    2.1292   -1.7125    0.0000 C   0  0  0  0  0  0  0  0  0  0  0  0
   -2.1375   -0.8500    0.0000 C   0  0  0  0  0  0  0  0  0  0  0  0
   -0.4208    0.0250    0.0000 C   0  0  0  0  0  0  0  0  0  0  0  0
  2  3  1  0  0  0  0
  3  1  1  0  0  0  0
  4  1  1  0  0  0  0
  5  4  2  0  0  0  0
  6  7  1  0  0  0  0
  7  2  2  0  0  0  0
  8  2  1  0  0  0  0
  9  3  2  0  0  0  0
 10  4  1  0  0  0  0
 11  8  2  0  0  0  0
 11  6  1  0  0  0  0
 12  5  1  0  0  0  0
 13  5  1  0  0  0  0
 13 14  2  0  0  0  0
 14 15  1  0  0  0  0
 15 10  2  0  0  0  0
 16 10  1  0  0  0  0
 17 12  1  0  0  0  0
 18 12  1  0  0  0  0
M  END
>  <idnumber>
T5690069

>  <LogP>
2.864000000000000e+000

>  <rotating_bonds>
3.000000000000000e+000

>  <hb_acceptors>
2.000000000000000e+000

>  <hb_donors>
1.000000000000000e+000

>  <PSA>
5.734000000000000e+001

>  <clusterid>
670

>  <is_centroid>
@

>  <class1>
625

>  <class2>
645

>  <population1>
877209

>  <population2>
105961

>  <population>
84604

>  <cansmi>
O=C(c1ccsc1)Nc1c(C)cccc1C(C)C

>  <HBA2>
3

>  <HBD>
1

>  <logP>
4.5052

>  <TPSA>
57.34

>  <MW>
259.367

$$$$

 OpenBabel02121609142D

 21 23  0  0  0  0  0  0  0  0999 V2000
    0.2917    2.4208    0.0000 C   0  0  0  0  0  0  0  0  0  0  0  0
   -0.2708   -2.1292    0.0000 N   0  0  0  0  0  0  0  0  0  0  0  0
    0.9625    1.6750    0.0000 N   0  0  0  0  0  0  0  0  0  0  0  0
   -0.8958   -4.0292    0.0000 N   0  0  0  0  0  0  0  0  0  0  0  0
    0.0375   -1.1792    0.0000 C   0  0  0  0  0  0  0  0  0  0  0  0
   -0.6833    2.2083    0.0000 O   0  0  0  0  0  0  0  0  0  0  0  0
    0.3917   -2.8667    0.0000 C   0  0  0  0  0  0  0  0  0  0  0  0
   -1.2500   -2.3375    0.0000 C   0  0  0  0  0  0  0  0  0  0  0  0
    0.6042    3.3708    0.0000 C   0  0  0  0  0  0  0  0  0  0  0  0
    1.0167   -0.9667    0.0000 C   0  0  0  0  0  0  0  0  0  0  0  0
   -0.6333   -0.4292    0.0000 C   0  0  0  0  0  0  0  0  0  0  0  0
    0.6542    0.7250    0.0000 C   0  0  0  0  0  0  0  0  0  0  0  0
    0.0875   -3.8250    0.0000 C   0  0  0  0  0  0  0  0  0  0  0  0
   -1.5583   -3.2875    0.0000 C   0  0  0  0  0  0  0  0  0  0  0  0
   -0.3250    0.5208    0.0000 C   0  0  0  0  0  0  0  0  0  0  0  0
    1.3250   -0.0167    0.0000 C   0  0  0  0  0  0  0  0  0  0  0  0
   -1.2000   -4.9792    0.0000 C   0  0  0  0  0  0  0  0  0  0  0  0
    1.5542    3.6833    0.0000 C   0  0  0  0  0  0  0  0  0  0  0  0
    0.0167    4.1667    0.0000 C   0  0  0  0  0  0  0  0  0  0  0  0
    0.6042    4.9792    0.0000 C   0  0  0  0  0  0  0  0  0  0  0  0
    1.5542    4.6667    0.0000 C   0  0  0  0  0  0  0  0  0  0  0  0
  2  5  1  0  0  0  0
  3  1  1  0  0  0  0
  4 14  1  0  0  0  0
  4 13  1  0  0  0  0
  5 10  1  0  0  0  0
  6  1  2  0  0  0  0
  7  2  1  0  0  0  0
  8  2  1  0  0  0  0
  9  1  1  0  0  0  0
 10 16  2  0  0  0  0
 11 15  1  0  0  0  0
 11  5  2  0  0  0  0
 12  3  1  0  0  0  0
 13  7  1  0  0  0  0
 14  8  1  0  0  0  0
 15 12  2  0  0  0  0
 16 12  1  0  0  0  0
 17  4  1  0  0  0  0
 18  9  1  0  0  0  0
 19  9  1  0  0  0  0
 20 19  1  0  0  0  0
 21 18  1  0  0  0  0
 21 20  1  0  0  0  0
M  END
>  <idnumber>
T5690431

>  <LogP>
2.018000000000000e+000

>  <rotating_bonds>
3.000000000000000e+000

>  <hb_acceptors>
3.000000000000000e+000

>  <hb_donors>
1.000000000000000e+000

>  <PSA>
3.558000000000000e+001

>  <clusterid>
671

>  <is_centroid>
@

>  <class1>
674

>  <class2>
717

>  <class3>
625

>  <population1>
16474

>  <population2>
74368

>  <population3>
877209

>  <population>
816

>  <cansmi>
CN1CCN(CC1)c1ccc(cc1)NC(=O)C1CCCC1

>  <HBA2>
4

>  <HBD>
1

>  <logP>
2.643

>  <TPSA>
35.58

>  <MW>
287.4

$$$$

 OpenBabel02121609142D

 21 23  0  0  0  0  0  0  0  0999 V2000
   -1.5958    0.2583    0.0000 N   0  0  0  0  0  0  0  0  0  0  0  0
   -1.2875   -0.6917    0.0000 C   0  0  0  0  0  0  0  0  0  0  0  0
   -2.5458    0.5708    0.0000 C   0  0  0  0  0  0  0  0  0  0  0  0
   -1.0083    1.0708    0.0000 C   0  0  0  0  0  0  0  0  0  0  0  0
   -0.3083   -0.9042    0.0000 C   0  0  0  0  0  0  0  0  0  0  0  0
    3.2917   -0.7792    0.0000 C   0  0  0  0  0  0  0  0  0  0  0  0
    2.6250   -1.5250    0.0000 N   0  0  0  0  0  0  0  0  0  0  0  0
   -1.9583   -1.4375    0.0000 O   0  0  0  0  0  0  0  0  0  0  0  0
   -2.5458    1.5708    0.0000 C   0  0  0  0  0  0  0  0  0  0  0  0
   -1.5958    1.8750    0.0000 C   0  0  0  0  0  0  0  0  0  0  0  0
    4.2750   -0.9917    0.0000 O   0  0  0  0  0  0  0  0  0  0  0  0
    0.0000   -1.8542    0.0000 C   0  0  0  0  0  0  0  0  0  0  0  0
    0.3625   -0.1542    0.0000 C   0  0  0  0  0  0  0  0  0  0  0  0
    1.6500   -1.3167    0.0000 C   0  0  0  0  0  0  0  0  0  0  0  0
    0.9792   -2.0625    0.0000 C   0  0  0  0  0  0  0  0  0  0  0  0
    1.3375   -0.3667    0.0000 C   0  0  0  0  0  0  0  0  0  0  0  0
   -3.4125    0.0708    0.0000 C   0  0  0  0  0  0  0  0  0  0  0  0
    2.9875    0.1708    0.0000 C   0  0  0  0  0  0  0  0  0  0  0  0
   -3.4125    2.0708    0.0000 C   0  0  0  0  0  0  0  0  0  0  0  0
   -4.2833    0.5708    0.0000 C   0  0  0  0  0  0  0  0  0  0  0  0
   -4.2833    1.5708    0.0000 C   0  0  0  0  0  0  0  0  0  0  0  0
  2  1  1  0  0  0  0
  3  1  1  0  0  0  0
  4  1  1  0  0  0  0
  5  2  1  0  0  0  0
  6  7  1  0  0  0  0
  7 14  1  0  0  0  0
  8  2  2  0  0  0  0
  9  3  2  0  0  0  0
 10  4  1  0  0  0  0
 10  9  1  0  0  0  0
 11  6  2  0  0  0  0
 12  5  2  0  0  0  0
 13  5  1  0  0  0  0
 14 16  1  0  0  0  0
 15 12  1  0  0  0  0
 15 14  2  0  0  0  0
 16 13  2  0  0  0  0
 17  3  1  0  0  0  0
 18  6  1  0  0  0  0
 19  9  1  0  0  0  0
 19 21  2  0  0  0  0
 20 17  2  0  0  0  0
 21 20  1  0  0  0  0
M  END
>  <idnumber>
T5690873

>  <LogP>
2.119000000000000e+000

>  <rotating_bonds>
2.000000000000000e+000

>  <hb_acceptors>
2.000000000000000e+000

>  <hb_donors>
1.000000000000000e+000

>  <PSA>
4.941000000000003e+001

>  <clusterid>
194

>  <is_centroid>
@

>  <class1>
625

>  <class2>
732

>  <population1>
877209

>  <population2>
13534

>  <population>
13534

>  <cansmi>
CC(=O)Nc1ccc(cc1)C(=O)N1CCc2c1cccc2

>  <HBA2>
4

>  <HBD>
1

>  <logP>
2.9859

>  <TPSA>
49.41

>  <MW>
280.321

$$$$

 OpenBabel02121609142D

 18 20  0  0  0  0  0  0  0  0999 V2000
    1.2917   -1.4792    0.0000 C   0  0  0  0  0  0  0  0  0  0  0  0
    1.2917   -0.4792    0.0000 C   0  0  0  0  0  0  0  0  0  0  0  0
    0.4292    0.0208    0.0000 N   0  0  0  0  0  0  0  0  0  0  0  0
    0.4292    1.0208    0.0000 C   0  0  0  0  0  0  0  0  0  0  0  0
    2.1042   -2.0667    0.0000 C   0  0  0  0  0  0  0  0  0  0  0  0
   -0.4333    1.5208    0.0000 C   0  0  0  0  0  0  0  0  0  0  0  0
    0.4875   -2.0667    0.0000 C   0  0  0  0  0  0  0  0  0  0  0  0
    1.7917   -3.0167    0.0000 O   0  0  0  0  0  0  0  0  0  0  0  0
    2.1625    0.0208    0.0000 O   0  0  0  0  0  0  0  0  0  0  0  0
    0.7917   -3.0167    0.0000 C   0  0  0  0  0  0  0  0  0  0  0  0
   -0.4333    2.5208    0.0000 C   0  0  0  0  0  0  0  0  0  0  0  0
    1.2917    1.5208    0.0000 C   0  0  0  0  0  0  0  0  0  0  0  0
    1.2917    2.5208    0.0000 C   0  0  0  0  0  0  0  0  0  0  0  0
   -1.3000    1.0208    0.0000 C   0  0  0  0  0  0  0  0  0  0  0  0
    0.4292    3.0208    0.0000 C   0  0  0  0  0  0  0  0  0  0  0  0
   -1.3000    3.0208    0.0000 C   0  0  0  0  0  0  0  0  0  0  0  0
   -2.1708    1.5208    0.0000 C   0  0  0  0  0  0  0  0  0  0  0  0
   -2.1708    2.5208    0.0000 C   0  0  0  0  0  0  0  0  0  0  0  0
  2  1  1  0  0  0  0
  3  2  1  0  0  0  0
  4  3  1  0  0  0  0
  5  1  2  0  0  0  0
  6  4  2  0  0  0  0
  7  1  1  0  0  0  0
  8  5  1  0  0  0  0
  9  2  2  0  0  0  0
 10  7  2  0  0  0  0
 10  8  1  0  0  0  0
 11  6  1  0  0  0  0
 11 15  2  0  0  0  0
 12  4  1  0  0  0  0
 13 12  2  0  0  0  0
 14  6  1  0  0  0  0
 15 13  1  0  0  0  0
 16 11  1  0  0  0  0
 16 18  2  0  0  0  0
 17 14  2  0  0  0  0
 18 17  1  0  0  0  0
M  END
>  <idnumber>
T5691410

>  <LogP>
3.000000000000000e+000

>  <rotating_bonds>
2.000000000000000e+000

>  <hb_acceptors>
1.000000000000000e+000

>  <hb_donors>
1.000000000000000e+000

>  <PSA>
4.224000000000000e+001

>  <clusterid>
672

>  <is_centroid>
@

>  <class1>
704

>  <class2>
796

>  <population1>
51112

>  <population2>
21922

>  <population>
623

>  <cansmi>
O=C(c1cocc1)Nc1cccc2c1cccc2

>  <HBA2>
3

>  <HBD>
1

>  <logP>
3.7581

>  <TPSA>
42.24

>  <MW>
237.253

$$$$

 OpenBabel02121609142D

 19 21  0  0  0  0  0  0  0  0999 V2000
   -0.6208    0.0000    0.0000 N   0  0  0  0  0  0  0  0  0  0  0  0
   -1.2083   -0.8042    0.0000 C   0  0  0  0  0  0  0  0  0  0  0  0
   -1.2083    0.8125    0.0000 C   0  0  0  0  0  0  0  0  0  0  0  0
   -2.1583    0.5000    0.0000 C   0  0  0  0  0  0  0  0  0  0  0  0
   -2.1583   -0.5000    0.0000 C   0  0  0  0  0  0  0  0  0  0  0  0
    0.3792    0.0000    0.0000 C   0  0  0  0  0  0  0  0  0  0  0  0
   -0.8958   -1.7542    0.0000 O   0  0  0  0  0  0  0  0  0  0  0  0
   -0.8958    1.7625    0.0000 O   0  0  0  0  0  0  0  0  0  0  0  0
    3.8792   -0.8625    0.0000 N   0  0  0  0  0  0  0  0  0  0  0  0
    0.8792   -0.8625    0.0000 C   0  0  0  0  0  0  0  0  0  0  0  0
   -3.0208   -1.0000    0.0000 C   0  0  0  0  0  0  0  0  0  0  0  0
   -3.0208    1.0000    0.0000 C   0  0  0  0  0  0  0  0  0  0  0  0
    1.8792   -0.8625    0.0000 C   0  0  0  0  0  0  0  0  0  0  0  0
    3.3792   -1.7292    0.0000 C   0  0  0  0  0  0  0  0  0  0  0  0
    3.3792    0.0000    0.0000 C   0  0  0  0  0  0  0  0  0  0  0  0
    2.3792   -1.7292    0.0000 C   0  0  0  0  0  0  0  0  0  0  0  0
    2.3792    0.0000    0.0000 C   0  0  0  0  0  0  0  0  0  0  0  0
   -3.8958    0.5000    0.0000 C   0  0  0  0  0  0  0  0  0  0  0  0
   -3.8958   -0.5000    0.0000 C   0  0  0  0  0  0  0  0  0  0  0  0
  2  1  1  0  0  0  0
  3  1  1  0  0  0  0
  4  3  1  0  0  0  0
  4  5  2  0  0  0  0
  5  2  1  0  0  0  0
  6  1  1  0  0  0  0
  7  2  2  0  0  0  0
  8  3  2  0  0  0  0
  9 15  2  0  0  0  0
 10  6  1  0  0  0  0
 11  5  1  0  0  0  0
 12  4  1  0  0  0  0
 13 10  1  0  0  0  0
 14 16  2  0  0  0  0
 14  9  1  0  0  0  0
 15 17  1  0  0  0  0
 16 13  1  0  0  0  0
 17 13  2  0  0  0  0
 18 12  2  0  0  0  0
 18 19  1  0  0  0  0
 19 11  2  0  0  0  0
M  END
>  <idnumber>
T5691706

>  <LogP>
2.114000000000000e+000

>  <rotating_bonds>
3.000000000000000e+000

>  <hb_acceptors>
3.000000000000000e+000

>  <hb_donors>
0.000000000000000e+000

>  <PSA>
5.027000000000000e+001

>  <clusterid>
-1167

>  <is_centroid>
@

>  <class1>
661

>  <class2>
632

>  <population1>
7628

>  <population2>
79489

>  <population>
318

>  <cansmi>
O=C1N(CCc2ccncc2)C(=O)c2c1cccc2

>  <HBA2>
4

>  <HBD>
0

>  <logP>
1.8582

>  <TPSA>
50.27

>  <MW>
252.268

$$$$

 OpenBabel02121609142D

 19 20  0  0  0  0  0  0  0  0999 V2000
    0.4292    0.9333    0.0000 N   0  0  0  0  0  0  0  0  0  0  0  0
    1.2917    1.4333    0.0000 C   0  0  0  0  0  0  0  0  0  0  0  0
   -0.4333    1.4333    0.0000 C   0  0  0  0  0  0  0  0  0  0  0  0
   -0.4333   -0.5667    0.0000 C   0  0  0  0  0  0  0  0  0  0  0  0
    0.4292    2.9333    0.0000 O   0  0  0  0  0  0  0  0  0  0  0  0
    0.4292   -0.0667    0.0000 C   0  0  0  0  0  0  0  0  0  0  0  0
   -0.4333    2.4333    0.0000 C   0  0  0  0  0  0  0  0  0  0  0  0
   -0.4333   -1.5667    0.0000 N   0  0  0  0  0  0  0  0  0  0  0  0
    1.2917    2.4333    0.0000 C   0  0  0  0  0  0  0  0  0  0  0  0
    2.1625    0.9333    0.0000 O   0  0  0  0  0  0  0  0  0  0  0  0
   -1.3000   -0.0667    0.0000 O   0  0  0  0  0  0  0  0  0  0  0  0
   -1.3000   -2.0667    0.0000 C   0  0  0  0  0  0  0  0  0  0  0  0
   -1.3000    0.9333    0.0000 C   0  0  0  0  0  0  0  0  0  0  0  0
   -1.3000    2.9333    0.0000 C   0  0  0  0  0  0  0  0  0  0  0  0
   -1.8000   -1.2000    0.0000 C   0  0  0  0  0  0  0  0  0  0  0  0
   -2.1708   -2.5667    0.0000 C   0  0  0  0  0  0  0  0  0  0  0  0
   -0.8000   -2.9292    0.0000 C   0  0  0  0  0  0  0  0  0  0  0  0
   -2.1708    1.4333    0.0000 C   0  0  0  0  0  0  0  0  0  0  0  0
   -2.1708    2.4333    0.0000 C   0  0  0  0  0  0  0  0  0  0  0  0
  2  1  1  0  0  0  0
  3  1  1  0  0  0  0
  4  6  1  0  0  0  0
  5  7  1  0  0  0  0
  6  1  1  0  0  0  0
  7  3  2  0  0  0  0
  8  4  1  0  0  0  0
  9  2  1  0  0  0  0
  9  5  1  0  0  0  0
 10  2  2  0  0  0  0
 11  4  2  0  0  0  0
 12  8  1  0  0  0  0
 13  3  1  0  0  0  0
 14  7  1  0  0  0  0
 14 19  2  0  0  0  0
 15 12  1  0  0  0  0
 16 12  1  0  0  0  0
 17 12  1  0  0  0  0
 18 13  2  0  0  0  0
 19 18  1  0  0  0  0
M  END
>  <idnumber>
T5692049

>  <LogP>
1.671000000000000e+000

>  <rotating_bonds>
3.000000000000000e+000

>  <hb_acceptors>
3.000000000000000e+000

>  <hb_donors>
1.000000000000000e+000

>  <PSA>
5.863999999999997e+001

>  <clusterid>
649

>  <is_centroid>
@

>  <class1>
822

>  <population1>
2937

>  <population>
2937

>  <cansmi>
O=C(NC(C)(C)C)CN1C(=O)COc2c1cccc2

>  <HBA2>
5

>  <HBD>
1

>  <logP>
1.7826

>  <TPSA>
58.64

>  <MW>
262.304

$$$$

 OpenBabel02121609142D

 17 19  0  0  0  0  0  0  0  0999 V2000
   -0.8708   -0.2417    0.0000 N   0  0  0  0  0  0  0  0  0  0  0  0
    0.0000    0.2500    0.0000 C   0  0  0  0  0  0  0  0  0  0  0  0
    0.8625   -0.2417    0.0000 N   0  0  0  0  0  0  0  0  0  0  0  0
    2.5917   -1.2500    0.0000 N   0  0  0  0  0  0  0  0  0  0  0  0
   -1.7333    0.2500    0.0000 C   0  0  0  0  0  0  0  0  0  0  0  0
    0.0000    1.2500    0.0000 C   0  0  0  0  0  0  0  0  0  0  0  0
    1.7292    0.2500    0.0000 C   0  0  0  0  0  0  0  0  0  0  0  0
    0.8625   -1.2500    0.0000 C   0  0  0  0  0  0  0  0  0  0  0  0
   -1.7333    1.2500    0.0000 C   0  0  0  0  0  0  0  0  0  0  0  0
   -0.8708    1.7500    0.0000 C   0  0  0  0  0  0  0  0  0  0  0  0
    2.5917   -0.2417    0.0000 C   0  0  0  0  0  0  0  0  0  0  0  0
    1.7292   -1.7500    0.0000 C   0  0  0  0  0  0  0  0  0  0  0  0
    3.4625   -1.7500    0.0000 C   0  0  0  0  0  0  0  0  0  0  0  0
   -2.6000   -0.2417    0.0000 C   0  0  0  0  0  0  0  0  0  0  0  0
   -2.6000    1.7500    0.0000 C   0  0  0  0  0  0  0  0  0  0  0  0
   -3.4708    0.2500    0.0000 C   0  0  0  0  0  0  0  0  0  0  0  0
   -3.4708    1.2500    0.0000 C   0  0  0  0  0  0  0  0  0  0  0  0
  2  1  2  0  0  0  0
  3  2  1  0  0  0  0
  4 12  1  0  0  0  0
  4 11  1  0  0  0  0
  5  1  1  0  0  0  0
  6  2  1  0  0  0  0
  6 10  2  0  0  0  0
  7  3  1  0  0  0  0
  8  3  1  0  0  0  0
  9  5  2  0  0  0  0
 10  9  1  0  0  0  0
 11  7  1  0  0  0  0
 12  8  1  0  0  0  0
 13  4  1  0  0  0  0
 14  5  1  0  0  0  0
 15  9  1  0  0  0  0
 15 17  2  0  0  0  0
 16 14  2  0  0  0  0
 17 16  1  0  0  0  0
M  END
>  <idnumber>
T5692235

>  <LogP>
1.963000000000000e+000

>  <rotating_bonds>
1.000000000000000e+000

>  <hb_acceptors>
3.000000000000000e+000

>  <hb_donors>
0.000000000000000e+000

>  <PSA>
1.937000000000000e+001

>  <clusterid>
456

>  <is_centroid>
@

>  <class1>
717

>  <class2>
682

>  <population1>
74368

>  <population2>
20351

>  <population>
1156

>  <cansmi>
CN1CCN(CC1)c1ccc2c(n1)cccc2

>  <HBA2>
3

>  <HBD>
0

>  <logP>
1.9895

>  <TPSA>
19.37

>  <MW>
227.305

$$$$

 OpenBabel02121609142D

 18 20  0  0  0  0  0  0  0  0999 V2000
    1.2917   -1.4792    0.0000 C   0  0  0  0  0  0  0  0  0  0  0  0
    1.2917   -0.4792    0.0000 C   0  0  0  0  0  0  0  0  0  0  0  0
    0.4292    0.0208    0.0000 N   0  0  0  0  0  0  0  0  0  0  0  0
    0.4292    1.0208    0.0000 C   0  0  3  0  0  0  0  0  0  0  0  0
   -0.4333    1.5208    0.0000 C   0  0  0  0  0  0  0  0  0  0  0  0
    2.1042   -2.0667    0.0000 C   0  0  0  0  0  0  0  0  0  0  0  0
    0.4875   -2.0667    0.0000 C   0  0  0  0  0  0  0  0  0  0  0  0
    1.7917   -3.0167    0.0000 O   0  0  0  0  0  0  0  0  0  0  0  0
    2.1625    0.0208    0.0000 O   0  0  0  0  0  0  0  0  0  0  0  0
    0.7917   -3.0167    0.0000 C   0  0  0  0  0  0  0  0  0  0  0  0
   -0.4333    2.5208    0.0000 C   0  0  0  0  0  0  0  0  0  0  0  0
    1.2917    1.5208    0.0000 C   0  0  0  0  0  0  0  0  0  0  0  0
    1.2917    2.5208    0.0000 C   0  0  0  0  0  0  0  0  0  0  0  0
   -1.3000    1.0208    0.0000 C   0  0  0  0  0  0  0  0  0  0  0  0
    0.4292    3.0208    0.0000 C   0  0  0  0  0  0  0  0  0  0  0  0
   -1.3000    3.0208    0.0000 C   0  0  0  0  0  0  0  0  0  0  0  0
   -2.1708    1.5208    0.0000 C   0  0  0  0  0  0  0  0  0  0  0  0
   -2.1708    2.5208    0.0000 C   0  0  0  0  0  0  0  0  0  0  0  0
  2  1  1  0  0  0  0
  3  2  1  0  0  0  0
  4  3  1  0  0  0  0
  5  4  1  0  0  0  0
  6  1  2  0  0  0  0
  7  1  1  0  0  0  0
  8  6  1  0  0  0  0
  9  2  2  0  0  0  0
 10  7  2  0  0  0  0
 10  8  1  0  0  0  0
 11  5  2  0  0  0  0
 11 15  1  0  0  0  0
 12  4  1  0  0  0  0
 13 12  1  0  0  0  0
 14  5  1  0  0  0  0
 15 13  1  0  0  0  0
 16 11  1  0  0  0  0
 16 18  2  0  0  0  0
 17 14  2  0  0  0  0
 18 17  1  0  0  0  0
M  END
>  <idnumber>
T5692353

>  <LogP>
2.978000000000000e+000

>  <rotating_bonds>
2.000000000000000e+000

>  <hb_acceptors>
1.000000000000000e+000

>  <hb_donors>
1.000000000000000e+000

>  <PSA>
4.224000000000000e+001

>  <clusterid>
-1168

>  <is_centroid>
@

>  <class1>
704

>  <class2>
807

>  <population1>
51112

>  <population2>
5384

>  <population>
201

>  <cansmi>
O=C(c1ccoc1)NC1CCCc2c1cccc2

>  <HBA2>
3

>  <HBD>
1

>  <logP>
3.4779

>  <TPSA>
42.24

>  <MW>
241.285

$$$$

 OpenBabel02121609142D

 17 19  0  0  0  0  0  0  0  0999 V2000
    1.4792   -0.3167    0.0000 C   0  0  0  0  0  0  0  0  0  0  0  0
   -1.1208    1.1833    0.0000 C   0  0  0  0  0  0  0  0  0  0  0  0
    2.3417   -1.8167    0.0000 C   0  0  0  0  0  0  0  0  0  0  0  0
    2.3417   -0.8167    0.0000 N   0  0  0  0  0  0  0  0  0  0  0  0
   -1.1208    2.1833    0.0000 C   0  0  0  0  0  0  0  0  0  0  0  0
    1.8417   -2.6792    0.0000 C   0  0  0  0  0  0  0  0  0  0  0  0
    2.8417   -2.6792    0.0000 C   0  0  0  0  0  0  0  0  0  0  0  0
   -0.2500    0.6833    0.0000 C   0  0  0  0  0  0  0  0  0  0  0  0
   -1.9833    0.6833    0.0000 O   0  0  0  0  0  0  0  0  0  0  0  0
   -1.9833    2.6833    0.0000 O   0  0  0  0  0  0  0  0  0  0  0  0
    0.6125   -0.8167    0.0000 O   0  0  0  0  0  0  0  0  0  0  0  0
    0.6125    1.1833    0.0000 C   0  0  0  0  0  0  0  0  0  0  0  0
    1.4792    0.6833    0.0000 C   0  0  0  0  0  0  0  0  0  0  0  0
   -0.2500    2.6833    0.0000 C   0  0  0  0  0  0  0  0  0  0  0  0
    0.6125    2.1833    0.0000 C   0  0  0  0  0  0  0  0  0  0  0  0
   -2.8500    1.1833    0.0000 C   0  0  0  0  0  0  0  0  0  0  0  0
   -2.8500    2.1833    0.0000 C   0  0  0  0  0  0  0  0  0  0  0  0
  2  8  1  0  0  0  0
  2  5  2  0  0  0  0
  3  4  1  0  0  0  0
  4  1  1  0  0  0  0
  5 14  1  0  0  0  0
  6  3  1  0  0  0  0
  6  7  1  0  0  0  0
  7  3  1  0  0  0  0
  8 12  2  0  0  0  0
  9  2  1  0  0  0  0
 10  5  1  0  0  0  0
 11  1  2  0  0  0  0
 12 13  1  0  0  0  0
 13  1  1  0  0  0  0
 14 15  2  0  0  0  0
 15 12  1  0  0  0  0
 16  9  1  0  0  0  0
 17 10  1  0  0  0  0
 17 16  1  0  0  0  0
M  END
>  <idnumber>
T5693005

>  <LogP>
9.680000000000000e-001

>  <rotating_bonds>
3.000000000000000e+000

>  <hb_acceptors>
3.000000000000000e+000

>  <hb_donors>
1.000000000000000e+000

>  <PSA>
4.756000000000000e+001

>  <clusterid>
-1172

>  <is_centroid>
@

>  <class1>
675

>  <class2>
730

>  <population1>
33654

>  <population2>
20896

>  <population>
448

>  <cansmi>
O=C(Cc1ccc2c(c1)OCCO2)NC1CC1

>  <HBA2>
4

>  <HBD>
1

>  <logP>
1.6698

>  <TPSA>
47.56

>  <MW>
233.263

$$$$

 OpenBabel02121609142D

 19 22  0  0  0  0  0  0  0  0999 V2000
    6.3542   -6.5542    0.0000 C   0  0  0  0  0  0  0  0  0  0  0  0
    5.5375   -6.5542    0.0000 C   0  0  0  0  0  0  0  0  0  0  0  0
    5.1833   -5.7542    0.0000 N   0  0  0  0  0  0  0  0  0  0  0  0
    6.8500   -7.2333    0.0000 C   0  0  0  0  0  0  0  0  0  0  0  0
    6.8500   -5.8708    0.0000 C   0  0  0  0  0  0  0  0  0  0  0  0
    7.6500   -6.9750    0.0000 O   0  0  0  0  0  0  0  0  0  0  0  0
    7.6500   -6.1292    0.0000 C   0  0  0  0  0  0  0  0  0  0  0  0
    5.1083   -7.3000    0.0000 O   0  0  0  0  0  0  0  0  0  0  0  0
    6.5833   -8.0333    0.0000 C   0  0  0  0  0  0  0  0  0  0  0  0
    4.3134   -5.6609    0.0000 C   0  0  3  0  0  0  0  0  0  0  0  0
    2.2136   -6.2666    0.0000 C   0  0  0  0  0  0  0  0  0  0  0  0
    2.8548   -5.5830    0.0000 C   0  0  3  0  0  0  0  0  0  0  0  0
    3.0180   -6.0416    0.0000 C   0  0  3  0  0  0  0  0  0  0  0  0
    3.5662   -5.8456    0.0000 C   0  0  0  0  0  0  0  0  0  0  0  0
    3.7707   -6.3443    0.0000 C   0  0  0  0  0  0  0  0  0  0  0  0
    3.0153   -5.1932    0.0000 C   0  0  0  0  0  0  0  0  0  0  0  0
    3.5719   -4.5312    0.0000 C   0  0  3  0  0  0  0  0  0  0  0  0
    2.8503   -4.7875    0.0000 C   0  0  0  0  0  0  0  0  0  0  0  0
    4.3198   -4.8412    0.0000 C   0  0  0  0  0  0  0  0  0  0  0  0
  2  1  1  0  0  0  0
  3 10  1  0  0  0  0
  3  2  1  0  0  0  0
  4  1  2  0  0  0  0
  5  1  1  0  0  0  0
  6  4  1  0  0  0  0
  6  7  1  0  0  0  0
  7  5  2  0  0  0  0
  8  2  2  0  0  0  0
  9  4  1  0  0  0  0
 10 19  1  0  0  0  0
 11 12  1  0  0  0  0
 11 13  1  0  0  0  0
 12 14  1  0  0  0  0
 12 18  1  0  0  0  0
 13 15  1  0  0  0  0
 13 16  1  0  0  0  0
 14 10  1  0  0  0  0
 15 10  1  0  0  0  0
 16 17  1  0  0  0  0
 17 18  1  0  0  0  0
 19 17  1  0  0  0  0
M  END
>  <idnumber>
T5693045

>  <LogP>
2.855000000000000e+000

>  <rotating_bonds>
2.000000000000000e+000

>  <hb_acceptors>
1.000000000000000e+000

>  <hb_donors>
1.000000000000000e+000

>  <PSA>
4.224000000000000e+001

>  <clusterid>
309

>  <is_centroid>
@

>  <class1>
704

>  <class2>
809

>  <population1>
51112

>  <population2>
8162

>  <population>
213

>  <cansmi>
O=C(c1ccoc1C)NC12CC3CC(C2)CC(C1)C3

>  <HBA2>
3

>  <HBD>
1

>  <logP>
3.6775

>  <TPSA>
42.24

>  <MW>
259.343

$$$$

 OpenBabel02121609142D

 15 16  0  0  0  0  0  0  0  0999 V2000
    0.1667   -0.9875    0.0000 C   0  0  0  0  0  0  0  0  0  0  0  0
   -0.1458   -0.0292    0.0000 C   0  0  0  0  0  0  0  0  0  0  0  0
   -0.4208   -1.7917    0.0000 C   0  0  0  0  0  0  0  0  0  0  0  0
    1.1167   -1.2917    0.0000 N   0  0  0  0  0  0  0  0  0  0  0  0
    0.1667   -2.6042    0.0000 C   0  0  0  0  0  0  0  0  0  0  0  0
    0.5250    0.7083    0.0000 N   0  0  0  0  0  0  0  0  0  0  0  0
    1.1167   -2.2917    0.0000 C   0  0  0  0  0  0  0  0  0  0  0  0
   -1.1208    0.1708    0.0000 O   0  0  0  0  0  0  0  0  0  0  0  0
   -0.1458   -3.5542    0.0000 Cl  0  0  0  0  0  0  0  0  0  0  0  0
    0.2167    1.6583    0.0000 C   0  0  0  0  0  0  0  0  0  0  0  0
    0.8875    2.4000    0.0000 C   0  0  0  0  0  0  0  0  0  0  0  0
   -0.7625    1.8708    0.0000 C   0  0  0  0  0  0  0  0  0  0  0  0
   -1.0708    2.8208    0.0000 C   0  0  0  0  0  0  0  0  0  0  0  0
    0.5792    3.3583    0.0000 C   0  0  0  0  0  0  0  0  0  0  0  0
   -0.4000    3.5583    0.0000 C   0  0  0  0  0  0  0  0  0  0  0  0
  2  1  1  0  0  0  0
  3  1  2  0  0  0  0
  4  1  1  0  0  0  0
  5  3  1  0  0  0  0
  5  7  2  0  0  0  0
  6  2  1  0  0  0  0
  7  4  1  0  0  0  0
  8  2  2  0  0  0  0
  9  5  1  0  0  0  0
 10  6  1  0  0  0  0
 11 10  1  0  0  0  0
 12 10  2  0  0  0  0
 13 12  1  0  0  0  0
 14 11  2  0  0  0  0
 14 15  1  0  0  0  0
 15 13  2  0  0  0  0
M  END
>  <idnumber>
T5693830

>  <LogP>
2.704000000000000e+000

>  <rotating_bonds>
2.000000000000000e+000

>  <hb_acceptors>
2.000000000000000e+000

>  <hb_donors>
2.000000000000000e+000

>  <PSA>
4.489000000000003e+001

>  <clusterid>
674

>  <is_centroid>
@

>  <class1>
625

>  <class2>
635

>  <population1>
877209

>  <population2>
31512

>  <population>
24537

>  <cansmi>
Clc1c[nH]c(c1)C(=O)Nc1ccccc1

>  <HBA2>
2

>  <HBD>
2

>  <logP>
2.9934

>  <TPSA>
44.89

>  <MW>
220.655

$$$$

 OpenBabel02121609142D

 20 22  0  0  0  0  0  0  0  0999 V2000
    1.0667   -1.4375    0.0000 C   0  0  0  0  0  0  0  0  0  0  0  0
    1.0667   -0.4375    0.0000 C   0  0  0  0  0  0  0  0  0  0  0  0
    0.2042    0.0625    0.0000 N   0  0  0  0  0  0  0  0  0  0  0  0
    1.6292   -0.6125    0.0000 C   0  0  0  0  0  0  0  0  0  0  0  0
    0.2042    1.0625    0.0000 C   0  0  3  0  0  0  0  0  0  0  0  0
    2.3917    0.0375    0.0000 N   0  0  0  0  0  0  0  0  0  0  0  0
   -0.6625    1.5625    0.0000 C   0  0  0  0  0  0  0  0  0  0  0  0
    1.9292    0.0625    0.0000 O   0  0  0  0  0  0  0  0  0  0  0  0
   -0.6625    2.5625    0.0000 C   0  0  0  0  0  0  0  0  0  0  0  0
    0.1167   -1.7625    0.0000 C   0  0  0  0  0  0  0  0  0  0  0  0
    1.6667   -2.2417    0.0000 C   0  0  0  0  0  0  0  0  0  0  0  0
    1.0667    1.5625    0.0000 C   0  0  0  0  0  0  0  0  0  0  0  0
    1.0667    2.5625    0.0000 C   0  0  0  0  0  0  0  0  0  0  0  0
   -1.5333    1.0625    0.0000 C   0  0  0  0  0  0  0  0  0  0  0  0
    0.2042    3.0625    0.0000 C   0  0  0  0  0  0  0  0  0  0  0  0
   -1.5333    3.0625    0.0000 C   0  0  0  0  0  0  0  0  0  0  0  0
    1.0917   -3.0542    0.0000 C   0  0  0  0  0  0  0  0  0  0  0  0
    0.1375   -2.7625    0.0000 C   0  0  0  0  0  0  0  0  0  0  0  0
   -2.3958    1.5625    0.0000 C   0  0  0  0  0  0  0  0  0  0  0  0
   -2.3958    2.5625    0.0000 C   0  0  0  0  0  0  0  0  0  0  0  0
  2  1  1  0  0  0  0
  3  2  1  0  0  0  0
  4  1  1  0  0  0  0
  5  3  1  0  0  0  0
  6  4  3  0  0  0  0
  7  5  1  0  0  0  0
  8  2  2  0  0  0  0
  9  7  2  0  0  0  0
  9 15  1  0  0  0  0
 10  1  1  0  0  0  0
 11  1  1  0  0  0  0
 12  5  1  0  0  0  0
 13 12  1  0  0  0  0
 14  7  1  0  0  0  0
 15 13  1  0  0  0  0
 16  9  1  0  0  0  0
 16 20  2  0  0  0  0
 17 11  1  0  0  0  0
 18 10  1  0  0  0  0
 18 17  1  0  0  0  0
 19 14  2  0  0  0  0
 20 19  1  0  0  0  0
M  END
>  <idnumber>
T5694016

>  <LogP>
2.804000000000000e+000

>  <rotating_bonds>
3.000000000000000e+000

>  <hb_acceptors>
2.000000000000000e+000

>  <hb_donors>
1.000000000000000e+000

>  <PSA>
5.289000000000002e+001

>  <clusterid>
-1174

>  <is_centroid>
@

>  <class1>
674

>  <class2>
807

>  <population1>
16474

>  <population2>
5384

>  <population>
60

>  <cansmi>
N#CC1(CCCC1)C(=O)NC1CCCc2c1cccc2

>  <HBA2>
3

>  <HBD>
1

>  <logP>
3.65508

>  <TPSA>
52.89

>  <MW>
268.354

$$$$

 OpenBabel02121609142D

 15 17  0  0  0  0  0  0  0  0999 V2000
   -0.0458   -0.0417    0.0000 C   0  0  0  0  0  0  0  0  0  0  0  0
    0.9542   -0.0417    0.0000 C   0  0  0  0  0  0  0  0  0  0  0  0
   -0.6333    0.7708    0.0000 N   0  0  0  0  0  0  0  0  0  0  0  0
   -0.6333   -0.8500    0.0000 N   0  0  0  0  0  0  0  0  0  0  0  0
    2.5000   -0.5417    0.0000 N   0  0  0  0  0  0  0  0  0  0  0  0
    1.5417    0.7708    0.0000 C   0  0  0  0  0  0  0  0  0  0  0  0
    2.5000    0.4583    0.0000 N   0  0  0  0  0  0  0  0  0  0  0  0
    1.5417   -0.8500    0.0000 C   0  0  0  0  0  0  0  0  0  0  0  0
   -1.5833    0.4583    0.0000 C   0  0  0  0  0  0  0  0  0  0  0  0
   -1.5833   -0.5417    0.0000 C   0  0  0  0  0  0  0  0  0  0  0  0
    3.3042    1.0458    0.0000 C   0  0  0  0  0  0  0  0  0  0  0  0
   -2.4458    0.9583    0.0000 C   0  0  0  0  0  0  0  0  0  0  0  0
   -2.4458   -1.0417    0.0000 C   0  0  0  0  0  0  0  0  0  0  0  0
   -3.3125   -0.5417    0.0000 C   0  0  0  0  0  0  0  0  0  0  0  0
   -3.3125    0.4583    0.0000 C   0  0  0  0  0  0  0  0  0  0  0  0
  2  1  1  0  0  0  0
  3  1  2  0  0  0  0
  4  1  1  0  0  0  0
  5  8  2  0  0  0  0
  6  2  2  0  0  0  0
  7  6  1  0  0  0  0
  7  5  1  0  0  0  0
  8  2  1  0  0  0  0
  9  3  1  0  0  0  0
  9 10  2  0  0  0  0
 10  4  1  0  0  0  0
 11  7  1  0  0  0  0
 12  9  1  0  0  0  0
 13 10  1  0  0  0  0
 14 13  2  0  0  0  0
 15 12  2  0  0  0  0
 15 14  1  0  0  0  0
M  END
>  <idnumber>
T5694132

>  <LogP>
1.975000000000000e+000

>  <rotating_bonds>
1.000000000000000e+000

>  <hb_acceptors>
2.000000000000000e+000

>  <hb_donors>
1.000000000000000e+000

>  <PSA>
4.649999999999999e+001

>  <clusterid>
-1175

>  <is_centroid>
@

>  <class1>
631

>  <class2>
685

>  <population1>
41612

>  <population2>
28767

>  <population>
756

>  <cansmi>
Cn1ncc(c1)c1nc2c([nH]1)cccc2

>  <HBA2>
3

>  <HBD>
1

>  <logP>
1.9634

>  <TPSA>
46.5

>  <MW>
198.224

$$$$

 OpenBabel02121609142D

 21 23  0  0  0  0  0  0  0  0999 V2000
    0.0000    1.0000    0.0000 C   0  0  0  0  0  0  0  0  0  0  0  0
    0.0000    2.0000    0.0000 C   0  0  0  0  0  0  0  0  0  0  0  0
   -0.8708    0.5000    0.0000 O   0  0  0  0  0  0  0  0  0  0  0  0
   -0.8708    2.5000    0.0000 C   0  0  0  0  0  0  0  0  0  0  0  0
    0.8625    0.5000    0.0000 C   0  0  0  0  0  0  0  0  0  0  0  0
   -1.7333    2.0000    0.0000 C   0  0  0  0  0  0  0  0  0  0  0  0
   -1.7333    1.0000    0.0000 C   0  0  0  0  0  0  0  0  0  0  0  0
    0.8625   -0.5000    0.0000 N   0  0  0  0  0  0  0  0  0  0  0  0
   -0.8708    3.5000    0.0000 O   0  0  0  0  0  0  0  0  0  0  0  0
    1.7292    1.0000    0.0000 O   0  0  0  0  0  0  0  0  0  0  0  0
    1.7292   -1.0000    0.0000 C   0  0  0  0  0  0  0  0  0  0  0  0
    1.7292   -2.0000    0.0000 C   0  0  0  0  0  0  0  0  0  0  0  0
    2.5917   -2.5000    0.0000 C   0  0  0  0  0  0  0  0  0  0  0  0
   -2.6000    2.5000    0.0000 C   0  0  0  0  0  0  0  0  0  0  0  0
   -2.6000    0.5000    0.0000 C   0  0  0  0  0  0  0  0  0  0  0  0
    3.4625   -1.0000    0.0000 C   0  0  0  0  0  0  0  0  0  0  0  0
    2.5917   -0.5000    0.0000 C   0  0  0  0  0  0  0  0  0  0  0  0
    3.4625   -2.0000    0.0000 C   0  0  0  0  0  0  0  0  0  0  0  0
    2.5917   -3.5000    0.0000 C   0  0  0  0  0  0  0  0  0  0  0  0
   -3.4708    2.0000    0.0000 C   0  0  0  0  0  0  0  0  0  0  0  0
   -3.4708    1.0000    0.0000 C   0  0  0  0  0  0  0  0  0  0  0  0
  2  1  2  0  0  0  0
  3  1  1  0  0  0  0
  4  2  1  0  0  0  0
  4  6  1  0  0  0  0
  5  1  1  0  0  0  0
  6  7  2  0  0  0  0
  7  3  1  0  0  0  0
  8  5  1  0  0  0  0
  9  4  2  0  0  0  0
 10  5  2  0  0  0  0
 11  8  1  0  0  0  0
 12 11  1  0  0  0  0
 13 12  2  0  0  0  0
 13 18  1  0  0  0  0
 14  6  1  0  0  0  0
 14 20  2  0  0  0  0
 15  7  1  0  0  0  0
 16 17  1  0  0  0  0
 17 11  2  0  0  0  0
 18 16  2  0  0  0  0
 19 13  1  0  0  0  0
 20 21  1  0  0  0  0
 21 15  2  0  0  0  0
M  END
>  <idnumber>
T5694295

>  <LogP>
2.749000000000000e+000

>  <rotating_bonds>
2.000000000000000e+000

>  <hb_acceptors>
3.000000000000000e+000

>  <hb_donors>
1.000000000000000e+000

>  <PSA>
5.540000000000000e+001

>  <clusterid>
327

>  <is_centroid>
@

>  <class1>
819

>  <class2>
625

>  <population1>
2257

>  <population2>
877209

>  <population>
2257

>  <cansmi>
Cc1cccc(c1)NC(=O)c1cc(=O)c2c(o1)cccc2

>  <HBA2>
4

>  <HBD>
1

>  <logP>
3.4267

>  <TPSA>
59.31

>  <MW>
279.29

$$$$

 OpenBabel02121609142D

 15 16  0  0  0  0  0  0  0  0999 V2000
    0.4292   -1.2500    0.0000 N   0  0  0  0  0  0  0  0  0  0  0  0
    1.2917   -0.7500    0.0000 C   0  0  0  0  0  0  0  0  0  0  0  0
   -0.4333   -0.7500    0.0000 C   0  0  0  0  0  0  0  0  0  0  0  0
    0.4292    0.7500    0.0000 C   0  0  3  0  0  0  0  0  0  0  0  0
   -0.4333    0.2500    0.0000 C   0  0  0  0  0  0  0  0  0  0  0  0
    1.2917    0.2500    0.0000 C   0  0  0  0  0  0  0  0  0  0  0  0
    0.4292    1.7500    0.0000 C   0  0  0  0  0  0  0  0  0  0  0  0
    2.1625   -1.2500    0.0000 O   0  0  0  0  0  0  0  0  0  0  0  0
   -0.4333    2.2500    0.0000 O   0  0  0  0  0  0  0  0  0  0  0  0
    1.2917    2.2500    0.0000 O   0  0  0  0  0  0  0  0  0  0  0  0
    0.4292   -2.2500    0.0000 C   0  0  0  0  0  0  0  0  0  0  0  0
   -1.3000   -1.2500    0.0000 C   0  0  0  0  0  0  0  0  0  0  0  0
   -1.3000    0.7500    0.0000 C   0  0  0  0  0  0  0  0  0  0  0  0
   -2.1708    0.2500    0.0000 C   0  0  0  0  0  0  0  0  0  0  0  0
   -2.1708   -0.7500    0.0000 C   0  0  0  0  0  0  0  0  0  0  0  0
  2  1  1  0  0  0  0
  3  1  1  0  0  0  0
  4  5  1  0  0  0  0
  5  3  2  0  0  0  0
  6  2  1  0  0  0  0
  6  4  1  0  0  0  0
  7  4  1  0  0  0  0
  8  2  2  0  0  0  0
  9  7  2  0  0  0  0
 10  7  1  0  0  0  0
 11  1  1  0  0  0  0
 12  3  1  0  0  0  0
 13  5  1  0  0  0  0
 13 14  2  0  0  0  0
 14 15  1  0  0  0  0
 15 12  2  0  0  0  0
M  END
>  <idnumber>
T5695620

>  <LogP>
6.550000000000000e-001

>  <rotating_bonds>
1.000000000000000e+000

>  <hb_acceptors>
3.000000000000000e+000

>  <hb_donors>
1.000000000000000e+000

>  <PSA>
5.761000000000000e+001

>  <clusterid>
-1178

>  <is_centroid>
@

>  <class1>
735

>  <population1>
1171

>  <population>
1171

>  <cansmi>
OC(=O)C1CC(=O)N(c2c1cccc2)C

>  <HBA2>
4

>  <HBD>
1

>  <logP>
1.2863

>  <TPSA>
57.61

>  <MW>
205.21

$$$$

 OpenBabel02121609142D

 22 24  0  0  0  0  0  0  0  0999 V2000
    0.8625    1.2500    0.0000 N   0  0  0  0  0  0  0  0  0  0  0  0
    0.8625    0.2500    0.0000 C   0  0  0  0  0  0  0  0  0  0  0  0
    0.0000    1.7500    0.0000 C   0  0  0  0  0  0  0  0  0  0  0  0
    0.8625    3.2500    0.0000 N   0  0  0  0  0  0  0  0  0  0  0  0
    1.7292    2.7500    0.0000 C   0  0  0  0  0  0  0  0  0  0  0  0
    0.0000    2.7500    0.0000 C   0  0  0  0  0  0  0  0  0  0  0  0
    1.7292    1.7500    0.0000 C   0  0  0  0  0  0  0  0  0  0  0  0
    0.0000   -0.2500    0.0000 C   0  0  3  0  0  0  0  0  0  0  0  0
    0.0000   -1.2500    0.0000 O   0  0  0  0  0  0  0  0  0  0  0  0
    1.7292   -0.2417    0.0000 O   0  0  0  0  0  0  0  0  0  0  0  0
    2.5917    3.2583    0.0000 O   0  0  0  0  0  0  0  0  0  0  0  0
   -0.8708   -1.7500    0.0000 C   0  0  0  0  0  0  0  0  0  0  0  0
   -0.8708    1.2500    0.0000 C   0  0  0  0  0  0  0  0  0  0  0  0
   -0.8708    3.2583    0.0000 C   0  0  0  0  0  0  0  0  0  0  0  0
   -0.8708    0.2500    0.0000 C   0  0  0  0  0  0  0  0  0  0  0  0
   -0.8708   -2.7500    0.0000 C   0  0  0  0  0  0  0  0  0  0  0  0
   -1.7333   -1.2500    0.0000 C   0  0  0  0  0  0  0  0  0  0  0  0
   -1.7333    1.7500    0.0000 C   0  0  0  0  0  0  0  0  0  0  0  0
   -1.7333    2.7500    0.0000 C   0  0  0  0  0  0  0  0  0  0  0  0
   -2.6000   -1.7500    0.0000 C   0  0  0  0  0  0  0  0  0  0  0  0
   -1.7333   -3.2500    0.0000 C   0  0  0  0  0  0  0  0  0  0  0  0
   -2.6000   -2.7500    0.0000 C   0  0  0  0  0  0  0  0  0  0  0  0
  2  1  1  0  0  0  0
  3  1  1  0  0  0  0
  4  5  1  0  0  0  0
  5  7  1  0  0  0  0
  6  3  2  0  0  0  0
  6  4  1  0  0  0  0
  7  1  1  0  0  0  0
  8  2  1  0  0  0  0
  9  8  1  0  0  0  0
 10  2  2  0  0  0  0
 11  5  2  0  0  0  0
 12  9  1  0  0  0  0
 13  3  1  0  0  0  0
 14  6  1  0  0  0  0
 14 19  2  0  0  0  0
 15  8  1  0  0  0  0
 16 12  2  0  0  0  0
 17 12  1  0  0  0  0
 18 13  2  0  0  0  0
 19 18  1  0  0  0  0
 20 17  2  0  0  0  0
 21 16  1  0  0  0  0
 21 22  2  0  0  0  0
 22 20  1  0  0  0  0
M  END
>  <idnumber>
T5696280

>  <LogP>
2.513000000000000e+000

>  <rotating_bonds>
3.000000000000000e+000

>  <hb_acceptors>
3.000000000000000e+000

>  <hb_donors>
1.000000000000000e+000

>  <PSA>
5.863999999999997e+001

>  <clusterid>
-1179

>  <is_centroid>
@

>  <class1>
625

>  <class2>
835

>  <population1>
877209

>  <population2>
2727

>  <population>
2727

>  <cansmi>
O=C1Nc2ccccc2N(C1)C(=O)C(Oc1ccccc1)C

>  <HBA2>
5

>  <HBD>
1

>  <logP>
2.6422

>  <TPSA>
58.64

>  <MW>
296.321

$$$$

 OpenBabel02121609142D

 20 22  0  0  0  0  0  0  0  0999 V2000
   -0.9250    1.1083    0.0000 C   0  0  0  0  0  0  0  0  0  0  0  0
    0.6667   -1.0042    0.0000 N   0  0  0  0  0  0  0  0  0  0  0  0
    1.6500   -1.2125    0.0000 C   0  0  0  0  0  0  0  0  0  0  0  0
   -0.9250    2.7208    0.0000 N   0  0  0  0  0  0  0  0  0  0  0  0
   -0.3375    1.9125    0.0000 C   0  0  0  0  0  0  0  0  0  0  0  0
    0.3625   -0.0542    0.0000 C   0  0  0  0  0  0  0  0  0  0  0  0
   -1.8750    1.4125    0.0000 C   0  0  0  0  0  0  0  0  0  0  0  0
   -0.6208    0.1583    0.0000 C   0  0  0  0  0  0  0  0  0  0  0  0
   -1.8750    2.4125    0.0000 C   0  0  0  0  0  0  0  0  0  0  0  0
    2.3167   -0.4667    0.0000 N   0  0  0  0  0  0  0  0  0  0  0  0
    1.9542   -2.1667    0.0000 C   0  0  0  0  0  0  0  0  0  0  0  0
    1.0292    0.6875    0.0000 O   0  0  0  0  0  0  0  0  0  0  0  0
   -2.7458    0.9125    0.0000 C   0  0  0  0  0  0  0  0  0  0  0  0
    3.2917   -0.6792    0.0000 C   0  0  0  0  0  0  0  0  0  0  0  0
   -2.7458    2.9125    0.0000 C   0  0  0  0  0  0  0  0  0  0  0  0
    1.2875   -2.9042    0.0000 C   0  0  0  0  0  0  0  0  0  0  0  0
    2.9375   -2.3750    0.0000 C   0  0  0  0  0  0  0  0  0  0  0  0
    3.6042   -1.6292    0.0000 C   0  0  0  0  0  0  0  0  0  0  0  0
   -3.6083    1.4125    0.0000 C   0  0  0  0  0  0  0  0  0  0  0  0
   -3.6083    2.4125    0.0000 C   0  0  0  0  0  0  0  0  0  0  0  0
  2  6  1  0  0  0  0
  3  2  1  0  0  0  0
  4  5  1  0  0  0  0
  4  9  1  0  0  0  0
  5  1  2  0  0  0  0
  6  8  1  0  0  0  0
  7  1  1  0  0  0  0
  8  1  1  0  0  0  0
  9  7  2  0  0  0  0
 10  3  1  0  0  0  0
 11  3  2  0  0  0  0
 12  6  2  0  0  0  0
 13  7  1  0  0  0  0
 14 10  2  0  0  0  0
 15  9  1  0  0  0  0
 15 20  2  0  0  0  0
 16 11  1  0  0  0  0
 17 11  1  0  0  0  0
 18 17  2  0  0  0  0
 18 14  1  0  0  0  0
 19 13  2  0  0  0  0
 20 19  1  0  0  0  0
M  END
>  <idnumber>
T5697219

>  <LogP>
1.745000000000000e+000

>  <rotating_bonds>
3.000000000000000e+000

>  <hb_acceptors>
2.000000000000000e+000

>  <hb_donors>
2.000000000000000e+000

>  <PSA>
5.778000000000000e+001

>  <clusterid>
582

>  <is_centroid>
@

>  <class1>
748

>  <class2>
632

>  <population1>
15713

>  <population2>
79489

>  <population>
785

>  <cansmi>
O=C(Cc1c[nH]c2c1cccc2)Nc1ncccc1C

>  <HBA2>
3

>  <HBD>
2

>  <logP>
3.1255

>  <TPSA>
57.78

>  <MW>
265.31

$$$$

 OpenBabel02121609142D

 14 15  0  0  0  0  0  0  0  0999 V2000
    0.3792    0.3833    0.0000 C   0  0  0  0  0  0  0  0  0  0  0  0
   -0.2083    1.1958    0.0000 S   0  0  0  0  0  0  0  0  0  0  0  0
   -0.2083   -0.4250    0.0000 C   0  0  0  0  0  0  0  0  0  0  0  0
   -1.1583   -0.1167    0.0000 C   0  0  0  0  0  0  0  0  0  0  0  0
   -1.1583    0.8833    0.0000 C   0  0  0  0  0  0  0  0  0  0  0  0
    1.3792    0.3833    0.0000 C   0  0  0  0  0  0  0  0  0  0  0  0
    1.8792   -0.4792    0.0000 O   0  0  0  0  0  0  0  0  0  0  0  0
    0.1042   -1.3792    0.0000 Cl  0  0  0  0  0  0  0  0  0  0  0  0
    1.8792    1.2500    0.0000 N   0  0  0  0  0  0  0  0  0  0  0  0
   -2.0208   -0.6167    0.0000 C   0  0  0  0  0  0  0  0  0  0  0  0
   -2.0208    1.3833    0.0000 C   0  0  0  0  0  0  0  0  0  0  0  0
    2.8792    1.2500    0.0000 C   0  0  0  0  0  0  0  0  0  0  0  0
   -2.8875   -0.1167    0.0000 C   0  0  0  0  0  0  0  0  0  0  0  0
   -2.8875    0.8833    0.0000 C   0  0  0  0  0  0  0  0  0  0  0  0
  2  1  1  0  0  0  0
  3  1  2  0  0  0  0
  4  3  1  0  0  0  0
  5  2  1  0  0  0  0
  5  4  2  0  0  0  0
  6  1  1  0  0  0  0
  7  6  2  0  0  0  0
  8  3  1  0  0  0  0
  9  6  1  0  0  0  0
 10  4  1  0  0  0  0
 11  5  1  0  0  0  0
 12  9  1  0  0  0  0
 13 10  2  0  0  0  0
 14 11  2  0  0  0  0
 14 13  1  0  0  0  0
M  END
>  <idnumber>
T5698356

>  <LogP>
2.078000000000000e+000

>  <rotating_bonds>
1.000000000000000e+000

>  <hb_acceptors>
3.000000000000000e+000

>  <hb_donors>
1.000000000000000e+000

>  <PSA>
5.734000000000000e+001

>  <clusterid>
-1180

>  <is_centroid>
@

>  <class1>
825

>  <population1>
3362

>  <population>
3362

>  <cansmi>
CNC(=O)c1sc2c(c1Cl)cccc2

>  <HBA2>
3

>  <HBD>
1

>  <logP>
3.3052

>  <TPSA>
57.34

>  <MW>
225.695

$$$$

 OpenBabel02121609142D

 19 21  0  0  0  0  0  0  0  0999 V2000
    2.2792   -0.6875    0.0000 N   0  0  0  0  0  0  0  0  0  0  0  0
    1.3250   -1.0000    0.0000 C   0  0  0  0  0  0  0  0  0  0  0  0
    2.8667   -1.5000    0.0000 C   0  0  0  0  0  0  0  0  0  0  0  0
    2.2792   -2.3042    0.0000 O   0  0  0  0  0  0  0  0  0  0  0  0
   -1.2708    0.5000    0.0000 C   0  0  0  0  0  0  0  0  0  0  0  0
    1.3250   -2.0000    0.0000 C   0  0  0  0  0  0  0  0  0  0  0  0
   -1.2708   -0.5000    0.0000 N   0  0  0  0  0  0  0  0  0  0  0  0
    0.4625   -0.5000    0.0000 C   0  0  0  0  0  0  0  0  0  0  0  0
   -0.4083   -1.0000    0.0000 C   0  0  0  0  0  0  0  0  0  0  0  0
   -0.4083    1.0000    0.0000 O   0  0  0  0  0  0  0  0  0  0  0  0
   -2.1375    1.0000    0.0000 C   0  0  0  0  0  0  0  0  0  0  0  0
    0.4625   -2.5000    0.0000 C   0  0  0  0  0  0  0  0  0  0  0  0
   -0.4083   -2.0000    0.0000 C   0  0  0  0  0  0  0  0  0  0  0  0
    3.8667   -1.5000    0.0000 C   0  0  0  0  0  0  0  0  0  0  0  0
   -2.1375    2.0000    0.0000 C   0  0  0  0  0  0  0  0  0  0  0  0
   -3.0083    0.5000    0.0000 C   0  0  0  0  0  0  0  0  0  0  0  0
   -3.8708    1.0000    0.0000 C   0  0  0  0  0  0  0  0  0  0  0  0
   -3.0083    2.5000    0.0000 C   0  0  0  0  0  0  0  0  0  0  0  0
   -3.8708    2.0000    0.0000 C   0  0  0  0  0  0  0  0  0  0  0  0
  2  1  1  0  0  0  0
  3  1  2  0  0  0  0
  4  3  1  0  0  0  0
  5  7  1  0  0  0  0
  6  2  2  0  0  0  0
  6  4  1  0  0  0  0
  7  9  1  0  0  0  0
  8  2  1  0  0  0  0
  9  8  2  0  0  0  0
 10  5  2  0  0  0  0
 11  5  1  0  0  0  0
 12  6  1  0  0  0  0
 12 13  2  0  0  0  0
 13  9  1  0  0  0  0
 14  3  1  0  0  0  0
 15 11  1  0  0  0  0
 16 11  2  0  0  0  0
 17 16  1  0  0  0  0
 18 15  2  0  0  0  0
 18 19  1  0  0  0  0
 19 17  2  0  0  0  0
M  END
>  <idnumber>
T5699253

>  <LogP>
2.813000000000000e+000

>  <rotating_bonds>
2.000000000000000e+000

>  <hb_acceptors>
2.000000000000000e+000

>  <hb_donors>
1.000000000000000e+000

>  <PSA>
5.513000000000000e+001

>  <clusterid>
61

>  <is_centroid>
@

>  <class1>
625

>  <class2>
752

>  <population1>
877209

>  <population2>
4005

>  <population>
4005

>  <cansmi>
Cc1oc2c(n1)cc(cc2)NC(=O)c1ccccc1

>  <HBA2>
4

>  <HBD>
1

>  <logP>
3.4615

>  <TPSA>
55.13

>  <MW>
252.268

$$$$

 OpenBabel02121609142D

 18 21  0  0  0  0  0  0  0  0999 V2000
    0.2292   -1.0125    0.0000 C   0  0  3  0  0  0  0  0  0  0  0  0
   -0.1583    0.5500    0.0000 C   0  0  0  0  0  0  0  0  0  0  0  0
    0.5625   -0.0917    0.0000 N   0  0  0  0  0  0  0  0  0  0  0  0
   -0.9583   -2.1375    0.0000 C   0  0  3  0  0  0  0  0  0  0  0  0
    0.5167   -2.8042    0.0000 C   0  0  3  0  0  0  0  0  0  0  0  0
    0.6750   -2.3000    0.0000 C   0  0  3  0  0  0  0  0  0  0  0  0
    0.1875    1.4333    0.0000 C   0  0  3  0  0  0  0  0  0  0  0  0
   -1.0958    0.3708    0.0000 O   0  0  0  0  0  0  0  0  0  0  0  0
   -0.5458   -1.7625    0.0000 C   0  0  0  0  0  0  0  0  0  0  0  0
    0.9417   -1.7125    0.0000 C   0  0  0  0  0  0  0  0  0  0  0  0
   -0.7083   -1.1417    0.0000 C   0  0  0  0  0  0  0  0  0  0  0  0
   -0.3708    2.2083    0.0000 O   0  0  0  0  0  0  0  0  0  0  0  0
   -0.3458   -2.9625    0.0000 C   0  0  0  0  0  0  0  0  0  0  0  0
    0.2625   -1.6792    0.0000 C   0  0  0  0  0  0  0  0  0  0  0  0
   -0.3083   -2.4292    0.0000 C   0  0  0  0  0  0  0  0  0  0  0  0
    0.1875    2.9708    0.0000 C   0  0  0  0  0  0  0  0  0  0  0  0
    1.0917    1.7250    0.0000 C   0  0  0  0  0  0  0  0  0  0  0  0
    1.0875    2.6750    0.0000 C   0  0  0  0  0  0  0  0  0  0  0  0
  2  3  1  0  0  0  0
  3  1  1  0  0  0  0
  4 11  1  0  0  0  0
  5 10  1  0  0  0  0
  5 13  1  0  0  0  0
  6  9  1  0  0  0  0
  6 14  1  0  0  0  0
  7  2  1  0  0  0  0
  8  2  2  0  0  0  0
  9  1  1  0  0  0  0
 10  1  1  0  0  0  0
 11  1  1  0  0  0  0
 12  7  1  0  0  0  0
 13  4  1  0  0  0  0
 14  4  1  0  0  0  0
 15  5  1  0  0  0  0
 15  6  1  0  0  0  0
 16 12  1  0  0  0  0
 17  7  1  0  0  0  0
 18 17  1  0  0  0  0
 18 16  1  0  0  0  0
M  END
>  <idnumber>
T5699725

>  <LogP>
2.211000000000000e+000

>  <rotating_bonds>
2.000000000000000e+000

>  <hb_acceptors>
2.000000000000000e+000

>  <hb_donors>
1.000000000000000e+000

>  <PSA>
3.833000000000000e+001

>  <clusterid>
-1182

>  <is_centroid>
@

>  <class1>
809

>  <class2>
723

>  <population1>
8162

>  <population2>
9592

>  <population>
40

>  <cansmi>
O=C(C1CCCO1)NC12CC3CC(C2)CC(C1)C3

>  <HBA2>
3

>  <HBD>
1

>  <logP>
2.6413

>  <TPSA>
38.33

>  <MW>
249.349

$$$$

 OpenBabel02121609142D

 18 20  0  0  0  0  0  0  0  0999 V2000
    0.0667    0.8083    0.0000 N   0  0  0  0  0  0  0  0  0  0  0  0
    0.0667   -0.1917    0.0000 C   0  0  0  0  0  0  0  0  0  0  0  0
    0.9375   -0.6917    0.0000 C   0  0  0  0  0  0  0  0  0  0  0  0
    1.0417   -1.6792    0.0000 O   0  0  0  0  0  0  0  0  0  0  0  0
   -0.7958    1.3083    0.0000 C   0  0  0  0  0  0  0  0  0  0  0  0
    1.8542   -0.2792    0.0000 C   0  0  0  0  0  0  0  0  0  0  0  0
    2.0167   -1.8917    0.0000 C   0  0  0  0  0  0  0  0  0  0  0  0
    2.5167   -1.0250    0.0000 C   0  0  0  0  0  0  0  0  0  0  0  0
   -0.7958   -0.6917    0.0000 O   0  0  0  0  0  0  0  0  0  0  0  0
   -0.7958    2.3083    0.0000 C   0  0  0  0  0  0  0  0  0  0  0  0
    0.9375    1.3083    0.0000 C   0  0  0  0  0  0  0  0  0  0  0  0
   -1.6583    0.8083    0.0000 C   0  0  0  0  0  0  0  0  0  0  0  0
    0.9375    2.3083    0.0000 C   0  0  0  0  0  0  0  0  0  0  0  0
    2.4292   -2.8042    0.0000 C   0  0  0  0  0  0  0  0  0  0  0  0
    0.0667    2.8083    0.0000 C   0  0  0  0  0  0  0  0  0  0  0  0
   -1.6583    2.8083    0.0000 C   0  0  0  0  0  0  0  0  0  0  0  0
   -2.5250    1.3083    0.0000 C   0  0  0  0  0  0  0  0  0  0  0  0
   -2.5250    2.3083    0.0000 C   0  0  0  0  0  0  0  0  0  0  0  0
  2  1  1  0  0  0  0
  3  2  1  0  0  0  0
  4  3  1  0  0  0  0
  5  1  1  0  0  0  0
  6  3  2  0  0  0  0
  7  4  1  0  0  0  0
  7  8  2  0  0  0  0
  8  6  1  0  0  0  0
  9  2  2  0  0  0  0
 10  5  2  0  0  0  0
 10 15  1  0  0  0  0
 11  1  1  0  0  0  0
 12  5  1  0  0  0  0
 13 11  1  0  0  0  0
 14  7  1  0  0  0  0
 15 13  1  0  0  0  0
 16 10  1  0  0  0  0
 16 18  2  0  0  0  0
 17 12  2  0  0  0  0
 18 17  1  0  0  0  0
M  END
>  <idnumber>
T5700160

>  <LogP>
2.715000000000000e+000

>  <rotating_bonds>
1.000000000000000e+000

>  <hb_acceptors>
1.000000000000000e+000

>  <hb_donors>
0.000000000000000e+000

>  <PSA>
3.345000000000000e+001

>  <clusterid>
-1183

>  <is_centroid>
@

>  <class1>
704

>  <class2>
814

>  <population1>
51112

>  <population2>
5317

>  <population>
168

>  <cansmi>
Cc1ccc(o1)C(=O)N1CCCc2c1cccc2

>  <HBA2>
3

>  <HBD>
0

>  <logP>
3.246

>  <TPSA>
33.45

>  <MW>
241.285

$$$$

 OpenBabel02121609142D

 17 19  0  0  0  0  0  0  0  0999 V2000
    0.8625    0.3583    0.0000 N   0  0  0  0  0  0  0  0  0  0  0  0
    0.8625   -0.6417    0.0000 C   0  0  0  0  0  0  0  0  0  0  0  0
    0.0000    0.8583    0.0000 C   0  0  0  0  0  0  0  0  0  0  0  0
    0.0000   -1.1417    0.0000 C   0  0  0  0  0  0  0  0  0  0  0  0
   -0.1083   -2.1417    0.0000 S   0  0  0  0  0  0  0  0  0  0  0  0
    1.7292   -1.1417    0.0000 O   0  0  0  0  0  0  0  0  0  0  0  0
   -0.9208   -0.7417    0.0000 C   0  0  0  0  0  0  0  0  0  0  0  0
    0.0000    1.8583    0.0000 C   0  0  0  0  0  0  0  0  0  0  0  0
   -1.0833   -2.3500    0.0000 C   0  0  0  0  0  0  0  0  0  0  0  0
   -1.5833   -1.4792    0.0000 C   0  0  0  0  0  0  0  0  0  0  0  0
    1.7292    0.8583    0.0000 C   0  0  0  0  0  0  0  0  0  0  0  0
   -0.8708    0.3583    0.0000 C   0  0  0  0  0  0  0  0  0  0  0  0
    1.7292    1.8583    0.0000 C   0  0  0  0  0  0  0  0  0  0  0  0
    0.8625    2.3583    0.0000 C   0  0  0  0  0  0  0  0  0  0  0  0
   -0.8708    2.3583    0.0000 C   0  0  0  0  0  0  0  0  0  0  0  0
   -1.7333    0.8583    0.0000 C   0  0  0  0  0  0  0  0  0  0  0  0
   -1.7333    1.8583    0.0000 C   0  0  0  0  0  0  0  0  0  0  0  0
  2  1  1  0  0  0  0
  3  1  1  0  0  0  0
  4  2  1  0  0  0  0
  5  4  1  0  0  0  0
  6  2  2  0  0  0  0
  7  4  2  0  0  0  0
  8  3  2  0  0  0  0
  8 14  1  0  0  0  0
  9  5  1  0  0  0  0
 10  7  1  0  0  0  0
 10  9  2  0  0  0  0
 11  1  1  0  0  0  0
 12  3  1  0  0  0  0
 13 11  1  0  0  0  0
 14 13  1  0  0  0  0
 15  8  1  0  0  0  0
 15 17  2  0  0  0  0
 16 12  2  0  0  0  0
 17 16  1  0  0  0  0
M  END
>  <idnumber>
T5700163

>  <LogP>
2.815999999999999e+000

>  <rotating_bonds>
1.000000000000000e+000

>  <hb_acceptors>
2.000000000000000e+000

>  <hb_donors>
0.000000000000000e+000

>  <PSA>
4.855000000000000e+001

>  <clusterid>
-1184

>  <is_centroid>
@

>  <class1>
645

>  <class2>
814

>  <population1>
105961

>  <population2>
5317

>  <population>
302

>  <cansmi>
O=C(N1CCCc2c1cccc2)c1cccs1

>  <HBA2>
3

>  <HBD>
0

>  <logP>
3.4061

>  <TPSA>
48.55

>  <MW>
243.324

$$$$

 OpenBabel02121609142D

 20 23  0  0  0  0  0  0  0  0999 V2000
    1.4750   -0.6667    0.0000 N   0  0  0  0  0  0  0  0  0  0  0  0
    0.7292   -1.3417    0.0000 C   0  0  0  0  0  0  0  0  0  0  0  0
    1.3667    0.3250    0.0000 C   0  0  3  0  0  0  0  0  0  0  0  0
   -0.2208   -1.0292    0.0000 C   0  0  0  0  0  0  0  0  0  0  0  0
    0.5042    0.8250    0.0000 C   0  0  0  0  0  0  0  0  0  0  0  0
   -1.1958   -1.2375    0.0000 C   0  0  0  0  0  0  0  0  0  0  0  0
   -0.8875   -0.2875    0.0000 C   0  0  0  0  0  0  0  0  0  0  0  0
   -1.2250    0.8250    0.0000 C   0  0  0  0  0  0  0  0  0  0  0  0
   -0.3583    0.3250    0.0000 C   0  0  0  0  0  0  0  0  0  0  0  0
   -1.2250    1.8250    0.0000 C   0  0  0  0  0  0  0  0  0  0  0  0
    0.9417   -2.3167    0.0000 O   0  0  0  0  0  0  0  0  0  0  0  0
   -2.0958    0.3250    0.0000 O   0  0  0  0  0  0  0  0  0  0  0  0
    0.5042    1.8250    0.0000 C   0  0  0  0  0  0  0  0  0  0  0  0
   -2.0958    2.3333    0.0000 O   0  0  0  0  0  0  0  0  0  0  0  0
   -0.3583    2.3333    0.0000 C   0  0  0  0  0  0  0  0  0  0  0  0
    2.4542   -0.8792    0.0000 C   0  0  0  0  0  0  0  0  0  0  0  0
    2.2792    0.7333    0.0000 C   0  0  0  0  0  0  0  0  0  0  0  0
    2.9542   -0.0125    0.0000 C   0  0  0  0  0  0  0  0  0  0  0  0
   -2.9583    0.8250    0.0000 C   0  0  0  0  0  0  0  0  0  0  0  0
   -2.9583    1.8250    0.0000 C   0  0  0  0  0  0  0  0  0  0  0  0
  2  1  1  0  0  0  0
  3  1  1  0  0  0  0
  4  2  1  0  0  0  0
  5  3  1  0  0  0  0
  6  4  1  0  0  0  0
  7  4  1  0  0  0  0
  7  6  1  0  0  0  0
  8  9  1  0  0  0  0
  8 10  2  0  0  0  0
  9  5  2  0  0  0  0
 10 15  1  0  0  0  0
 11  2  2  0  0  0  0
 12  8  1  0  0  0  0
 13  5  1  0  0  0  0
 14 10  1  0  0  0  0
 15 13  2  0  0  0  0
 16  1  1  0  0  0  0
 17  3  1  0  0  0  0
 18 16  1  0  0  0  0
 18 17  1  0  0  0  0
 19 12  1  0  0  0  0
 20 14  1  0  0  0  0
 20 19  1  0  0  0  0
M  END
>  <idnumber>
T5701258

>  <LogP>
1.258000000000000e+000

>  <rotating_bonds>
2.000000000000000e+000

>  <hb_acceptors>
3.000000000000000e+000

>  <hb_donors>
0.000000000000000e+000

>  <PSA>
3.877000000000000e+001

>  <clusterid>
-1185

>  <is_centroid>
@

>  <class1>
675

>  <class2>
642

>  <class3>
730

>  <population1>
33654

>  <population2>
51183

>  <population3>
20896

>  <population>
29

>  <cansmi>
O=C(N1CCCC1c1ccc2c(c1)OCCO2)C1CC1

>  <HBA2>
4

>  <HBD>
0

>  <logP>
2.4692

>  <TPSA>
38.77

>  <MW>
273.327

$$$$

 OpenBabel02121609142D

 15 17  0  0  0  0  0  0  0  0999 V2000
    0.7000   -0.5000    0.0000 C   0  0  0  0  0  0  0  0  0  0  0  0
    1.5667    0.0000    0.0000 N   0  0  0  0  0  0  0  0  0  0  0  0
   -0.1708    0.0000    0.0000 C   0  0  0  0  0  0  0  0  0  0  0  0
    2.4292   -0.5000    0.0000 C   0  0  0  0  0  0  0  0  0  0  0  0
   -1.0333   -0.5000    0.0000 C   0  0  0  0  0  0  0  0  0  0  0  0
   -1.8958    0.0000    0.0000 C   0  0  0  0  0  0  0  0  0  0  0  0
    3.4292   -0.5000    0.0000 C   0  0  0  0  0  0  0  0  0  0  0  0
    2.9292   -1.3625    0.0000 C   0  0  0  0  0  0  0  0  0  0  0  0
    0.7000   -1.5000    0.0000 O   0  0  0  0  0  0  0  0  0  0  0  0
   -1.8958    1.0000    0.0000 C   0  0  0  0  0  0  0  0  0  0  0  0
   -0.1708    1.0000    0.0000 C   0  0  0  0  0  0  0  0  0  0  0  0
   -1.0333    1.5000    0.0000 C   0  0  0  0  0  0  0  0  0  0  0  0
   -2.8500   -0.3042    0.0000 C   0  0  0  0  0  0  0  0  0  0  0  0
   -3.4375    0.5000    0.0000 C   0  0  0  0  0  0  0  0  0  0  0  0
   -2.8500    1.3125    0.0000 C   0  0  0  0  0  0  0  0  0  0  0  0
  2  1  1  0  0  0  0
  3  1  1  0  0  0  0
  4  2  1  0  0  0  0
  5  3  2  0  0  0  0
  6  5  1  0  0  0  0
  6 10  2  0  0  0  0
  7  4  1  0  0  0  0
  8  4  1  0  0  0  0
  8  7  1  0  0  0  0
  9  1  2  0  0  0  0
 10 12  1  0  0  0  0
 11  3  1  0  0  0  0
 12 11  2  0  0  0  0
 13  6  1  0  0  0  0
 14 13  1  0  0  0  0
 15 10  1  0  0  0  0
 15 14  1  0  0  0  0
M  END
>  <idnumber>
T5701834

>  <LogP>
2.228000000000000e+000

>  <rotating_bonds>
2.000000000000000e+000

>  <hb_acceptors>
1.000000000000000e+000

>  <hb_donors>
1.000000000000000e+000

>  <PSA>
2.910000000000000e+001

>  <clusterid>
531

>  <is_centroid>
@

>  <class1>
675

>  <class2>
644

>  <population1>
33654

>  <population2>
7036

>  <population>
166

>  <cansmi>
O=C(c1ccc2c(c1)CCC2)NC1CC1

>  <HBA2>
2

>  <HBD>
1

>  <logP>
2.4584

>  <TPSA>
29.1

>  <MW>
201.264

$$$$

 OpenBabel02121609142D

 20 22  0  0  0  0  0  0  0  0999 V2000
   -0.4958   -0.3292    0.0000 N   0  0  0  0  0  0  0  0  0  0  0  0
    0.1792   -1.0750    0.0000 N   0  0  0  0  0  0  0  0  0  0  0  0
   -0.1833    0.6208    0.0000 C   0  0  0  0  0  0  0  0  0  0  0  0
   -0.8500    1.3625    0.0000 C   0  0  0  0  0  0  0  0  0  0  0  0
    1.1542   -0.8667    0.0000 C   0  0  0  0  0  0  0  0  0  0  0  0
   -0.5458    2.3125    0.0000 N   0  0  0  0  0  0  0  0  0  0  0  0
    0.7917    0.8333    0.0000 C   0  0  0  0  0  0  0  0  0  0  0  0
   -0.1333   -2.0250    0.0000 C   0  0  0  0  0  0  0  0  0  0  0  0
   -1.8333    1.1583    0.0000 O   0  0  0  0  0  0  0  0  0  0  0  0
    1.4667    0.0833    0.0000 C   0  0  0  0  0  0  0  0  0  0  0  0
    1.8250   -1.6042    0.0000 O   0  0  0  0  0  0  0  0  0  0  0  0
    0.4042    2.6208    0.0000 C   0  0  0  0  0  0  0  0  0  0  0  0
   -1.1333    3.1208    0.0000 C   0  0  0  0  0  0  0  0  0  0  0  0
   -1.1083   -2.2292    0.0000 C   0  0  0  0  0  0  0  0  0  0  0  0
    0.5375   -2.7667    0.0000 C   0  0  0  0  0  0  0  0  0  0  0  0
   -0.5458    3.9333    0.0000 C   0  0  0  0  0  0  0  0  0  0  0  0
    0.4042    3.6208    0.0000 C   0  0  0  0  0  0  0  0  0  0  0  0
    0.2292   -3.7167    0.0000 C   0  0  0  0  0  0  0  0  0  0  0  0
   -1.4208   -3.1792    0.0000 C   0  0  0  0  0  0  0  0  0  0  0  0
   -0.7500   -3.9292    0.0000 C   0  0  0  0  0  0  0  0  0  0  0  0
  2  1  1  0  0  0  0
  3  1  2  0  0  0  0
  4  3  1  0  0  0  0
  5  2  1  0  0  0  0
  5 10  1  0  0  0  0
  6  4  1  0  0  0  0
  7  3  1  0  0  0  0
  8  2  1  0  0  0  0
  9  4  2  0  0  0  0
 10  7  1  0  0  0  0
 11  5  2  0  0  0  0
 12  6  1  0  0  0  0
 13  6  1  0  0  0  0
 14  8  1  0  0  0  0
 15  8  2  0  0  0  0
 16 13  1  0  0  0  0
 17 12  1  0  0  0  0
 17 16  1  0  0  0  0
 18 15  1  0  0  0  0
 19 14  2  0  0  0  0
 19 20  1  0  0  0  0
 20 18  2  0  0  0  0
M  END
>  <idnumber>
T5702184

>  <LogP>
2.383000000000000e+000

>  <rotating_bonds>
2.000000000000000e+000

>  <hb_acceptors>
3.000000000000000e+000

>  <hb_donors>
0.000000000000000e+000

>  <PSA>
5.298000000000000e+001

>  <clusterid>
-1187

>  <is_centroid>
@

>  <class1>
817

>  <class2>
625

>  <class3>
642

>  <population1>
1687

>  <population2>
877209

>  <population3>
51183

>  <population>
30

>  <cansmi>
O=C1CCC(=NN1c1ccccc1)C(=O)N1CCCC1

>  <HBA2>
5

>  <HBD>
0

>  <logP>
1.2303

>  <TPSA>
52.98

>  <MW>
271.314

$$$$

 OpenBabel02121609142D

 20 22  0  0  0  0  0  0  0  0999 V2000
   -0.1000   -0.5000    0.0000 C   0  0  0  0  0  0  0  0  0  0  0  0
    0.7667    0.0083    0.0000 N   0  0  0  0  0  0  0  0  0  0  0  0
   -0.9708    0.0083    0.0000 C   0  0  0  0  0  0  0  0  0  0  0  0
   -2.6958    0.0083    0.0000 C   0  0  0  0  0  0  0  0  0  0  0  0
   -1.8333   -0.5000    0.0000 C   0  0  0  0  0  0  0  0  0  0  0  0
   -2.6958    1.0000    0.0000 C   0  0  0  0  0  0  0  0  0  0  0  0
   -3.6458   -0.3042    0.0000 O   0  0  0  0  0  0  0  0  0  0  0  0
   -3.6458    1.3125    0.0000 O   0  0  0  0  0  0  0  0  0  0  0  0
    1.6292   -0.5000    0.0000 C   0  0  0  0  0  0  0  0  0  0  0  0
   -4.2375    0.5083    0.0000 C   0  0  0  0  0  0  0  0  0  0  0  0
   -0.1000   -1.5000    0.0000 O   0  0  0  0  0  0  0  0  0  0  0  0
   -0.9708    1.0000    0.0000 C   0  0  0  0  0  0  0  0  0  0  0  0
   -1.8333    1.5000    0.0000 C   0  0  0  0  0  0  0  0  0  0  0  0
    2.5000    0.0083    0.0000 C   0  0  0  0  0  0  0  0  0  0  0  0
    0.7667    1.0000    0.0000 C   0  0  0  0  0  0  0  0  0  0  0  0
    2.5000    1.0000    0.0000 C   0  0  0  0  0  0  0  0  0  0  0  0
    3.3667   -0.5000    0.0000 C   0  0  0  0  0  0  0  0  0  0  0  0
    4.2292    0.0083    0.0000 C   0  0  0  0  0  0  0  0  0  0  0  0
    3.3667    1.5000    0.0000 C   0  0  0  0  0  0  0  0  0  0  0  0
    4.2292    1.0000    0.0000 C   0  0  0  0  0  0  0  0  0  0  0  0
  2  1  1  0  0  0  0
  3  1  1  0  0  0  0
  4  5  1  0  0  0  0
  4  6  2  0  0  0  0
  5  3  2  0  0  0  0
  6 13  1  0  0  0  0
  7  4  1  0  0  0  0
  8  6  1  0  0  0  0
  8 10  1  0  0  0  0
  9  2  1  0  0  0  0
 10  7  1  0  0  0  0
 11  1  2  0  0  0  0
 12  3  1  0  0  0  0
 13 12  2  0  0  0  0
 14  9  1  0  0  0  0
 15  2  1  0  0  0  0
 16 14  2  0  0  0  0
 17 14  1  0  0  0  0
 18 17  2  0  0  0  0
 19 16  1  0  0  0  0
 19 20  2  0  0  0  0
 20 18  1  0  0  0  0
M  END
>  <idnumber>
T5702186

>  <LogP>
2.600000000000000e+000

>  <rotating_bonds>
3.000000000000000e+000

>  <hb_acceptors>
3.000000000000000e+000

>  <hb_donors>
0.000000000000000e+000

>  <PSA>
3.877000000000000e+001

>  <clusterid>
403

>  <is_centroid>
@

>  <class1>
811

>  <class2>
625

>  <population1>
21222

>  <population2>
877209

>  <population>
21222

>  <cansmi>
CN(C(=O)c1ccc2c(c1)OCO2)Cc1ccccc1

>  <HBA2>
4

>  <HBD>
0

>  <logP>
2.6875

>  <TPSA>
38.77

>  <MW>
269.295

$$$$

 OpenBabel02121609142D

 17 19  0  0  0  0  0  0  0  0999 V2000
    0.4042   -0.3917    0.0000 C   0  0  0  0  0  0  0  0  0  0  0  0
   -3.1458   -0.2042    0.0000 N   0  0  0  0  0  0  0  0  0  0  0  0
   -2.1875    0.1083    0.0000 C   0  0  0  0  0  0  0  0  0  0  0  0
   -0.4583    0.1083    0.0000 C   0  0  0  0  0  0  0  0  0  0  0  0
   -3.7333    0.6083    0.0000 C   0  0  0  0  0  0  0  0  0  0  0  0
    1.2750    0.1083    0.0000 N   0  0  0  0  0  0  0  0  0  0  0  0
   -3.1458    1.4125    0.0000 N   0  0  0  0  0  0  0  0  0  0  0  0
   -1.3250   -0.3917    0.0000 C   0  0  0  0  0  0  0  0  0  0  0  0
   -2.1875    1.1083    0.0000 C   0  0  0  0  0  0  0  0  0  0  0  0
    0.4042   -1.3917    0.0000 O   0  0  0  0  0  0  0  0  0  0  0  0
   -0.4583    1.1083    0.0000 C   0  0  0  0  0  0  0  0  0  0  0  0
   -1.3250    1.6083    0.0000 C   0  0  0  0  0  0  0  0  0  0  0  0
    2.1417   -0.3917    0.0000 C   0  0  0  0  0  0  0  0  0  0  0  0
    3.0542    0.0083    0.0000 C   0  0  0  0  0  0  0  0  0  0  0  0
    2.2417   -1.3917    0.0000 C   0  0  0  0  0  0  0  0  0  0  0  0
    3.2250   -1.6000    0.0000 C   0  0  0  0  0  0  0  0  0  0  0  0
    3.7250   -0.7292    0.0000 C   0  0  0  0  0  0  0  0  0  0  0  0
  2  3  1  0  0  0  0
  3  8  1  0  0  0  0
  3  9  2  0  0  0  0
  4  1  1  0  0  0  0
  5  2  2  0  0  0  0
  6  1  1  0  0  0  0
  7  9  1  0  0  0  0
  7  5  1  0  0  0  0
  8  4  2  0  0  0  0
  9 12  1  0  0  0  0
 10  1  2  0  0  0  0
 11  4  1  0  0  0  0
 12 11  2  0  0  0  0
 13  6  1  0  0  0  0
 14 13  1  0  0  0  0
 15 13  1  0  0  0  0
 16 15  1  0  0  0  0
 16 17  1  0  0  0  0
 17 14  1  0  0  0  0
M  END
>  <idnumber>
T5702259

>  <LogP>
2.331000000000000e+000

>  <rotating_bonds>
2.000000000000000e+000

>  <hb_acceptors>
2.000000000000000e+000

>  <hb_donors>
2.000000000000000e+000

>  <PSA>
5.778000000000000e+001

>  <clusterid>
293

>  <is_centroid>
@

>  <class1>
674

>  <class2>
685

>  <population1>
16474

>  <population2>
28767

>  <population>
271

>  <cansmi>
O=C(c1ccc2c(c1)nc[nH]2)NC1CCCC1

>  <HBA2>
3

>  <HBD>
2

>  <logP>
2.6262

>  <TPSA>
57.78

>  <MW>
229.278

$$$$

 OpenBabel02121609142D

 20 21  0  0  0  0  0  0  0  0999 V2000
    1.2917   -0.2500    0.0000 C   0  0  0  0  0  0  0  0  0  0  0  0
    2.1625    0.2500    0.0000 C   0  0  0  0  0  0  0  0  0  0  0  0
    1.2917    1.7500    0.0000 C   0  0  0  0  0  0  0  0  0  0  0  0
    2.1625    1.2500    0.0000 N   0  0  0  0  0  0  0  0  0  0  0  0
    0.4292    1.2500    0.0000 N   0  0  0  0  0  0  0  0  0  0  0  0
    0.4292    0.2500    0.0000 C   0  0  3  0  0  0  0  0  0  0  0  0
    1.2917   -1.2500    0.0000 C   0  0  0  0  0  0  0  0  0  0  0  0
   -0.4333   -0.2500    0.0000 C   0  0  0  0  0  0  0  0  0  0  0  0
    1.2917    2.7500    0.0000 O   0  0  0  0  0  0  0  0  0  0  0  0
    2.1625   -1.7500    0.0000 O   0  0  0  0  0  0  0  0  0  0  0  0
   -1.3000    0.2500    0.0000 C   0  0  0  0  0  0  0  0  0  0  0  0
   -0.4333   -1.2500    0.0000 C   0  0  0  0  0  0  0  0  0  0  0  0
    3.0292   -0.2500    0.0000 C   0  0  0  0  0  0  0  0  0  0  0  0
    3.0292    1.7500    0.0000 C   0  0  0  0  0  0  0  0  0  0  0  0
    0.4292   -1.7500    0.0000 O   0  0  0  0  0  0  0  0  0  0  0  0
   -2.1708   -1.2500    0.0000 C   0  0  0  0  0  0  0  0  0  0  0  0
   -1.3000   -1.7500    0.0000 C   0  0  0  0  0  0  0  0  0  0  0  0
   -2.1708   -0.2500    0.0000 C   0  0  0  0  0  0  0  0  0  0  0  0
   -3.0333   -1.7500    0.0000 F   0  0  0  0  0  0  0  0  0  0  0  0
    0.4292   -2.7500    0.0000 C   0  0  0  0  0  0  0  0  0  0  0  0
  2  1  2  0  0  0  0
  3  5  1  0  0  0  0
  4  2  1  0  0  0  0
  4  3  1  0  0  0  0
  5  6  1  0  0  0  0
  6  1  1  0  0  0  0
  7  1  1  0  0  0  0
  8  6  1  0  0  0  0
  9  3  2  0  0  0  0
 10  7  2  0  0  0  0
 11  8  1  0  0  0  0
 12  8  2  0  0  0  0
 13  2  1  0  0  0  0
 14  4  1  0  0  0  0
 15  7  1  0  0  0  0
 16 17  2  0  0  0  0
 17 12  1  0  0  0  0
 18 11  2  0  0  0  0
 18 16  1  0  0  0  0
 19 16  1  0  0  0  0
 20 15  1  0  0  0  0
M  END
>  <idnumber>
T5702983

>  <LogP>
2.710000000000000e+000

>  <rotating_bonds>
3.000000000000000e+000

>  <hb_acceptors>
3.000000000000000e+000

>  <hb_donors>
1.000000000000000e+000

>  <PSA>
5.863999999999997e+001

>  <clusterid>
589

>  <is_centroid>
@

>  <class1>
843

>  <class2>
625

>  <population1>
25773

>  <population2>
877209

>  <population>
21178

>  <cansmi>
COC(=O)C1=C(C)N(C(=O)NC1c1ccc(cc1)F)C

>  <HBA2>
5

>  <HBD>
1

>  <logP>
2.2355

>  <TPSA>
58.64

>  <MW>
278.279

$$$$

 OpenBabel02121609142D

 21 23  0  0  0  0  0  0  0  0999 V2000
    0.0750    0.5125    0.0000 N   0  0  0  0  0  0  0  0  0  0  0  0
   -0.8750    1.8208    0.0000 C   0  0  0  0  0  0  0  0  0  0  0  0
   -0.8750    0.2083    0.0000 C   0  0  0  0  0  0  0  0  0  0  0  0
   -1.4625    1.0125    0.0000 O   0  0  0  0  0  0  0  0  0  0  0  0
    0.8167   -2.9750    0.0000 N   0  0  0  0  0  0  0  0  0  0  0  0
    0.0750    1.5125    0.0000 C   0  0  0  0  0  0  0  0  0  0  0  0
    1.4917   -3.7167    0.0000 C   0  0  0  0  0  0  0  0  0  0  0  0
   -0.5208   -1.4917    0.0000 N   0  0  0  0  0  0  0  0  0  0  0  0
   -1.1875   -0.7417    0.0000 C   0  0  0  0  0  0  0  0  0  0  0  0
    1.1292   -2.0250    0.0000 C   0  0  0  0  0  0  0  0  0  0  0  0
   -0.1583   -3.1792    0.0000 C   0  0  0  0  0  0  0  0  0  0  0  0
   -1.1875    2.7708    0.0000 C   0  0  0  0  0  0  0  0  0  0  0  0
    2.4667   -3.5125    0.0000 O   0  0  0  0  0  0  0  0  0  0  0  0
   -0.8250   -2.4417    0.0000 C   0  0  0  0  0  0  0  0  0  0  0  0
    0.4625   -1.2792    0.0000 C   0  0  0  0  0  0  0  0  0  0  0  0
    1.1792   -4.6667    0.0000 C   0  0  0  0  0  0  0  0  0  0  0  0
   -0.5208    3.5208    0.0000 C   0  0  0  0  0  0  0  0  0  0  0  0
   -2.1625    2.9833    0.0000 C   0  0  0  0  0  0  0  0  0  0  0  0
   -2.4708    3.9333    0.0000 C   0  0  0  0  0  0  0  0  0  0  0  0
   -0.8250    4.4625    0.0000 C   0  0  0  0  0  0  0  0  0  0  0  0
   -1.8083    4.6667    0.0000 C   0  0  0  0  0  0  0  0  0  0  0  0
  2  6  2  0  0  0  0
  2  4  1  0  0  0  0
  3  1  2  0  0  0  0
  4  3  1  0  0  0  0
  5 10  1  0  0  0  0
  6  1  1  0  0  0  0
  7  5  1  0  0  0  0
  8  9  1  0  0  0  0
  9  3  1  0  0  0  0
 10 15  1  0  0  0  0
 11 14  1  0  0  0  0
 11  5  1  0  0  0  0
 12  2  1  0  0  0  0
 13  7  2  0  0  0  0
 14  8  1  0  0  0  0
 15  8  1  0  0  0  0
 16  7  1  0  0  0  0
 17 12  1  0  0  0  0
 18 12  2  0  0  0  0
 19 18  1  0  0  0  0
 20 17  2  0  0  0  0
 20 21  1  0  0  0  0
 21 19  2  0  0  0  0
M  END
>  <idnumber>
T5703504

>  <LogP>
1.247000000000000e+000

>  <rotating_bonds>
3.000000000000000e+000

>  <hb_acceptors>
3.000000000000000e+000

>  <hb_donors>
0.000000000000000e+000

>  <PSA>
4.958000000000000e+001

>  <clusterid>
-1188

>  <is_centroid>
@

>  <class1>
717

>  <class2>
789

>  <class3>
625

>  <population1>
74368

>  <population2>
4296

>  <population3>
877209

>  <population>
538

>  <cansmi>
CC(=O)N1CCN(CC1)Cc1ncc(o1)c1ccccc1

>  <HBA2>
5

>  <HBD>
0

>  <logP>
1.8815

>  <TPSA>
49.58

>  <MW>
285.341

$$$$

 OpenBabel02121609142D

 22 24  0  0  0  0  0  0  0  0999 V2000
   -0.8708    1.2500    0.0000 N   0  0  0  0  0  0  0  0  0  0  0  0
   -0.8708    0.2500    0.0000 C   0  0  0  0  0  0  0  0  0  0  0  0
   -1.7333    1.7500    0.0000 C   0  0  0  0  0  0  0  0  0  0  0  0
    0.0000   -0.2500    0.0000 C   0  0  0  0  0  0  0  0  0  0  0  0
    0.0000   -1.2417    0.0000 C   0  0  0  0  0  0  0  0  0  0  0  0
    0.8625   -1.7500    0.0000 C   0  0  0  0  0  0  0  0  0  0  0  0
   -1.7333   -0.2500    0.0000 O   0  0  0  0  0  0  0  0  0  0  0  0
    1.7292   -1.2417    0.0000 C   0  0  0  0  0  0  0  0  0  0  0  0
   -1.7333    2.7500    0.0000 C   0  0  0  0  0  0  0  0  0  0  0  0
    0.8625    0.2500    0.0000 C   0  0  0  0  0  0  0  0  0  0  0  0
    1.7292   -0.2500    0.0000 C   0  0  0  0  0  0  0  0  0  0  0  0
    0.0000    1.7500    0.0000 C   0  0  0  0  0  0  0  0  0  0  0  0
    0.8625   -2.7500    0.0000 O   0  0  0  0  0  0  0  0  0  0  0  0
    2.5917   -1.7500    0.0000 O   0  0  0  0  0  0  0  0  0  0  0  0
   -2.6000    1.2500    0.0000 C   0  0  0  0  0  0  0  0  0  0  0  0
    0.0000    2.7500    0.0000 C   0  0  0  0  0  0  0  0  0  0  0  0
   -0.8708    3.2500    0.0000 C   0  0  0  0  0  0  0  0  0  0  0  0
   -2.6000    3.2500    0.0000 C   0  0  0  0  0  0  0  0  0  0  0  0
    0.0000   -3.2417    0.0000 C   0  0  0  0  0  0  0  0  0  0  0  0
    3.4625   -1.2417    0.0000 C   0  0  0  0  0  0  0  0  0  0  0  0
   -3.4708    1.7500    0.0000 C   0  0  0  0  0  0  0  0  0  0  0  0
   -3.4708    2.7500    0.0000 C   0  0  0  0  0  0  0  0  0  0  0  0
  2  1  1  0  0  0  0
  3  1  1  0  0  0  0
  4  2  1  0  0  0  0
  5  4  2  0  0  0  0
  6  5  1  0  0  0  0
  6  8  2  0  0  0  0
  7  2  2  0  0  0  0
  8 11  1  0  0  0  0
  9  3  2  0  0  0  0
  9 17  1  0  0  0  0
 10  4  1  0  0  0  0
 11 10  2  0  0  0  0
 12  1  1  0  0  0  0
 13  6  1  0  0  0  0
 14  8  1  0  0  0  0
 15  3  1  0  0  0  0
 16 12  1  0  0  0  0
 17 16  1  0  0  0  0
 18  9  1  0  0  0  0
 18 22  2  0  0  0  0
 19 13  1  0  0  0  0
 20 14  1  0  0  0  0
 21 15  2  0  0  0  0
 22 21  1  0  0  0  0
M  END
>  <idnumber>
T5703602

>  <LogP>
2.938000000000000e+000

>  <rotating_bonds>
3.000000000000000e+000

>  <hb_acceptors>
3.000000000000000e+000

>  <hb_donors>
0.000000000000000e+000

>  <PSA>
3.877000000000000e+001

>  <clusterid>
-1189

>  <is_centroid>
@

>  <class1>
814

>  <class2>
625

>  <population1>
5317

>  <population2>
877209

>  <population>
5317

>  <cansmi>
COc1cc(ccc1OC)C(=O)N1CCCc2c1cccc2

>  <HBA2>
4

>  <HBD>
0

>  <logP>
3.3618

>  <TPSA>
38.77

>  <MW>
297.348

$$$$

 OpenBabel02121609142D

 20 22  0  0  0  0  0  0  0  0999 V2000
   -1.2875    1.4833    0.0000 N   0  0  0  0  0  0  0  0  0  0  0  0
   -2.0958    2.0708    0.0000 C   0  0  0  0  0  0  0  0  0  0  0  0
   -1.2875    0.4833    0.0000 C   0  0  0  0  0  0  0  0  0  0  0  0
   -0.4208   -1.0167    0.0000 N   0  0  0  0  0  0  0  0  0  0  0  0
    0.4417   -1.5167    0.0000 C   0  0  0  0  0  0  0  0  0  0  0  0
   -0.4208   -0.0167    0.0000 C   0  0  0  0  0  0  0  0  0  0  0  0
    0.4417   -2.5167    0.0000 C   0  0  0  0  0  0  0  0  0  0  0  0
   -1.7875    3.0208    0.0000 N   0  0  0  0  0  0  0  0  0  0  0  0
    1.3125   -1.0167    0.0000 C   0  0  0  0  0  0  0  0  0  0  0  0
   -3.0458    1.7625    0.0000 O   0  0  0  0  0  0  0  0  0  0  0  0
   -2.1583   -0.0167    0.0000 O   0  0  0  0  0  0  0  0  0  0  0  0
    1.3125   -3.0167    0.0000 C   0  0  0  0  0  0  0  0  0  0  0  0
   -0.4833    2.0708    0.0000 C   0  0  0  0  0  0  0  0  0  0  0  0
   -1.2875   -1.5167    0.0000 C   0  0  0  0  0  0  0  0  0  0  0  0
    2.1750   -1.5167    0.0000 C   0  0  0  0  0  0  0  0  0  0  0  0
    2.1750   -2.5167    0.0000 C   0  0  0  0  0  0  0  0  0  0  0  0
   -0.7875    3.0208    0.0000 C   0  0  0  0  0  0  0  0  0  0  0  0
   -0.4208   -3.0167    0.0000 C   0  0  0  0  0  0  0  0  0  0  0  0
   -1.2875   -2.5167    0.0000 C   0  0  0  0  0  0  0  0  0  0  0  0
    3.0417   -3.0167    0.0000 C   0  0  0  0  0  0  0  0  0  0  0  0
  2  1  1  0  0  0  0
  3  1  1  0  0  0  0
  4  6  1  0  0  0  0
  5  4  1  0  0  0  0
  6  3  1  0  0  0  0
  7  5  2  0  0  0  0
  8  2  1  0  0  0  0
  9  5  1  0  0  0  0
 10  2  2  0  0  0  0
 11  3  2  0  0  0  0
 12  7  1  0  0  0  0
 12 16  2  0  0  0  0
 13  1  1  0  0  0  0
 14  4  1  0  0  0  0
 15  9  2  0  0  0  0
 16 15  1  0  0  0  0
 17 13  1  0  0  0  0
 17  8  1  0  0  0  0
 18 19  1  0  0  0  0
 18  7  1  0  0  0  0
 19 14  1  0  0  0  0
 20 16  1  0  0  0  0
M  END
>  <idnumber>
T5705082

>  <LogP>
2.537000000000000e+000

>  <rotating_bonds>
2.000000000000000e+000

>  <hb_acceptors>
3.000000000000000e+000

>  <hb_donors>
1.000000000000000e+000

>  <PSA>
5.265000000000000e+001

>  <clusterid>
638

>  <is_centroid>
@

>  <class1>
814

>  <class2>
798

>  <population1>
5317

>  <population2>
25583

>  <population>
114

>  <cansmi>
Cc1ccc2c(c1)CCCN2CC(=O)N1CCNC1=O

>  <HBA2>
5

>  <HBD>
1

>  <logP>
1.6311

>  <TPSA>
52.65

>  <MW>
273.33

$$$$

 OpenBabel02121609142D

 20 22  0  0  0  0  0  0  0  0999 V2000
    1.6792   -0.1792    0.0000 C   0  0  3  0  0  0  0  0  0  0  0  0
    0.8167   -0.6792    0.0000 C   0  0  3  0  0  0  0  0  0  0  0  0
    1.6792   -1.1792    0.0000 C   0  0  0  0  0  0  0  0  0  0  0  0
   -0.1833   -0.6792    0.0000 C   0  0  0  0  0  0  0  0  0  0  0  0
   -0.6833   -1.5417    0.0000 N   0  0  0  0  0  0  0  0  0  0  0  0
    2.1792    0.6833    0.0000 C   0  0  0  0  0  0  0  0  0  0  0  0
   -1.6833   -1.5417    0.0000 C   0  0  0  0  0  0  0  0  0  0  0  0
   -2.1833   -2.4125    0.0000 N   0  0  0  0  0  0  0  0  0  0  0  0
   -0.6833    0.1833    0.0000 O   0  0  0  0  0  0  0  0  0  0  0  0
    1.6792    1.5500    0.0000 C   0  0  0  0  0  0  0  0  0  0  0  0
   -2.1833   -0.6792    0.0000 C   0  0  0  0  0  0  0  0  0  0  0  0
    0.6792    1.5500    0.0000 Cl  0  0  0  0  0  0  0  0  0  0  0  0
   -3.1833   -2.4125    0.0000 C   0  0  0  0  0  0  0  0  0  0  0  0
   -3.1833   -0.6792    0.0000 C   0  0  0  0  0  0  0  0  0  0  0  0
    3.1792    0.6833    0.0000 C   0  0  0  0  0  0  0  0  0  0  0  0
    2.1792    2.4208    0.0000 C   0  0  0  0  0  0  0  0  0  0  0  0
   -3.6833   -1.5417    0.0000 C   0  0  0  0  0  0  0  0  0  0  0  0
   -3.6833    0.1833    0.0000 C   0  0  0  0  0  0  0  0  0  0  0  0
    3.6792    1.5500    0.0000 C   0  0  0  0  0  0  0  0  0  0  0  0
    3.1792    2.4208    0.0000 C   0  0  0  0  0  0  0  0  0  0  0  0
  2  1  1  0  0  0  0
  2  3  1  0  0  0  0
  3  1  1  0  0  0  0
  4  2  1  0  0  0  0
  5  4  1  0  0  0  0
  6  1  1  0  0  0  0
  7  5  1  0  0  0  0
  8  7  2  0  0  0  0
  9  4  2  0  0  0  0
 10  6  2  0  0  0  0
 11  7  1  0  0  0  0
 12 10  1  0  0  0  0
 13  8  1  0  0  0  0
 14 11  2  0  0  0  0
 15  6  1  0  0  0  0
 16 10  1  0  0  0  0
 16 20  2  0  0  0  0
 17 14  1  0  0  0  0
 17 13  2  0  0  0  0
 18 14  1  0  0  0  0
 19 15  2  0  0  0  0
 20 19  1  0  0  0  0
M  END
>  <idnumber>
T5705389

>  <LogP>
2.612000000000000e+000

>  <rotating_bonds>
3.000000000000000e+000

>  <hb_acceptors>
3.000000000000000e+000

>  <hb_donors>
1.000000000000000e+000

>  <PSA>
4.199000000000000e+001

>  <clusterid>
677

>  <is_centroid>
@

>  <class1>
675

>  <class2>
625

>  <class3>
632

>  <population1>
33654

>  <population2>
877209

>  <population3>
79489

>  <population>
2337

>  <cansmi>
O=C(C1CC1c1ccccc1Cl)Nc1nccc(c1)C

>  <HBA2>
3

>  <HBD>
1

>  <logP>
3.8586

>  <TPSA>
41.99

>  <MW>
286.756

$$$$

 OpenBabel02121609142D

 11 12  0  0  0  0  0  0  0  0999 V2000
   -0.5083    0.5583    0.0000 N   0  0  0  0  0  0  0  0  0  0  0  0
    1.0292    1.0583    0.0000 N   0  0  0  0  0  0  0  0  0  0  0  0
    0.4417    1.8708    0.0000 N   0  0  0  0  0  0  0  0  0  0  0  0
    0.4417    0.2500    0.0000 C   0  0  0  0  0  0  0  0  0  0  0  0
   -0.5083    1.5583    0.0000 C   0  0  0  0  0  0  0  0  0  0  0  0
    0.7542   -0.7042    0.0000 C   0  0  0  0  0  0  0  0  0  0  0  0
   -1.4583    0.2500    0.0000 C   0  0  0  0  0  0  0  0  0  0  0  0
   -1.4583    1.8708    0.0000 C   0  0  0  0  0  0  0  0  0  0  0  0
    2.0417   -1.8625    0.0000 N   0  0  0  0  0  0  0  0  0  0  0  0
    1.7292   -0.9125    0.0000 C   0  0  0  0  0  0  0  0  0  0  0  0
   -2.0458    1.0583    0.0000 C   0  0  0  0  0  0  0  0  0  0  0  0
  2  4  2  0  0  0  0
  2  3  1  0  0  0  0
  3  5  2  0  0  0  0
  4  1  1  0  0  0  0
  5  1  1  0  0  0  0
  6  4  1  0  0  0  0
  7  1  1  0  0  0  0
  8  5  1  0  0  0  0
  8 11  1  0  0  0  0
  9 10  1  0  0  0  0
 10  6  1  0  0  0  0
 11  7  1  0  0  0  0
M  END
>  <idnumber>
T5706064

>  <LogP>
-1.886000000000000e+000

>  <rotating_bonds>
2.000000000000000e+000

>  <hb_acceptors>
3.000000000000000e+000

>  <hb_donors>
1.000000000000000e+000

>  <PSA>
5.673000000000000e+001

>  <clusterid>
-1190

>  <is_centroid>
@

>  <class1>
784

>  <population1>
235

>  <population>
235

>  <cansmi>
NCCc1nnc2n1CCC2

>  <HBA2>
4

>  <HBD>
1

>  <logP>
0.4258

>  <TPSA>
56.73

>  <MW>
152.197

$$$$

 OpenBabel02121609142D

 12 13  0  0  0  0  0  0  0  0999 V2000
   -0.4333    0.0000    0.0000 C   0  0  0  0  0  0  0  0  0  0  0  0
   -1.3000   -0.5000    0.0000 C   0  0  0  0  0  0  0  0  0  0  0  0
   -0.4333    1.0000    0.0000 C   0  0  0  0  0  0  0  0  0  0  0  0
    0.4292   -0.5000    0.0000 C   0  0  0  0  0  0  0  0  0  0  0  0
   -1.3000    1.5000    0.0000 O   0  0  0  0  0  0  0  0  0  0  0  0
   -1.3000   -1.5000    0.0000 O   0  0  0  0  0  0  0  0  0  0  0  0
    0.4292    1.5000    0.0000 C   0  0  0  0  0  0  0  0  0  0  0  0
    1.2917    0.0000    0.0000 C   0  0  0  0  0  0  0  0  0  0  0  0
   -2.1708    0.0000    0.0000 C   0  0  0  0  0  0  0  0  0  0  0  0
   -2.1708    1.0000    0.0000 C   0  0  0  0  0  0  0  0  0  0  0  0
    1.2917    1.0000    0.0000 C   0  0  0  0  0  0  0  0  0  0  0  0
    2.1625   -0.5000    0.0000 Br  0  0  0  0  0  0  0  0  0  0  0  0
  2  1  1  0  0  0  0
  3  1  2  0  0  0  0
  4  1  1  0  0  0  0
  5  3  1  0  0  0  0
  6  2  2  0  0  0  0
  7  3  1  0  0  0  0
  8  4  2  0  0  0  0
  9  2  1  0  0  0  0
 10  5  1  0  0  0  0
 10  9  1  0  0  0  0
 11  8  1  0  0  0  0
 11  7  2  0  0  0  0
 12  8  1  0  0  0  0
M  END
>  <idnumber>
T5706088

>  <LogP>
2.622000000000000e+000

>  <rotating_bonds>
0.000000000000000e+000

>  <hb_acceptors>
2.000000000000000e+000

>  <hb_donors>
0.000000000000000e+000

>  <PSA>
2.630000000000000e+001

>  <clusterid>
-1192

>  <is_centroid>
@

>  <class1>
759

>  <population1>
251

>  <population>
251

>  <cansmi>
Brc1ccc2c(c1)C(=O)CCO2

>  <HBA2>
2

>  <HBD>
0

>  <logP>
2.4143

>  <TPSA>
26.3

>  <MW>
227.055

$$$$

 OpenBabel02121609142D

 12 13  0  0  0  0  0  0  0  0999 V2000
    0.0000    0.5000    0.0000 C   0  0  0  0  0  0  0  0  0  0  0  0
    0.0000   -0.5000    0.0000 C   0  0  0  0  0  0  0  0  0  0  0  0
   -0.8708    1.0000    0.0000 C   0  0  0  0  0  0  0  0  0  0  0  0
   -1.7333    0.5000    0.0000 C   0  0  0  0  0  0  0  0  0  0  0  0
   -0.8708   -1.0000    0.0000 O   0  0  0  0  0  0  0  0  0  0  0  0
   -1.7333   -0.5000    0.0000 C   0  0  0  0  0  0  0  0  0  0  0  0
    0.8625   -1.0000    0.0000 C   0  0  0  0  0  0  0  0  0  0  0  0
   -0.8708    2.0000    0.0000 O   0  0  0  0  0  0  0  0  0  0  0  0
    0.8625   -2.0000    0.0000 Cl  0  0  0  0  0  0  0  0  0  0  0  0
    0.8625    1.0000    0.0000 C   0  0  0  0  0  0  0  0  0  0  0  0
    1.7292    0.5000    0.0000 C   0  0  0  0  0  0  0  0  0  0  0  0
    1.7292   -0.5000    0.0000 C   0  0  0  0  0  0  0  0  0  0  0  0
  2  1  1  0  0  0  0
  3  1  1  0  0  0  0
  4  3  1  0  0  0  0
  5  2  1  0  0  0  0
  5  6  1  0  0  0  0
  6  4  2  0  0  0  0
  7  2  2  0  0  0  0
  7 12  1  0  0  0  0
  8  3  2  0  0  0  0
  9  7  1  0  0  0  0
 10  1  2  0  0  0  0
 11 10  1  0  0  0  0
 12 11  2  0  0  0  0
M  END
>  <idnumber>
T5706090

>  <LogP>
2.095000000000000e+000

>  <rotating_bonds>
0.000000000000000e+000

>  <hb_acceptors>
3.000000000000000e+000

>  <hb_donors>
0.000000000000000e+000

>  <PSA>
2.630000000000000e+001

>  <clusterid>
-1193

>  <is_centroid>
@

>  <class1>
819

>  <population1>
2257

>  <population>
2257

>  <cansmi>
Clc1cccc2c1occc2=O

>  <HBA2>
2

>  <HBD>
0

>  <logP>
2.4464

>  <TPSA>
30.21

>  <MW>
180.588

$$$$

 OpenBabel02121609142D

 22 24  0  0  0  0  0  0  0  0999 V2000
    0.6292    1.6583    0.0000 C   0  0  0  0  0  0  0  0  0  0  0  0
    0.0417    0.8500    0.0000 O   0  0  0  0  0  0  0  0  0  0  0  0
    0.6292    0.0458    0.0000 C   0  0  0  0  0  0  0  0  0  0  0  0
    0.3167   -0.9125    0.0000 C   0  0  0  0  0  0  0  0  0  0  0  0
    0.9875   -1.6542    0.0000 N   0  0  0  0  0  0  0  0  0  0  0  0
    0.3167    2.6083    0.0000 C   0  0  0  0  0  0  0  0  0  0  0  0
    1.5792    1.3500    0.0000 C   0  0  0  0  0  0  0  0  0  0  0  0
    1.5792    0.3500    0.0000 C   0  0  0  0  0  0  0  0  0  0  0  0
    0.6792   -2.6042    0.0000 C   0  0  0  0  0  0  0  0  0  0  0  0
    1.3500   -3.3500    0.0000 N   0  0  0  0  0  0  0  0  0  0  0  0
   -0.6583    2.8208    0.0000 C   0  0  0  0  0  0  0  0  0  0  0  0
   -0.6583   -1.1167    0.0000 O   0  0  0  0  0  0  0  0  0  0  0  0
   -0.2958   -2.8125    0.0000 C   0  0  0  0  0  0  0  0  0  0  0  0
   -1.3250    2.0833    0.0000 F   0  0  0  0  0  0  0  0  0  0  0  0
    1.0417   -4.3000    0.0000 C   0  0  0  0  0  0  0  0  0  0  0  0
   -0.6083   -3.7625    0.0000 C   0  0  0  0  0  0  0  0  0  0  0  0
    0.9875    3.3583    0.0000 C   0  0  0  0  0  0  0  0  0  0  0  0
   -0.9708    3.7708    0.0000 C   0  0  0  0  0  0  0  0  0  0  0  0
    0.0625   -4.5042    0.0000 C   0  0  0  0  0  0  0  0  0  0  0  0
   -1.5833   -3.9667    0.0000 C   0  0  0  0  0  0  0  0  0  0  0  0
    0.6792    4.2917    0.0000 C   0  0  0  0  0  0  0  0  0  0  0  0
   -0.2958    4.5042    0.0000 C   0  0  0  0  0  0  0  0  0  0  0  0
  2  1  1  0  0  0  0
  3  2  1  0  0  0  0
  3  8  2  0  0  0  0
  4  3  1  0  0  0  0
  5  4  1  0  0  0  0
  6  1  1  0  0  0  0
  7  1  2  0  0  0  0
  8  7  1  0  0  0  0
  9  5  1  0  0  0  0
 10  9  2  0  0  0  0
 11  6  2  0  0  0  0
 12  4  2  0  0  0  0
 13  9  1  0  0  0  0
 14 11  1  0  0  0  0
 15 10  1  0  0  0  0
 16 13  2  0  0  0  0
 17  6  1  0  0  0  0
 18 11  1  0  0  0  0
 18 22  2  0  0  0  0
 19 16  1  0  0  0  0
 19 15  2  0  0  0  0
 20 16  1  0  0  0  0
 21 17  2  0  0  0  0
 22 21  1  0  0  0  0
M  END
>  <idnumber>
T5706863

>  <LogP>
2.839000000000000e+000

>  <rotating_bonds>
3.000000000000000e+000

>  <hb_acceptors>
3.000000000000000e+000

>  <hb_donors>
1.000000000000000e+000

>  <PSA>
5.513000000000000e+001

>  <clusterid>
-1196

>  <is_centroid>
@

>  <class1>
704

>  <class2>
625

>  <class3>
632

>  <population1>
51112

>  <population2>
877209

>  <population3>
79489

>  <population>
2622

>  <cansmi>
Cc1ccnc(c1)NC(=O)c1ccc(o1)c1ccccc1F

>  <HBA2>
4

>  <HBD>
1

>  <logP>
4.1144

>  <TPSA>
55.13

>  <MW>
296.296

$$$$

 OpenBabel02121609142D

 15 16  0  0  0  0  0  0  0  0999 V2000
   -1.3000   -0.2500    0.0000 N   0  0  0  0  0  0  0  0  0  0  0  0
   -0.4333   -0.7500    0.0000 C   0  0  0  0  0  0  0  0  0  0  0  0
   -0.4333   -1.7500    0.0000 C   0  0  0  0  0  0  0  0  0  0  0  0
   -1.3000    0.7500    0.0000 C   0  0  0  0  0  0  0  0  0  0  0  0
   -0.4333    1.2500    0.0000 C   0  0  0  0  0  0  0  0  0  0  0  0
    0.4292   -0.2500    0.0000 C   0  0  0  0  0  0  0  0  0  0  0  0
    0.4292   -2.2500    0.0000 C   0  0  0  0  0  0  0  0  0  0  0  0
    0.4292    0.7500    0.0000 O   0  0  0  0  0  0  0  0  0  0  0  0
   -0.4333    2.2500    0.0000 N   0  0  0  0  0  0  0  0  0  0  0  0
   -2.1708   -0.7500    0.0000 C   0  0  0  0  0  0  0  0  0  0  0  0
    1.2917   -0.7500    0.0000 C   0  0  0  0  0  0  0  0  0  0  0  0
    1.2917   -1.7500    0.0000 C   0  0  0  0  0  0  0  0  0  0  0  0
   -1.3000   -2.2500    0.0000 C   0  0  0  0  0  0  0  0  0  0  0  0
   -2.1708   -1.7500    0.0000 C   0  0  0  0  0  0  0  0  0  0  0  0
    2.1625   -2.2500    0.0000 C   0  0  0  0  0  0  0  0  0  0  0  0
  2  1  1  0  0  0  0
  3  2  2  0  0  0  0
  4  1  1  0  0  0  0
  5  4  1  0  0  0  0
  6  2  1  0  0  0  0
  7  3  1  0  0  0  0
  7 12  2  0  0  0  0
  8  5  2  0  0  0  0
  9  5  1  0  0  0  0
 10  1  1  0  0  0  0
 11  6  2  0  0  0  0
 12 11  1  0  0  0  0
 13 14  1  0  0  0  0
 13  3  1  0  0  0  0
 14 10  1  0  0  0  0
 15 12  1  0  0  0  0
M  END
>  <idnumber>
T5707145

>  <LogP>
2.128000000000000e+000

>  <rotating_bonds>
2.000000000000000e+000

>  <hb_acceptors>
2.000000000000000e+000

>  <hb_donors>
1.000000000000000e+000

>  <PSA>
4.633000000000000e+001

>  <clusterid>
-1197

>  <is_centroid>
@

>  <class1>
814

>  <population1>
5317

>  <population>
5317

>  <cansmi>
NC(=O)CN1CCCc2c1ccc(c2)C

>  <HBA2>
3

>  <HBD>
1

>  <logP>
1.9982

>  <TPSA>
46.33

>  <MW>
204.268

$$$$

 OpenBabel02121609142D

 16 17  0  0  0  0  0  0  0  0999 V2000
   -0.4333    0.7500    0.0000 C   0  0  0  0  0  0  0  0  0  0  0  0
   -0.4333   -1.2500    0.0000 N   0  0  0  0  0  0  0  0  0  0  0  0
   -1.3000    0.2500    0.0000 C   0  0  0  0  0  0  0  0  0  0  0  0
    0.4292   -2.7500    0.0000 C   0  0  0  0  0  0  0  0  0  0  0  0
   -0.4333   -2.2500    0.0000 C   0  0  0  0  0  0  0  0  0  0  0  0
    0.4292    0.2500    0.0000 C   0  0  0  0  0  0  0  0  0  0  0  0
   -0.4333    1.7500    0.0000 C   0  0  0  0  0  0  0  0  0  0  0  0
   -1.3000   -0.7500    0.0000 C   0  0  0  0  0  0  0  0  0  0  0  0
    0.4292   -3.7500    0.0000 O   0  0  0  0  0  0  0  0  0  0  0  0
    0.4292   -0.7500    0.0000 C   0  0  0  0  0  0  0  0  0  0  0  0
    1.2917   -2.2500    0.0000 N   0  0  0  0  0  0  0  0  0  0  0  0
    0.4292    2.2500    0.0000 C   0  0  0  0  0  0  0  0  0  0  0  0
   -1.3000    2.2500    0.0000 C   0  0  0  0  0  0  0  0  0  0  0  0
   -1.3000    3.2500    0.0000 C   0  0  0  0  0  0  0  0  0  0  0  0
    0.4292    3.2500    0.0000 C   0  0  0  0  0  0  0  0  0  0  0  0
   -0.4333    3.7500    0.0000 C   0  0  0  0  0  0  0  0  0  0  0  0
  2 10  1  0  0  0  0
  3  1  2  0  0  0  0
  4  5  1  0  0  0  0
  5  2  1  0  0  0  0
  6  1  1  0  0  0  0
  7  1  1  0  0  0  0
  8  3  1  0  0  0  0
  8  2  1  0  0  0  0
  9  4  2  0  0  0  0
 10  6  1  0  0  0  0
 11  4  1  0  0  0  0
 12  7  1  0  0  0  0
 13  7  2  0  0  0  0
 14 13  1  0  0  0  0
 15 12  2  0  0  0  0
 15 16  1  0  0  0  0
 16 14  2  0  0  0  0
M  END
>  <idnumber>
T5707146

>  <LogP>
1.689000000000000e+000

>  <rotating_bonds>
3.000000000000000e+000

>  <hb_acceptors>
2.000000000000000e+000

>  <hb_donors>
1.000000000000000e+000

>  <PSA>
4.633000000000000e+001

>  <clusterid>
-1198

>  <is_centroid>
@

>  <class1>
715

>  <class2>
625

>  <population1>
4585

>  <population2>
877209

>  <population>
4053

>  <cansmi>
NC(=O)CN1CCC(=CC1)c1ccccc1

>  <HBA2>
3

>  <HBD>
1

>  <logP>
1.8992

>  <TPSA>
46.33

>  <MW>
216.279

$$$$

 OpenBabel02121609142D

 21 23  0  0  0  0  0  0  0  0999 V2000
    0.4292    1.2500    0.0000 C   0  0  0  0  0  0  0  0  0  0  0  0
    0.4292    0.2500    0.0000 N   0  0  0  0  0  0  0  0  0  0  0  0
    0.4292   -1.7500    0.0000 C   0  0  0  0  0  0  0  0  0  0  0  0
   -0.4333    1.7500    0.0000 N   0  0  0  0  0  0  0  0  0  0  0  0
    1.2917   -1.2500    0.0000 C   0  0  0  0  0  0  0  0  0  0  0  0
    1.2917   -0.2500    0.0000 C   0  0  0  0  0  0  0  0  0  0  0  0
    1.2917    1.7500    0.0000 O   0  0  0  0  0  0  0  0  0  0  0  0
   -0.4333   -0.2500    0.0000 C   0  0  0  0  0  0  0  0  0  0  0  0
   -0.4333   -1.2500    0.0000 C   0  0  0  0  0  0  0  0  0  0  0  0
   -1.3000    4.2500    0.0000 N   0  0  0  0  0  0  0  0  0  0  0  0
    0.4292   -2.7500    0.0000 C   0  0  0  0  0  0  0  0  0  0  0  0
   -0.4333    2.7583    0.0000 C   0  0  0  0  0  0  0  0  0  0  0  0
   -1.3000    3.2583    0.0000 C   0  0  0  0  0  0  0  0  0  0  0  0
   -0.4333    4.7500    0.0000 C   0  0  0  0  0  0  0  0  0  0  0  0
   -0.4333   -3.2500    0.0000 C   0  0  0  0  0  0  0  0  0  0  0  0
    1.2917   -3.2500    0.0000 C   0  0  0  0  0  0  0  0  0  0  0  0
    0.4292    3.2583    0.0000 C   0  0  0  0  0  0  0  0  0  0  0  0
    0.4292    4.2500    0.0000 C   0  0  0  0  0  0  0  0  0  0  0  0
    1.2917   -4.2500    0.0000 C   0  0  0  0  0  0  0  0  0  0  0  0
   -0.4333   -4.2500    0.0000 C   0  0  0  0  0  0  0  0  0  0  0  0
    0.4292   -4.7500    0.0000 C   0  0  0  0  0  0  0  0  0  0  0  0
  2  1  1  0  0  0  0
  3  9  1  0  0  0  0
  4  1  1  0  0  0  0
  5  6  1  0  0  0  0
  5  3  2  0  0  0  0
  6  2  1  0  0  0  0
  7  1  2  0  0  0  0
  8  2  1  0  0  0  0
  9  8  1  0  0  0  0
 10 13  1  0  0  0  0
 10 14  2  0  0  0  0
 11  3  1  0  0  0  0
 12  4  1  0  0  0  0
 13 12  2  0  0  0  0
 14 18  1  0  0  0  0
 15 11  1  0  0  0  0
 16 11  2  0  0  0  0
 17 12  1  0  0  0  0
 18 17  2  0  0  0  0
 19 16  1  0  0  0  0
 20 15  2  0  0  0  0
 20 21  1  0  0  0  0
 21 19  2  0  0  0  0
M  END
>  <idnumber>
T5709999

>  <LogP>
2.629000000000000e+000

>  <rotating_bonds>
2.000000000000000e+000

>  <hb_acceptors>
2.000000000000000e+000

>  <hb_donors>
1.000000000000000e+000

>  <PSA>
4.523000000000000e+001

>  <clusterid>
-1203

>  <is_centroid>
@

>  <class1>
715

>  <class2>
625

>  <class3>
632

>  <population1>
4585

>  <population2>
877209

>  <population3>
79489

>  <population>
149

>  <cansmi>
O=C(N1CCC(=CC1)c1ccccc1)Nc1cccnc1

>  <HBA2>
4

>  <HBD>
1

>  <logP>
3.4137

>  <TPSA>
45.23

>  <MW>
279.336

$$$$

 OpenBabel02121609142D

 18 20  0  0  0  0  0  0  0  0999 V2000
    0.7542    1.1750    0.0000 N   0  0  0  0  0  0  0  0  0  0  0  0
    1.6167    0.6750    0.0000 C   0  0  0  0  0  0  0  0  0  0  0  0
    2.4292   -0.9125    0.0000 N   0  0  0  0  0  0  0  0  0  0  0  0
    1.6167   -0.3250    0.0000 C   0  0  3  0  0  0  0  0  0  0  0  0
   -0.1125    0.6750    0.0000 C   0  0  0  0  0  0  0  0  0  0  0  0
    2.1167   -1.8625    0.0000 C   0  0  0  0  0  0  0  0  0  0  0  0
   -0.9833    1.1750    0.0000 C   0  0  0  0  0  0  0  0  0  0  0  0
    0.7542    2.1750    0.0000 C   0  0  0  0  0  0  0  0  0  0  0  0
    2.4792    1.1750    0.0000 O   0  0  0  0  0  0  0  0  0  0  0  0
   -0.9833    2.1750    0.0000 C   0  0  0  0  0  0  0  0  0  0  0  0
    2.7042   -2.6667    0.0000 O   0  0  0  0  0  0  0  0  0  0  0  0
    0.8042   -0.9125    0.0000 C   0  0  0  0  0  0  0  0  0  0  0  0
   -0.1125    2.6750    0.0000 C   0  0  0  0  0  0  0  0  0  0  0  0
    1.1167   -1.8625    0.0000 C   0  0  0  0  0  0  0  0  0  0  0  0
   -1.8458    0.6750    0.0000 C   0  0  0  0  0  0  0  0  0  0  0  0
   -1.8458    2.6750    0.0000 C   0  0  0  0  0  0  0  0  0  0  0  0
   -2.7125    1.1750    0.0000 C   0  0  0  0  0  0  0  0  0  0  0  0
   -2.7125    2.1750    0.0000 C   0  0  0  0  0  0  0  0  0  0  0  0
  2  1  1  0  0  0  0
  3  4  1  0  0  0  0
  4  2  1  0  0  0  0
  5  1  1  0  0  0  0
  6  3  1  0  0  0  0
  7  5  1  0  0  0  0
  7 10  2  0  0  0  0
  8  1  1  0  0  0  0
  9  2  2  0  0  0  0
 10 13  1  0  0  0  0
 11  6  2  0  0  0  0
 12  4  1  0  0  0  0
 13  8  1  0  0  0  0
 14 12  1  0  0  0  0
 14  6  1  0  0  0  0
 15  7  1  0  0  0  0
 16 10  1  0  0  0  0
 17 15  2  0  0  0  0
 18 16  2  0  0  0  0
 18 17  1  0  0  0  0
M  END
>  <idnumber>
T5710084

>  <LogP>
3.160000000000000e-001

>  <rotating_bonds>
1.000000000000000e+000

>  <hb_acceptors>
2.000000000000000e+000

>  <hb_donors>
1.000000000000000e+000

>  <PSA>
4.941000000000003e+001

>  <clusterid>
688

>  <is_centroid>
@

>  <class1>
750

>  <class2>
673

>  <population1>
7929

>  <population2>
18691

>  <population>
65

>  <cansmi>
O=C1CCC(N1)C(=O)N1CCc2c(C1)cccc2

>  <HBA2>
4

>  <HBD>
1

>  <logP>
1.1166

>  <TPSA>
49.41

>  <MW>
244.289

$$$$

 OpenBabel02121609142D

 18 20  0  0  0  0  0  0  0  0999 V2000
   -0.0458   -0.4167    0.0000 N   0  0  0  0  0  0  0  0  0  0  0  0
    0.5417    0.3958    0.0000 C   0  0  0  0  0  0  0  0  0  0  0  0
    0.5417   -1.2250    0.0000 C   0  0  0  0  0  0  0  0  0  0  0  0
    1.5000    0.0833    0.0000 C   0  0  0  0  0  0  0  0  0  0  0  0
    1.5000   -0.9167    0.0000 C   0  0  0  0  0  0  0  0  0  0  0  0
   -1.0458   -0.4167    0.0000 C   0  0  0  0  0  0  0  0  0  0  0  0
    0.2375    1.3458    0.0000 O   0  0  0  0  0  0  0  0  0  0  0  0
    0.2375   -2.1750    0.0000 O   0  0  0  0  0  0  0  0  0  0  0  0
   -1.5458    0.4500    0.0000 C   0  0  0  0  0  0  0  0  0  0  0  0
    1.5000    1.0833    0.0000 C   0  0  0  0  0  0  0  0  0  0  0  0
    2.4417   -0.2167    0.0000 C   0  0  0  0  0  0  0  0  0  0  0  0
   -1.0458    1.3208    0.0000 C   0  0  0  0  0  0  0  0  0  0  0  0
   -2.5458    0.4500    0.0000 C   0  0  0  0  0  0  0  0  0  0  0  0
    3.0375    0.5833    0.0000 C   0  0  0  0  0  0  0  0  0  0  0  0
    2.4417    1.3958    0.0000 C   0  0  0  0  0  0  0  0  0  0  0  0
   -3.0458    1.3208    0.0000 C   0  0  0  0  0  0  0  0  0  0  0  0
   -1.5458    2.1833    0.0000 C   0  0  0  0  0  0  0  0  0  0  0  0
   -2.5458    2.1833    0.0000 C   0  0  0  0  0  0  0  0  0  0  0  0
  2  1  1  0  0  0  0
  3  1  1  0  0  0  0
  4  2  1  0  0  0  0
  5  3  1  0  0  0  0
  5  4  1  0  0  0  0
  6  1  1  0  0  0  0
  7  2  2  0  0  0  0
  8  3  2  0  0  0  0
  9  6  1  0  0  0  0
 10  4  1  0  0  0  0
 11  4  1  0  0  0  0
 12  9  1  0  0  0  0
 13  9  2  0  0  0  0
 14 11  1  0  0  0  0
 14 15  1  0  0  0  0
 15 10  1  0  0  0  0
 16 13  1  0  0  0  0
 17 12  2  0  0  0  0
 17 18  1  0  0  0  0
 18 16  2  0  0  0  0
M  END
>  <idnumber>
T5710604

>  <LogP>
2.404000000000000e+000

>  <rotating_bonds>
2.000000000000000e+000

>  <hb_acceptors>
2.000000000000000e+000

>  <hb_donors>
0.000000000000000e+000

>  <PSA>
3.738000000000000e+001

>  <clusterid>
689

>  <is_centroid>
@

>  <class1>
625

>  <class2>
676

>  <population1>
877209

>  <population2>
401

>  <population>
338

>  <cansmi>
O=C1CC2(C(=O)N1Cc1ccccc1)CCCC2

>  <HBA2>
3

>  <HBD>
0

>  <logP>
2.4438

>  <TPSA>
37.38

>  <MW>
243.301

$$$$

 OpenBabel02121609142D

 22 24  0  0  0  0  0  0  0  0999 V2000
   -1.7333   -0.5000    0.0000 C   0  0  0  0  0  0  0  0  0  0  0  0
   -0.8708   -1.0000    0.0000 N   0  0  0  0  0  0  0  0  0  0  0  0
    0.8625   -2.0000    0.0000 N   0  0  0  0  0  0  0  0  0  0  0  0
   -1.7333    0.5000    0.0000 N   0  0  0  0  0  0  0  0  0  0  0  0
   -0.8708   -2.0000    0.0000 C   0  0  0  0  0  0  0  0  0  0  0  0
    0.0000   -0.5000    0.0000 C   0  0  0  0  0  0  0  0  0  0  0  0
   -2.6000   -1.0000    0.0000 O   0  0  0  0  0  0  0  0  0  0  0  0
    0.8625   -1.0000    0.0000 C   0  0  0  0  0  0  0  0  0  0  0  0
    0.0000   -2.5000    0.0000 C   0  0  0  0  0  0  0  0  0  0  0  0
   -3.4708    2.5000    0.0000 N   0  0  0  0  0  0  0  0  0  0  0  0
    1.7292   -2.5000    0.0000 C   0  0  0  0  0  0  0  0  0  0  0  0
   -2.6000    1.0000    0.0000 C   0  0  0  0  0  0  0  0  0  0  0  0
   -2.6000    2.0083    0.0000 C   0  0  0  0  0  0  0  0  0  0  0  0
   -3.4708    3.5000    0.0000 C   0  0  0  0  0  0  0  0  0  0  0  0
    1.7292   -3.5000    0.0000 C   0  0  0  0  0  0  0  0  0  0  0  0
    2.5917   -2.0000    0.0000 C   0  0  0  0  0  0  0  0  0  0  0  0
   -1.7333    2.5000    0.0000 C   0  0  0  0  0  0  0  0  0  0  0  0
   -2.6000    4.0000    0.0000 C   0  0  0  0  0  0  0  0  0  0  0  0
    3.4625   -2.5000    0.0000 C   0  0  0  0  0  0  0  0  0  0  0  0
    2.5917   -4.0000    0.0000 C   0  0  0  0  0  0  0  0  0  0  0  0
   -1.7333    3.5000    0.0000 C   0  0  0  0  0  0  0  0  0  0  0  0
    3.4625   -3.5000    0.0000 C   0  0  0  0  0  0  0  0  0  0  0  0
  2  1  1  0  0  0  0
  3  8  1  0  0  0  0
  4  1  1  0  0  0  0
  5  2  1  0  0  0  0
  6  2  1  0  0  0  0
  7  1  2  0  0  0  0
  8  6  1  0  0  0  0
  9  5  1  0  0  0  0
  9  3  1  0  0  0  0
 10 13  2  0  0  0  0
 11  3  1  0  0  0  0
 12  4  1  0  0  0  0
 13 12  1  0  0  0  0
 14 10  1  0  0  0  0
 14 18  2  0  0  0  0
 15 11  1  0  0  0  0
 16 11  2  0  0  0  0
 17 13  1  0  0  0  0
 18 21  1  0  0  0  0
 19 16  1  0  0  0  0
 20 15  2  0  0  0  0
 20 22  1  0  0  0  0
 21 17  2  0  0  0  0
 22 19  2  0  0  0  0
M  END
>  <idnumber>
T5710737

>  <LogP>
1.118000000000000e+000

>  <rotating_bonds>
3.000000000000000e+000

>  <hb_acceptors>
3.000000000000000e+000

>  <hb_donors>
1.000000000000000e+000

>  <PSA>
4.847000000000000e+001

>  <clusterid>
-1205

>  <is_centroid>
@

>  <class1>
717

>  <class2>
625

>  <class3>
632

>  <population1>
74368

>  <population2>
877209

>  <population3>
79489

>  <population>
5587

>  <cansmi>
O=C(N1CCN(CC1)c1ccccc1)NCc1ccccn1

>  <HBA2>
5

>  <HBD>
1

>  <logP>
2.5072

>  <TPSA>
48.47

>  <MW>
296.367

$$$$

 OpenBabel02121609142D

 22 24  0  0  0  0  0  0  0  0999 V2000
    0.8625    1.2500    0.0000 C   0  0  0  0  0  0  0  0  0  0  0  0
    0.8625    0.2583    0.0000 N   0  0  0  0  0  0  0  0  0  0  0  0
    0.0000    1.7583    0.0000 N   0  0  0  0  0  0  0  0  0  0  0  0
    0.8625   -1.7417    0.0000 N   0  0  0  0  0  0  0  0  0  0  0  0
    1.7292    1.7583    0.0000 O   0  0  0  0  0  0  0  0  0  0  0  0
    0.0000   -0.2417    0.0000 C   0  0  0  0  0  0  0  0  0  0  0  0
    1.7292   -0.2417    0.0000 C   0  0  0  0  0  0  0  0  0  0  0  0
   -0.8708    4.2500    0.0000 N   0  0  0  0  0  0  0  0  0  0  0  0
    0.8625   -2.7500    0.0000 C   0  0  0  0  0  0  0  0  0  0  0  0
    1.7292   -1.2500    0.0000 C   0  0  0  0  0  0  0  0  0  0  0  0
    0.0000   -1.2500    0.0000 C   0  0  0  0  0  0  0  0  0  0  0  0
    0.0000    2.7500    0.0000 C   0  0  0  0  0  0  0  0  0  0  0  0
    0.0000   -3.2500    0.0000 C   0  0  0  0  0  0  0  0  0  0  0  0
   -0.8708    3.2500    0.0000 C   0  0  0  0  0  0  0  0  0  0  0  0
    0.0000    4.7500    0.0000 C   0  0  0  0  0  0  0  0  0  0  0  0
    0.8625    3.2500    0.0000 C   0  0  0  0  0  0  0  0  0  0  0  0
   -0.8708   -2.7500    0.0000 C   0  0  0  0  0  0  0  0  0  0  0  0
    0.0000   -4.2500    0.0000 C   0  0  0  0  0  0  0  0  0  0  0  0
    0.8625    4.2500    0.0000 C   0  0  0  0  0  0  0  0  0  0  0  0
   -0.8708   -4.7500    0.0000 C   0  0  0  0  0  0  0  0  0  0  0  0
   -1.7333   -3.2500    0.0000 C   0  0  0  0  0  0  0  0  0  0  0  0
   -1.7333   -4.2500    0.0000 C   0  0  0  0  0  0  0  0  0  0  0  0
  2  1  1  0  0  0  0
  3  1  1  0  0  0  0
  4 10  1  0  0  0  0
  5  1  2  0  0  0  0
  6  2  1  0  0  0  0
  7  2  1  0  0  0  0
  8 14  1  0  0  0  0
  8 15  2  0  0  0  0
  9  4  1  0  0  0  0
 10  7  1  0  0  0  0
 11  6  1  0  0  0  0
 11  4  1  0  0  0  0
 12  3  1  0  0  0  0
 13  9  1  0  0  0  0
 14 12  2  0  0  0  0
 15 19  1  0  0  0  0
 16 12  1  0  0  0  0
 17 13  1  0  0  0  0
 18 13  2  0  0  0  0
 19 16  2  0  0  0  0
 20 18  1  0  0  0  0
 21 17  2  0  0  0  0
 21 22  1  0  0  0  0
 22 20  2  0  0  0  0
M  END
>  <idnumber>
T5710814

>  <LogP>
2.565000000000000e+000

>  <rotating_bonds>
3.000000000000000e+000

>  <hb_acceptors>
3.000000000000000e+000

>  <hb_donors>
1.000000000000000e+000

>  <PSA>
4.847000000000000e+001

>  <clusterid>
-1206

>  <is_centroid>
@

>  <class1>
625

>  <class2>
717

>  <class3>
632

>  <population1>
877209

>  <population2>
74368

>  <population3>
79489

>  <population>
5587

>  <cansmi>
O=C(N1CCN(CC1)Cc1ccccc1)Nc1cccnc1

>  <HBA2>
5

>  <HBD>
1

>  <logP>
2.3801

>  <TPSA>
48.47

>  <MW>
296.367

$$$$

 OpenBabel02121609142D

 18 20  0  0  0  0  0  0  0  0999 V2000
   -0.3583    0.1083    0.0000 C   0  0  0  0  0  0  0  0  0  0  0  0
   -1.2250   -0.3917    0.0000 N   0  0  0  0  0  0  0  0  0  0  0  0
    0.5042   -0.3917    0.0000 C   0  0  0  0  0  0  0  0  0  0  0  0
   -1.2250    1.6083    0.0000 N   0  0  0  0  0  0  0  0  0  0  0  0
    1.3667    0.1083    0.0000 N   0  0  0  0  0  0  0  0  0  0  0  0
   -2.0958    0.1083    0.0000 C   0  0  0  0  0  0  0  0  0  0  0  0
   -0.3583    1.1083    0.0000 C   0  0  0  0  0  0  0  0  0  0  0  0
    0.5042   -1.3917    0.0000 O   0  0  0  0  0  0  0  0  0  0  0  0
   -2.0958    1.1083    0.0000 C   0  0  0  0  0  0  0  0  0  0  0  0
    2.2375   -0.3917    0.0000 C   0  0  0  0  0  0  0  0  0  0  0  0
   -2.9583   -0.3917    0.0000 C   0  0  0  0  0  0  0  0  0  0  0  0
   -2.9583    1.6083    0.0000 C   0  0  0  0  0  0  0  0  0  0  0  0
    2.3417   -1.3917    0.0000 C   0  0  0  0  0  0  0  0  0  0  0  0
    3.1500    0.0083    0.0000 C   0  0  0  0  0  0  0  0  0  0  0  0
   -3.8250    0.1083    0.0000 C   0  0  0  0  0  0  0  0  0  0  0  0
   -3.8250    1.1083    0.0000 C   0  0  0  0  0  0  0  0  0  0  0  0
    3.8167   -0.7292    0.0000 C   0  0  0  0  0  0  0  0  0  0  0  0
    3.3167   -1.6000    0.0000 C   0  0  0  0  0  0  0  0  0  0  0  0
  2  1  2  0  0  0  0
  3  1  1  0  0  0  0
  4  7  2  0  0  0  0
  5  3  1  0  0  0  0
  6  2  1  0  0  0  0
  6  9  2  0  0  0  0
  7  1  1  0  0  0  0
  8  3  2  0  0  0  0
  9  4  1  0  0  0  0
 10  5  1  0  0  0  0
 11  6  1  0  0  0  0
 12  9  1  0  0  0  0
 13 10  1  0  0  0  0
 14 10  1  0  0  0  0
 15 11  2  0  0  0  0
 16 12  2  0  0  0  0
 16 15  1  0  0  0  0
 17 14  1  0  0  0  0
 18 13  1  0  0  0  0
 18 17  1  0  0  0  0
M  END
>  <idnumber>
T5711490

>  <LogP>
2.741000000000000e+000

>  <rotating_bonds>
2.000000000000000e+000

>  <hb_acceptors>
3.000000000000000e+000

>  <hb_donors>
1.000000000000000e+000

>  <PSA>
5.488000000000000e+001

>  <clusterid>
551

>  <is_centroid>
@

>  <class1>
674

>  <class2>
821

>  <population1>
16474

>  <population2>
4380

>  <population>
28

>  <cansmi>
O=C(c1cnc2c(n1)cccc2)NC1CCCC1

>  <HBA2>
4

>  <HBD>
1

>  <logP>
2.6931

>  <TPSA>
54.88

>  <MW>
241.288

$$$$

 OpenBabel02121609142D

 18 20  0  0  0  0  0  0  0  0999 V2000
    0.0000    0.0000    0.0000 N   0  0  0  0  0  0  0  0  0  0  0  0
    0.0000    1.0000    0.0000 N   0  0  0  0  0  0  0  0  0  0  0  0
   -0.8708   -0.5000    0.0000 C   0  0  0  0  0  0  0  0  0  0  0  0
   -0.8708    1.5000    0.0000 N   0  0  0  0  0  0  0  0  0  0  0  0
   -1.7333    0.0000    0.0000 C   0  0  0  0  0  0  0  0  0  0  0  0
   -1.7333    1.0000    0.0000 C   0  0  0  0  0  0  0  0  0  0  0  0
    0.8625   -0.5000    0.0000 C   0  0  0  0  0  0  0  0  0  0  0  0
   -0.8708   -1.5000    0.0000 O   0  0  0  0  0  0  0  0  0  0  0  0
   -2.6000   -0.5000    0.0000 C   0  0  0  0  0  0  0  0  0  0  0  0
    1.7292    0.0000    0.0000 C   0  0  0  0  0  0  0  0  0  0  0  0
   -2.6000    1.5000    0.0000 C   0  0  0  0  0  0  0  0  0  0  0  0
    2.5917   -0.5000    0.0000 C   0  0  0  0  0  0  0  0  0  0  0  0
    1.7292    1.0000    0.0000 C   0  0  0  0  0  0  0  0  0  0  0  0
   -3.4708    0.0000    0.0000 C   0  0  0  0  0  0  0  0  0  0  0  0
   -3.4708    1.0000    0.0000 C   0  0  0  0  0  0  0  0  0  0  0  0
    2.5917    1.5000    0.0000 C   0  0  0  0  0  0  0  0  0  0  0  0
    3.4625    0.0000    0.0000 C   0  0  0  0  0  0  0  0  0  0  0  0
    3.4625    1.0000    0.0000 C   0  0  0  0  0  0  0  0  0  0  0  0
  2  1  1  0  0  0  0
  3  1  1  0  0  0  0
  4  2  2  0  0  0  0
  4  6  1  0  0  0  0
  5  3  1  0  0  0  0
  6  5  2  0  0  0  0
  7  1  1  0  0  0  0
  8  3  2  0  0  0  0
  9  5  1  0  0  0  0
 10  7  1  0  0  0  0
 11  6  1  0  0  0  0
 12 10  1  0  0  0  0
 13 10  2  0  0  0  0
 14  9  2  0  0  0  0
 15 14  1  0  0  0  0
 15 11  2  0  0  0  0
 16 13  1  0  0  0  0
 17 12  2  0  0  0  0
 17 18  1  0  0  0  0
 18 16  2  0  0  0  0
M  END
>  <idnumber>
T5711740

>  <LogP>
2.602000000000000e+000

>  <rotating_bonds>
2.000000000000000e+000

>  <hb_acceptors>
3.000000000000000e+000

>  <hb_donors>
0.000000000000000e+000

>  <PSA>
4.503000000000000e+001

>  <clusterid>
-1210

>  <is_centroid>
@

>  <class1>
625

>  <class2>
773

>  <population1>
877209

>  <population2>
1392

>  <population>
1392

>  <cansmi>
O=c1n(nnc2c1cccc2)Cc1ccccc1

>  <HBA2>
4

>  <HBD>
0

>  <logP>
1.8398

>  <TPSA>
47.78

>  <MW>
237.257

$$$$

 OpenBabel02121609142D

 22 24  0  0  0  0  0  0  0  0999 V2000
   -0.7958    0.4333    0.0000 N   0  0  0  0  0  0  0  0  0  0  0  0
    1.7042   -0.4292    0.0000 C   0  0  0  0  0  0  0  0  0  0  0  0
   -1.3833    1.2458    0.0000 C   0  0  0  0  0  0  0  0  0  0  0  0
   -1.3833   -0.3750    0.0000 C   0  0  0  0  0  0  0  0  0  0  0  0
    2.2917   -1.2417    0.0000 C   0  0  0  0  0  0  0  0  0  0  0  0
    3.2500   -0.9292    0.0000 N   0  0  0  0  0  0  0  0  0  0  0  0
    2.2917    0.3833    0.0000 C   0  0  0  0  0  0  0  0  0  0  0  0
    3.2500    0.0708    0.0000 C   0  0  0  0  0  0  0  0  0  0  0  0
   -2.3333   -0.0667    0.0000 C   0  0  0  0  0  0  0  0  0  0  0  0
   -2.3333    0.9333    0.0000 C   0  0  0  0  0  0  0  0  0  0  0  0
    0.2042    0.4333    0.0000 C   0  0  0  0  0  0  0  0  0  0  0  0
    0.7042   -0.4292    0.0000 C   0  0  0  0  0  0  0  0  0  0  0  0
   -1.0708    2.1958    0.0000 O   0  0  0  0  0  0  0  0  0  0  0  0
   -1.0708   -1.3250    0.0000 O   0  0  0  0  0  0  0  0  0  0  0  0
    0.2042   -1.2917    0.0000 O   0  0  0  0  0  0  0  0  0  0  0  0
    4.0542   -1.5167    0.0000 C   0  0  0  0  0  0  0  0  0  0  0  0
    1.9875   -2.1917    0.0000 C   0  0  0  0  0  0  0  0  0  0  0  0
    4.0542    0.6583    0.0000 C   0  0  0  0  0  0  0  0  0  0  0  0
   -3.1958   -0.5667    0.0000 C   0  0  0  0  0  0  0  0  0  0  0  0
   -3.1958    1.4333    0.0000 C   0  0  0  0  0  0  0  0  0  0  0  0
   -4.0625    0.9333    0.0000 C   0  0  0  0  0  0  0  0  0  0  0  0
   -4.0625   -0.0667    0.0000 C   0  0  0  0  0  0  0  0  0  0  0  0
  2 12  1  0  0  0  0
  3  1  1  0  0  0  0
  4  1  1  0  0  0  0
  5  2  2  0  0  0  0
  6  5  1  0  0  0  0
  7  2  1  0  0  0  0
  8  7  2  0  0  0  0
  8  6  1  0  0  0  0
  9  4  1  0  0  0  0
 10  3  1  0  0  0  0
 10  9  2  0  0  0  0
 11  1  1  0  0  0  0
 12 11  1  0  0  0  0
 13  3  2  0  0  0  0
 14  4  2  0  0  0  0
 15 12  2  0  0  0  0
 16  6  1  0  0  0  0
 17  5  1  0  0  0  0
 18  8  1  0  0  0  0
 19  9  1  0  0  0  0
 20 10  1  0  0  0  0
 21 20  2  0  0  0  0
 21 22  1  0  0  0  0
 22 19  2  0  0  0  0
M  END
>  <idnumber>
T5711743

>  <LogP>
2.810000000000000e+000

>  <rotating_bonds>
3.000000000000000e+000

>  <hb_acceptors>
3.000000000000000e+000

>  <hb_donors>
0.000000000000000e+000

>  <PSA>
5.938000000000002e+001

>  <clusterid>
-1211

>  <is_centroid>
@

>  <class1>
635

>  <class2>
661

>  <population1>
31512

>  <population2>
7628

>  <population>
187

>  <cansmi>
O=C(c1cc(n(c1C)C)C)CN1C(=O)c2c(C1=O)cccc2

>  <HBA2>
5

>  <HBD>
0

>  <logP>
2.0587

>  <TPSA>
59.38

>  <MW>
296.321

$$$$

 OpenBabel02121609142D

 20 22  0  0  0  0  0  0  0  0999 V2000
   -0.8708    1.0250    0.0000 S   0  0  0  0  0  0  0  0  0  0  0  0
    0.0000   -0.4750    0.0000 C   0  0  0  0  0  0  0  0  0  0  0  0
   -0.8708   -0.9750    0.0000 C   0  0  0  0  0  0  0  0  0  0  0  0
   -1.7333    0.5250    0.0000 C   0  0  0  0  0  0  0  0  0  0  0  0
   -1.7333   -0.4750    0.0000 C   0  0  0  0  0  0  0  0  0  0  0  0
    0.0000    0.5250    0.0000 C   0  0  0  0  0  0  0  0  0  0  0  0
    0.8625   -0.9750    0.0000 C   0  0  0  0  0  0  0  0  0  0  0  0
   -1.1625    1.9833    0.0000 O   0  0  0  0  0  0  0  0  0  0  0  0
   -0.5708    1.9833    0.0000 O   0  0  0  0  0  0  0  0  0  0  0  0
   -0.8708   -1.9750    0.0000 O   0  0  0  0  0  0  0  0  0  0  0  0
    1.7292   -0.4750    0.0000 C   0  0  0  0  0  0  0  0  0  0  0  0
   -2.6000   -0.9750    0.0000 C   0  0  0  0  0  0  0  0  0  0  0  0
   -2.6000    1.0250    0.0000 C   0  0  0  0  0  0  0  0  0  0  0  0
    2.5917   -0.9750    0.0000 C   0  0  0  0  0  0  0  0  0  0  0  0
    1.7292    0.5250    0.0000 C   0  0  0  0  0  0  0  0  0  0  0  0
   -3.4708   -0.4750    0.0000 C   0  0  0  0  0  0  0  0  0  0  0  0
   -3.4708    0.5250    0.0000 C   0  0  0  0  0  0  0  0  0  0  0  0
    2.5917    1.0250    0.0000 C   0  0  0  0  0  0  0  0  0  0  0  0
    3.4625   -0.4750    0.0000 C   0  0  0  0  0  0  0  0  0  0  0  0
    3.4625    0.5250    0.0000 C   0  0  0  0  0  0  0  0  0  0  0  0
  2  6  1  0  0  0  0
  3  2  1  0  0  0  0
  4  1  1  0  0  0  0
  5  4  2  0  0  0  0
  5  3  1  0  0  0  0
  6  1  1  0  0  0  0
  7  2  2  0  0  0  0
  8  1  2  0  0  0  0
  9  1  2  0  0  0  0
 10  3  2  0  0  0  0
 11  7  1  0  0  0  0
 12  5  1  0  0  0  0
 12 16  2  0  0  0  0
 13  4  1  0  0  0  0
 14 11  1  0  0  0  0
 15 11  2  0  0  0  0
 16 17  1  0  0  0  0
 17 13  2  0  0  0  0
 18 15  1  0  0  0  0
 19 14  2  0  0  0  0
 19 20  1  0  0  0  0
 20 18  2  0  0  0  0
M  END
>  <idnumber>
T5714438

>  <LogP>
2.563000000000000e+000

>  <rotating_bonds>
1.000000000000000e+000

>  <hb_acceptors>
3.000000000000000e+000

>  <hb_donors>
0.000000000000000e+000

>  <PSA>
5.959000000000000e+001

>  <clusterid>
-1216

>  <is_centroid>
@

>  <class1>
625

>  <class2>
842

>  <population1>
877209

>  <population2>
52

>  <population>
52

>  <cansmi>
O=C1/C(=C/c2ccccc2)/CS(=O)(=O)c2c1cccc2

>  <HBA2>
3

>  <HBD>
0

>  <logP>
3.821

>  <TPSA>
59.59

>  <MW>
284.33

$$$$

 OpenBabel02121609142D

 22 24  0  0  0  0  0  0  0  0999 V2000
    0.0000    1.0000    0.0000 C   0  0  0  0  0  0  0  0  0  0  0  0
    2.5917   -1.5000    0.0000 N   0  0  0  0  0  0  0  0  0  0  0  0
   -0.8708    1.5000    0.0000 C   0  0  0  0  0  0  0  0  0  0  0  0
    0.0000    0.0000    0.0000 N   0  0  0  0  0  0  0  0  0  0  0  0
   -1.7333    1.0000    0.0000 C   0  0  0  0  0  0  0  0  0  0  0  0
   -2.6000    1.5000    0.0000 C   0  0  0  0  0  0  0  0  0  0  0  0
    1.7292   -2.0000    0.0000 C   0  0  0  0  0  0  0  0  0  0  0  0
    2.5917   -0.5000    0.0000 C   0  0  0  0  0  0  0  0  0  0  0  0
    0.8625    1.5000    0.0000 O   0  0  0  0  0  0  0  0  0  0  0  0
   -0.8708    2.5000    0.0000 C   0  0  0  0  0  0  0  0  0  0  0  0
    0.8625   -0.5000    0.0000 C   0  0  0  0  0  0  0  0  0  0  0  0
    1.7292    0.0000    0.0000 C   0  0  0  0  0  0  0  0  0  0  0  0
    0.8625   -1.5000    0.0000 C   0  0  0  0  0  0  0  0  0  0  0  0
   -2.6000    2.5000    0.0000 C   0  0  0  0  0  0  0  0  0  0  0  0
   -1.7333    3.0000    0.0000 C   0  0  0  0  0  0  0  0  0  0  0  0
    3.4625   -2.0000    0.0000 C   0  0  0  0  0  0  0  0  0  0  0  0
   -3.4708    1.0000    0.0000 C   0  0  0  0  0  0  0  0  0  0  0  0
   -3.4708    3.0000    0.0000 C   0  0  0  0  0  0  0  0  0  0  0  0
    4.3292   -1.5000    0.0000 C   0  0  0  0  0  0  0  0  0  0  0  0
    3.4625   -3.0000    0.0000 C   0  0  0  0  0  0  0  0  0  0  0  0
   -4.3333    1.5000    0.0000 C   0  0  0  0  0  0  0  0  0  0  0  0
   -4.3333    2.5000    0.0000 C   0  0  0  0  0  0  0  0  0  0  0  0
  2  7  1  0  0  0  0
  2  8  1  0  0  0  0
  3  1  1  0  0  0  0
  4  1  1  0  0  0  0
  5  3  2  0  0  0  0
  6  5  1  0  0  0  0
  6 14  2  0  0  0  0
  7 13  1  0  0  0  0
  8 12  1  0  0  0  0
  9  1  2  0  0  0  0
 10  3  1  0  0  0  0
 11  4  1  0  0  0  0
 12 11  1  0  0  0  0
 13 11  1  0  0  0  0
 14 15  1  0  0  0  0
 15 10  2  0  0  0  0
 16  2  1  0  0  0  0
 17  6  1  0  0  0  0
 18 14  1  0  0  0  0
 19 16  1  0  0  0  0
 20 16  1  0  0  0  0
 21 17  2  0  0  0  0
 22 18  2  0  0  0  0
 22 21  1  0  0  0  0
M  END
>  <idnumber>
T5714542

>  <LogP>
2.931000000000000e+000

>  <rotating_bonds>
3.000000000000000e+000

>  <hb_acceptors>
2.000000000000000e+000

>  <hb_donors>
1.000000000000000e+000

>  <PSA>
3.234000000000000e+001

>  <clusterid>
283

>  <is_centroid>
@

>  <class1>
796

>  <class2>
639

>  <population1>
21922

>  <population2>
59855

>  <population>
1232

>  <cansmi>
CC(N1CCC(CC1)NC(=O)c1ccc2c(c1)cccc2)C

>  <HBA2>
3

>  <HBD>
1

>  <logP>
3.7712

>  <TPSA>
32.34

>  <MW>
296.407

$$$$

 OpenBabel02121609142D

 19 20  0  0  0  0  0  0  0  0999 V2000
   -0.2125    0.5208    0.0000 C   0  0  0  0  0  0  0  0  0  0  0  0
   -0.8000    1.3250    0.0000 C   0  0  0  0  0  0  0  0  0  0  0  0
    0.7375    0.8250    0.0000 N   0  0  0  0  0  0  0  0  0  0  0  0
   -0.2125    2.1333    0.0000 C   0  0  0  0  0  0  0  0  0  0  0  0
    0.7375    1.8250    0.0000 C   0  0  0  0  0  0  0  0  0  0  0  0
   -0.5208   -0.4292    0.0000 C   0  0  0  0  0  0  0  0  0  0  0  0
    0.1500   -1.1792    0.0000 N   0  0  0  0  0  0  0  0  0  0  0  0
   -0.5208    3.0833    0.0000 C   0  0  0  0  0  0  0  0  0  0  0  0
   -0.1625   -2.1292    0.0000 C   0  0  0  0  0  0  0  0  0  0  0  0
   -1.5000   -0.6417    0.0000 O   0  0  0  0  0  0  0  0  0  0  0  0
   -1.5000    3.2958    0.0000 O   0  0  0  0  0  0  0  0  0  0  0  0
   -1.8000    1.3250    0.0000 C   0  0  0  0  0  0  0  0  0  0  0  0
    1.1250   -0.9667    0.0000 C   0  0  0  0  0  0  0  0  0  0  0  0
    1.5500    2.4125    0.0000 C   0  0  0  0  0  0  0  0  0  0  0  0
    0.5042   -2.8667    0.0000 C   0  0  3  0  0  0  0  0  0  0  0  0
    1.7917   -1.7125    0.0000 C   0  0  0  0  0  0  0  0  0  0  0  0
    0.1500    3.8333    0.0000 C   0  0  0  0  0  0  0  0  0  0  0  0
    1.4875   -2.6667    0.0000 C   0  0  0  0  0  0  0  0  0  0  0  0
    0.2000   -3.8250    0.0000 C   0  0  0  0  0  0  0  0  0  0  0  0
  2  1  2  0  0  0  0
  3  1  1  0  0  0  0
  4  2  1  0  0  0  0
  5  3  1  0  0  0  0
  5  4  2  0  0  0  0
  6  1  1  0  0  0  0
  7  6  1  0  0  0  0
  8  4  1  0  0  0  0
  9  7  1  0  0  0  0
 10  6  2  0  0  0  0
 11  8  2  0  0  0  0
 12  2  1  0  0  0  0
 13  7  1  0  0  0  0
 14  5  1  0  0  0  0
 15  9  1  0  0  0  0
 15 18  1  0  0  0  0
 16 13  1  0  0  0  0
 17  8  1  0  0  0  0
 18 16  1  0  0  0  0
 19 15  1  0  0  0  0
M  END
>  <idnumber>
T5714548

>  <LogP>
1.995000000000000e+000

>  <rotating_bonds>
2.000000000000000e+000

>  <hb_acceptors>
2.000000000000000e+000

>  <hb_donors>
1.000000000000000e+000

>  <PSA>
5.317000000000000e+001

>  <clusterid>
611

>  <is_centroid>
@

>  <class1>
635

>  <class2>
639

>  <population1>
31512

>  <population2>
59855

>  <population>
1063

>  <cansmi>
CC1CCCN(C1)C(=O)c1[nH]c(c(c1C)C(=O)C)C

>  <HBA2>
3

>  <HBD>
1

>  <logP>
2.6441

>  <TPSA>
53.17

>  <MW>
262.347

$$$$

 OpenBabel02121609142D

 15 15  0  0  0  0  0  0  0  0999 V2000
    0.1292   -0.5000    0.0000 C   0  0  0  0  0  0  0  0  0  0  0  0
    0.1292    0.5083    0.0000 N   0  0  0  0  0  0  0  0  0  0  0  0
    1.0000   -1.0000    0.0000 N   0  0  0  0  0  0  0  0  0  0  0  0
   -0.7333   -1.0000    0.0000 O   0  0  0  0  0  0  0  0  0  0  0  0
    2.7292   -2.0000    0.0000 N   0  0  0  0  0  0  0  0  0  0  0  0
   -2.7333   -0.1042    0.0000 Cl  0  0  0  0  0  0  0  0  0  0  0  0
    1.0000   -2.0000    0.0000 C   0  0  0  0  0  0  0  0  0  0  0  0
    1.8625   -0.5000    0.0000 C   0  0  0  0  0  0  0  0  0  0  0  0
    1.0000    1.0000    0.0000 C   0  0  0  0  0  0  0  0  0  0  0  0
   -0.7333    1.0000    0.0000 C   0  0  0  0  0  0  0  0  0  0  0  0
    2.7292   -1.0000    0.0000 C   0  0  0  0  0  0  0  0  0  0  0  0
    1.8625   -2.5000    0.0000 C   0  0  0  0  0  0  0  0  0  0  0  0
   -0.7333    2.0000    0.0000 C   0  0  0  0  0  0  0  0  0  0  0  0
    1.0000    2.0000    0.0000 C   0  0  0  0  0  0  0  0  0  0  0  0
    0.1292    2.5000    0.0000 C   0  0  0  0  0  0  0  0  0  0  0  0
  2  1  1  0  0  0  0
  3  1  1  0  0  0  0
  4  1  2  0  0  0  0
  5 11  1  0  0  0  0
  7  3  1  0  0  0  0
  8  3  1  0  0  0  0
  9  2  1  0  0  0  0
 10  2  1  0  0  0  0
 11  8  1  0  0  0  0
 12  7  1  0  0  0  0
 12  5  1  0  0  0  0
 13 10  1  0  0  0  0
 14  9  1  0  0  0  0
 14 15  1  0  0  0  0
 15 13  1  0  0  0  0
M  END
>  <idnumber>
T5715059

>  <LogP>
1.415000000000000e+000

>  <rotating_bonds>
0.000000000000000e+000

>  <hb_acceptors>
2.000000000000000e+000

>  <hb_donors>
1.000000000000000e+000

>  <PSA>
3.558000000000000e+001

>  <clusterid>
-1221

>  <is_centroid>
@

>  <class1>
717

>  <class2>
639

>  <population1>
74368

>  <population2>
59855

>  <population>
1964

>  <cansmi>
O=C(N1CCNCC1)N1CCCCC1.Cl

>  <HBA2>
4

>  <HBD>
2

>  <logP>
1.5041

>  <TPSA>
35.58

>  <MW>
233.738

$$$$

 OpenBabel02121609142D

 19 21  0  0  0  0  0  0  0  0999 V2000
    0.4292   -1.4167    0.0000 N   0  0  0  0  0  0  0  0  0  0  0  0
    0.4792    1.2333    0.0000 N   0  0  0  0  0  0  0  0  0  0  0  0
    0.1250   -0.4667    0.0000 C   0  0  0  0  0  0  0  0  0  0  0  0
    1.3792   -1.7250    0.0000 C   0  0  0  0  0  0  0  0  0  0  0  0
    0.7917    0.2833    0.0000 C   0  0  0  0  0  0  0  0  0  0  0  0
   -0.4708    1.5375    0.0000 C   0  0  0  0  0  0  0  0  0  0  0  0
    1.0667    2.0375    0.0000 C   0  0  3  0  0  0  0  0  0  0  0  0
   -0.4708    2.5375    0.0000 C   0  0  0  0  0  0  0  0  0  0  0  0
    1.3792   -2.7250    0.0000 N   0  0  0  0  0  0  0  0  0  0  0  0
    0.4792    2.8458    0.0000 C   0  0  0  0  0  0  0  0  0  0  0  0
    2.1917   -1.1375    0.0000 O   0  0  0  0  0  0  0  0  0  0  0  0
   -0.8583   -0.2542    0.0000 O   0  0  0  0  0  0  0  0  0  0  0  0
   -0.1583   -2.2250    0.0000 C   0  0  0  0  0  0  0  0  0  0  0  0
    0.4292   -3.0292    0.0000 C   0  0  0  0  0  0  0  0  0  0  0  0
   -1.3333    1.0375    0.0000 C   0  0  0  0  0  0  0  0  0  0  0  0
   -1.3333    3.0458    0.0000 C   0  0  0  0  0  0  0  0  0  0  0  0
    2.0667    2.0375    0.0000 C   0  0  0  0  0  0  0  0  0  0  0  0
   -2.2000    1.5375    0.0000 C   0  0  0  0  0  0  0  0  0  0  0  0
   -2.2000    2.5375    0.0000 C   0  0  0  0  0  0  0  0  0  0  0  0
  2  5  1  0  0  0  0
  3  1  1  0  0  0  0
  4  1  1  0  0  0  0
  5  3  1  0  0  0  0
  6  2  1  0  0  0  0
  7  2  1  0  0  0  0
  8  6  2  0  0  0  0
  9  4  1  0  0  0  0
 10  7  1  0  0  0  0
 10  8  1  0  0  0  0
 11  4  2  0  0  0  0
 12  3  2  0  0  0  0
 13  1  1  0  0  0  0
 14 13  1  0  0  0  0
 14  9  1  0  0  0  0
 15  6  1  0  0  0  0
 16  8  1  0  0  0  0
 16 19  2  0  0  0  0
 17  7  1  0  0  0  0
 18 15  2  0  0  0  0
 19 18  1  0  0  0  0
M  END
>  <idnumber>
T5715175

>  <LogP>
2.148000000000000e+000

>  <rotating_bonds>
2.000000000000000e+000

>  <hb_acceptors>
3.000000000000000e+000

>  <hb_donors>
1.000000000000000e+000

>  <PSA>
5.265000000000000e+001

>  <clusterid>
695

>  <is_centroid>
@

>  <class1>
732

>  <class2>
798

>  <population1>
13534

>  <population2>
25583

>  <population>
174

>  <cansmi>
CC1Cc2c(N1CC(=O)N1CCNC1=O)cccc2

>  <HBA2>
5

>  <HBD>
1

>  <logP>
1.3211

>  <TPSA>
52.65

>  <MW>
259.304

$$$$

 OpenBabel02121609142D

 19 21  0  0  0  0  0  0  0  0999 V2000
   -1.1625    0.7208    0.0000 N   0  0  0  0  0  0  0  0  0  0  0  0
   -0.8583   -0.2292    0.0000 C   0  0  0  0  0  0  0  0  0  0  0  0
    0.1250   -0.4375    0.0000 C   0  0  0  0  0  0  0  0  0  0  0  0
    0.5292   -1.3500    0.0000 O   0  0  0  0  0  0  0  0  0  0  0  0
   -2.1125    1.0333    0.0000 C   0  0  0  0  0  0  0  0  0  0  0  0
    0.8667    0.2333    0.0000 C   0  0  0  0  0  0  0  0  0  0  0  0
   -0.5750    1.5333    0.0000 C   0  0  0  0  0  0  0  0  0  0  0  0
    1.5250   -1.2417    0.0000 C   0  0  0  0  0  0  0  0  0  0  0  0
    1.7292   -0.2667    0.0000 C   0  0  0  0  0  0  0  0  0  0  0  0
   -1.5250   -0.9750    0.0000 O   0  0  0  0  0  0  0  0  0  0  0  0
   -2.1125    2.0333    0.0000 C   0  0  0  0  0  0  0  0  0  0  0  0
   -1.1625    2.3375    0.0000 C   0  0  0  0  0  0  0  0  0  0  0  0
    3.1667   -1.7792    0.0000 S   0  0  0  0  0  0  0  0  0  0  0  0
    2.1917   -1.9917    0.0000 C   0  0  0  0  0  0  0  0  0  0  0  0
   -2.9833    0.5333    0.0000 C   0  0  0  0  0  0  0  0  0  0  0  0
   -2.9833    2.5333    0.0000 C   0  0  0  0  0  0  0  0  0  0  0  0
    3.8417   -2.5250    0.0000 C   0  0  0  0  0  0  0  0  0  0  0  0
   -3.8458    1.0333    0.0000 C   0  0  0  0  0  0  0  0  0  0  0  0
   -3.8458    2.0333    0.0000 C   0  0  0  0  0  0  0  0  0  0  0  0
  2  1  1  0  0  0  0
  3  2  1  0  0  0  0
  4  3  1  0  0  0  0
  5  1  1  0  0  0  0
  6  3  2  0  0  0  0
  7  1  1  0  0  0  0
  8  4  1  0  0  0  0
  8  9  2  0  0  0  0
  9  6  1  0  0  0  0
 10  2  2  0  0  0  0
 11  5  2  0  0  0  0
 12  7  1  0  0  0  0
 12 11  1  0  0  0  0
 13 14  1  0  0  0  0
 14  8  1  0  0  0  0
 15  5  1  0  0  0  0
 16 11  1  0  0  0  0
 16 19  2  0  0  0  0
 17 13  1  0  0  0  0
 18 15  2  0  0  0  0
 19 18  1  0  0  0  0
M  END
>  <idnumber>
T5715687

>  <LogP>
2.515000000000000e+000

>  <rotating_bonds>
3.000000000000000e+000

>  <hb_acceptors>
2.000000000000000e+000

>  <hb_donors>
0.000000000000000e+000

>  <PSA>
5.875000000000000e+001

>  <clusterid>
-1225

>  <is_centroid>
@

>  <class1>
704

>  <class2>
732

>  <population1>
51112

>  <population2>
13534

>  <population>
413

>  <cansmi>
CSCc1ccc(o1)C(=O)N1CCc2c1cccc2

>  <HBA2>
4

>  <HBD>
0

>  <logP>
3.4105

>  <TPSA>
58.75

>  <MW>
273.35

$$$$

 OpenBabel02121609142D

 20 22  0  0  0  0  0  0  0  0999 V2000
    0.0000   -2.2292    0.0000 N   0  0  0  0  0  0  0  0  0  0  0  0
   -0.6708   -1.4917    0.0000 C   0  0  0  0  0  0  0  0  0  0  0  0
    0.5667    2.3125    0.0000 N   0  0  0  0  0  0  0  0  0  0  0  0
   -0.0208    3.1208    0.0000 N   0  0  0  0  0  0  0  0  0  0  0  0
   -0.3625   -0.5375    0.0000 C   0  0  0  0  0  0  0  0  0  0  0  0
    0.2542    1.3625    0.0000 C   0  0  0  0  0  0  0  0  0  0  0  0
    1.5167    2.6250    0.0000 C   0  0  0  0  0  0  0  0  0  0  0  0
    1.5167    3.6208    0.0000 C   0  0  0  0  0  0  0  0  0  0  0  0
   -1.6500   -1.7000    0.0000 O   0  0  0  0  0  0  0  0  0  0  0  0
   -0.3125   -3.1792    0.0000 C   0  0  3  0  0  0  0  0  0  0  0  0
    0.5667    3.9333    0.0000 C   0  0  0  0  0  0  0  0  0  0  0  0
   -1.0333    0.2083    0.0000 C   0  0  0  0  0  0  0  0  0  0  0  0
    0.6167   -0.3292    0.0000 C   0  0  0  0  0  0  0  0  0  0  0  0
    0.9250    0.6208    0.0000 C   0  0  0  0  0  0  0  0  0  0  0  0
   -0.7208    1.1583    0.0000 C   0  0  0  0  0  0  0  0  0  0  0  0
    0.9750   -2.0250    0.0000 C   0  0  0  0  0  0  0  0  0  0  0  0
   -1.2875   -3.3917    0.0000 C   0  0  0  0  0  0  0  0  0  0  0  0
    0.3542   -3.9292    0.0000 C   0  0  0  0  0  0  0  0  0  0  0  0
    1.6417   -2.7667    0.0000 C   0  0  0  0  0  0  0  0  0  0  0  0
    1.3375   -3.7167    0.0000 C   0  0  0  0  0  0  0  0  0  0  0  0
  2  1  1  0  0  0  0
  3  6  1  0  0  0  0
  4  3  1  0  0  0  0
  5  2  1  0  0  0  0
  6 14  1  0  0  0  0
  7  3  1  0  0  0  0
  8  7  2  0  0  0  0
  8 11  1  0  0  0  0
  9  2  2  0  0  0  0
 10  1  1  0  0  0  0
 11  4  2  0  0  0  0
 12  5  2  0  0  0  0
 13  5  1  0  0  0  0
 14 13  2  0  0  0  0
 15 12  1  0  0  0  0
 15  6  2  0  0  0  0
 16  1  1  0  0  0  0
 17 10  1  0  0  0  0
 18 10  1  0  0  0  0
 18 20  1  0  0  0  0
 19 16  1  0  0  0  0
 20 19  1  0  0  0  0
M  END
>  <idnumber>
T5716196

>  <LogP>
2.849000000000000e+000

>  <rotating_bonds>
2.000000000000000e+000

>  <hb_acceptors>
2.000000000000000e+000

>  <hb_donors>
0.000000000000000e+000

>  <PSA>
3.813000000000000e+001

>  <clusterid>
-1226

>  <is_centroid>
@

>  <class1>
631

>  <class2>
625

>  <class3>
639

>  <population1>
41612

>  <population2>
877209

>  <population3>
59855

>  <population>
1579

>  <cansmi>
CC1CCCCN1C(=O)c1ccc(cc1)n1cccn1

>  <HBA2>
4

>  <HBD>
0

>  <logP>
2.8248

>  <TPSA>
38.13

>  <MW>
269.342

$$$$

 OpenBabel02121609142D

 16 18  0  0  0  0  0  0  0  0999 V2000
    0.0417    0.5000    0.0000 C   0  0  0  0  0  0  0  0  0  0  0  0
    0.6292   -0.3042    0.0000 C   0  0  0  0  0  0  0  0  0  0  0  0
    0.6292    1.3125    0.0000 S   0  0  0  0  0  0  0  0  0  0  0  0
    1.5792    0.0000    0.0000 C   0  0  0  0  0  0  0  0  0  0  0  0
   -0.9583    0.5000    0.0000 C   0  0  0  0  0  0  0  0  0  0  0  0
    1.5792    1.0000    0.0000 C   0  0  0  0  0  0  0  0  0  0  0  0
   -1.4583   -0.3625    0.0000 N   0  0  0  0  0  0  0  0  0  0  0  0
   -2.4583   -0.3625    0.0000 C   0  0  0  0  0  0  0  0  0  0  0  0
   -3.3208    0.1375    0.0000 C   0  0  0  0  0  0  0  0  0  0  0  0
   -3.3208   -0.8625    0.0000 C   0  0  0  0  0  0  0  0  0  0  0  0
    2.4417   -0.5000    0.0000 C   0  0  0  0  0  0  0  0  0  0  0  0
   -1.4583    1.3708    0.0000 O   0  0  0  0  0  0  0  0  0  0  0  0
    2.4417   -1.5000    0.0000 F   0  0  0  0  0  0  0  0  0  0  0  0
    2.4417    1.5000    0.0000 C   0  0  0  0  0  0  0  0  0  0  0  0
    3.3167    1.0000    0.0000 C   0  0  0  0  0  0  0  0  0  0  0  0
    3.3167    0.0000    0.0000 C   0  0  0  0  0  0  0  0  0  0  0  0
  2  1  2  0  0  0  0
  3  1  1  0  0  0  0
  4  2  1  0  0  0  0
  5  1  1  0  0  0  0
  6  3  1  0  0  0  0
  6  4  1  0  0  0  0
  7  5  1  0  0  0  0
  8  7  1  0  0  0  0
  9  8  1  0  0  0  0
  9 10  1  0  0  0  0
 10  8  1  0  0  0  0
 11  4  2  0  0  0  0
 12  5  2  0  0  0  0
 13 11  1  0  0  0  0
 14  6  2  0  0  0  0
 15 14  1  0  0  0  0
 16 11  1  0  0  0  0
 16 15  2  0  0  0  0
M  END
>  <idnumber>
T5716504

>  <LogP>
2.641000000000000e+000

>  <rotating_bonds>
2.000000000000000e+000

>  <hb_acceptors>
3.000000000000000e+000

>  <hb_donors>
1.000000000000000e+000

>  <PSA>
5.734000000000000e+001

>  <clusterid>
654

>  <is_centroid>
@

>  <class1>
675

>  <class2>
825

>  <population1>
33654

>  <population2>
3362

>  <population>
56

>  <cansmi>
O=C(c1sc2c(c1)c(F)ccc2)NC1CC1

>  <HBA2>
3

>  <HBD>
1

>  <logP>
3.3235

>  <TPSA>
57.34

>  <MW>
235.277

$$$$

 OpenBabel02121609142D

 22 24  0  0  0  0  0  0  0  0999 V2000
   -1.3000    0.7500    0.0000 C   0  0  0  0  0  0  0  0  0  0  0  0
   -0.4333    0.2500    0.0000 N   0  0  0  0  0  0  0  0  0  0  0  0
    1.2917   -0.7500    0.0000 N   0  0  0  0  0  0  0  0  0  0  0  0
   -1.3000    1.7500    0.0000 N   0  0  0  0  0  0  0  0  0  0  0  0
    2.1625   -1.2500    0.0000 C   0  0  0  0  0  0  0  0  0  0  0  0
   -2.1708    0.2500    0.0000 O   0  0  0  0  0  0  0  0  0  0  0  0
   -0.4333   -0.7500    0.0000 C   0  0  0  0  0  0  0  0  0  0  0  0
    0.4292    0.7500    0.0000 C   0  0  0  0  0  0  0  0  0  0  0  0
    0.4292   -1.2500    0.0000 C   0  0  0  0  0  0  0  0  0  0  0  0
    1.2917    0.2500    0.0000 C   0  0  0  0  0  0  0  0  0  0  0  0
    2.1625   -2.2500    0.0000 C   0  0  0  0  0  0  0  0  0  0  0  0
   -3.9000    2.2500    0.0000 N   0  0  0  0  0  0  0  0  0  0  0  0
   -2.1708    2.2500    0.0000 C   0  0  0  0  0  0  0  0  0  0  0  0
    3.0292   -2.7500    0.0000 C   0  0  0  0  0  0  0  0  0  0  0  0
   -3.0333    1.7500    0.0000 C   0  0  0  0  0  0  0  0  0  0  0  0
    3.0292   -0.7500    0.0000 C   0  0  0  0  0  0  0  0  0  0  0  0
    3.8917   -1.2500    0.0000 C   0  0  0  0  0  0  0  0  0  0  0  0
   -3.9000    3.2500    0.0000 C   0  0  0  0  0  0  0  0  0  0  0  0
    3.8917   -2.2500    0.0000 C   0  0  0  0  0  0  0  0  0  0  0  0
   -2.1708    3.2500    0.0000 C   0  0  0  0  0  0  0  0  0  0  0  0
    3.0292   -3.7500    0.0000 C   0  0  0  0  0  0  0  0  0  0  0  0
   -3.0333    3.7500    0.0000 C   0  0  0  0  0  0  0  0  0  0  0  0
  2  1  1  0  0  0  0
  3 10  1  0  0  0  0
  4  1  1  0  0  0  0
  5  3  1  0  0  0  0
  6  1  2  0  0  0  0
  7  2  1  0  0  0  0
  8  2  1  0  0  0  0
  9  7  1  0  0  0  0
  9  3  1  0  0  0  0
 10  8  1  0  0  0  0
 11  5  1  0  0  0  0
 12 15  1  0  0  0  0
 12 18  2  0  0  0  0
 13  4  1  0  0  0  0
 14 11  2  0  0  0  0
 14 19  1  0  0  0  0
 15 13  2  0  0  0  0
 16  5  2  0  0  0  0
 17 16  1  0  0  0  0
 18 22  1  0  0  0  0
 19 17  2  0  0  0  0
 20 13  1  0  0  0  0
 21 14  1  0  0  0  0
 22 20  2  0  0  0  0
M  END
>  <idnumber>
T5719897

>  <LogP>
1.970000000000000e+000

>  <rotating_bonds>
2.000000000000000e+000

>  <hb_acceptors>
3.000000000000000e+000

>  <hb_donors>
1.000000000000000e+000

>  <PSA>
4.847000000000000e+001

>  <clusterid>
696

>  <is_centroid>
@

>  <class1>
717

>  <class2>
625

>  <class3>
632

>  <population1>
74368

>  <population2>
877209

>  <population3>
79489

>  <population>
5587

>  <cansmi>
Cc1cccc(c1)N1CCN(CC1)C(=O)Nc1cccnc1

>  <HBA2>
5

>  <HBD>
1

>  <logP>
2.82

>  <TPSA>
48.47

>  <MW>
296.367

$$$$

 OpenBabel02121609142D

 21 23  0  0  0  0  0  0  0  0999 V2000
   -1.8250    0.5000    0.0000 N   0  0  0  0  0  0  0  0  0  0  0  0
   -0.9583    1.0083    0.0000 C   0  0  0  0  0  0  0  0  0  0  0  0
   -0.0958    0.5000    0.0000 C   0  0  0  0  0  0  0  0  0  0  0  0
   -0.9583   -1.0000    0.0000 N   0  0  0  0  0  0  0  0  0  0  0  0
   -1.8250   -0.5000    0.0000 C   0  0  0  0  0  0  0  0  0  0  0  0
   -0.0958   -0.5000    0.0000 C   0  0  0  0  0  0  0  0  0  0  0  0
    2.5042   -1.0000    0.0000 C   0  0  0  0  0  0  0  0  0  0  0  0
    0.7667   -1.0000    0.0000 C   0  0  0  0  0  0  0  0  0  0  0  0
    0.7667    1.0083    0.0000 C   0  0  0  0  0  0  0  0  0  0  0  0
    1.6375   -0.5000    0.0000 C   0  0  0  0  0  0  0  0  0  0  0  0
   -0.9583    2.0000    0.0000 O   0  0  0  0  0  0  0  0  0  0  0  0
    1.6375    0.5000    0.0000 C   0  0  0  0  0  0  0  0  0  0  0  0
    2.5042   -2.0000    0.0000 O   0  0  0  0  0  0  0  0  0  0  0  0
   -2.5333    1.2083    0.0000 C   0  0  0  0  0  0  0  0  0  0  0  0
    3.3667   -0.5000    0.0000 O   0  0  0  0  0  0  0  0  0  0  0  0
   -2.5333   -1.2042    0.0000 C   0  0  0  0  0  0  0  0  0  0  0  0
    4.2375   -1.0000    0.0000 C   0  0  0  0  0  0  0  0  0  0  0  0
   -3.5333    1.2083    0.0000 C   0  0  0  0  0  0  0  0  0  0  0  0
   -3.5333   -1.2042    0.0000 C   0  0  0  0  0  0  0  0  0  0  0  0
   -4.2458    0.5000    0.0000 C   0  0  0  0  0  0  0  0  0  0  0  0
   -4.2458   -0.5000    0.0000 C   0  0  0  0  0  0  0  0  0  0  0  0
  2  1  1  0  0  0  0
  3  2  1  0  0  0  0
  3  6  2  0  0  0  0
  4  5  2  0  0  0  0
  5  1  1  0  0  0  0
  6  4  1  0  0  0  0
  7 10  1  0  0  0  0
  8  6  1  0  0  0  0
  9  3  1  0  0  0  0
 10  8  2  0  0  0  0
 10 12  1  0  0  0  0
 11  2  2  0  0  0  0
 12  9  2  0  0  0  0
 13  7  2  0  0  0  0
 14  1  1  0  0  0  0
 15  7  1  0  0  0  0
 16  5  1  0  0  0  0
 17 15  1  0  0  0  0
 18 14  1  0  0  0  0
 19 16  1  0  0  0  0
 19 21  1  0  0  0  0
 20 18  1  0  0  0  0
 21 20  1  0  0  0  0
M  END
>  <idnumber>
T5723282

>  <LogP>
2.747000000000000e+000

>  <rotating_bonds>
2.000000000000000e+000

>  <hb_acceptors>
3.000000000000000e+000

>  <hb_donors>
0.000000000000000e+000

>  <PSA>
5.896999999999999e+001

>  <clusterid>
-1228

>  <is_centroid>
@

>  <class1>
699

>  <population1>
235

>  <population>
235

>  <cansmi>
COC(=O)c1ccc2c(c1)nc1n(c2=O)CCCCCC1

>  <HBA2>
5

>  <HBD>
0

>  <logP>
2.2996

>  <TPSA>
61.19

>  <MW>
286.326

$$$$

 OpenBabel02121609142D

 16 17  0  0  0  0  0  0  0  0999 V2000
    1.2917   -0.2500    0.0000 S   0  0  0  0  0  0  0  0  0  0  0  0
    0.4292    0.2500    0.0000 C   0  0  0  0  0  0  0  0  0  0  0  0
    2.1625   -0.7500    0.0000 N   0  0  0  0  0  0  0  0  0  0  0  0
   -0.4333   -0.2500    0.0000 C   0  0  0  0  0  0  0  0  0  0  0  0
    1.7917    0.6208    0.0000 O   0  0  0  0  0  0  0  0  0  0  0  0
    0.7917   -1.1125    0.0000 O   0  0  0  0  0  0  0  0  0  0  0  0
   -1.3000    0.2500    0.0000 C   0  0  0  0  0  0  0  0  0  0  0  0
   -1.3000    1.2500    0.0000 C   0  0  0  0  0  0  0  0  0  0  0  0
    0.4292    1.2500    0.0000 C   0  0  0  0  0  0  0  0  0  0  0  0
   -0.4333    1.7500    0.0000 C   0  0  0  0  0  0  0  0  0  0  0  0
    2.1625   -1.7500    0.0000 C   0  0  0  0  0  0  0  0  0  0  0  0
    3.0292   -0.2500    0.0000 C   0  0  0  0  0  0  0  0  0  0  0  0
   -2.1708   -0.2500    0.0000 C   0  0  0  0  0  0  0  0  0  0  0  0
   -2.1708    1.7500    0.0000 C   0  0  0  0  0  0  0  0  0  0  0  0
   -3.0333    0.2500    0.0000 C   0  0  0  0  0  0  0  0  0  0  0  0
   -3.0333    1.2500    0.0000 C   0  0  0  0  0  0  0  0  0  0  0  0
  2  1  1  0  0  0  0
  3  1  1  0  0  0  0
  4  2  2  0  0  0  0
  5  1  2  0  0  0  0
  6  1  2  0  0  0  0
  7  4  1  0  0  0  0
  7  8  2  0  0  0  0
  8 10  1  0  0  0  0
  9  2  1  0  0  0  0
 10  9  2  0  0  0  0
 11  3  1  0  0  0  0
 12  3  1  0  0  0  0
 13  7  1  0  0  0  0
 14  8  1  0  0  0  0
 15 13  1  0  0  0  0
 16 14  1  0  0  0  0
 16 15  1  0  0  0  0
M  END
>  <idnumber>
T5723503

>  <LogP>
2.909000000000000e+000

>  <rotating_bonds>
1.000000000000000e+000

>  <hb_acceptors>
3.000000000000000e+000

>  <hb_donors>
0.000000000000000e+000

>  <PSA>
4.576000000000001e+001

>  <clusterid>
-1229

>  <is_centroid>
@

>  <class1>
807

>  <population1>
5384

>  <population>
5384

>  <cansmi>
CN(S(=O)(=O)c1ccc2c(c1)CCCC2)C

>  <HBA2>
3

>  <HBD>
0

>  <logP>
2.8965

>  <TPSA>
45.76

>  <MW>
239.334

$$$$

 OpenBabel02121609142D

 19 21  0  0  0  0  0  0  0  0999 V2000
    2.1417   -0.3917    0.0000 C   0  0  0  0  0  0  0  0  0  0  0  0
    1.2750    0.1083    0.0000 C   0  0  0  0  0  0  0  0  0  0  0  0
    1.6417    0.4708    0.0000 C   0  0  0  0  0  0  0  0  0  0  0  0
    0.4042   -0.3917    0.0000 N   0  0  0  0  0  0  0  0  0  0  0  0
    1.6417    1.4708    0.0000 N   0  0  0  0  0  0  0  0  0  0  0  0
   -2.1875    0.1083    0.0000 C   0  0  0  0  0  0  0  0  0  0  0  0
   -0.4583    0.1083    0.0000 C   0  0  0  0  0  0  0  0  0  0  0  0
    1.2750    1.1083    0.0000 O   0  0  0  0  0  0  0  0  0  0  0  0
   -1.3250   -0.3917    0.0000 C   0  0  0  0  0  0  0  0  0  0  0  0
   -2.1875    1.1083    0.0000 C   0  0  0  0  0  0  0  0  0  0  0  0
   -1.3250    1.6083    0.0000 C   0  0  0  0  0  0  0  0  0  0  0  0
   -0.4583    1.1083    0.0000 C   0  0  0  0  0  0  0  0  0  0  0  0
    2.2417   -1.3917    0.0000 C   0  0  0  0  0  0  0  0  0  0  0  0
    3.0542    0.0083    0.0000 C   0  0  0  0  0  0  0  0  0  0  0  0
   -3.1458   -0.2042    0.0000 C   0  0  0  0  0  0  0  0  0  0  0  0
   -3.7333    0.6083    0.0000 C   0  0  0  0  0  0  0  0  0  0  0  0
   -3.1458    1.4125    0.0000 C   0  0  0  0  0  0  0  0  0  0  0  0
    3.7250   -0.7292    0.0000 C   0  0  0  0  0  0  0  0  0  0  0  0
    3.2250   -1.6000    0.0000 C   0  0  0  0  0  0  0  0  0  0  0  0
  2  1  1  0  0  0  0
  3  1  1  0  0  0  0
  4  2  1  0  0  0  0
  5  3  3  0  0  0  0
  6  9  1  0  0  0  0
  6 10  2  0  0  0  0
  7  4  1  0  0  0  0
  8  2  2  0  0  0  0
  9  7  2  0  0  0  0
 10 11  1  0  0  0  0
 11 12  2  0  0  0  0
 12  7  1  0  0  0  0
 13  1  1  0  0  0  0
 14  1  1  0  0  0  0
 15  6  1  0  0  0  0
 16 15  1  0  0  0  0
 17 10  1  0  0  0  0
 17 16  1  0  0  0  0
 18 14  1  0  0  0  0
 19 13  1  0  0  0  0
 19 18  1  0  0  0  0
M  END
>  <idnumber>
T5725094

>  <LogP>
2.819000000000000e+000

>  <rotating_bonds>
3.000000000000000e+000

>  <hb_acceptors>
2.000000000000000e+000

>  <hb_donors>
1.000000000000000e+000

>  <PSA>
5.289000000000002e+001

>  <clusterid>
-1230

>  <is_centroid>
@

>  <class1>
674

>  <class2>
644

>  <population1>
16474

>  <population2>
7036

>  <population>
65

>  <cansmi>
N#CC1(CCCC1)C(=O)Nc1ccc2c(c1)CCC2

>  <HBA2>
3

>  <HBD>
1

>  <logP>
3.27078

>  <TPSA>
52.89

>  <MW>
254.327

$$$$

 OpenBabel02121609142D

 14 14  0  0  0  0  0  0  0  0999 V2000
    0.3292   -0.0625    0.0000 C   0  0  0  0  0  0  0  0  0  0  0  0
    0.6375    0.8875    0.0000 N   0  0  0  0  0  0  0  0  0  0  0  0
    1.0000   -0.8042    0.0000 N   0  0  0  0  0  0  0  0  0  0  0  0
   -0.6500   -0.2667    0.0000 O   0  0  0  0  0  0  0  0  0  0  0  0
    2.3375   -2.2917    0.0000 N   0  0  0  0  0  0  0  0  0  0  0  0
   -2.6500   -0.0875    0.0000 Cl  0  0  0  0  0  0  0  0  0  0  0  0
    0.6875   -1.7542    0.0000 C   0  0  0  0  0  0  0  0  0  0  0  0
    1.9750   -0.6000    0.0000 C   0  0  0  0  0  0  0  0  0  0  0  0
    1.5875    1.1958    0.0000 C   0  0  0  0  0  0  0  0  0  0  0  0
    0.0500    1.6958    0.0000 C   0  0  0  0  0  0  0  0  0  0  0  0
    2.6417   -1.3417    0.0000 C   0  0  0  0  0  0  0  0  0  0  0  0
    1.3542   -2.5000    0.0000 C   0  0  0  0  0  0  0  0  0  0  0  0
    0.6375    2.5083    0.0000 C   0  0  0  0  0  0  0  0  0  0  0  0
    1.5875    2.1958    0.0000 C   0  0  0  0  0  0  0  0  0  0  0  0
  2  1  1  0  0  0  0
  3  1  1  0  0  0  0
  4  1  2  0  0  0  0
  5 11  1  0  0  0  0
  7  3  1  0  0  0  0
  8  3  1  0  0  0  0
  9  2  1  0  0  0  0
 10  2  1  0  0  0  0
 11  8  1  0  0  0  0
 12  7  1  0  0  0  0
 12  5  1  0  0  0  0
 13 10  1  0  0  0  0
 14  9  1  0  0  0  0
 14 13  1  0  0  0  0
M  END
>  <idnumber>
T5726378

>  <LogP>
8.560000000000000e-001

>  <rotating_bonds>
0.000000000000000e+000

>  <hb_acceptors>
2.000000000000000e+000

>  <hb_donors>
1.000000000000000e+000

>  <PSA>
3.558000000000000e+001

>  <clusterid>
-1231

>  <is_centroid>
@

>  <class1>
717

>  <class2>
642

>  <population1>
74368

>  <population2>
51183

>  <population>
3510

>  <cansmi>
O=C(N1CCCC1)N1CCNCC1.Cl

>  <HBA2>
4

>  <HBD>
2

>  <logP>
1.114

>  <TPSA>
35.58

>  <MW>
219.712

$$$$

 OpenBabel02121609142D

 19 21  0  0  0  0  0  0  0  0999 V2000
    0.7167    0.5250    0.0000 C   0  0  3  0  0  0  0  0  0  0  0  0
    0.3500   -1.1042    0.0000 N   0  0  0  0  0  0  0  0  0  0  0  0
   -0.0333   -0.1917    0.0000 C   0  0  0  0  0  0  0  0  0  0  0  0
    1.3250   -1.0250    0.0000 C   0  0  0  0  0  0  0  0  0  0  0  0
    1.5625   -0.0667    0.0000 N   0  0  0  0  0  0  0  0  0  0  0  0
   -0.1625    1.0958    0.0000 C   0  0  0  0  0  0  0  0  0  0  0  0
    1.9042   -1.8292    0.0000 O   0  0  0  0  0  0  0  0  0  0  0  0
   -0.1625    2.0833    0.0000 C   0  0  0  0  0  0  0  0  0  0  0  0
   -0.9958   -0.4917    0.0000 O   0  0  0  0  0  0  0  0  0  0  0  0
    1.5625    1.1083    0.0000 C   0  0  0  0  0  0  0  0  0  0  0  0
    0.6917    2.5833    0.0000 O   0  0  0  0  0  0  0  0  0  0  0  0
   -0.3333   -1.8292    0.0000 C   0  0  0  0  0  0  0  0  0  0  0  0
    1.5542    2.0958    0.0000 C   0  0  0  0  0  0  0  0  0  0  0  0
   -1.0458    0.6208    0.0000 C   0  0  0  0  0  0  0  0  0  0  0  0
   -1.0208    2.5958    0.0000 C   0  0  0  0  0  0  0  0  0  0  0  0
   -1.3333   -1.7917    0.0000 C   0  0  0  0  0  0  0  0  0  0  0  0
   -1.8958    1.1125    0.0000 C   0  0  0  0  0  0  0  0  0  0  0  0
   -1.9083   -2.5875    0.0000 C   0  0  0  0  0  0  0  0  0  0  0  0
   -1.8833    2.1083    0.0000 C   0  0  0  0  0  0  0  0  0  0  0  0
  2  3  1  0  0  0  0
  2  4  1  0  0  0  0
  3  1  1  0  0  0  0
  4  5  1  0  0  0  0
  5  1  1  0  0  0  0
  6  1  1  0  0  0  0
  7  4  2  0  0  0  0
  8  6  2  0  0  0  0
  8 11  1  0  0  0  0
  9  3  2  0  0  0  0
 10  1  1  0  0  0  0
 11 13  1  0  0  0  0
 12  2  1  0  0  0  0
 13 10  1  0  0  0  0
 14  6  1  0  0  0  0
 15  8  1  0  0  0  0
 15 19  2  0  0  0  0
 16 12  1  0  0  0  0
 17 14  2  0  0  0  0
 18 16  1  0  0  0  0
 19 17  1  0  0  0  0
M  END
>  <idnumber>
T5730767

>  <LogP>
1.585000000000000e+000

>  <rotating_bonds>
2.000000000000000e+000

>  <hb_acceptors>
3.000000000000000e+000

>  <hb_donors>
1.000000000000000e+000

>  <PSA>
5.863999999999997e+001

>  <clusterid>
-1235

>  <is_centroid>
@

>  <class1>
857

>  <population1>
449

>  <population>
449

>  <cansmi>
CCCN1C(=O)NC2(C1=O)CCOc1c2cccc1

>  <HBA2>
5

>  <HBD>
1

>  <logP>
1.8929

>  <TPSA>
58.64

>  <MW>
260.288

$$$$

 OpenBabel02121609142D

 17 18  0  0  0  0  0  0  0  0999 V2000
   -0.1583    0.9625    0.0000 C   0  0  0  0  0  0  0  0  0  0  0  0
   -0.1583   -0.0292    0.0000 C   0  0  0  0  0  0  0  0  0  0  0  0
   -1.0208    1.4625    0.0000 N   0  0  0  0  0  0  0  0  0  0  0  0
   -1.8875   -0.0292    0.0000 N   0  0  0  0  0  0  0  0  0  0  0  0
   -1.8875    0.9625    0.0000 C   0  0  0  0  0  0  0  0  0  0  0  0
   -1.0208   -0.5375    0.0000 C   0  0  0  0  0  0  0  0  0  0  0  0
    0.7917    1.2708    0.0000 N   0  0  0  0  0  0  0  0  0  0  0  0
    0.7917   -0.3417    0.0000 N   0  0  0  0  0  0  0  0  0  0  0  0
    1.3792    0.4625    0.0000 C   0  0  0  0  0  0  0  0  0  0  0  0
   -2.7583    1.4625    0.0000 O   0  0  0  0  0  0  0  0  0  0  0  0
   -1.0208   -1.5375    0.0000 O   0  0  0  0  0  0  0  0  0  0  0  0
    1.1042   -1.3000    0.0000 C   0  0  0  0  0  0  0  0  0  0  0  0
   -1.0208    2.4625    0.0000 C   0  0  0  0  0  0  0  0  0  0  0  0
   -2.7583   -0.5375    0.0000 C   0  0  0  0  0  0  0  0  0  0  0  0
    2.0792   -1.5042    0.0000 C   0  0  0  0  0  0  0  0  0  0  0  0
    2.7500   -0.7625    0.0000 C   0  0  0  0  0  0  0  0  0  0  0  0
    2.3917   -2.4542    0.0000 C   0  0  0  0  0  0  0  0  0  0  0  0
  2  1  2  0  0  0  0
  3  1  1  0  0  0  0
  4  5  1  0  0  0  0
  5  3  1  0  0  0  0
  6  2  1  0  0  0  0
  6  4  1  0  0  0  0
  7  1  1  0  0  0  0
  8  2  1  0  0  0  0
  8  9  1  0  0  0  0
  9  7  2  0  0  0  0
 10  5  2  0  0  0  0
 11  6  2  0  0  0  0
 12  8  1  0  0  0  0
 13  3  1  0  0  0  0
 14  4  1  0  0  0  0
 15 12  1  0  0  0  0
 16 15  1  0  0  0  0
 17 15  1  0  0  0  0
M  END
>  <idnumber>
T5731363

>  <LogP>
1.417000000000000e+000

>  <rotating_bonds>
2.000000000000000e+000

>  <hb_acceptors>
3.000000000000000e+000

>  <hb_donors>
0.000000000000000e+000

>  <PSA>
5.844000000000000e+001

>  <clusterid>
699

>  <is_centroid>
@

>  <class1>
681

>  <population1>
12892

>  <population>
12892

>  <cansmi>
CC(Cn1cnc2c1c(=O)n(C)c(=O)n2C)C

>  <HBA2>
6

>  <HBD>
0

>  <logP>
0.0897

>  <TPSA>
61.82

>  <MW>
236.27

$$$$

 OpenBabel02121609142D

 16 18  0  0  0  0  0  0  0  0999 V2000
   -0.0125   -0.4542    0.0000 C   0  0  0  0  0  0  0  0  0  0  0  0
   -0.6000    0.3583    0.0000 C   0  0  0  0  0  0  0  0  0  0  0  0
   -1.5583    0.0458    0.0000 N   0  0  0  0  0  0  0  0  0  0  0  0
   -0.6000   -1.2625    0.0000 C   0  0  0  0  0  0  0  0  0  0  0  0
   -1.5583   -0.9542    0.0000 C   0  0  0  0  0  0  0  0  0  0  0  0
    0.9875   -0.4542    0.0000 C   0  0  0  0  0  0  0  0  0  0  0  0
   -2.3625    0.6333    0.0000 C   0  0  0  0  0  0  0  0  0  0  0  0
    1.4875    0.4125    0.0000 N   0  0  0  0  0  0  0  0  0  0  0  0
   -2.7708    1.5458    0.0000 C   0  0  0  0  0  0  0  0  0  0  0  0
   -3.3583    0.7375    0.0000 C   0  0  0  0  0  0  0  0  0  0  0  0
    2.4875    0.4125    0.0000 C   0  0  0  0  0  0  0  0  0  0  0  0
    3.3542    0.9125    0.0000 C   0  0  0  0  0  0  0  0  0  0  0  0
    3.3542   -0.0875    0.0000 C   0  0  0  0  0  0  0  0  0  0  0  0
    1.4875   -1.3167    0.0000 O   0  0  0  0  0  0  0  0  0  0  0  0
   -0.2958    1.3083    0.0000 C   0  0  0  0  0  0  0  0  0  0  0  0
   -2.3625   -1.5417    0.0000 C   0  0  0  0  0  0  0  0  0  0  0  0
  2  1  2  0  0  0  0
  3  2  1  0  0  0  0
  4  1  1  0  0  0  0
  5  4  2  0  0  0  0
  5  3  1  0  0  0  0
  6  1  1  0  0  0  0
  7  3  1  0  0  0  0
  8  6  1  0  0  0  0
  9  7  1  0  0  0  0
  9 10  1  0  0  0  0
 10  7  1  0  0  0  0
 11  8  1  0  0  0  0
 12 11  1  0  0  0  0
 13 11  1  0  0  0  0
 13 12  1  0  0  0  0
 14  6  2  0  0  0  0
 15  2  1  0  0  0  0
 16  5  1  0  0  0  0
M  END
>  <idnumber>
T5731757

>  <LogP>
1.579000000000000e+000

>  <rotating_bonds>
3.000000000000000e+000

>  <hb_acceptors>
1.000000000000000e+000

>  <hb_donors>
1.000000000000000e+000

>  <PSA>
3.403000000000000e+001

>  <clusterid>
536

>  <is_centroid>
@

>  <class1>
675

>  <class2>
675

>  <class3>
635

>  <population1>
33654

>  <population2>
33654

>  <population3>
31512

>  <population>
1809

>  <cansmi>
O=C(c1cc(n(c1C)C1CC1)C)NC1CC1

>  <HBA2>
3

>  <HBD>
1

>  <logP>
2.7229

>  <TPSA>
34.03

>  <MW>
218.295

$$$$

 OpenBabel02121609142D

 21 23  0  0  0  0  0  0  0  0999 V2000
   -1.7333    1.5083    0.0000 N   0  0  0  0  0  0  0  0  0  0  0  0
   -1.7333    0.5000    0.0000 C   0  0  0  0  0  0  0  0  0  0  0  0
   -0.8708    2.0000    0.0000 C   0  0  0  0  0  0  0  0  0  0  0  0
   -0.8708    0.0000    0.0000 N   0  0  0  0  0  0  0  0  0  0  0  0
    0.0000    1.5083    0.0000 C   0  0  0  0  0  0  0  0  0  0  0  0
   -2.6000    2.0000    0.0000 C   0  0  0  0  0  0  0  0  0  0  0  0
    0.0000    0.5000    0.0000 C   0  0  0  0  0  0  0  0  0  0  0  0
   -2.6000    0.0000    0.0000 C   0  0  0  0  0  0  0  0  0  0  0  0
   -3.4708    1.5083    0.0000 C   0  0  0  0  0  0  0  0  0  0  0  0
   -3.4708    0.5000    0.0000 C   0  0  0  0  0  0  0  0  0  0  0  0
   -0.8708    3.0000    0.0000 O   0  0  0  0  0  0  0  0  0  0  0  0
    0.8625    0.0000    0.0000 C   0  0  0  0  0  0  0  0  0  0  0  0
    0.8625   -0.9917    0.0000 O   0  0  0  0  0  0  0  0  0  0  0  0
    1.7292   -1.4917    0.0000 C   0  0  0  0  0  0  0  0  0  0  0  0
    3.4625   -2.5000    0.0000 C   0  0  0  0  0  0  0  0  0  0  0  0
    2.5917   -0.9917    0.0000 C   0  0  0  0  0  0  0  0  0  0  0  0
    1.7292   -2.5000    0.0000 C   0  0  0  0  0  0  0  0  0  0  0  0
    3.4625   -1.4917    0.0000 C   0  0  0  0  0  0  0  0  0  0  0  0
    2.5917   -3.0000    0.0000 C   0  0  0  0  0  0  0  0  0  0  0  0
   -4.3333    0.0000    0.0000 C   0  0  0  0  0  0  0  0  0  0  0  0
    4.3292   -3.0000    0.0000 C   0  0  0  0  0  0  0  0  0  0  0  0
  2  1  1  0  0  0  0
  3  1  1  0  0  0  0
  4  2  2  0  0  0  0
  4  7  1  0  0  0  0
  5  3  1  0  0  0  0
  6  1  1  0  0  0  0
  7  5  2  0  0  0  0
  8  2  1  0  0  0  0
  8 10  2  0  0  0  0
  9  6  2  0  0  0  0
 10  9  1  0  0  0  0
 11  3  2  0  0  0  0
 12  7  1  0  0  0  0
 13 12  1  0  0  0  0
 14 13  1  0  0  0  0
 15 19  2  0  0  0  0
 15 18  1  0  0  0  0
 16 14  1  0  0  0  0
 17 14  2  0  0  0  0
 18 16  2  0  0  0  0
 19 17  1  0  0  0  0
 20 10  1  0  0  0  0
 21 15  1  0  0  0  0
M  END
>  <idnumber>
T5732526

>  <LogP>
2.393000000000000e+000

>  <rotating_bonds>
3.000000000000000e+000

>  <hb_acceptors>
3.000000000000000e+000

>  <hb_donors>
0.000000000000000e+000

>  <PSA>
4.189999999999998e+001

>  <clusterid>
624

>  <is_centroid>
@

>  <class1>
625

>  <class2>
806

>  <population1>
877209

>  <population2>
5354

>  <population>
3644

>  <cansmi>
Cc1ccc(cc1)OCc1cc(=O)n2c(n1)cc(cc2)C

>  <HBA2>
4

>  <HBD>
0

>  <logP>
2.8903

>  <TPSA>
43.6

>  <MW>
280.321

$$$$

 OpenBabel02121609142D

 21 23  0  0  0  0  0  0  0  0999 V2000
    0.2917    2.4208    0.0000 C   0  0  0  0  0  0  0  0  0  0  0  0
   -0.2708   -2.1292    0.0000 N   0  0  0  0  0  0  0  0  0  0  0  0
    0.6042    3.3708    0.0000 C   0  0  0  0  0  0  0  0  0  0  0  0
    0.9625    1.6750    0.0000 N   0  0  0  0  0  0  0  0  0  0  0  0
   -0.8958   -4.0292    0.0000 N   0  0  0  0  0  0  0  0  0  0  0  0
    0.0375   -1.1792    0.0000 C   0  0  0  0  0  0  0  0  0  0  0  0
    0.0167    4.1667    0.0000 O   0  0  0  0  0  0  0  0  0  0  0  0
    1.5542    3.6833    0.0000 C   0  0  0  0  0  0  0  0  0  0  0  0
   -0.6833    2.2083    0.0000 O   0  0  0  0  0  0  0  0  0  0  0  0
   -1.2500   -2.3375    0.0000 C   0  0  0  0  0  0  0  0  0  0  0  0
    0.3917   -2.8667    0.0000 C   0  0  0  0  0  0  0  0  0  0  0  0
    0.6042    4.9792    0.0000 C   0  0  0  0  0  0  0  0  0  0  0  0
    1.5542    4.6667    0.0000 C   0  0  0  0  0  0  0  0  0  0  0  0
    1.0167   -0.9667    0.0000 C   0  0  0  0  0  0  0  0  0  0  0  0
   -0.6333   -0.4292    0.0000 C   0  0  0  0  0  0  0  0  0  0  0  0
    0.6542    0.7250    0.0000 C   0  0  0  0  0  0  0  0  0  0  0  0
    0.0875   -3.8250    0.0000 C   0  0  0  0  0  0  0  0  0  0  0  0
   -1.5583   -3.2875    0.0000 C   0  0  0  0  0  0  0  0  0  0  0  0
   -0.3250    0.5208    0.0000 C   0  0  0  0  0  0  0  0  0  0  0  0
    1.3250   -0.0167    0.0000 C   0  0  0  0  0  0  0  0  0  0  0  0
   -1.2000   -4.9792    0.0000 C   0  0  0  0  0  0  0  0  0  0  0  0
  2  6  1  0  0  0  0
  3  1  1  0  0  0  0
  4  1  1  0  0  0  0
  5 17  1  0  0  0  0
  6 14  1  0  0  0  0
  7  3  1  0  0  0  0
  8  3  2  0  0  0  0
  9  1  2  0  0  0  0
 10  2  1  0  0  0  0
 11  2  1  0  0  0  0
 12  7  1  0  0  0  0
 13  8  1  0  0  0  0
 13 12  2  0  0  0  0
 14 20  2  0  0  0  0
 15 19  1  0  0  0  0
 15  6  2  0  0  0  0
 16  4  1  0  0  0  0
 17 11  1  0  0  0  0
 18 10  1  0  0  0  0
 18  5  1  0  0  0  0
 19 16  2  0  0  0  0
 20 16  1  0  0  0  0
 21  5  1  0  0  0  0
M  END
>  <idnumber>
T5733819

>  <LogP>
1.211000000000000e+000

>  <rotating_bonds>
3.000000000000000e+000

>  <hb_acceptors>
3.000000000000000e+000

>  <hb_donors>
1.000000000000000e+000

>  <PSA>
4.872000000000001e+001

>  <clusterid>
705

>  <is_centroid>
@

>  <class1>
717

>  <class2>
625

>  <class3>
704

>  <population1>
74368

>  <population2>
877209

>  <population3>
51112

>  <population>
3504

>  <cansmi>
CN1CCN(CC1)c1ccc(cc1)NC(=O)c1ccco1

>  <HBA2>
5

>  <HBD>
1

>  <logP>
2.3596

>  <TPSA>
48.72

>  <MW>
285.341

$$$$

 OpenBabel02121609142D

 16 17  0  0  0  0  0  0  0  0999 V2000
   -0.3958   -2.2917    0.0000 N   0  0  0  0  0  0  0  0  0  0  0  0
   -0.9833   -1.4792    0.0000 C   0  0  0  0  0  0  0  0  0  0  0  0
    0.5542   -1.9792    0.0000 C   0  0  0  0  0  0  0  0  0  0  0  0
   -0.3958   -0.6750    0.0000 C   0  0  3  0  0  0  0  0  0  0  0  0
    0.5542   -0.9792    0.0000 C   0  0  0  0  0  0  0  0  0  0  0  0
   -0.7000    0.2750    0.0000 N   0  0  0  0  0  0  0  0  0  0  0  0
   -1.9833   -1.4792    0.0000 O   0  0  0  0  0  0  0  0  0  0  0  0
    1.3667   -2.5667    0.0000 O   0  0  0  0  0  0  0  0  0  0  0  0
   -0.0333    1.0208    0.0000 C   0  0  0  0  0  0  0  0  0  0  0  0
   -0.7000   -3.2417    0.0000 C   0  0  0  0  0  0  0  0  0  0  0  0
    1.3042    2.5083    0.0000 C   0  0  0  0  0  0  0  0  0  0  0  0
    0.9417    0.8125    0.0000 C   0  0  0  0  0  0  0  0  0  0  0  0
   -0.3458    1.9708    0.0000 C   0  0  0  0  0  0  0  0  0  0  0  0
    0.3292    2.7125    0.0000 C   0  0  0  0  0  0  0  0  0  0  0  0
    1.6167    1.5583    0.0000 C   0  0  0  0  0  0  0  0  0  0  0  0
    1.9750    3.2500    0.0000 C   0  0  0  0  0  0  0  0  0  0  0  0
  2  1  1  0  0  0  0
  3  1  1  0  0  0  0
  4  2  1  0  0  0  0
  5  3  1  0  0  0  0
  5  4  1  0  0  0  0
  6  4  1  0  0  0  0
  7  2  2  0  0  0  0
  8  3  2  0  0  0  0
  9  6  1  0  0  0  0
 10  1  1  0  0  0  0
 11 14  2  0  0  0  0
 12  9  1  0  0  0  0
 13  9  2  0  0  0  0
 14 13  1  0  0  0  0
 15 12  2  0  0  0  0
 15 11  1  0  0  0  0
 16 11  1  0  0  0  0
M  END
>  <idnumber>
T5734624

>  <LogP>
2.005000000000000e+000

>  <rotating_bonds>
2.000000000000000e+000

>  <hb_acceptors>
3.000000000000000e+000

>  <hb_donors>
1.000000000000000e+000

>  <PSA>
4.941000000000003e+001

>  <clusterid>
607

>  <is_centroid>
@

>  <class1>
625

>  <class2>
705

>  <population1>
877209

>  <population2>
4908

>  <population>
4348

>  <cansmi>
Cc1ccc(cc1)NC1CC(=O)N(C1=O)C

>  <HBA2>
4

>  <HBD>
1

>  <logP>
1.1751

>  <TPSA>
49.41

>  <MW>
218.252

$$$$

 OpenBabel02121609142D

 20 22  0  0  0  0  0  0  0  0999 V2000
    0.6417   -0.7542    0.0000 N   0  0  0  0  0  0  0  0  0  0  0  0
    1.5917   -0.4417    0.0000 N   0  0  0  0  0  0  0  0  0  0  0  0
    1.5917    0.5583    0.0000 C   0  0  0  0  0  0  0  0  0  0  0  0
    0.0542    0.0583    0.0000 C   0  0  3  0  0  0  0  0  0  0  0  0
    0.6417    0.8625    0.0000 C   0  0  0  0  0  0  0  0  0  0  0  0
    0.3292   -1.7042    0.0000 C   0  0  0  0  0  0  0  0  0  0  0  0
    2.4042    1.1458    0.0000 C   0  0  0  0  0  0  0  0  0  0  0  0
   -0.9458    0.0583    0.0000 C   0  0  0  0  0  0  0  0  0  0  0  0
    2.4042    2.1458    0.0000 O   0  0  0  0  0  0  0  0  0  0  0  0
    3.3542    0.8333    0.0000 C   0  0  0  0  0  0  0  0  0  0  0  0
    1.0042   -2.4500    0.0000 O   0  0  0  0  0  0  0  0  0  0  0  0
    3.3542    2.4583    0.0000 C   0  0  0  0  0  0  0  0  0  0  0  0
    3.9417    1.6458    0.0000 C   0  0  0  0  0  0  0  0  0  0  0  0
   -1.4458   -0.8125    0.0000 C   0  0  0  0  0  0  0  0  0  0  0  0
   -1.4458    0.9208    0.0000 C   0  0  0  0  0  0  0  0  0  0  0  0
   -2.4458    0.9208    0.0000 C   0  0  0  0  0  0  0  0  0  0  0  0
   -2.4458   -0.8125    0.0000 C   0  0  0  0  0  0  0  0  0  0  0  0
   -2.9458    0.0583    0.0000 C   0  0  0  0  0  0  0  0  0  0  0  0
   -0.6458   -1.9125    0.0000 C   0  0  0  0  0  0  0  0  0  0  0  0
   -3.9458    0.0583    0.0000 C   0  0  0  0  0  0  0  0  0  0  0  0
  2  1  1  0  0  0  0
  3  2  2  0  0  0  0
  3  5  1  0  0  0  0
  4  1  1  0  0  0  0
  5  4  1  0  0  0  0
  6  1  1  0  0  0  0
  7  3  1  0  0  0  0
  8  4  1  0  0  0  0
  9  7  1  0  0  0  0
 10  7  2  0  0  0  0
 11  6  2  0  0  0  0
 12  9  1  0  0  0  0
 13 10  1  0  0  0  0
 13 12  2  0  0  0  0
 14  8  2  0  0  0  0
 15  8  1  0  0  0  0
 16 15  2  0  0  0  0
 17 14  1  0  0  0  0
 17 18  2  0  0  0  0
 18 16  1  0  0  0  0
 19  6  1  0  0  0  0
 20 18  1  0  0  0  0
M  END
>  <idnumber>
T5734769

>  <LogP>
2.831999999999999e+000

>  <rotating_bonds>
2.000000000000000e+000

>  <hb_acceptors>
2.000000000000000e+000

>  <hb_donors>
0.000000000000000e+000

>  <PSA>
4.581000000000000e+001

>  <clusterid>
-1237

>  <is_centroid>
@

>  <class1>
663

>  <class2>
704

>  <class3>
625

>  <population1>
5869

>  <population2>
51112

>  <population3>
877209

>  <population>
1508

>  <cansmi>
Cc1ccc(cc1)C1CC(=NN1C(=O)C)c1ccco1

>  <HBA2>
4

>  <HBD>
0

>  <logP>
2.6591

>  <TPSA>
45.81

>  <MW>
268.31

$$$$

 OpenBabel02121609142D

 21 23  0  0  0  0  0  0  0  0999 V2000
   -0.5083   -0.5000    0.0000 N   0  0  0  0  0  0  0  0  0  0  0  0
   -1.3750   -1.0000    0.0000 C   0  0  0  0  0  0  0  0  0  0  0  0
   -2.2458   -0.5000    0.0000 C   0  0  0  0  0  0  0  0  0  0  0  0
    1.2167   -0.5000    0.0000 C   0  0  0  0  0  0  0  0  0  0  0  0
    0.3542   -1.0000    0.0000 C   0  0  0  0  0  0  0  0  0  0  0  0
    1.2167    0.5000    0.0000 C   0  0  0  0  0  0  0  0  0  0  0  0
    2.0875   -1.0000    0.0000 C   0  0  0  0  0  0  0  0  0  0  0  0
    2.9542   -0.5000    0.0000 C   0  0  0  0  0  0  0  0  0  0  0  0
    2.9542    0.5000    0.0000 C   0  0  0  0  0  0  0  0  0  0  0  0
    2.0875    1.0000    0.0000 C   0  0  0  0  0  0  0  0  0  0  0  0
   -3.1583   -0.9042    0.0000 C   0  0  0  0  0  0  0  0  0  0  0  0
   -0.5083    0.5000    0.0000 C   0  0  0  0  0  0  0  0  0  0  0  0
   -2.3458    0.4958    0.0000 C   0  0  0  0  0  0  0  0  0  0  0  0
   -3.8250   -0.1542    0.0000 O   0  0  0  0  0  0  0  0  0  0  0  0
   -1.3750   -2.0000    0.0000 O   0  0  0  0  0  0  0  0  0  0  0  0
   -3.3250    0.7083    0.0000 C   0  0  0  0  0  0  0  0  0  0  0  0
    0.3542    1.0000    0.0000 C   0  0  0  0  0  0  0  0  0  0  0  0
    3.8167   -1.0000    0.0000 O   0  0  0  0  0  0  0  0  0  0  0  0
    3.8167    1.0000    0.0000 O   0  0  0  0  0  0  0  0  0  0  0  0
    3.8167   -2.0000    0.0000 C   0  0  0  0  0  0  0  0  0  0  0  0
    3.8167    2.0000    0.0000 C   0  0  0  0  0  0  0  0  0  0  0  0
  2  1  1  0  0  0  0
  3  2  1  0  0  0  0
  4  5  1  0  0  0  0
  4  6  1  0  0  0  0
  5  1  1  0  0  0  0
  6 17  1  0  0  0  0
  7  4  2  0  0  0  0
  8  7  1  0  0  0  0
  8  9  2  0  0  0  0
  9 10  1  0  0  0  0
 10  6  2  0  0  0  0
 11  3  2  0  0  0  0
 12  1  1  0  0  0  0
 13  3  1  0  0  0  0
 14 11  1  0  0  0  0
 15  2  2  0  0  0  0
 16 13  2  0  0  0  0
 16 14  1  0  0  0  0
 17 12  1  0  0  0  0
 18  8  1  0  0  0  0
 19  9  1  0  0  0  0
 20 18  1  0  0  0  0
 21 19  1  0  0  0  0
M  END
>  <idnumber>
T5736078

>  <LogP>
1.914000000000000e+000

>  <rotating_bonds>
3.000000000000000e+000

>  <hb_acceptors>
3.000000000000000e+000

>  <hb_donors>
0.000000000000000e+000

>  <PSA>
5.191000000000000e+001

>  <clusterid>
-1239

>  <is_centroid>
@

>  <class1>
704

>  <class2>
750

>  <population1>
51112

>  <population2>
7929

>  <population>
327

>  <cansmi>
COc1cc2CN(CCc2cc1OC)C(=O)c1cocc1

>  <HBA2>
5

>  <HBD>
0

>  <logP>
2.4332

>  <TPSA>
51.91

>  <MW>
287.31

$$$$

 OpenBabel02121609142D

 20 22  0  0  0  0  0  0  0  0999 V2000
    0.4292   -0.9417    0.0000 C   0  0  0  0  0  0  0  0  0  0  0  0
   -0.1583   -1.7500    0.0000 C   0  0  0  0  0  0  0  0  0  0  0  0
    0.4292   -2.5542    0.0000 N   0  0  0  0  0  0  0  0  0  0  0  0
    1.3792   -1.2500    0.0000 C   0  0  0  0  0  0  0  0  0  0  0  0
    0.4792    1.7083    0.0000 N   0  0  0  0  0  0  0  0  0  0  0  0
    1.3792   -2.2500    0.0000 C   0  0  0  0  0  0  0  0  0  0  0  0
    0.4792    3.3208    0.0000 N   0  0  0  0  0  0  0  0  0  0  0  0
    0.1250    0.0125    0.0000 C   0  0  0  0  0  0  0  0  0  0  0  0
    1.0667    2.5208    0.0000 C   0  0  0  0  0  0  0  0  0  0  0  0
    0.7917    0.7583    0.0000 C   0  0  0  0  0  0  0  0  0  0  0  0
   -0.4708    2.0208    0.0000 C   0  0  0  0  0  0  0  0  0  0  0  0
   -0.4708    3.0208    0.0000 C   0  0  0  0  0  0  0  0  0  0  0  0
   -0.8583    0.2208    0.0000 O   0  0  0  0  0  0  0  0  0  0  0  0
    0.1250   -3.5042    0.0000 C   0  0  0  0  0  0  0  0  0  0  0  0
   -1.1583   -1.7500    0.0000 C   0  0  0  0  0  0  0  0  0  0  0  0
    2.1917   -2.8375    0.0000 C   0  0  0  0  0  0  0  0  0  0  0  0
   -1.3333    1.5125    0.0000 C   0  0  0  0  0  0  0  0  0  0  0  0
   -1.3333    3.5208    0.0000 C   0  0  0  0  0  0  0  0  0  0  0  0
   -2.2000    2.0208    0.0000 C   0  0  0  0  0  0  0  0  0  0  0  0
   -2.2000    3.0208    0.0000 C   0  0  0  0  0  0  0  0  0  0  0  0
  2  1  2  0  0  0  0
  3  2  1  0  0  0  0
  4  1  1  0  0  0  0
  5 10  1  0  0  0  0
  6  4  2  0  0  0  0
  6  3  1  0  0  0  0
  7  9  2  0  0  0  0
  7 12  1  0  0  0  0
  8  1  1  0  0  0  0
  9  5  1  0  0  0  0
 10  8  1  0  0  0  0
 11  5  1  0  0  0  0
 12 11  2  0  0  0  0
 13  8  2  0  0  0  0
 14  3  1  0  0  0  0
 15  2  1  0  0  0  0
 16  6  1  0  0  0  0
 17 11  1  0  0  0  0
 18 12  1  0  0  0  0
 18 20  2  0  0  0  0
 19 17  2  0  0  0  0
 20 19  1  0  0  0  0
M  END
>  <idnumber>
T5736132

>  <LogP>
2.890000000000000e+000

>  <rotating_bonds>
3.000000000000000e+000

>  <hb_acceptors>
2.000000000000000e+000

>  <hb_donors>
0.000000000000000e+000

>  <PSA>
3.982000000000000e+001

>  <clusterid>
-1240

>  <is_centroid>
@

>  <class1>
685

>  <class2>
635

>  <population1>
28767

>  <population2>
31512

>  <population>
543

>  <cansmi>
O=C(c1cc(n(c1C)C)C)Cn1cnc2c1cccc2

>  <HBA2>
4

>  <HBD>
0

>  <logP>
2.8745

>  <TPSA>
39.82

>  <MW>
267.326

$$$$

 OpenBabel02121609142D

 11 11  0  0  0  0  0  0  0  0999 V2000
    1.3792    0.1333    0.0000 N   0  0  0  0  0  0  0  0  0  0  0  0
    0.4792    0.5833    0.0000 C   0  0  0  0  0  0  0  0  0  0  0  0
    1.2292   -0.8542    0.0000 C   0  0  0  0  0  0  0  0  0  0  0  0
   -0.2208   -0.1292    0.0000 C   0  0  0  0  0  0  0  0  0  0  0  0
    0.2417   -1.0167    0.0000 C   0  0  0  0  0  0  0  0  0  0  0  0
    0.3167    1.5708    0.0000 O   0  0  0  0  0  0  0  0  0  0  0  0
    1.9417   -1.5625    0.0000 O   0  0  0  0  0  0  0  0  0  0  0  0
   -1.2083   -0.2792    0.0000 C   0  0  0  0  0  0  0  0  0  0  0  0
   -1.1208    0.3000    0.0000 C   0  0  0  0  0  0  0  0  0  0  0  0
   -1.5708   -1.2125    0.0000 C   0  0  0  0  0  0  0  0  0  0  0  0
   -1.9458   -0.2625    0.0000 C   0  0  0  0  0  0  0  0  0  0  0  0
  2  1  1  0  0  0  0
  3  1  1  0  0  0  0
  4  2  1  0  0  0  0
  4  5  1  0  0  0  0
  5  3  1  0  0  0  0
  6  2  2  0  0  0  0
  7  3  2  0  0  0  0
  8  4  1  0  0  0  0
  9  4  1  0  0  0  0
 10  8  1  0  0  0  0
 11  9  1  0  0  0  0
M  END
>  <idnumber>
T5739457

>  <LogP>
9.239999999999998e-001

>  <rotating_bonds>
2.000000000000000e+000

>  <hb_acceptors>
2.000000000000000e+000

>  <hb_donors>
1.000000000000000e+000

>  <PSA>
4.616999999999997e+001

>  <clusterid>
-1245

>  <is_centroid>
@

>  <class1>
705

>  <population1>
4908

>  <population>
4908

>  <cansmi>
CCC1(CC)CC(=O)NC1=O

>  <HBA2>
3

>  <HBD>
1

>  <logP>
1.1681

>  <TPSA>
46.17

>  <MW>
155.194

$$$$

 OpenBabel02121609142D

 15 17  0  0  0  0  0  0  0  0999 V2000
    0.5417    0.5250    0.0000 C   0  0  0  0  0  0  0  0  0  0  0  0
    1.1292    1.3333    0.0000 C   0  0  0  0  0  0  0  0  0  0  0  0
    0.5417    2.1458    0.0000 N   0  0  0  0  0  0  0  0  0  0  0  0
   -0.4083    0.8333    0.0000 C   0  0  0  0  0  0  0  0  0  0  0  0
   -0.4083    1.8333    0.0000 C   0  0  0  0  0  0  0  0  0  0  0  0
    0.8500   -0.4250    0.0000 C   0  0  0  0  0  0  0  0  0  0  0  0
   -1.2750    2.3333    0.0000 N   0  0  0  0  0  0  0  0  0  0  0  0
    1.4667   -2.3292    0.0000 N   0  0  0  0  0  0  0  0  0  0  0  0
    0.1792   -1.1667    0.0000 C   0  0  0  0  0  0  0  0  0  0  0  0
    0.4917   -2.1167    0.0000 C   0  0  0  0  0  0  0  0  0  0  0  0
   -1.2750    0.3333    0.0000 C   0  0  0  0  0  0  0  0  0  0  0  0
    1.8292   -0.6292    0.0000 C   0  0  0  0  0  0  0  0  0  0  0  0
    2.1292   -1.5875    0.0000 C   0  0  0  0  0  0  0  0  0  0  0  0
   -2.1458    1.8333    0.0000 C   0  0  0  0  0  0  0  0  0  0  0  0
   -2.1458    0.8333    0.0000 C   0  0  0  0  0  0  0  0  0  0  0  0
  2  1  2  0  0  0  0
  3  2  1  0  0  0  0
  3  5  1  0  0  0  0
  4  1  1  0  0  0  0
  5  4  2  0  0  0  0
  6  1  1  0  0  0  0
  7  5  1  0  0  0  0
  7 14  2  0  0  0  0
  8 13  1  0  0  0  0
  9  6  2  0  0  0  0
 10  9  1  0  0  0  0
 10  8  1  0  0  0  0
 11  4  1  0  0  0  0
 12  6  1  0  0  0  0
 13 12  1  0  0  0  0
 14 15  1  0  0  0  0
 15 11  2  0  0  0  0
M  END
>  <idnumber>
T5739483

>  <LogP>
1.272000000000000e+000

>  <rotating_bonds>
1.000000000000000e+000

>  <hb_acceptors>
2.000000000000000e+000

>  <hb_donors>
2.000000000000000e+000

>  <PSA>
4.071000000000002e+001

>  <clusterid>
-1246

>  <is_centroid>
@

>  <class1>
715

>  <class2>
761

>  <population1>
4585

>  <population2>
39

>  <population>
33

>  <cansmi>
N1CCC(=CC1)c1c[nH]c2c1cccn2

>  <HBA2>
2

>  <HBD>
2

>  <logP>
2.2684

>  <TPSA>
40.71

>  <MW>
199.252

$$$$

 OpenBabel02121609142D

 22 24  0  0  0  0  0  0  0  0999 V2000
   -0.3500   -1.3875    0.0000 C   0  0  0  0  0  0  0  0  0  0  0  0
   -1.0208   -0.6417    0.0000 N   0  0  0  0  0  0  0  0  0  0  0  0
    0.6250   -1.1792    0.0000 N   0  0  0  0  0  0  0  0  0  0  0  0
   -2.3583    0.8458    0.0000 N   0  0  0  0  0  0  0  0  0  0  0  0
   -2.7208    2.5375    0.0000 C   0  0  0  0  0  0  0  0  0  0  0  0
   -3.3083    3.3458    0.0000 O   0  0  0  0  0  0  0  0  0  0  0  0
   -0.6625   -2.3375    0.0000 O   0  0  0  0  0  0  0  0  0  0  0  0
   -0.7125    0.3083    0.0000 C   0  0  0  0  0  0  0  0  0  0  0  0
   -2.0000   -0.8500    0.0000 C   0  0  0  0  0  0  0  0  0  0  0  0
   -1.7708    2.8458    0.0000 C   0  0  0  0  0  0  0  0  0  0  0  0
   -2.7208    4.1500    0.0000 C   0  0  0  0  0  0  0  0  0  0  0  0
   -3.0333    1.5875    0.0000 C   0  0  0  0  0  0  0  0  0  0  0  0
   -1.7708    3.8458    0.0000 C   0  0  0  0  0  0  0  0  0  0  0  0
    1.2917   -1.9167    0.0000 C   0  0  0  0  0  0  0  0  0  0  0  0
   -2.6708   -0.1042    0.0000 C   0  0  0  0  0  0  0  0  0  0  0  0
   -1.3833    1.0500    0.0000 C   0  0  0  0  0  0  0  0  0  0  0  0
    2.6292   -3.4042    0.0000 C   0  0  0  0  0  0  0  0  0  0  0  0
    2.2750   -1.7125    0.0000 C   0  0  0  0  0  0  0  0  0  0  0  0
    0.9875   -2.8667    0.0000 C   0  0  0  0  0  0  0  0  0  0  0  0
    2.9417   -2.4542    0.0000 C   0  0  0  0  0  0  0  0  0  0  0  0
    1.6542   -3.6167    0.0000 C   0  0  0  0  0  0  0  0  0  0  0  0
    3.3042   -4.1500    0.0000 C   0  0  0  0  0  0  0  0  0  0  0  0
  2  1  1  0  0  0  0
  3  1  1  0  0  0  0
  4 15  1  0  0  0  0
  5 12  1  0  0  0  0
  6  5  1  0  0  0  0
  7  1  2  0  0  0  0
  8  2  1  0  0  0  0
  9  2  1  0  0  0  0
 10  5  2  0  0  0  0
 11  6  1  0  0  0  0
 12  4  1  0  0  0  0
 13 10  1  0  0  0  0
 13 11  2  0  0  0  0
 14  3  1  0  0  0  0
 15  9  1  0  0  0  0
 16  8  1  0  0  0  0
 16  4  1  0  0  0  0
 17 21  2  0  0  0  0
 17 20  1  0  0  0  0
 18 14  1  0  0  0  0
 19 14  2  0  0  0  0
 20 18  2  0  0  0  0
 21 19  1  0  0  0  0
 22 17  1  0  0  0  0
M  END
>  <idnumber>
T5741308

>  <LogP>
2.765000000000000e+000

>  <rotating_bonds>
3.000000000000000e+000

>  <hb_acceptors>
2.000000000000000e+000

>  <hb_donors>
1.000000000000000e+000

>  <PSA>
4.872000000000001e+001

>  <clusterid>
636

>  <is_centroid>
@

>  <class1>
704

>  <class2>
625

>  <class3>
717

>  <population1>
51112

>  <population2>
877209

>  <population3>
74368

>  <population>
3504

>  <cansmi>
Cc1ccc(cc1)NC(=O)N1CCN(CC1)Cc1ccco1

>  <HBA2>
5

>  <HBD>
1

>  <logP>
2.8865

>  <TPSA>
48.72

>  <MW>
299.368

$$$$

 OpenBabel02121609142D

 19 21  0  0  0  0  0  0  0  0999 V2000
   -0.2333    2.3125    0.0000 N   0  0  0  0  0  0  0  0  0  0  0  0
   -0.8208    3.1208    0.0000 N   0  0  0  0  0  0  0  0  0  0  0  0
   -0.8000   -2.2292    0.0000 N   0  0  0  0  0  0  0  0  0  0  0  0
    0.8417   -2.7667    0.0000 C   0  0  0  0  0  0  0  0  0  0  0  0
    0.5375   -3.7167    0.0000 N   0  0  0  0  0  0  0  0  0  0  0  0
   -0.5458    1.3625    0.0000 C   0  0  0  0  0  0  0  0  0  0  0  0
    0.7167    2.6208    0.0000 C   0  0  0  0  0  0  0  0  0  0  0  0
    0.7167    3.6208    0.0000 C   0  0  0  0  0  0  0  0  0  0  0  0
    0.1792   -2.0250    0.0000 C   0  0  0  0  0  0  0  0  0  0  0  0
   -0.2333    3.9333    0.0000 C   0  0  0  0  0  0  0  0  0  0  0  0
    1.8250   -2.5625    0.0000 O   0  0  0  0  0  0  0  0  0  0  0  0
   -1.4708   -1.4917    0.0000 C   0  0  0  0  0  0  0  0  0  0  0  0
    0.1250    0.6208    0.0000 C   0  0  0  0  0  0  0  0  0  0  0  0
   -1.5208    1.1583    0.0000 C   0  0  0  0  0  0  0  0  0  0  0  0
   -1.1583   -0.5375    0.0000 C   0  0  0  0  0  0  0  0  0  0  0  0
   -0.4458   -3.9292    0.0000 C   0  0  0  0  0  0  0  0  0  0  0  0
   -1.8333    0.2083    0.0000 C   0  0  0  0  0  0  0  0  0  0  0  0
   -0.1833   -0.3292    0.0000 C   0  0  0  0  0  0  0  0  0  0  0  0
   -1.1083   -3.1792    0.0000 C   0  0  0  0  0  0  0  0  0  0  0  0
  2  1  1  0  0  0  0
  3 12  1  0  0  0  0
  4  9  1  0  0  0  0
  4  5  1  0  0  0  0
  5 16  1  0  0  0  0
  6  1  1  0  0  0  0
  7  1  1  0  0  0  0
  8  7  2  0  0  0  0
  8 10  1  0  0  0  0
  9  3  1  0  0  0  0
 10  2  2  0  0  0  0
 11  4  2  0  0  0  0
 12 15  1  0  0  0  0
 13  6  1  0  0  0  0
 14  6  2  0  0  0  0
 15 17  2  0  0  0  0
 15 18  1  0  0  0  0
 16 19  1  0  0  0  0
 17 14  1  0  0  0  0
 18 13  2  0  0  0  0
 19  3  1  0  0  0  0
M  END
>  <idnumber>
T5742764

>  <LogP>
1.589000000000000e+000

>  <rotating_bonds>
3.000000000000000e+000

>  <hb_acceptors>
3.000000000000000e+000

>  <hb_donors>
1.000000000000000e+000

>  <PSA>
5.016000000000000e+001

>  <clusterid>
-1249

>  <is_centroid>
@

>  <class1>
631

>  <class2>
625

>  <class3>
688

>  <population1>
41612

>  <population2>
877209

>  <population3>
1117

>  <population>
52

>  <cansmi>
O=C1NCCN(C1)Cc1ccc(cc1)n1cccn1

>  <HBA2>
5

>  <HBD>
1

>  <logP>
1.0708

>  <TPSA>
50.16

>  <MW>
256.303

$$$$

 OpenBabel02121609142D

 16 17  0  0  0  0  0  0  0  0999 V2000
   -0.4333    0.2583    0.0000 C   0  0  0  0  0  0  0  0  0  0  0  0
    0.4292   -0.2500    0.0000 N   0  0  0  0  0  0  0  0  0  0  0  0
    1.2917    0.2500    0.0000 C   0  0  0  0  0  0  0  0  0  0  0  0
   -0.4333    1.2583    0.0000 O   0  0  0  0  0  0  0  0  0  0  0  0
   -1.3000   -0.2500    0.0000 C   0  0  0  0  0  0  0  0  0  0  0  0
    2.1625   -0.2500    0.0000 C   0  0  0  0  0  0  0  0  0  0  0  0
   -3.0333   -1.2500    0.0000 O   0  0  0  0  0  0  0  0  0  0  0  0
    1.2917    1.2500    0.0000 C   0  0  0  0  0  0  0  0  0  0  0  0
   -3.0333   -0.2500    0.0000 C   0  0  0  0  0  0  0  0  0  0  0  0
   -2.1708   -1.7417    0.0000 C   0  0  0  0  0  0  0  0  0  0  0  0
    2.1625   -1.2500    0.0000 C   0  0  0  0  0  0  0  0  0  0  0  0
    3.0292    0.2500    0.0000 C   0  0  0  0  0  0  0  0  0  0  0  0
   -2.1708    0.2583    0.0000 C   0  0  0  0  0  0  0  0  0  0  0  0
   -1.3000   -1.2500    0.0000 C   0  0  0  0  0  0  0  0  0  0  0  0
    2.1625    1.7500    0.0000 C   0  0  0  0  0  0  0  0  0  0  0  0
    3.0292    1.2500    0.0000 C   0  0  0  0  0  0  0  0  0  0  0  0
  2  1  1  0  0  0  0
  3  2  1  0  0  0  0
  4  1  2  0  0  0  0
  5  1  1  0  0  0  0
  6  3  2  0  0  0  0
  7 10  1  0  0  0  0
  8  3  1  0  0  0  0
  9 13  1  0  0  0  0
  9  7  1  0  0  0  0
 10 14  1  0  0  0  0
 11  6  1  0  0  0  0
 12  6  1  0  0  0  0
 12 16  2  0  0  0  0
 13  5  1  0  0  0  0
 14  5  1  0  0  0  0
 15  8  2  0  0  0  0
 16 15  1  0  0  0  0
M  END
>  <idnumber>
T5742887

>  <LogP>
6.420000000000000e-001

>  <rotating_bonds>
2.000000000000000e+000

>  <hb_acceptors>
2.000000000000000e+000

>  <hb_donors>
1.000000000000000e+000

>  <PSA>
3.833000000000000e+001

>  <clusterid>
709

>  <is_centroid>
@

>  <class1>
625

>  <class2>
800

>  <population1>
877209

>  <population2>
482

>  <population>
396

>  <cansmi>
O=C(C1CCOCC1)Nc1ccccc1C

>  <HBA2>
3

>  <HBD>
1

>  <logP>
2.4331

>  <TPSA>
38.33

>  <MW>
219.28

$$$$

 OpenBabel02121609142D

 12 12  0  0  0  0  0  0  0  0999 V2000
   -0.2583    0.0000    0.0000 N   0  0  0  0  0  0  0  0  0  0  0  0
    0.9250   -1.2667    0.0000 C   0  0  0  0  0  0  0  0  0  0  0  0
   -0.0333   -0.9750    0.0000 C   0  0  3  0  0  0  0  0  0  0  0  0
    1.6542   -0.5875    0.0000 O   0  0  0  0  0  0  0  0  0  0  0  0
    1.1417   -2.2417    0.0000 N   0  0  0  0  0  0  0  0  0  0  0  0
   -1.2333    0.2250    0.0000 C   0  0  0  0  0  0  0  0  0  0  0  0
    0.5292    0.6250    0.0000 C   0  0  0  0  0  0  0  0  0  0  0  0
   -0.7625   -1.6542    0.0000 C   0  0  0  0  0  0  0  0  0  0  0  0
    0.5292    1.6250    0.0000 C   0  0  0  0  0  0  0  0  0  0  0  0
   -1.6625    1.1250    0.0000 C   0  0  0  0  0  0  0  0  0  0  0  0
   -1.2333    2.0250    0.0000 C   0  0  0  0  0  0  0  0  0  0  0  0
   -0.2583    2.2458    0.0000 C   0  0  0  0  0  0  0  0  0  0  0  0
  2  3  1  0  0  0  0
  3  1  1  0  0  0  0
  4  2  2  0  0  0  0
  5  2  1  0  0  0  0
  6  1  1  0  0  0  0
  7  1  1  0  0  0  0
  8  3  1  0  0  0  0
  9  7  1  0  0  0  0
 10  6  1  0  0  0  0
 11 10  1  0  0  0  0
 12  9  1  0  0  0  0
 12 11  1  0  0  0  0
M  END
>  <idnumber>
T5743702

>  <LogP>
1.253000000000000e+000

>  <rotating_bonds>
2.000000000000000e+000

>  <hb_acceptors>
2.000000000000000e+000

>  <hb_donors>
1.000000000000000e+000

>  <PSA>
4.633000000000000e+001

>  <clusterid>
-1250

>  <is_centroid>
@

>  <class1>
702

>  <population1>
14026

>  <population>
14026

>  <cansmi>
CC(C(=O)N)N1CCCCCC1

>  <HBA2>
3

>  <HBD>
1

>  <logP>
1.3744

>  <TPSA>
46.33

>  <MW>
170.252

$$$$

 OpenBabel02121609142D

 19 21  0  0  0  0  0  0  0  0999 V2000
    0.8625    0.5000    0.0000 C   0  0  0  0  0  0  0  0  0  0  0  0
    0.0000    0.0000    0.0000 N   0  0  0  0  0  0  0  0  0  0  0  0
   -0.8708    1.5000    0.0000 N   0  0  0  0  0  0  0  0  0  0  0  0
    0.8625    1.5000    0.0000 C   0  0  0  0  0  0  0  0  0  0  0  0
   -0.8708    0.5000    0.0000 C   0  0  0  0  0  0  0  0  0  0  0  0
    0.0000    2.0000    0.0000 C   0  0  0  0  0  0  0  0  0  0  0  0
    1.7292    0.0000    0.0000 N   0  0  0  0  0  0  0  0  0  0  0  0
   -1.7333    2.0000    0.0000 C   0  0  0  0  0  0  0  0  0  0  0  0
   -1.7333    0.0000    0.0000 C   0  0  0  0  0  0  0  0  0  0  0  0
    0.0000    3.0000    0.0000 O   0  0  0  0  0  0  0  0  0  0  0  0
   -2.6000    1.5000    0.0000 C   0  0  0  0  0  0  0  0  0  0  0  0
   -2.6000    0.5000    0.0000 C   0  0  0  0  0  0  0  0  0  0  0  0
    1.7292   -1.0000    0.0000 C   0  0  0  0  0  0  0  0  0  0  0  0
    2.5917    0.5000    0.0000 C   0  0  0  0  0  0  0  0  0  0  0  0
    2.5917   -1.5000    0.0000 C   0  0  0  0  0  0  0  0  0  0  0  0
    0.8625   -1.5000    0.0000 C   0  0  0  0  0  0  0  0  0  0  0  0
    0.8625   -2.5000    0.0000 C   0  0  0  0  0  0  0  0  0  0  0  0
    2.5917   -2.5000    0.0000 C   0  0  0  0  0  0  0  0  0  0  0  0
    1.7292   -3.0000    0.0000 C   0  0  0  0  0  0  0  0  0  0  0  0
  2  1  1  0  0  0  0
  3  6  1  0  0  0  0
  4  1  2  0  0  0  0
  5  2  2  0  0  0  0
  5  3  1  0  0  0  0
  6  4  1  0  0  0  0
  7  1  1  0  0  0  0
  8  3  1  0  0  0  0
  9  5  1  0  0  0  0
 10  6  2  0  0  0  0
 11  8  2  0  0  0  0
 11 12  1  0  0  0  0
 12  9  2  0  0  0  0
 13  7  1  0  0  0  0
 14  7  1  0  0  0  0
 15 13  1  0  0  0  0
 16 13  1  0  0  0  0
 17 16  1  0  0  0  0
 18 15  1  0  0  0  0
 18 19  1  0  0  0  0
 19 17  1  0  0  0  0
M  END
>  <idnumber>
T5743893

>  <LogP>
2.421000000000000e+000

>  <rotating_bonds>
2.000000000000000e+000

>  <hb_acceptors>
3.000000000000000e+000

>  <hb_donors>
0.000000000000000e+000

>  <PSA>
3.591000000000000e+001

>  <clusterid>
710

>  <is_centroid>
@

>  <class1>
797

>  <class2>
806

>  <population1>
40410

>  <population2>
5354

>  <population>
174

>  <cansmi>
CN(c1cc(=O)n2c(n1)cccc2)C1CCCCC1

>  <HBA2>
4

>  <HBD>
0

>  <logP>
2.4634

>  <TPSA>
37.61

>  <MW>
257.331

$$$$

 OpenBabel02121609142D

 18 19  0  0  0  0  0  0  0  0999 V2000
    1.7292   -0.9917    0.0000 N   0  0  0  0  0  0  0  0  0  0  0  0
    1.7292    1.0083    0.0000 N   0  0  0  0  0  0  0  0  0  0  0  0
    0.8625   -0.4917    0.0000 C   0  0  0  0  0  0  0  0  0  0  0  0
   -1.7333   -1.0000    0.0000 C   0  0  0  0  0  0  0  0  0  0  0  0
    0.8625    0.5083    0.0000 C   0  0  0  0  0  0  0  0  0  0  0  0
    2.5917   -0.5000    0.0000 C   0  0  0  0  0  0  0  0  0  0  0  0
    2.5917    0.5000    0.0000 C   0  0  0  0  0  0  0  0  0  0  0  0
   -0.8708   -0.4917    0.0000 C   0  0  0  0  0  0  0  0  0  0  0  0
    0.0000   -0.9917    0.0000 C   0  0  0  0  0  0  0  0  0  0  0  0
   -1.7333   -1.9917    0.0000 O   0  0  0  0  0  0  0  0  0  0  0  0
   -0.8708    0.5083    0.0000 C   0  0  0  0  0  0  0  0  0  0  0  0
    0.0000    1.0083    0.0000 C   0  0  0  0  0  0  0  0  0  0  0  0
   -2.6000   -0.5000    0.0000 N   0  0  0  0  0  0  0  0  0  0  0  0
    3.4625   -1.0000    0.0000 C   0  0  0  0  0  0  0  0  0  0  0  0
    3.4625    1.0083    0.0000 C   0  0  0  0  0  0  0  0  0  0  0  0
   -3.4708   -1.0000    0.0000 C   0  0  0  0  0  0  0  0  0  0  0  0
    3.4625    2.0000    0.0000 C   0  0  0  0  0  0  0  0  0  0  0  0
    3.4625   -2.0000    0.0000 C   0  0  0  0  0  0  0  0  0  0  0  0
  2  7  1  0  0  0  0
  2  5  2  0  0  0  0
  3  1  2  0  0  0  0
  4  8  1  0  0  0  0
  5  3  1  0  0  0  0
  6  1  1  0  0  0  0
  7  6  2  0  0  0  0
  8  9  2  0  0  0  0
  9  3  1  0  0  0  0
 10  4  2  0  0  0  0
 11  8  1  0  0  0  0
 12  5  1  0  0  0  0
 12 11  2  0  0  0  0
 13  4  1  0  0  0  0
 14  6  1  0  0  0  0
 15  7  1  0  0  0  0
 16 13  1  0  0  0  0
 17 15  1  0  0  0  0
 18 14  1  0  0  0  0
M  END
>  <idnumber>
T5746387

>  <LogP>
2.696000000000000e+000

>  <rotating_bonds>
3.000000000000000e+000

>  <hb_acceptors>
3.000000000000000e+000

>  <hb_donors>
1.000000000000000e+000

>  <PSA>
5.488000000000000e+001

>  <clusterid>
-1253

>  <is_centroid>
@

>  <class1>
821

>  <population1>
4380

>  <population>
4380

>  <cansmi>
CNC(=O)c1ccc2c(c1)nc(c(n2)CC)CC

>  <HBA2>
4

>  <HBD>
1

>  <logP>
2.5051

>  <TPSA>
54.88

>  <MW>
243.304

$$$$

 OpenBabel02121609142D

 21 22  0  0  0  0  0  0  0  0999 V2000
   -1.3000    3.0000    0.0000 N   0  0  0  0  0  0  0  0  0  0  0  0
   -1.3000    4.0000    0.0000 C   0  0  0  0  0  0  0  0  0  0  0  0
   -0.4333   -0.5000    0.0000 C   0  0  0  0  0  0  0  0  0  0  0  0
   -0.4333   -1.5000    0.0000 N   0  0  0  0  0  0  0  0  0  0  0  0
    0.4292   -2.0000    0.0000 C   0  0  3  0  0  0  0  0  0  0  0  0
   -1.3000    1.0000    0.0000 N   0  0  0  0  0  0  0  0  0  0  0  0
    0.4292   -3.0000    0.0000 C   0  0  3  0  0  0  0  0  0  0  0  0
   -0.4333    2.5000    0.0000 C   0  0  0  0  0  0  0  0  0  0  0  0
   -2.1708    2.5000    0.0000 C   0  0  0  0  0  0  0  0  0  0  0  0
   -1.3000    0.0000    0.0000 C   0  0  0  0  0  0  0  0  0  0  0  0
   -2.1708    4.5000    0.0000 O   0  0  0  0  0  0  0  0  0  0  0  0
    0.4292    0.0000    0.0000 O   0  0  0  0  0  0  0  0  0  0  0  0
   -2.1708    1.5000    0.0000 C   0  0  0  0  0  0  0  0  0  0  0  0
   -0.4333    1.5000    0.0000 C   0  0  0  0  0  0  0  0  0  0  0  0
    1.2917   -3.5000    0.0000 C   0  0  3  0  0  0  0  0  0  0  0  0
    1.2917   -1.5000    0.0000 C   0  0  0  0  0  0  0  0  0  0  0  0
   -0.4333    4.5000    0.0000 C   0  0  0  0  0  0  0  0  0  0  0  0
    2.1625   -2.0000    0.0000 C   0  0  0  0  0  0  0  0  0  0  0  0
   -0.4333   -3.5000    0.0000 C   0  0  0  0  0  0  0  0  0  0  0  0
    2.1625   -3.0000    0.0000 C   0  0  0  0  0  0  0  0  0  0  0  0
    1.2917   -4.5000    0.0000 C   0  0  0  0  0  0  0  0  0  0  0  0
  2  1  1  0  0  0  0
  3 10  1  0  0  0  0
  4  3  1  0  0  0  0
  5  4  1  0  0  0  0
  6 13  1  0  0  0  0
  6 14  1  0  0  0  0
  7  5  1  0  0  0  0
  8  1  1  0  0  0  0
  9  1  1  0  0  0  0
 10  6  1  0  0  0  0
 11  2  2  0  0  0  0
 12  3  2  0  0  0  0
 13  9  1  0  0  0  0
 14  8  1  0  0  0  0
 15  7  1  0  0  0  0
 15 20  1  0  0  0  0
 16  5  1  0  0  0  0
 17  2  1  0  0  0  0
 18 16  1  0  0  0  0
 19  7  1  0  0  0  0
 20 18  1  0  0  0  0
 21 15  1  0  0  0  0
M  END
>  <idnumber>
T5746592

>  <LogP>
2.087000000000000e+000

>  <rotating_bonds>
3.000000000000000e+000

>  <hb_acceptors>
3.000000000000000e+000

>  <hb_donors>
1.000000000000000e+000

>  <PSA>
5.265000000000000e+001

>  <clusterid>
476

>  <is_centroid>
@

>  <class1>
717

>  <class2>
797

>  <population1>
74368

>  <population2>
40410

>  <population>
1983

>  <cansmi>
O=C(NC1CCCC(C1C)C)CN1CCN(CC1)C(=O)C

>  <HBA2>
5

>  <HBD>
1

>  <logP>
1.3581

>  <TPSA>
52.65

>  <MW>
295.42

$$$$

 OpenBabel02121609142D

 20 21  0  0  0  0  0  0  0  0999 V2000
    0.4292    1.2500    0.0000 C   0  0  0  0  0  0  0  0  0  0  0  0
    0.4292    0.2500    0.0000 C   0  0  0  0  0  0  0  0  0  0  0  0
   -0.4333    1.7500    0.0000 C   0  0  0  0  0  0  0  0  0  0  0  0
    1.2917    1.7500    0.0000 C   0  0  0  0  0  0  0  0  0  0  0  0
   -0.4333    2.7500    0.0000 O   0  0  0  0  0  0  0  0  0  0  0  0
   -0.4333   -0.2500    0.0000 N   0  0  0  0  0  0  0  0  0  0  0  0
    0.4292    3.2500    0.0000 C   0  0  0  0  0  0  0  0  0  0  0  0
    1.2917    2.7500    0.0000 C   0  0  0  0  0  0  0  0  0  0  0  0
   -0.4333   -1.2500    0.0000 C   0  0  0  0  0  0  0  0  0  0  0  0
   -1.3000   -1.7500    0.0000 C   0  0  0  0  0  0  0  0  0  0  0  0
    1.2917   -0.2500    0.0000 O   0  0  0  0  0  0  0  0  0  0  0  0
    0.4292    4.2500    0.0000 O   0  0  0  0  0  0  0  0  0  0  0  0
   -1.3000   -2.7500    0.0000 C   0  0  0  0  0  0  0  0  0  0  0  0
    0.4292   -1.7500    0.0000 C   0  0  0  0  0  0  0  0  0  0  0  0
   -0.4333   -3.2500    0.0000 C   0  0  0  0  0  0  0  0  0  0  0  0
   -1.3000    1.2500    0.0000 C   0  0  0  0  0  0  0  0  0  0  0  0
    2.1625    1.2500    0.0000 C   0  0  0  0  0  0  0  0  0  0  0  0
    0.4292   -2.7500    0.0000 C   0  0  0  0  0  0  0  0  0  0  0  0
   -2.1708   -1.2500    0.0000 C   0  0  0  0  0  0  0  0  0  0  0  0
   -0.4333   -4.2500    0.0000 C   0  0  0  0  0  0  0  0  0  0  0  0
  2  1  1  0  0  0  0
  3  1  2  0  0  0  0
  4  1  1  0  0  0  0
  5  3  1  0  0  0  0
  5  7  1  0  0  0  0
  6  2  1  0  0  0  0
  7  8  1  0  0  0  0
  8  4  2  0  0  0  0
  9  6  1  0  0  0  0
 10  9  2  0  0  0  0
 11  2  2  0  0  0  0
 12  7  2  0  0  0  0
 13 10  1  0  0  0  0
 13 15  2  0  0  0  0
 14  9  1  0  0  0  0
 15 18  1  0  0  0  0
 16  3  1  0  0  0  0
 17  4  1  0  0  0  0
 18 14  2  0  0  0  0
 19 10  1  0  0  0  0
 20 15  1  0  0  0  0
M  END
>  <idnumber>
T5747841

>  <LogP>
1.998000000000000e+000

>  <rotating_bonds>
2.000000000000000e+000

>  <hb_acceptors>
2.000000000000000e+000

>  <hb_donors>
1.000000000000000e+000

>  <PSA>
5.540000000000000e+001

>  <clusterid>
667

>  <is_centroid>
@

>  <class1>
625

>  <class2>
832

>  <population1>
877209

>  <population2>
162

>  <population>
139

>  <cansmi>
Cc1ccc(c(c1)C)NC(=O)c1c(C)cc(=O)oc1C

>  <HBA2>
4

>  <HBD>
1

>  <logP>
3.1987

>  <TPSA>
59.31

>  <MW>
271.311

$$$$

 OpenBabel02121609142D

 21 23  0  0  0  0  0  0  0  0999 V2000
    0.1792   -0.7917    0.0000 C   0  0  0  0  0  0  0  0  0  0  0  0
    0.7667   -1.6042    0.0000 N   0  0  0  0  0  0  0  0  0  0  0  0
    1.7167   -1.2917    0.0000 C   0  0  0  0  0  0  0  0  0  0  0  0
    1.7167   -0.2917    0.0000 N   0  0  0  0  0  0  0  0  0  0  0  0
   -0.8208   -0.7917    0.0000 C   0  0  0  0  0  0  0  0  0  0  0  0
    0.7667    0.0125    0.0000 C   0  0  0  0  0  0  0  0  0  0  0  0
   -1.3208    0.0708    0.0000 N   0  0  0  0  0  0  0  0  0  0  0  0
   -2.3208    0.0708    0.0000 C   0  0  0  0  0  0  0  0  0  0  0  0
    2.5792   -1.7917    0.0000 C   0  0  0  0  0  0  0  0  0  0  0  0
    2.5792    0.2083    0.0000 C   0  0  0  0  0  0  0  0  0  0  0  0
    3.4500   -1.2917    0.0000 C   0  0  0  0  0  0  0  0  0  0  0  0
    3.4500   -0.2917    0.0000 C   0  0  0  0  0  0  0  0  0  0  0  0
   -1.3208   -1.6625    0.0000 O   0  0  0  0  0  0  0  0  0  0  0  0
   -2.8208    0.9333    0.0000 C   0  0  0  0  0  0  0  0  0  0  0  0
   -2.8208   -0.7917    0.0000 C   0  0  0  0  0  0  0  0  0  0  0  0
   -4.3208    0.0708    0.0000 C   0  0  0  0  0  0  0  0  0  0  0  0
    4.3167   -1.7917    0.0000 C   0  0  0  0  0  0  0  0  0  0  0  0
   -3.8208   -0.7917    0.0000 C   0  0  0  0  0  0  0  0  0  0  0  0
   -3.8208    0.9333    0.0000 C   0  0  0  0  0  0  0  0  0  0  0  0
   -2.3208    1.8000    0.0000 C   0  0  0  0  0  0  0  0  0  0  0  0
   -2.3208   -1.6625    0.0000 C   0  0  0  0  0  0  0  0  0  0  0  0
  2  1  1  0  0  0  0
  3  2  2  0  0  0  0
  4  6  1  0  0  0  0
  4  3  1  0  0  0  0
  5  1  1  0  0  0  0
  6  1  2  0  0  0  0
  7  5  1  0  0  0  0
  8  7  1  0  0  0  0
  9  3  1  0  0  0  0
 10  4  1  0  0  0  0
 11  9  2  0  0  0  0
 11 12  1  0  0  0  0
 12 10  2  0  0  0  0
 13  5  2  0  0  0  0
 14  8  1  0  0  0  0
 15  8  2  0  0  0  0
 16 18  2  0  0  0  0
 17 11  1  0  0  0  0
 18 15  1  0  0  0  0
 19 14  2  0  0  0  0
 19 16  1  0  0  0  0
 20 14  1  0  0  0  0
 21 15  1  0  0  0  0
M  END
>  <idnumber>
T5750031

>  <LogP>
2.995000000000000e+000

>  <rotating_bonds>
2.000000000000000e+000

>  <hb_acceptors>
3.000000000000000e+000

>  <hb_donors>
1.000000000000000e+000

>  <PSA>
4.640000000000000e+001

>  <clusterid>
357

>  <is_centroid>
@

>  <class1>
625

>  <class2>
660

>  <population1>
877209

>  <population2>
3949

>  <population>
3187

>  <cansmi>
Cc1ccn2c(c1)nc(c2)C(=O)Nc1c(C)cccc1C

>  <HBA2>
4

>  <HBD>
1

>  <logP>
3.5848

>  <TPSA>
46.4

>  <MW>
279.336

$$$$

 OpenBabel02121609142D

 15 16  0  0  0  0  0  0  0  0999 V2000
   -0.1833   -0.0625    0.0000 C   0  0  0  0  0  0  0  0  0  0  0  0
    0.4875   -0.8042    0.0000 C   0  0  0  0  0  0  0  0  0  0  0  0
   -1.1583   -0.2667    0.0000 N   0  0  0  0  0  0  0  0  0  0  0  0
    0.1250    0.8875    0.0000 N   0  0  0  0  0  0  0  0  0  0  0  0
    0.1792   -1.7542    0.0000 C   0  0  0  0  0  0  0  0  0  0  0  0
    1.4667   -0.6000    0.0000 C   0  0  0  0  0  0  0  0  0  0  0  0
    2.4417   -0.3917    0.0000 N   0  0  0  0  0  0  0  0  0  0  0  0
   -1.4708   -1.2167    0.0000 C   0  0  0  0  0  0  0  0  0  0  0  0
   -0.8000   -1.9667    0.0000 C   0  0  0  0  0  0  0  0  0  0  0  0
    1.0792    1.1958    0.0000 C   0  0  0  0  0  0  0  0  0  0  0  0
   -0.4625    1.6958    0.0000 C   0  0  0  0  0  0  0  0  0  0  0  0
    0.8417   -2.5000    0.0000 C   0  0  0  0  0  0  0  0  0  0  0  0
   -2.4458   -1.4292    0.0000 C   0  0  0  0  0  0  0  0  0  0  0  0
    0.1250    2.5083    0.0000 C   0  0  0  0  0  0  0  0  0  0  0  0
    1.0792    2.1958    0.0000 C   0  0  0  0  0  0  0  0  0  0  0  0
  2  1  2  0  0  0  0
  3  1  1  0  0  0  0
  4  1  1  0  0  0  0
  5  2  1  0  0  0  0
  6  2  1  0  0  0  0
  7  6  3  0  0  0  0
  8  3  2  0  0  0  0
  9  8  1  0  0  0  0
  9  5  2  0  0  0  0
 10  4  1  0  0  0  0
 11  4  1  0  0  0  0
 12  5  1  0  0  0  0
 13  8  1  0  0  0  0
 14 11  1  0  0  0  0
 15 10  1  0  0  0  0
 15 14  1  0  0  0  0
M  END
>  <idnumber>
T5750355

>  <LogP>
2.761000000000000e+000

>  <rotating_bonds>
2.000000000000000e+000

>  <hb_acceptors>
3.000000000000000e+000

>  <hb_donors>
0.000000000000000e+000

>  <PSA>
3.992000000000000e+001

>  <clusterid>
-1257

>  <is_centroid>
@

>  <class1>
642

>  <class2>
632

>  <population1>
51183

>  <population2>
79489

>  <population>
3055

>  <cansmi>
N#Cc1c(C)cc(nc1N1CCCC1)C

>  <HBA2>
3

>  <HBD>
0

>  <logP>
2.23528

>  <TPSA>
39.92

>  <MW>
201.268

$$$$

 OpenBabel02121609142D

 12 13  0  0  0  0  0  0  0  0999 V2000
   -1.1583    0.5000    0.0000 N   0  0  0  0  0  0  0  0  0  0  0  0
   -1.1583   -0.5000    0.0000 C   0  0  0  0  0  0  0  0  0  0  0  0
   -0.2083   -0.8042    0.0000 N   0  0  0  0  0  0  0  0  0  0  0  0
    0.3792    0.0000    0.0000 C   0  0  0  0  0  0  0  0  0  0  0  0
   -0.2083    0.8125    0.0000 C   0  0  0  0  0  0  0  0  0  0  0  0
   -2.0208    1.0000    0.0000 C   0  0  0  0  0  0  0  0  0  0  0  0
   -2.0208   -1.0000    0.0000 C   0  0  0  0  0  0  0  0  0  0  0  0
   -2.8875    0.5000    0.0000 C   0  0  0  0  0  0  0  0  0  0  0  0
   -2.8875   -0.5000    0.0000 C   0  0  0  0  0  0  0  0  0  0  0  0
    1.3792    0.0000    0.0000 C   0  0  0  0  0  0  0  0  0  0  0  0
    2.8792    0.8708    0.0000 N   0  0  0  0  0  0  0  0  0  0  0  0
    1.8792    0.8708    0.0000 C   0  0  0  0  0  0  0  0  0  0  0  0
  2  1  1  0  0  0  0
  3  2  2  0  0  0  0
  4  5  2  0  0  0  0
  4  3  1  0  0  0  0
  5  1  1  0  0  0  0
  6  1  1  0  0  0  0
  7  2  1  0  0  0  0
  7  9  2  0  0  0  0
  8  6  2  0  0  0  0
  9  8  1  0  0  0  0
 10  4  1  0  0  0  0
 11 12  1  0  0  0  0
 12 10  1  0  0  0  0
M  END
>  <idnumber>
T5750861

>  <LogP>
2.670000000000000e-001

>  <rotating_bonds>
2.000000000000000e+000

>  <hb_acceptors>
3.000000000000000e+000

>  <hb_donors>
1.000000000000000e+000

>  <PSA>
4.332000000000000e+001

>  <clusterid>
-1263

>  <is_centroid>
@

>  <class1>
660

>  <population1>
3949

>  <population>
3949

>  <cansmi>
NCCc1nc2n(c1)cccc2

>  <HBA2>
3

>  <HBD>
1

>  <logP>
1.5358

>  <TPSA>
43.32

>  <MW>
161.204

$$$$

 OpenBabel02121609142D

 17 18  0  0  0  0  0  0  0  0999 V2000
    0.0000   -0.5000    0.0000 C   0  0  0  0  0  0  0  0  0  0  0  0
    0.0000    0.5000    0.0000 C   0  0  0  0  0  0  0  0  0  0  0  0
   -0.8708   -1.0000    0.0000 O   0  0  0  0  0  0  0  0  0  0  0  0
   -0.8708    1.0000    0.0000 C   0  0  0  0  0  0  0  0  0  0  0  0
    0.8625   -1.0000    0.0000 C   0  0  0  0  0  0  0  0  0  0  0  0
   -1.7333    0.5000    0.0000 C   0  0  0  0  0  0  0  0  0  0  0  0
   -1.7333   -0.5000    0.0000 C   0  0  0  0  0  0  0  0  0  0  0  0
    1.7292   -0.5000    0.0000 N   0  0  0  0  0  0  0  0  0  0  0  0
   -0.8708    2.0000    0.0000 O   0  0  0  0  0  0  0  0  0  0  0  0
    0.8625   -2.0000    0.0000 O   0  0  0  0  0  0  0  0  0  0  0  0
    2.5917   -1.0000    0.0000 C   0  0  0  0  0  0  0  0  0  0  0  0
   -2.6000    1.0000    0.0000 C   0  0  0  0  0  0  0  0  0  0  0  0
   -2.6000   -1.0000    0.0000 C   0  0  0  0  0  0  0  0  0  0  0  0
    2.5917   -2.0000    0.0000 C   0  0  0  0  0  0  0  0  0  0  0  0
    3.4625   -0.5000    0.0000 C   0  0  0  0  0  0  0  0  0  0  0  0
   -3.4708    0.5000    0.0000 C   0  0  0  0  0  0  0  0  0  0  0  0
   -3.4708   -0.5000    0.0000 C   0  0  0  0  0  0  0  0  0  0  0  0
  2  1  2  0  0  0  0
  3  1  1  0  0  0  0
  4  2  1  0  0  0  0
  4  6  1  0  0  0  0
  5  1  1  0  0  0  0
  6  7  2  0  0  0  0
  7  3  1  0  0  0  0
  8  5  1  0  0  0  0
  9  4  2  0  0  0  0
 10  5  2  0  0  0  0
 11  8  1  0  0  0  0
 12  6  1  0  0  0  0
 12 16  2  0  0  0  0
 13  7  1  0  0  0  0
 14 11  1  0  0  0  0
 15 11  1  0  0  0  0
 16 17  1  0  0  0  0
 17 13  2  0  0  0  0
M  END
>  <idnumber>
T5751199

>  <LogP>
1.299000000000000e+000

>  <rotating_bonds>
2.000000000000000e+000

>  <hb_acceptors>
3.000000000000000e+000

>  <hb_donors>
1.000000000000000e+000

>  <PSA>
5.540000000000000e+001

>  <clusterid>
159

>  <is_centroid>
@

>  <class1>
819

>  <population1>
2257

>  <population>
2257

>  <cansmi>
CC(NC(=O)c1cc(=O)c2c(o1)cccc2)C

>  <HBA2>
4

>  <HBD>
1

>  <logP>
2.3221

>  <TPSA>
59.31

>  <MW>
231.247

$$$$

 OpenBabel02121609142D

 19 21  0  0  0  0  0  0  0  0999 V2000
   -0.8000    0.0000    0.0000 C   0  0  0  0  0  0  0  0  0  0  0  0
   -1.6708    0.5083    0.0000 C   0  0  0  0  0  0  0  0  0  0  0  0
    0.0667   -1.5000    0.0000 N   0  0  0  0  0  0  0  0  0  0  0  0
   -0.8000   -1.0000    0.0000 C   0  0  0  0  0  0  0  0  0  0  0  0
    0.0667    0.5083    0.0000 C   0  0  0  0  0  0  0  0  0  0  0  0
    0.9292   -1.0000    0.0000 C   0  0  0  0  0  0  0  0  0  0  0  0
   -2.5333    0.0000    0.0000 N   0  0  0  0  0  0  0  0  0  0  0  0
    0.9292    0.0000    0.0000 C   0  0  0  0  0  0  0  0  0  0  0  0
   -3.4000    0.5083    0.0000 C   0  0  0  0  0  0  0  0  0  0  0  0
    1.7917   -1.5000    0.0000 C   0  0  0  0  0  0  0  0  0  0  0  0
   -3.9000    1.3708    0.0000 C   0  0  0  0  0  0  0  0  0  0  0  0
   -4.4083    0.5083    0.0000 C   0  0  0  0  0  0  0  0  0  0  0  0
   -1.6708    1.5000    0.0000 O   0  0  0  0  0  0  0  0  0  0  0  0
    1.7917    0.5083    0.0000 C   0  0  0  0  0  0  0  0  0  0  0  0
    2.6625   -1.0000    0.0000 C   0  0  0  0  0  0  0  0  0  0  0  0
    2.6625    0.0000    0.0000 C   0  0  0  0  0  0  0  0  0  0  0  0
    3.5292   -1.5000    0.0000 O   0  0  0  0  0  0  0  0  0  0  0  0
   -1.6708   -1.5000    0.0000 C   0  0  0  0  0  0  0  0  0  0  0  0
    4.3917   -1.0000    0.0000 C   0  0  0  0  0  0  0  0  0  0  0  0
  2  1  1  0  0  0  0
  3  4  2  0  0  0  0
  3  6  1  0  0  0  0
  4  1  1  0  0  0  0
  5  1  2  0  0  0  0
  6  8  2  0  0  0  0
  7  2  1  0  0  0  0
  8  5  1  0  0  0  0
  9  7  1  0  0  0  0
 10  6  1  0  0  0  0
 11  9  1  0  0  0  0
 11 12  1  0  0  0  0
 12  9  1  0  0  0  0
 13  2  2  0  0  0  0
 14  8  1  0  0  0  0
 15 16  1  0  0  0  0
 15 10  2  0  0  0  0
 16 14  2  0  0  0  0
 17 15  1  0  0  0  0
 18  4  1  0  0  0  0
 19 17  1  0  0  0  0
M  END
>  <idnumber>
T5751693

>  <LogP>
2.272000000000000e+000

>  <rotating_bonds>
3.000000000000000e+000

>  <hb_acceptors>
3.000000000000000e+000

>  <hb_donors>
1.000000000000000e+000

>  <PSA>
5.121999999999999e+001

>  <clusterid>
-1270

>  <is_centroid>
@

>  <class1>
675

>  <class2>
682

>  <population1>
33654

>  <population2>
20351

>  <population>
612

>  <cansmi>
COc1ccc2c(c1)nc(c(c2)C(=O)NC1CC1)C

>  <HBA2>
4

>  <HBD>
1

>  <logP>
2.8349

>  <TPSA>
51.22

>  <MW>
256.3

$$$$

 OpenBabel02121609142D

 18 20  0  0  0  0  0  0  0  0999 V2000
   -1.7208    0.0708    0.0000 C   0  0  0  0  0  0  0  0  0  0  0  0
   -1.7208    1.0708    0.0000 C   0  0  0  0  0  0  0  0  0  0  0  0
   -0.7708   -0.2417    0.0000 N   0  0  0  0  0  0  0  0  0  0  0  0
   -0.1833    0.5708    0.0000 N   0  0  0  0  0  0  0  0  0  0  0  0
   -2.5875   -0.4292    0.0000 N   0  0  0  0  0  0  0  0  0  0  0  0
   -2.5875    1.5708    0.0000 C   0  0  0  0  0  0  0  0  0  0  0  0
   -0.7708    1.3750    0.0000 C   0  0  0  0  0  0  0  0  0  0  0  0
   -3.4583    1.0708    0.0000 N   0  0  0  0  0  0  0  0  0  0  0  0
   -3.4583    0.0708    0.0000 C   0  0  0  0  0  0  0  0  0  0  0  0
   -0.4625   -1.1917    0.0000 C   0  0  0  0  0  0  0  0  0  0  0  0
   -2.5875    2.5708    0.0000 O   0  0  0  0  0  0  0  0  0  0  0  0
    0.5167   -1.4042    0.0000 C   0  0  0  0  0  0  0  0  0  0  0  0
    2.4667   -1.8167    0.0000 C   0  0  0  0  0  0  0  0  0  0  0  0
    1.1792   -0.6542    0.0000 C   0  0  0  0  0  0  0  0  0  0  0  0
    0.8250   -2.3542    0.0000 C   0  0  0  0  0  0  0  0  0  0  0  0
    2.1625   -0.8667    0.0000 C   0  0  0  0  0  0  0  0  0  0  0  0
    1.8042   -2.5625    0.0000 C   0  0  0  0  0  0  0  0  0  0  0  0
    3.4500   -2.0250    0.0000 C   0  0  0  0  0  0  0  0  0  0  0  0
  2  1  2  0  0  0  0
  3  1  1  0  0  0  0
  4  3  1  0  0  0  0
  4  7  2  0  0  0  0
  5  1  1  0  0  0  0
  6  2  1  0  0  0  0
  6  8  1  0  0  0  0
  7  2  1  0  0  0  0
  8  9  1  0  0  0  0
  9  5  2  0  0  0  0
 10  3  1  0  0  0  0
 11  6  2  0  0  0  0
 12 10  1  0  0  0  0
 13 17  2  0  0  0  0
 13 16  1  0  0  0  0
 14 12  1  0  0  0  0
 15 12  2  0  0  0  0
 16 14  2  0  0  0  0
 17 15  1  0  0  0  0
 18 13  1  0  0  0  0
M  END
>  <idnumber>
T5751724

>  <LogP>
2.838000000000000e+000

>  <rotating_bonds>
2.000000000000000e+000

>  <hb_acceptors>
3.000000000000000e+000

>  <hb_donors>
1.000000000000000e+000

>  <PSA>
5.928000000000000e+001

>  <clusterid>
711

>  <is_centroid>
@

>  <class1>
625

>  <class2>
662

>  <population1>
877209

>  <population2>
1235

>  <population>
1138

>  <cansmi>
Cc1ccc(cc1)Cn1ncc2c1nc[nH]c2=O

>  <HBA2>
4

>  <HBD>
1

>  <logP>
1.4763

>  <TPSA>
63.57

>  <MW>
240.261

$$$$

 OpenBabel02121609142D

 18 20  0  0  0  0  0  0  0  0999 V2000
   -1.2083   -1.1750    0.0000 O   0  0  0  0  0  0  0  0  0  0  0  0
    0.3792   -0.3625    0.0000 C   0  0  0  0  0  0  0  0  0  0  0  0
   -0.6208   -0.3625    0.0000 C   0  0  3  0  0  0  0  0  0  0  0  0
   -2.1583   -0.8625    0.0000 C   0  0  0  0  0  0  0  0  0  0  0  0
    0.8792    0.5000    0.0000 N   0  0  0  0  0  0  0  0  0  0  0  0
   -1.2083    0.4458    0.0000 C   0  0  0  0  0  0  0  0  0  0  0  0
   -2.1583    0.1375    0.0000 C   0  0  0  0  0  0  0  0  0  0  0  0
    0.8792   -1.2292    0.0000 O   0  0  0  0  0  0  0  0  0  0  0  0
    1.8792    0.5000    0.0000 C   0  0  0  0  0  0  0  0  0  0  0  0
   -3.0208   -1.3625    0.0000 C   0  0  0  0  0  0  0  0  0  0  0  0
   -3.0208    0.6375    0.0000 C   0  0  0  0  0  0  0  0  0  0  0  0
    2.3792    1.3708    0.0000 C   0  0  0  0  0  0  0  0  0  0  0  0
    2.3792   -0.3625    0.0000 C   0  0  0  0  0  0  0  0  0  0  0  0
   -3.8958   -0.8625    0.0000 C   0  0  0  0  0  0  0  0  0  0  0  0
   -3.8958    0.1375    0.0000 C   0  0  0  0  0  0  0  0  0  0  0  0
    3.3792   -0.3625    0.0000 C   0  0  0  0  0  0  0  0  0  0  0  0
    3.3792    1.3708    0.0000 C   0  0  0  0  0  0  0  0  0  0  0  0
    3.8792    0.5000    0.0000 C   0  0  0  0  0  0  0  0  0  0  0  0
  2  3  1  0  0  0  0
  3  1  1  0  0  0  0
  4  1  1  0  0  0  0
  5  2  1  0  0  0  0
  6  3  1  0  0  0  0
  6  7  1  0  0  0  0
  7  4  2  0  0  0  0
  8  2  2  0  0  0  0
  9  5  1  0  0  0  0
 10  4  1  0  0  0  0
 11  7  1  0  0  0  0
 11 15  2  0  0  0  0
 12  9  2  0  0  0  0
 13  9  1  0  0  0  0
 14 10  2  0  0  0  0
 15 14  1  0  0  0  0
 16 13  2  0  0  0  0
 17 12  1  0  0  0  0
 17 18  2  0  0  0  0
 18 16  1  0  0  0  0
M  END
>  <idnumber>
T5752647

>  <LogP>
2.562000000000000e+000

>  <rotating_bonds>
2.000000000000000e+000

>  <hb_acceptors>
2.000000000000000e+000

>  <hb_donors>
1.000000000000000e+000

>  <PSA>
3.833000000000000e+001

>  <clusterid>
576

>  <is_centroid>
@

>  <class1>
625

>  <class2>
803

>  <population1>
877209

>  <population2>
2603

>  <population>
2603

>  <cansmi>
O=C(C1Cc2c(O1)cccc2)Nc1ccccc1

>  <HBA2>
3

>  <HBD>
1

>  <logP>
2.7018

>  <TPSA>
38.33

>  <MW>
239.269

$$$$

 OpenBabel02121609142D

 19 21  0  0  0  0  0  0  0  0999 V2000
   -0.9083   -0.0042    0.0000 C   0  0  0  0  0  0  0  0  0  0  0  0
    0.0667    0.2083    0.0000 N   0  0  0  0  0  0  0  0  0  0  0  0
   -1.5833    0.7375    0.0000 C   0  0  0  0  0  0  0  0  0  0  0  0
    2.0250    0.6208    0.0000 N   0  0  0  0  0  0  0  0  0  0  0  0
    0.7375   -0.5375    0.0000 C   0  0  0  0  0  0  0  0  0  0  0  0
    1.7167   -0.3292    0.0000 C   0  0  0  0  0  0  0  0  0  0  0  0
   -2.5750    0.6333    0.0000 O   0  0  0  0  0  0  0  0  0  0  0  0
   -1.2208   -0.9542    0.0000 O   0  0  0  0  0  0  0  0  0  0  0  0
   -1.3708    1.7208    0.0000 C   0  0  0  0  0  0  0  0  0  0  0  0
   -2.9833    1.5500    0.0000 C   0  0  0  0  0  0  0  0  0  0  0  0
   -2.2375    2.2208    0.0000 C   0  0  0  0  0  0  0  0  0  0  0  0
    1.4375    1.4333    0.0000 C   0  0  0  0  0  0  0  0  0  0  0  0
    2.9750    0.9333    0.0000 C   0  0  0  0  0  0  0  0  0  0  0  0
    0.4292   -1.4917    0.0000 C   0  0  0  0  0  0  0  0  0  0  0  0
    2.3792   -1.0750    0.0000 C   0  0  0  0  0  0  0  0  0  0  0  0
    2.9750    1.9333    0.0000 C   0  0  0  0  0  0  0  0  0  0  0  0
    2.0250    2.2375    0.0000 C   0  0  0  0  0  0  0  0  0  0  0  0
    1.0917   -2.2292    0.0000 C   0  0  0  0  0  0  0  0  0  0  0  0
    2.0667   -2.0250    0.0000 C   0  0  0  0  0  0  0  0  0  0  0  0
  2  1  1  0  0  0  0
  3  1  1  0  0  0  0
  4  6  1  0  0  0  0
  5  2  1  0  0  0  0
  6  5  2  0  0  0  0
  7  3  1  0  0  0  0
  8  1  2  0  0  0  0
  9  3  2  0  0  0  0
 10  7  1  0  0  0  0
 11  9  1  0  0  0  0
 11 10  2  0  0  0  0
 12  4  1  0  0  0  0
 13  4  1  0  0  0  0
 14  5  1  0  0  0  0
 15  6  1  0  0  0  0
 15 19  2  0  0  0  0
 16 13  1  0  0  0  0
 16 17  1  0  0  0  0
 17 12  1  0  0  0  0
 18 14  2  0  0  0  0
 19 18  1  0  0  0  0
M  END
>  <idnumber>
T5753616

>  <LogP>
2.625000000000000e+000

>  <rotating_bonds>
3.000000000000000e+000

>  <hb_acceptors>
2.000000000000000e+000

>  <hb_donors>
1.000000000000000e+000

>  <PSA>
4.548000000000000e+001

>  <clusterid>
-1274

>  <is_centroid>
@

>  <class1>
642

>  <class2>
625

>  <class3>
704

>  <population1>
51183

>  <population2>
877209

>  <population3>
51112

>  <population>
1700

>  <cansmi>
O=C(c1ccco1)Nc1ccccc1N1CCCC1

>  <HBA2>
4

>  <HBD>
1

>  <logP>
3.2701

>  <TPSA>
45.48

>  <MW>
256.3

$$$$

 OpenBabel02121609142D

 15 16  0  0  0  0  0  0  0  0999 V2000
   -1.3000   -0.7500    0.0000 C   0  0  0  0  0  0  0  0  0  0  0  0
    0.4292   -0.7500    0.0000 N   0  0  0  0  0  0  0  0  0  0  0  0
   -0.4333   -1.2500    0.0000 C   0  0  0  0  0  0  0  0  0  0  0  0
    0.4292    0.2500    0.0000 C   0  0  0  0  0  0  0  0  0  0  0  0
   -1.3000    0.2500    0.0000 C   0  0  0  0  0  0  0  0  0  0  0  0
   -0.4333    0.7500    0.0000 C   0  0  0  0  0  0  0  0  0  0  0  0
   -2.1708   -1.2500    0.0000 C   0  0  0  0  0  0  0  0  0  0  0  0
   -3.0333   -1.7500    0.0000 N   0  0  0  0  0  0  0  0  0  0  0  0
   -0.4333   -2.2500    0.0000 O   0  0  0  0  0  0  0  0  0  0  0  0
    1.2917    0.7500    0.0000 C   0  0  0  0  0  0  0  0  0  0  0  0
    2.1625    0.2500    0.0000 C   0  0  0  0  0  0  0  0  0  0  0  0
    1.2917    1.7500    0.0000 C   0  0  0  0  0  0  0  0  0  0  0  0
    2.1625    2.2500    0.0000 C   0  0  0  0  0  0  0  0  0  0  0  0
    3.0292    0.7500    0.0000 C   0  0  0  0  0  0  0  0  0  0  0  0
    3.0292    1.7500    0.0000 C   0  0  0  0  0  0  0  0  0  0  0  0
  2  3  1  0  0  0  0
  2  4  1  0  0  0  0
  3  1  1  0  0  0  0
  4  6  2  0  0  0  0
  5  1  2  0  0  0  0
  6  5  1  0  0  0  0
  7  1  1  0  0  0  0
  8  7  3  0  0  0  0
  9  3  2  0  0  0  0
 10  4  1  0  0  0  0
 11 10  1  0  0  0  0
 12 10  2  0  0  0  0
 13 12  1  0  0  0  0
 14 11  2  0  0  0  0
 14 15  1  0  0  0  0
 15 13  2  0  0  0  0
M  END
>  <idnumber>
T5755317

>  <LogP>
1.414000000000000e+000

>  <rotating_bonds>
2.000000000000000e+000

>  <hb_acceptors>
2.000000000000000e+000

>  <hb_donors>
1.000000000000000e+000

>  <PSA>
5.289000000000002e+001

>  <clusterid>
-1275

>  <is_centroid>
@

>  <class1>
696

>  <class2>
625

>  <population1>
4759

>  <population2>
877209

>  <population>
3770

>  <cansmi>
N#Cc1ccc([nH]c1=O)c1ccccc1

>  <HBA2>
2

>  <HBD>
1

>  <logP>
1.91358

>  <TPSA>
56.65

>  <MW>
196.205

$$$$

 OpenBabel02121609142D

 19 21  0  0  0  0  0  0  0  0999 V2000
    1.8042   -0.6917    0.0000 C   0  0  0  0  0  0  0  0  0  0  0  0
    1.9042   -1.6792    0.0000 N   0  0  0  0  0  0  0  0  0  0  0  0
    0.9375    0.8083    0.0000 C   0  0  0  0  0  0  0  0  0  0  0  0
    0.9375   -0.1917    0.0000 N   0  0  0  0  0  0  0  0  0  0  0  0
    2.7167   -0.2792    0.0000 C   0  0  0  0  0  0  0  0  0  0  0  0
    2.8875   -1.8917    0.0000 N   0  0  0  0  0  0  0  0  0  0  0  0
    0.0667    1.3083    0.0000 C   0  0  0  0  0  0  0  0  0  0  0  0
    3.3875   -1.0250    0.0000 C   0  0  0  0  0  0  0  0  0  0  0  0
   -0.7958    0.8083    0.0000 C   0  0  0  0  0  0  0  0  0  0  0  0
   -1.6583    1.3083    0.0000 C   0  0  0  0  0  0  0  0  0  0  0  0
    1.8042    1.3083    0.0000 O   0  0  0  0  0  0  0  0  0  0  0  0
   -1.6583    2.3083    0.0000 C   0  0  0  0  0  0  0  0  0  0  0  0
    0.0667    2.3083    0.0000 C   0  0  0  0  0  0  0  0  0  0  0  0
   -0.7958    2.8083    0.0000 C   0  0  0  0  0  0  0  0  0  0  0  0
    3.2917   -2.8042    0.0000 C   0  0  0  0  0  0  0  0  0  0  0  0
   -2.5250    0.8083    0.0000 C   0  0  0  0  0  0  0  0  0  0  0  0
   -2.5250    2.8083    0.0000 C   0  0  0  0  0  0  0  0  0  0  0  0
   -3.3958    1.3083    0.0000 C   0  0  0  0  0  0  0  0  0  0  0  0
   -3.3958    2.3083    0.0000 C   0  0  0  0  0  0  0  0  0  0  0  0
  2  1  2  0  0  0  0
  3  4  1  0  0  0  0
  4  1  1  0  0  0  0
  5  1  1  0  0  0  0
  6  2  1  0  0  0  0
  6  8  1  0  0  0  0
  7  3  1  0  0  0  0
  8  5  2  0  0  0  0
  9  7  2  0  0  0  0
 10  9  1  0  0  0  0
 10 12  2  0  0  0  0
 11  3  2  0  0  0  0
 12 14  1  0  0  0  0
 13  7  1  0  0  0  0
 14 13  2  0  0  0  0
 15  6  1  0  0  0  0
 16 10  1  0  0  0  0
 17 12  1  0  0  0  0
 18 16  1  0  0  0  0
 19 17  1  0  0  0  0
 19 18  1  0  0  0  0
M  END
>  <idnumber>
T5755891

>  <LogP>
2.961000000000000e+000

>  <rotating_bonds>
2.000000000000000e+000

>  <hb_acceptors>
2.000000000000000e+000

>  <hb_donors>
1.000000000000000e+000

>  <PSA>
4.692000000000000e+001

>  <clusterid>
713

>  <is_centroid>
@

>  <class1>
631

>  <class2>
807

>  <population1>
41612

>  <population2>
5384

>  <population>
104

>  <cansmi>
Cn1ccc(n1)NC(=O)c1ccc2c(c1)CCCC2

>  <HBA2>
4

>  <HBD>
1

>  <logP>
2.6242

>  <TPSA>
46.92

>  <MW>
255.315

$$$$

 OpenBabel02121609142D

 10 11  0  0  0  0  0  0  0  0999 V2000
   -0.1583    0.4833    0.0000 C   0  0  0  0  0  0  0  0  0  0  0  0
   -1.1083    0.7875    0.0000 N   0  0  0  0  0  0  0  0  0  0  0  0
    0.1542   -0.4750    0.0000 C   0  0  0  0  0  0  0  0  0  0  0  0
   -1.1083    1.7875    0.0000 N   0  0  0  0  0  0  0  0  0  0  0  0
    1.1042   -0.7792    0.0000 S   0  0  0  0  0  0  0  0  0  0  0  0
    0.4292    1.2875    0.0000 C   0  0  0  0  0  0  0  0  0  0  0  0
   -0.1583    2.0958    0.0000 C   0  0  0  0  0  0  0  0  0  0  0  0
   -0.4333   -1.2792    0.0000 C   0  0  0  0  0  0  0  0  0  0  0  0
    1.1042   -1.7792    0.0000 C   0  0  0  0  0  0  0  0  0  0  0  0
    0.1542   -2.0917    0.0000 C   0  0  0  0  0  0  0  0  0  0  0  0
  2  1  2  0  0  0  0
  3  1  1  0  0  0  0
  4  2  1  0  0  0  0
  5  3  1  0  0  0  0
  6  1  1  0  0  0  0
  7  6  2  0  0  0  0
  7  4  1  0  0  0  0
  8  3  2  0  0  0  0
  9  5  1  0  0  0  0
 10  8  1  0  0  0  0
 10  9  2  0  0  0  0
M  END
>  <idnumber>
T5756817

>  <LogP>
2.252000000000000e+000

>  <rotating_bonds>
1.000000000000000e+000

>  <hb_acceptors>
2.000000000000000e+000

>  <hb_donors>
1.000000000000000e+000

>  <PSA>
5.692000000000000e+001

>  <clusterid>
-1280

>  <is_centroid>
@

>  <class1>
645

>  <class2>
631

>  <population1>
105961

>  <population2>
41612

>  <population>
5539

>  <cansmi>
[nH]1ccc(n1)c1cccs1

>  <HBA2>
2

>  <HBD>
1

>  <logP>
2.1382

>  <TPSA>
56.92

>  <MW>
150.201

$$$$

 OpenBabel02121609142D

 20 22  0  0  0  0  0  0  0  0999 V2000
    0.0000    0.2500    0.0000 N   0  0  0  0  0  0  0  0  0  0  0  0
    0.8625   -0.2417    0.0000 C   0  0  3  0  0  0  0  0  0  0  0  0
   -0.8708   -0.2417    0.0000 C   0  0  0  0  0  0  0  0  0  0  0  0
    0.8625   -1.2500    0.0000 C   0  0  0  0  0  0  0  0  0  0  0  0
   -1.7333    0.2500    0.0000 C   0  0  0  0  0  0  0  0  0  0  0  0
    0.0000    1.2500    0.0000 C   0  0  0  0  0  0  0  0  0  0  0  0
   -1.7333    1.2500    0.0000 C   0  0  0  0  0  0  0  0  0  0  0  0
    0.0000   -1.7500    0.0000 O   0  0  0  0  0  0  0  0  0  0  0  0
   -0.8708    1.7500    0.0000 C   0  0  0  0  0  0  0  0  0  0  0  0
    1.7292    0.2500    0.0000 C   0  0  0  0  0  0  0  0  0  0  0  0
    1.7292   -1.7500    0.0000 N   0  0  0  0  0  0  0  0  0  0  0  0
   -2.6000   -0.2417    0.0000 C   0  0  0  0  0  0  0  0  0  0  0  0
   -2.6000    1.7500    0.0000 C   0  0  0  0  0  0  0  0  0  0  0  0
    2.5917   -0.2417    0.0000 C   0  0  0  0  0  0  0  0  0  0  0  0
    1.7292    1.2500    0.0000 C   0  0  0  0  0  0  0  0  0  0  0  0
   -3.4708    0.2500    0.0000 C   0  0  0  0  0  0  0  0  0  0  0  0
   -3.4708    1.2500    0.0000 C   0  0  0  0  0  0  0  0  0  0  0  0
    2.5917    1.7500    0.0000 C   0  0  0  0  0  0  0  0  0  0  0  0
    3.4625    0.2500    0.0000 C   0  0  0  0  0  0  0  0  0  0  0  0
    3.4625    1.2500    0.0000 C   0  0  0  0  0  0  0  0  0  0  0  0
  2  1  1  0  0  0  0
  3  1  1  0  0  0  0
  4  2  1  0  0  0  0
  5  3  1  0  0  0  0
  5  7  2  0  0  0  0
  6  1  1  0  0  0  0
  7  9  1  0  0  0  0
  8  4  2  0  0  0  0
  9  6  1  0  0  0  0
 10  2  1  0  0  0  0
 11  4  1  0  0  0  0
 12  5  1  0  0  0  0
 13  7  1  0  0  0  0
 14 10  1  0  0  0  0
 15 10  2  0  0  0  0
 16 12  2  0  0  0  0
 17 13  2  0  0  0  0
 17 16  1  0  0  0  0
 18 15  1  0  0  0  0
 19 14  2  0  0  0  0
 19 20  1  0  0  0  0
 20 18  2  0  0  0  0
M  END
>  <idnumber>
T5756930

>  <LogP>
2.678000000000000e+000

>  <rotating_bonds>
3.000000000000000e+000

>  <hb_acceptors>
2.000000000000000e+000

>  <hb_donors>
1.000000000000000e+000

>  <PSA>
4.633000000000000e+001

>  <clusterid>
714

>  <is_centroid>
@

>  <class1>
750

>  <class2>
625

>  <population1>
7929

>  <population2>
877209

>  <population>
7929

>  <cansmi>
NC(=O)C(N1CCc2c(C1)cccc2)c1ccccc1

>  <HBA2>
3

>  <HBD>
1

>  <logP>
2.9095

>  <TPSA>
46.33

>  <MW>
266.338

$$$$

 OpenBabel02121609142D

 21 23  0  0  0  0  0  0  0  0999 V2000
   -0.8708    2.5000    0.0000 C   0  0  0  0  0  0  0  0  0  0  0  0
   -0.8708    1.5000    0.0000 N   0  0  0  0  0  0  0  0  0  0  0  0
   -0.8708   -0.5000    0.0000 C   0  0  0  0  0  0  0  0  0  0  0  0
    0.0000    0.0000    0.0000 C   0  0  0  0  0  0  0  0  0  0  0  0
    0.0000    1.0000    0.0000 C   0  0  0  0  0  0  0  0  0  0  0  0
   -0.8708   -1.5000    0.0000 C   0  0  0  0  0  0  0  0  0  0  0  0
   -1.7333    1.0000    0.0000 C   0  0  0  0  0  0  0  0  0  0  0  0
   -1.7333    3.0000    0.0000 O   0  0  0  0  0  0  0  0  0  0  0  0
    0.0000    3.0000    0.0000 C   0  0  0  0  0  0  0  0  0  0  0  0
   -1.7333    0.0000    0.0000 C   0  0  0  0  0  0  0  0  0  0  0  0
    1.7292    4.0000    0.0000 N   0  0  0  0  0  0  0  0  0  0  0  0
    0.0000   -2.0000    0.0000 C   0  0  0  0  0  0  0  0  0  0  0  0
   -1.7333   -2.0000    0.0000 C   0  0  0  0  0  0  0  0  0  0  0  0
    0.0000   -3.0000    0.0000 C   0  0  0  0  0  0  0  0  0  0  0  0
   -1.7333   -3.0000    0.0000 C   0  0  0  0  0  0  0  0  0  0  0  0
   -0.8708   -3.4917    0.0000 C   0  0  0  0  0  0  0  0  0  0  0  0
    1.7292    3.0000    0.0000 C   0  0  0  0  0  0  0  0  0  0  0  0
    0.8625    4.5000    0.0000 C   0  0  0  0  0  0  0  0  0  0  0  0
    0.8625    2.5000    0.0000 C   0  0  0  0  0  0  0  0  0  0  0  0
    0.0000    4.0000    0.0000 C   0  0  0  0  0  0  0  0  0  0  0  0
   -0.8708   -4.5000    0.0000 C   0  0  0  0  0  0  0  0  0  0  0  0
  2  1  1  0  0  0  0
  3 10  1  0  0  0  0
  3  4  2  0  0  0  0
  4  5  1  0  0  0  0
  5  2  1  0  0  0  0
  6  3  1  0  0  0  0
  7  2  1  0  0  0  0
  8  1  2  0  0  0  0
  9  1  1  0  0  0  0
 10  7  1  0  0  0  0
 11 18  2  0  0  0  0
 12  6  1  0  0  0  0
 13  6  2  0  0  0  0
 14 12  2  0  0  0  0
 15 13  1  0  0  0  0
 16 15  2  0  0  0  0
 16 14  1  0  0  0  0
 17 19  2  0  0  0  0
 17 11  1  0  0  0  0
 18 20  1  0  0  0  0
 19  9  1  0  0  0  0
 20  9  2  0  0  0  0
 21 16  1  0  0  0  0
M  END
>  <idnumber>
T5758009

>  <LogP>
2.502000000000000e+000

>  <rotating_bonds>
2.000000000000000e+000

>  <hb_acceptors>
2.000000000000000e+000

>  <hb_donors>
0.000000000000000e+000

>  <PSA>
3.320000000000000e+001

>  <clusterid>
-1283

>  <is_centroid>
@

>  <class1>
715

>  <class2>
625

>  <class3>
632

>  <population1>
4585

>  <population2>
877209

>  <population3>
79489

>  <population>
149

>  <cansmi>
Cc1ccc(cc1)C1=CCN(CC1)C(=O)c1ccncc1

>  <HBA2>
3

>  <HBD>
0

>  <logP>
3.2574

>  <TPSA>
33.2

>  <MW>
278.348

$$$$

 OpenBabel02121609142D

 19 21  0  0  0  0  0  0  0  0999 V2000
    0.4292   -0.2417    0.0000 C   0  0  0  0  0  0  0  0  0  0  0  0
   -0.4333    0.2583    0.0000 N   0  0  0  0  0  0  0  0  0  0  0  0
    1.2917    0.2583    0.0000 N   0  0  0  0  0  0  0  0  0  0  0  0
   -1.3000   -0.2417    0.0000 C   0  0  0  0  0  0  0  0  0  0  0  0
   -2.1708    0.2583    0.0000 C   0  0  0  0  0  0  0  0  0  0  0  0
    0.4292   -1.2500    0.0000 O   0  0  0  0  0  0  0  0  0  0  0  0
   -0.4333    1.2500    0.0000 C   0  0  0  0  0  0  0  0  0  0  0  0
   -2.1708    1.2500    0.0000 C   0  0  0  0  0  0  0  0  0  0  0  0
    3.8917   -0.2417    0.0000 N   0  0  0  0  0  0  0  0  0  0  0  0
   -1.3000    1.7500    0.0000 C   0  0  0  0  0  0  0  0  0  0  0  0
    2.1625   -0.2417    0.0000 C   0  0  0  0  0  0  0  0  0  0  0  0
    3.0292    0.2583    0.0000 C   0  0  0  0  0  0  0  0  0  0  0  0
   -3.0333   -0.2417    0.0000 C   0  0  0  0  0  0  0  0  0  0  0  0
    3.8917   -1.2500    0.0000 C   0  0  0  0  0  0  0  0  0  0  0  0
   -3.0333    1.7500    0.0000 C   0  0  0  0  0  0  0  0  0  0  0  0
    2.1625   -1.2500    0.0000 C   0  0  0  0  0  0  0  0  0  0  0  0
    3.0292   -1.7500    0.0000 C   0  0  0  0  0  0  0  0  0  0  0  0
   -3.9000    0.2583    0.0000 C   0  0  0  0  0  0  0  0  0  0  0  0
   -3.9000    1.2500    0.0000 C   0  0  0  0  0  0  0  0  0  0  0  0
  2  1  1  0  0  0  0
  3  1  1  0  0  0  0
  4  2  1  0  0  0  0
  5  4  1  0  0  0  0
  5  8  2  0  0  0  0
  6  1  2  0  0  0  0
  7  2  1  0  0  0  0
  8 10  1  0  0  0  0
  9 12  1  0  0  0  0
  9 14  2  0  0  0  0
 10  7  1  0  0  0  0
 11  3  1  0  0  0  0
 12 11  2  0  0  0  0
 13  5  1  0  0  0  0
 14 17  1  0  0  0  0
 15  8  1  0  0  0  0
 16 11  1  0  0  0  0
 17 16  2  0  0  0  0
 18 13  2  0  0  0  0
 19 15  2  0  0  0  0
 19 18  1  0  0  0  0
M  END
>  <idnumber>
T5758320

>  <LogP>
1.985000000000000e+000

>  <rotating_bonds>
1.000000000000000e+000

>  <hb_acceptors>
2.000000000000000e+000

>  <hb_donors>
1.000000000000000e+000

>  <PSA>
4.523000000000000e+001

>  <clusterid>
-1284

>  <is_centroid>
@

>  <class1>
750

>  <class2>
632

>  <population1>
7929

>  <population2>
79489

>  <population>
464

>  <cansmi>
O=C(N1CCc2c(C1)cccc2)Nc1cccnc1

>  <HBA2>
4

>  <HBD>
1

>  <logP>
2.6827

>  <TPSA>
45.23

>  <MW>
253.299

$$$$

 OpenBabel02121609142D

 21 23  0  0  0  0  0  0  0  0999 V2000
   -2.6000    2.5000    0.0000 N   0  0  0  0  0  0  0  0  0  0  0  0
    0.8625    0.5000    0.0000 C   0  0  0  0  0  0  0  0  0  0  0  0
   -1.7333    2.0000    0.0000 C   0  0  0  0  0  0  0  0  0  0  0  0
   -3.4708    2.0000    0.0000 C   0  0  0  0  0  0  0  0  0  0  0  0
    0.0000    1.0000    0.0000 C   0  0  0  0  0  0  0  0  0  0  0  0
    0.8625   -0.5000    0.0000 N   0  0  0  0  0  0  0  0  0  0  0  0
   -1.7333    1.0000    0.0000 C   0  0  0  0  0  0  0  0  0  0  0  0
   -0.8708    0.5000    0.0000 C   0  0  0  0  0  0  0  0  0  0  0  0
    1.7292    1.0000    0.0000 O   0  0  0  0  0  0  0  0  0  0  0  0
   -0.8708    2.5000    0.0000 C   0  0  0  0  0  0  0  0  0  0  0  0
   -4.3333    2.5000    0.0000 O   0  0  0  0  0  0  0  0  0  0  0  0
    0.0000    2.0000    0.0000 C   0  0  0  0  0  0  0  0  0  0  0  0
   -2.6000    0.5000    0.0000 C   0  0  0  0  0  0  0  0  0  0  0  0
    1.7292   -1.0000    0.0000 C   0  0  0  0  0  0  0  0  0  0  0  0
   -3.4708    1.0000    0.0000 C   0  0  0  0  0  0  0  0  0  0  0  0
    3.4625   -2.0000    0.0000 C   0  0  0  0  0  0  0  0  0  0  0  0
    2.5917   -0.5000    0.0000 C   0  0  0  0  0  0  0  0  0  0  0  0
    1.7292   -2.0000    0.0000 C   0  0  0  0  0  0  0  0  0  0  0  0
    3.4625   -1.0000    0.0000 C   0  0  0  0  0  0  0  0  0  0  0  0
    2.5917   -2.5000    0.0000 C   0  0  0  0  0  0  0  0  0  0  0  0
    4.3292   -2.5000    0.0000 C   0  0  0  0  0  0  0  0  0  0  0  0
  2  5  1  0  0  0  0
  3  1  1  0  0  0  0
  4  1  1  0  0  0  0
  5 12  1  0  0  0  0
  6  2  1  0  0  0  0
  7  3  2  0  0  0  0
  8  7  1  0  0  0  0
  8  5  2  0  0  0  0
  9  2  2  0  0  0  0
 10  3  1  0  0  0  0
 11  4  2  0  0  0  0
 12 10  2  0  0  0  0
 13 15  1  0  0  0  0
 13  7  1  0  0  0  0
 14  6  1  0  0  0  0
 15  4  1  0  0  0  0
 16 20  2  0  0  0  0
 16 19  1  0  0  0  0
 17 14  1  0  0  0  0
 18 14  2  0  0  0  0
 19 17  2  0  0  0  0
 20 18  1  0  0  0  0
 21 16  1  0  0  0  0
M  END
>  <idnumber>
T5758705

>  <LogP>
2.597000000000000e+000

>  <rotating_bonds>
2.000000000000000e+000

>  <hb_acceptors>
2.000000000000000e+000

>  <hb_donors>
2.000000000000000e+000

>  <PSA>
5.820000000000000e+001

>  <clusterid>
578

>  <is_centroid>
@

>  <class1>
625

>  <class2>
735

>  <population1>
877209

>  <population2>
1171

>  <population>
1171

>  <cansmi>
O=C1CCc2c(N1)ccc(c2)C(=O)Nc1ccc(cc1)C

>  <HBA2>
4

>  <HBD>
2

>  <logP>
3.343

>  <TPSA>
58.2

>  <MW>
280.321

$$$$

 OpenBabel02121609142D

 17 18  0  0  0  0  0  0  0  0999 V2000
   -0.8583    0.5083    0.0000 N   0  0  0  0  0  0  0  0  0  0  0  0
   -0.8583   -0.4917    0.0000 C   0  0  0  0  0  0  0  0  0  0  0  0
   -1.8125   -0.8042    0.0000 N   0  0  0  0  0  0  0  0  0  0  0  0
   -1.8125    0.8125    0.0000 C   0  0  0  0  0  0  0  0  0  0  0  0
   -2.4000    0.0083    0.0000 C   0  0  0  0  0  0  0  0  0  0  0  0
   -0.0500    1.0958    0.0000 C   0  0  0  0  0  0  0  0  0  0  0  0
   -0.0500   -1.0875    0.0000 O   0  0  0  0  0  0  0  0  0  0  0  0
   -2.1208    1.7625    0.0000 O   0  0  0  0  0  0  0  0  0  0  0  0
   -3.4000    0.0083    0.0000 O   0  0  0  0  0  0  0  0  0  0  0  0
    0.8625    0.6833    0.0000 C   0  0  0  0  0  0  0  0  0  0  0  0
   -2.1208   -1.7542    0.0000 C   0  0  0  0  0  0  0  0  0  0  0  0
    1.6667    1.2708    0.0000 C   0  0  0  0  0  0  0  0  0  0  0  0
    2.5875    0.8625    0.0000 C   0  0  0  0  0  0  0  0  0  0  0  0
    3.3917    1.4500    0.0000 Br  0  0  0  0  0  0  0  0  0  0  0  0
    1.8792   -0.7167    0.0000 C   0  0  0  0  0  0  0  0  0  0  0  0
    0.9667   -0.3125    0.0000 C   0  0  0  0  0  0  0  0  0  0  0  0
    2.6917   -0.1292    0.0000 C   0  0  0  0  0  0  0  0  0  0  0  0
  2  1  1  0  0  0  0
  3  2  1  0  0  0  0
  3  5  1  0  0  0  0
  4  1  1  0  0  0  0
  5  4  1  0  0  0  0
  6  1  1  0  0  0  0
  7  2  2  0  0  0  0
  8  4  2  0  0  0  0
  9  5  2  0  0  0  0
 10  6  1  0  0  0  0
 11  3  1  0  0  0  0
 12 10  2  0  0  0  0
 13 12  1  0  0  0  0
 13 17  2  0  0  0  0
 14 13  1  0  0  0  0
 15 16  2  0  0  0  0
 16 10  1  0  0  0  0
 17 15  1  0  0  0  0
M  END
>  <idnumber>
T5760926

>  <LogP>
1.780000000000000e+000

>  <rotating_bonds>
2.000000000000000e+000

>  <hb_acceptors>
3.000000000000000e+000

>  <hb_donors>
0.000000000000000e+000

>  <PSA>
5.769000000000001e+001

>  <clusterid>
-1286

>  <is_centroid>
@

>  <class1>
625

>  <class2>
795

>  <population1>
877209

>  <population2>
2116

>  <population>
1767

>  <cansmi>
Brc1cccc(c1)CN1C(=O)N(C(=O)C1=O)C

>  <HBA2>
5

>  <HBD>
0

>  <logP>
1.2455

>  <TPSA>
57.69

>  <MW>
297.105

$$$$

 OpenBabel02121609142D

 22 25  0  0  0  0  0  0  0  0999 V2000
    1.8292   -1.5167    0.0000 C   0  0  0  0  0  0  0  0  0  0  0  0
    1.1542   -0.7750    0.0000 C   0  0  0  0  0  0  0  0  0  0  0  0
    1.3667    0.2083    0.0000 N   0  0  0  0  0  0  0  0  0  0  0  0
    0.1667   -0.8792    0.0000 O   0  0  0  0  0  0  0  0  0  0  0  0
    1.6167   -2.4917    0.0000 C   0  0  0  0  0  0  0  0  0  0  0  0
   -0.2458    0.0333    0.0000 C   0  0  0  0  0  0  0  0  0  0  0  0
   -1.5333    1.1958    0.0000 N   0  0  0  0  0  0  0  0  0  0  0  0
    0.5000    0.7083    0.0000 N   0  0  0  0  0  0  0  0  0  0  0  0
    2.8250   -1.4125    0.0000 C   0  0  0  0  0  0  0  0  0  0  0  0
    2.4875   -2.9917    0.0000 O   0  0  0  0  0  0  0  0  0  0  0  0
    3.2292   -2.3292    0.0000 C   0  0  0  0  0  0  0  0  0  0  0  0
   -2.4833    1.5000    0.0000 C   0  0  0  0  0  0  0  0  0  0  0  0
   -1.2208    0.2458    0.0000 C   0  0  0  0  0  0  0  0  0  0  0  0
   -0.9458    2.0000    0.0000 C   0  0  0  0  0  0  0  0  0  0  0  0
   -2.4833    2.5000    0.0000 C   0  0  0  0  0  0  0  0  0  0  0  0
   -1.5333    2.8083    0.0000 C   0  0  0  0  0  0  0  0  0  0  0  0
    0.7042   -2.9042    0.0000 C   0  0  0  0  0  0  0  0  0  0  0  0
    4.2042   -2.5375    0.0000 C   0  0  0  0  0  0  0  0  0  0  0  0
   -3.3458    1.0000    0.0000 C   0  0  0  0  0  0  0  0  0  0  0  0
   -3.3458    3.0000    0.0000 C   0  0  0  0  0  0  0  0  0  0  0  0
   -4.2208    1.5000    0.0000 C   0  0  0  0  0  0  0  0  0  0  0  0
   -4.2208    2.5000    0.0000 C   0  0  0  0  0  0  0  0  0  0  0  0
  2  1  1  0  0  0  0
  3  2  2  0  0  0  0
  4  2  1  0  0  0  0
  5  1  2  0  0  0  0
  6  4  1  0  0  0  0
  7 13  1  0  0  0  0
  8  3  1  0  0  0  0
  8  6  2  0  0  0  0
  9  1  1  0  0  0  0
 10  5  1  0  0  0  0
 11  9  2  0  0  0  0
 11 10  1  0  0  0  0
 12  7  1  0  0  0  0
 13  6  1  0  0  0  0
 14  7  1  0  0  0  0
 15 12  2  0  0  0  0
 16 14  1  0  0  0  0
 16 15  1  0  0  0  0
 17  5  1  0  0  0  0
 18 11  1  0  0  0  0
 19 12  1  0  0  0  0
 20 15  1  0  0  0  0
 20 22  2  0  0  0  0
 21 19  2  0  0  0  0
 22 21  1  0  0  0  0
M  END
>  <idnumber>
T5762995

>  <LogP>
2.604000000000000e+000

>  <rotating_bonds>
3.000000000000000e+000

>  <hb_acceptors>
3.000000000000000e+000

>  <hb_donors>
0.000000000000000e+000

>  <PSA>
5.530000000000000e+001

>  <clusterid>
-1289

>  <is_centroid>
@

>  <class1>
732

>  <class2>
704

>  <class3>
689

>  <population1>
13534

>  <population2>
51112

>  <population3>
17264

>  <population>
13

>  <cansmi>
Cc1oc(c(c1)c1nnc(o1)CN1CCc2c1cccc2)C

>  <HBA2>
5

>  <HBD>
0

>  <logP>
3.5741

>  <TPSA>
55.3

>  <MW>
295.336

$$$$

 OpenBabel02121609142D

 12 13  0  0  0  0  0  0  0  0999 V2000
    0.4417    0.2500    0.0000 C   0  0  0  0  0  0  0  0  0  0  0  0
    1.0292    1.0583    0.0000 N   0  0  0  0  0  0  0  0  0  0  0  0
   -0.5083    0.5583    0.0000 C   0  0  0  0  0  0  0  0  0  0  0  0
    0.4417    1.8708    0.0000 N   0  0  0  0  0  0  0  0  0  0  0  0
   -0.5083    1.5583    0.0000 C   0  0  0  0  0  0  0  0  0  0  0  0
    0.7542   -0.7042    0.0000 C   0  0  0  0  0  0  0  0  0  0  0  0
    0.0792   -1.4417    0.0000 O   0  0  0  0  0  0  0  0  0  0  0  0
   -1.4583    0.2500    0.0000 C   0  0  0  0  0  0  0  0  0  0  0  0
    1.7292   -0.9125    0.0000 O   0  0  0  0  0  0  0  0  0  0  0  0
   -1.4583    1.8708    0.0000 C   0  0  0  0  0  0  0  0  0  0  0  0
   -2.0458    1.0583    0.0000 C   0  0  0  0  0  0  0  0  0  0  0  0
    2.0417   -1.8625    0.0000 C   0  0  0  0  0  0  0  0  0  0  0  0
  2  1  2  0  0  0  0
  3  1  1  0  0  0  0
  4  2  1  0  0  0  0
  4  5  1  0  0  0  0
  5  3  2  0  0  0  0
  6  1  1  0  0  0  0
  7  6  2  0  0  0  0
  8  3  1  0  0  0  0
  9  6  1  0  0  0  0
 10  5  1  0  0  0  0
 10 11  1  0  0  0  0
 11  8  1  0  0  0  0
 12  9  1  0  0  0  0
M  END
>  <idnumber>
T5763174

>  <LogP>
1.171000000000000e+000

>  <rotating_bonds>
2.000000000000000e+000

>  <hb_acceptors>
2.000000000000000e+000

>  <hb_donors>
1.000000000000000e+000

>  <PSA>
5.498000000000000e+001

>  <clusterid>
-1291

>  <is_centroid>
@

>  <class1>
665

>  <population1>
535

>  <population>
535

>  <cansmi>
COC(=O)c1n[nH]c2c1CCC2

>  <HBA2>
3

>  <HBD>
1

>  <logP>
0.685

>  <TPSA>
54.98

>  <MW>
166.177

$$$$

 OpenBabel02121609142D

 14 15  0  0  0  0  0  0  0  0999 V2000
   -0.9708    0.2500    0.0000 C   0  0  0  0  0  0  0  0  0  0  0  0
   -1.9208   -0.0542    0.0000 C   0  0  0  0  0  0  0  0  0  0  0  0
   -0.1000   -0.2500    0.0000 C   0  0  0  0  0  0  0  0  0  0  0  0
   -2.5083    0.7500    0.0000 O   0  0  0  0  0  0  0  0  0  0  0  0
   -0.9708    1.2500    0.0000 C   0  0  0  0  0  0  0  0  0  0  0  0
    0.7667    0.2500    0.0000 C   0  0  0  0  0  0  0  0  0  0  0  0
   -1.9208    1.5625    0.0000 C   0  0  0  0  0  0  0  0  0  0  0  0
   -2.2250   -1.0042    0.0000 O   0  0  0  0  0  0  0  0  0  0  0  0
   -0.1000    1.7500    0.0000 C   0  0  0  0  0  0  0  0  0  0  0  0
    0.7667    1.2500    0.0000 C   0  0  0  0  0  0  0  0  0  0  0  0
   -0.1000   -1.2500    0.0000 O   0  0  0  0  0  0  0  0  0  0  0  0
    1.6292   -0.2500    0.0000 O   0  0  0  0  0  0  0  0  0  0  0  0
   -0.9708   -1.7500    0.0000 C   0  0  0  0  0  0  0  0  0  0  0  0
    2.5000    0.2500    0.0000 C   0  0  0  0  0  0  0  0  0  0  0  0
  2  1  1  0  0  0  0
  3  1  1  0  0  0  0
  4  2  1  0  0  0  0
  5  1  2  0  0  0  0
  6  3  2  0  0  0  0
  6 10  1  0  0  0  0
  7  5  1  0  0  0  0
  7  4  1  0  0  0  0
  8  2  2  0  0  0  0
  9  5  1  0  0  0  0
 10  9  2  0  0  0  0
 11  3  1  0  0  0  0
 12  6  1  0  0  0  0
 13 11  1  0  0  0  0
 14 12  1  0  0  0  0
M  END
>  <idnumber>
T5766018

>  <LogP>
1.826000000000000e+000

>  <rotating_bonds>
2.000000000000000e+000

>  <hb_acceptors>
3.000000000000000e+000

>  <hb_donors>
0.000000000000000e+000

>  <PSA>
4.476000000000003e+001

>  <clusterid>
-1299

>  <is_centroid>
@

>  <class1>
823

>  <population1>
227

>  <population>
227

>  <cansmi>
COc1c(OC)ccc2c1C(=O)OC2

>  <HBA2>
4

>  <HBD>
0

>  <logP>
1.3742

>  <TPSA>
44.76

>  <MW>
194.184

$$$$

 OpenBabel02121609142D

 21 23  0  0  0  0  0  0  0  0999 V2000
    1.0875    1.9458    0.0000 N   0  0  0  0  0  0  0  0  0  0  0  0
    0.7750    0.9958    0.0000 C   0  0  0  0  0  0  0  0  0  0  0  0
   -0.5083    2.7500    0.0000 C   0  0  0  0  0  0  0  0  0  0  0  0
    0.4917    2.7500    0.0000 C   0  0  3  0  0  0  0  0  0  0  0  0
   -1.0958    1.9458    0.0000 N   0  0  0  0  0  0  0  0  0  0  0  0
    1.4417    0.2500    0.0000 N   0  0  0  0  0  0  0  0  0  0  0  0
   -1.0958    3.5583    0.0000 C   0  0  0  0  0  0  0  0  0  0  0  0
   -0.2000    0.7833    0.0000 O   0  0  0  0  0  0  0  0  0  0  0  0
   -2.0458    2.2500    0.0000 C   0  0  0  0  0  0  0  0  0  0  0  0
   -2.0458    3.2500    0.0000 C   0  0  0  0  0  0  0  0  0  0  0  0
    1.1375   -0.7042    0.0000 C   0  0  0  0  0  0  0  0  0  0  0  0
    2.0375    2.2500    0.0000 C   0  0  0  0  0  0  0  0  0  0  0  0
    0.5167   -2.6042    0.0000 C   0  0  0  0  0  0  0  0  0  0  0  0
    1.0875    3.5583    0.0000 C   0  0  0  0  0  0  0  0  0  0  0  0
    1.8042   -1.4417    0.0000 C   0  0  0  0  0  0  0  0  0  0  0  0
    0.1542   -0.9125    0.0000 C   0  0  0  0  0  0  0  0  0  0  0  0
    1.4917   -2.3917    0.0000 C   0  0  0  0  0  0  0  0  0  0  0  0
   -0.1500   -1.8625    0.0000 C   0  0  0  0  0  0  0  0  0  0  0  0
   -0.7833    0.9958    0.0000 C   0  0  0  0  0  0  0  0  0  0  0  0
    2.0375    3.2500    0.0000 C   0  0  0  0  0  0  0  0  0  0  0  0
    0.2042   -3.5542    0.0000 C   0  0  0  0  0  0  0  0  0  0  0  0
  2  1  1  0  0  0  0
  3  4  1  0  0  0  0
  4  1  1  0  0  0  0
  5  3  1  0  0  0  0
  6  2  1  0  0  0  0
  7  3  2  0  0  0  0
  8  2  2  0  0  0  0
  9  5  1  0  0  0  0
 10  7  1  0  0  0  0
 10  9  2  0  0  0  0
 11  6  1  0  0  0  0
 12  1  1  0  0  0  0
 13 18  2  0  0  0  0
 13 17  1  0  0  0  0
 14  4  1  0  0  0  0
 15 11  1  0  0  0  0
 16 11  2  0  0  0  0
 17 15  2  0  0  0  0
 18 16  1  0  0  0  0
 19  5  1  0  0  0  0
 20 12  1  0  0  0  0
 20 14  1  0  0  0  0
 21 13  1  0  0  0  0
M  END
>  <idnumber>
T5766842

>  <LogP>
2.420000000000000e+000

>  <rotating_bonds>
2.000000000000000e+000

>  <hb_acceptors>
1.000000000000000e+000

>  <hb_donors>
1.000000000000000e+000

>  <PSA>
3.727000000000000e+001

>  <clusterid>
703

>  <is_centroid>
@

>  <class1>
625

>  <class2>
642

>  <class3>
635

>  <population1>
877209

>  <population2>
51183

>  <population3>
31512

>  <population>
1279

>  <cansmi>
Cc1ccc(cc1)NC(=O)N1CCCC1c1cccn1C

>  <HBA2>
4

>  <HBD>
1

>  <logP>
3.7134

>  <TPSA>
37.27

>  <MW>
283.368

$$$$

 OpenBabel02121609142D

 18 20  0  0  0  0  0  0  0  0999 V2000
    1.2000    0.2500    0.0000 C   0  0  0  0  0  0  0  0  0  0  0  0
    0.3292   -0.2500    0.0000 N   0  0  0  0  0  0  0  0  0  0  0  0
   -2.2625    0.2500    0.0000 C   0  0  0  0  0  0  0  0  0  0  0  0
   -0.5333    0.2500    0.0000 C   0  0  0  0  0  0  0  0  0  0  0  0
   -1.3958   -0.2500    0.0000 C   0  0  0  0  0  0  0  0  0  0  0  0
    1.2000    1.2500    0.0000 O   0  0  0  0  0  0  0  0  0  0  0  0
   -2.2625    1.2500    0.0000 C   0  0  0  0  0  0  0  0  0  0  0  0
    2.0667   -0.2500    0.0000 C   0  0  0  0  0  0  0  0  0  0  0  0
    3.8000   -1.2500    0.0000 N   0  0  0  0  0  0  0  0  0  0  0  0
   -1.3958    1.7500    0.0000 C   0  0  0  0  0  0  0  0  0  0  0  0
   -0.5333    1.2500    0.0000 C   0  0  0  0  0  0  0  0  0  0  0  0
   -3.2208   -0.0542    0.0000 C   0  0  0  0  0  0  0  0  0  0  0  0
   -3.8083    0.7500    0.0000 C   0  0  0  0  0  0  0  0  0  0  0  0
   -3.2208    1.5625    0.0000 C   0  0  0  0  0  0  0  0  0  0  0  0
    2.9292   -1.7500    0.0000 C   0  0  0  0  0  0  0  0  0  0  0  0
    3.8000   -0.2500    0.0000 C   0  0  0  0  0  0  0  0  0  0  0  0
    2.0667   -1.2500    0.0000 C   0  0  0  0  0  0  0  0  0  0  0  0
    2.9292    0.2500    0.0000 C   0  0  0  0  0  0  0  0  0  0  0  0
  2  1  1  0  0  0  0
  3  5  1  0  0  0  0
  3  7  2  0  0  0  0
  4  2  1  0  0  0  0
  5  4  2  0  0  0  0
  6  1  2  0  0  0  0
  7 10  1  0  0  0  0
  8  1  1  0  0  0  0
  9 16  2  0  0  0  0
 10 11  2  0  0  0  0
 11  4  1  0  0  0  0
 12  3  1  0  0  0  0
 13 12  1  0  0  0  0
 14  7  1  0  0  0  0
 14 13  1  0  0  0  0
 15 17  2  0  0  0  0
 15  9  1  0  0  0  0
 16 18  1  0  0  0  0
 17  8  1  0  0  0  0
 18  8  2  0  0  0  0
M  END
>  <idnumber>
T5767158

>  <LogP>
2.910000000000000e+000

>  <rotating_bonds>
2.000000000000000e+000

>  <hb_acceptors>
2.000000000000000e+000

>  <hb_donors>
1.000000000000000e+000

>  <PSA>
4.199000000000000e+001

>  <clusterid>
-1301

>  <is_centroid>
@

>  <class1>
644

>  <class2>
632

>  <population1>
7036

>  <population2>
79489

>  <population>
288

>  <cansmi>
O=C(c1ccncc1)Nc1ccc2c(c1)CCC2

>  <HBA2>
3

>  <HBD>
1

>  <logP>
2.8956

>  <TPSA>
41.99

>  <MW>
238.284

$$$$

 OpenBabel02121609142D

 12 13  0  0  0  0  0  0  0  0999 V2000
    0.0292    1.0083    0.0000 C   0  0  0  0  0  0  0  0  0  0  0  0
    0.0292    0.0000    0.0000 N   0  0  0  0  0  0  0  0  0  0  0  0
   -0.8375    1.5000    0.0000 N   0  0  0  0  0  0  0  0  0  0  0  0
    0.9792   -0.3042    0.0000 N   0  0  0  0  0  0  0  0  0  0  0  0
    0.9792    1.3125    0.0000 C   0  0  0  0  0  0  0  0  0  0  0  0
   -0.8375   -0.5000    0.0000 C   0  0  0  0  0  0  0  0  0  0  0  0
   -1.7083    0.0000    0.0000 C   0  0  0  0  0  0  0  0  0  0  0  0
    1.5667    0.5000    0.0000 C   0  0  0  0  0  0  0  0  0  0  0  0
   -1.7083    1.0000    0.0000 C   0  0  0  0  0  0  0  0  0  0  0  0
   -0.8375   -1.5000    0.0000 C   0  0  0  0  0  0  0  0  0  0  0  0
    2.5667    0.5000    0.0000 C   0  0  0  0  0  0  0  0  0  0  0  0
   -2.5708    1.5000    0.0000 C   0  0  0  0  0  0  0  0  0  0  0  0
  2  1  1  0  0  0  0
  3  1  1  0  0  0  0
  4  2  1  0  0  0  0
  5  1  2  0  0  0  0
  6  2  1  0  0  0  0
  6  7  2  0  0  0  0
  7  9  1  0  0  0  0
  8  5  1  0  0  0  0
  8  4  2  0  0  0  0
  9  3  2  0  0  0  0
 10  6  1  0  0  0  0
 11  8  1  0  0  0  0
 12  9  1  0  0  0  0
M  END
>  <idnumber>
T5771222

>  <LogP>
2.236000000000000e+000

>  <rotating_bonds>
0.000000000000000e+000

>  <hb_acceptors>
3.000000000000000e+000

>  <hb_donors>
0.000000000000000e+000

>  <PSA>
3.019000000000000e+001

>  <clusterid>
-1304

>  <is_centroid>
@

>  <class1>
669

>  <population1>
410

>  <population>
410

>  <cansmi>
Cc1cc(C)n2c(n1)cc(n2)C

>  <HBA2>
3

>  <HBD>
0

>  <logP>
1.6545

>  <TPSA>
30.19

>  <MW>
161.204

$$$$

 OpenBabel02121609142D

 16 17  0  0  0  0  0  0  0  0999 V2000
   -0.5208    0.1458    0.0000 C   0  0  0  0  0  0  0  0  0  0  0  0
    0.1542   -0.6000    0.0000 C   0  0  3  0  0  0  0  0  0  0  0  0
   -0.2083    1.0958    0.0000 N   0  0  0  0  0  0  0  0  0  0  0  0
   -0.1583   -1.5500    0.0000 C   0  0  3  0  0  0  0  0  0  0  0  0
   -1.1333   -1.7542    0.0000 C   0  0  0  0  0  0  0  0  0  0  0  0
   -1.4958   -0.0625    0.0000 O   0  0  0  0  0  0  0  0  0  0  0  0
   -1.4458   -2.7042    0.0000 O   0  0  0  0  0  0  0  0  0  0  0  0
    1.8000   -1.1292    0.0000 C   0  0  0  0  0  0  0  0  0  0  0  0
    1.4917   -2.0792    0.0000 C   0  0  0  0  0  0  0  0  0  0  0  0
   -1.8083   -1.0167    0.0000 O   0  0  0  0  0  0  0  0  0  0  0  0
    1.1292   -0.3917    0.0000 C   0  0  0  0  0  0  0  0  0  0  0  0
    0.5125   -2.2917    0.0000 C   0  0  0  0  0  0  0  0  0  0  0  0
    0.7417    1.4083    0.0000 C   0  0  0  0  0  0  0  0  0  0  0  0
   -0.7958    1.9083    0.0000 C   0  0  0  0  0  0  0  0  0  0  0  0
   -0.2083    2.7125    0.0000 C   0  0  0  0  0  0  0  0  0  0  0  0
    0.7417    2.4083    0.0000 C   0  0  0  0  0  0  0  0  0  0  0  0
  2  1  1  0  0  0  0
  3  1  1  0  0  0  0
  4  2  1  0  0  0  0
  5  4  1  0  0  0  0
  6  1  2  0  0  0  0
  7  5  2  0  0  0  0
  8 11  1  0  0  0  0
  9  8  2  0  0  0  0
 10  5  1  0  0  0  0
 11  2  1  0  0  0  0
 12  4  1  0  0  0  0
 12  9  1  0  0  0  0
 13  3  1  0  0  0  0
 14  3  1  0  0  0  0
 15 14  1  0  0  0  0
 16 13  1  0  0  0  0
 16 15  1  0  0  0  0
M  END
>  <idnumber>
T5771283

>  <LogP>
6.659999999999997e-001

>  <rotating_bonds>
2.000000000000000e+000

>  <hb_acceptors>
3.000000000000000e+000

>  <hb_donors>
1.000000000000000e+000

>  <PSA>
5.761000000000000e+001

>  <clusterid>
-1306

>  <is_centroid>
@

>  <class1>
810

>  <class2>
642

>  <population1>
20527

>  <population2>
51183

>  <population>
1694

>  <cansmi>
OC(=O)C1CC=CCC1C(=O)N1CCCC1

>  <HBA2>
4

>  <HBD>
1

>  <logP>
1.2137

>  <TPSA>
57.61

>  <MW>
223.268

$$$$

 OpenBabel02121609142D

 15 16  0  0  0  0  0  0  0  0999 V2000
   -0.0958    0.6708    0.0000 C   0  0  0  0  0  0  0  0  0  0  0  0
   -0.0958    1.6708    0.0000 C   0  0  0  0  0  0  0  0  0  0  0  0
    0.8542    1.9750    0.0000 N   0  0  0  0  0  0  0  0  0  0  0  0
   -0.9083    0.0833    0.0000 C   0  0  0  0  0  0  0  0  0  0  0  0
    0.8542    0.3583    0.0000 C   0  0  0  0  0  0  0  0  0  0  0  0
   -0.9083   -0.9167    0.0000 N   0  0  0  0  0  0  0  0  0  0  0  0
    1.4417    1.1708    0.0000 C   0  0  0  0  0  0  0  0  0  0  0  0
   -1.8583   -1.2292    0.0000 C   0  0  0  0  0  0  0  0  0  0  0  0
   -2.4458   -0.4167    0.0000 S   0  0  0  0  0  0  0  0  0  0  0  0
   -1.8583    0.3875    0.0000 C   0  0  0  0  0  0  0  0  0  0  0  0
   -2.1708   -2.1792    0.0000 N   0  0  0  0  0  0  0  0  0  0  0  0
    1.1625    2.9333    0.0000 C   0  0  0  0  0  0  0  0  0  0  0  0
   -0.9083    2.2583    0.0000 C   0  0  0  0  0  0  0  0  0  0  0  0
    2.4417    1.1708    0.0000 C   0  0  0  0  0  0  0  0  0  0  0  0
   -1.4958   -2.9250    0.0000 C   0  0  0  0  0  0  0  0  0  0  0  0
  2  1  2  0  0  0  0
  3  2  1  0  0  0  0
  4  1  1  0  0  0  0
  5  1  1  0  0  0  0
  6  4  1  0  0  0  0
  7  5  2  0  0  0  0
  7  3  1  0  0  0  0
  8  6  2  0  0  0  0
  8  9  1  0  0  0  0
  9 10  1  0  0  0  0
 10  4  2  0  0  0  0
 11  8  1  0  0  0  0
 12  3  1  0  0  0  0
 13  2  1  0  0  0  0
 14  7  1  0  0  0  0
 15 11  1  0  0  0  0
M  END
>  <idnumber>
T5771539

>  <LogP>
2.950000000000000e+000

>  <rotating_bonds>
2.000000000000000e+000

>  <hb_acceptors>
3.000000000000000e+000

>  <hb_donors>
1.000000000000000e+000

>  <PSA>
5.809000000000000e+001

>  <clusterid>
-1307

>  <is_centroid>
@

>  <class1>
635

>  <class2>
733

>  <population1>
31512

>  <population2>
49846

>  <population>
1736

>  <cansmi>
CNc1scc(n1)c1cc(n(c1C)C)C

>  <HBA2>
4

>  <HBD>
1

>  <logP>
2.8801

>  <TPSA>
58.09

>  <MW>
221.322

$$$$

 OpenBabel02121609142D

 21 23  0  0  0  0  0  0  0  0999 V2000
   -0.4333   -2.0000    0.0000 C   0  0  0  0  0  0  0  0  0  0  0  0
   -1.3000   -1.5000    0.0000 N   0  0  0  0  0  0  0  0  0  0  0  0
    0.4292   -1.5000    0.0000 N   0  0  0  0  0  0  0  0  0  0  0  0
    0.4292   -0.5000    0.0000 C   0  0  0  0  0  0  0  0  0  0  0  0
   -1.3000   -0.5000    0.0000 C   0  0  0  0  0  0  0  0  0  0  0  0
   -0.4333    0.0000    0.0000 C   0  0  0  0  0  0  0  0  0  0  0  0
    1.2917    1.0000    0.0000 N   0  0  0  0  0  0  0  0  0  0  0  0
    1.2917    0.0000    0.0000 C   0  0  0  0  0  0  0  0  0  0  0  0
    0.4292    1.5000    0.0000 C   0  0  0  0  0  0  0  0  0  0  0  0
   -0.4333   -3.0000    0.0000 O   0  0  0  0  0  0  0  0  0  0  0  0
   -2.1708    0.0000    0.0000 O   0  0  0  0  0  0  0  0  0  0  0  0
    0.4292    2.5000    0.0000 C   0  0  0  0  0  0  0  0  0  0  0  0
   -2.1708   -2.0000    0.0000 C   0  0  0  0  0  0  0  0  0  0  0  0
    1.2917   -2.0000    0.0000 C   0  0  0  0  0  0  0  0  0  0  0  0
    2.1625    1.5000    0.0000 C   0  0  0  0  0  0  0  0  0  0  0  0
    2.1625    2.5000    0.0000 C   0  0  0  0  0  0  0  0  0  0  0  0
   -0.4333    1.0000    0.0000 C   0  0  0  0  0  0  0  0  0  0  0  0
    1.2917    3.0000    0.0000 C   0  0  0  0  0  0  0  0  0  0  0  0
   -0.4333    3.0000    0.0000 C   0  0  0  0  0  0  0  0  0  0  0  0
   -1.3000    1.5000    0.0000 C   0  0  0  0  0  0  0  0  0  0  0  0
   -1.3000    2.5000    0.0000 C   0  0  0  0  0  0  0  0  0  0  0  0
  2  1  1  0  0  0  0
  3  1  1  0  0  0  0
  4  3  1  0  0  0  0
  5  2  1  0  0  0  0
  6  4  2  0  0  0  0
  6  5  1  0  0  0  0
  7  8  1  0  0  0  0
  8  4  1  0  0  0  0
  9  7  1  0  0  0  0
 10  1  2  0  0  0  0
 11  5  2  0  0  0  0
 12  9  2  0  0  0  0
 12 18  1  0  0  0  0
 13  2  1  0  0  0  0
 14  3  1  0  0  0  0
 15  7  1  0  0  0  0
 16 15  1  0  0  0  0
 17  9  1  0  0  0  0
 18 16  1  0  0  0  0
 19 12  1  0  0  0  0
 19 21  2  0  0  0  0
 20 17  2  0  0  0  0
 21 20  1  0  0  0  0
M  END
>  <idnumber>
T5772699

>  <LogP>
2.053000000000000e+000

>  <rotating_bonds>
2.000000000000000e+000

>  <hb_acceptors>
3.000000000000000e+000

>  <hb_donors>
0.000000000000000e+000

>  <PSA>
4.386000000000000e+001

>  <clusterid>
722

>  <is_centroid>
@

>  <class1>
814

>  <class2>
886

>  <population1>
5317

>  <population2>
22353

>  <population>
61

>  <cansmi>
O=c1cc(CN2CCCc3c2cccc3)n(c(=O)n1C)C

>  <HBA2>
5

>  <HBD>
0

>  <logP>
1.1018

>  <TPSA>
47.24

>  <MW>
285.341

$$$$

 OpenBabel02121609142D

 19 21  0  0  0  0  0  0  0  0999 V2000
    0.4542   -0.6542    0.0000 N   0  0  0  0  0  0  0  0  0  0  0  0
    0.4542    0.9625    0.0000 C   0  0  3  0  0  0  0  0  0  0  0  0
   -0.1333    0.1583    0.0000 C   0  0  0  0  0  0  0  0  0  0  0  0
    1.4125   -0.3417    0.0000 C   0  0  0  0  0  0  0  0  0  0  0  0
    1.4125    0.6583    0.0000 N   0  0  0  0  0  0  0  0  0  0  0  0
   -0.4958    1.2708    0.0000 C   0  0  0  0  0  0  0  0  0  0  0  0
    1.0417    1.7708    0.0000 C   0  0  0  0  0  0  0  0  0  0  0  0
    0.1500   -1.6042    0.0000 C   0  0  0  0  0  0  0  0  0  0  0  0
    2.2167   -0.9292    0.0000 O   0  0  0  0  0  0  0  0  0  0  0  0
   -1.1333    0.1583    0.0000 O   0  0  0  0  0  0  0  0  0  0  0  0
   -0.4958    2.2708    0.0000 C   0  0  0  0  0  0  0  0  0  0  0  0
    0.4542    2.5833    0.0000 C   0  0  0  0  0  0  0  0  0  0  0  0
   -1.3583    0.7708    0.0000 C   0  0  0  0  0  0  0  0  0  0  0  0
   -0.8333   -1.8167    0.0000 C   0  0  0  0  0  0  0  0  0  0  0  0
   -1.3583    2.7708    0.0000 C   0  0  0  0  0  0  0  0  0  0  0  0
   -1.4958   -1.0667    0.0000 C   0  0  0  0  0  0  0  0  0  0  0  0
   -1.1375   -2.7667    0.0000 C   0  0  0  0  0  0  0  0  0  0  0  0
   -2.2250    1.2708    0.0000 C   0  0  0  0  0  0  0  0  0  0  0  0
   -2.2250    2.2708    0.0000 C   0  0  0  0  0  0  0  0  0  0  0  0
  2  3  1  0  0  0  0
  3  1  1  0  0  0  0
  4  1  1  0  0  0  0
  5  4  1  0  0  0  0
  5  2  1  0  0  0  0
  6  2  1  0  0  0  0
  7  2  1  0  0  0  0
  8  1  1  0  0  0  0
  9  4  2  0  0  0  0
 10  3  2  0  0  0  0
 11  6  2  0  0  0  0
 12  7  1  0  0  0  0
 12 11  1  0  0  0  0
 13  6  1  0  0  0  0
 14  8  1  0  0  0  0
 15 11  1  0  0  0  0
 15 19  2  0  0  0  0
 16 14  1  0  0  0  0
 17 14  1  0  0  0  0
 18 13  2  0  0  0  0
 19 18  1  0  0  0  0
M  END
>  <idnumber>
T5775118

>  <LogP>
2.534000000000000e+000

>  <rotating_bonds>
2.000000000000000e+000

>  <hb_acceptors>
2.000000000000000e+000

>  <hb_donors>
1.000000000000000e+000

>  <PSA>
4.941000000000003e+001

>  <clusterid>
192

>  <is_centroid>
@

>  <class1>
856

>  <population1>
526

>  <population>
526

>  <cansmi>
CC(CN1C(=O)NC2(C1=O)CCc1c2cccc1)C

>  <HBA2>
4

>  <HBD>
1

>  <logP>
2.3026

>  <TPSA>
49.41

>  <MW>
258.316

$$$$

 OpenBabel02121609142D

 21 23  0  0  0  0  0  0  0  0999 V2000
   -0.9250    2.3458    0.0000 C   0  0  0  0  0  0  0  0  0  0  0  0
   -0.3375    1.5333    0.0000 O   0  0  0  0  0  0  0  0  0  0  0  0
   -0.9250    0.7250    0.0000 C   0  0  3  0  0  0  0  0  0  0  0  0
   -1.8750    2.0333    0.0000 C   0  0  0  0  0  0  0  0  0  0  0  0
   -0.6208   -0.2292    0.0000 C   0  0  0  0  0  0  0  0  0  0  0  0
   -1.8750    1.0333    0.0000 C   0  0  0  0  0  0  0  0  0  0  0  0
    0.3625   -0.4292    0.0000 C   0  0  0  0  0  0  0  0  0  0  0  0
    0.6667   -1.3875    0.0000 N   0  0  0  0  0  0  0  0  0  0  0  0
    1.6500   -1.5917    0.0000 C   0  0  0  0  0  0  0  0  0  0  0  0
   -0.6208    3.2958    0.0000 O   0  0  0  0  0  0  0  0  0  0  0  0
    1.0292    0.3083    0.0000 O   0  0  0  0  0  0  0  0  0  0  0  0
    1.9542   -2.5417    0.0000 C   0  0  0  0  0  0  0  0  0  0  0  0
    1.2875   -3.2875    0.0000 F   0  0  0  0  0  0  0  0  0  0  0  0
   -2.7458    2.5333    0.0000 C   0  0  0  0  0  0  0  0  0  0  0  0
   -2.7458    0.5333    0.0000 C   0  0  0  0  0  0  0  0  0  0  0  0
    2.3167   -0.8500    0.0000 C   0  0  0  0  0  0  0  0  0  0  0  0
    2.9375   -2.7542    0.0000 C   0  0  0  0  0  0  0  0  0  0  0  0
   -3.6083    2.0333    0.0000 C   0  0  0  0  0  0  0  0  0  0  0  0
   -3.6083    1.0333    0.0000 C   0  0  0  0  0  0  0  0  0  0  0  0
    3.2917   -1.0542    0.0000 C   0  0  0  0  0  0  0  0  0  0  0  0
    3.6042   -2.0042    0.0000 C   0  0  0  0  0  0  0  0  0  0  0  0
  2  1  1  0  0  0  0
  3  2  1  0  0  0  0
  3  6  1  0  0  0  0
  4  1  1  0  0  0  0
  5  3  1  0  0  0  0
  6  4  2  0  0  0  0
  7  5  1  0  0  0  0
  8  7  1  0  0  0  0
  9  8  1  0  0  0  0
 10  1  2  0  0  0  0
 11  7  2  0  0  0  0
 12  9  2  0  0  0  0
 13 12  1  0  0  0  0
 14  4  1  0  0  0  0
 15  6  1  0  0  0  0
 15 19  2  0  0  0  0
 16  9  1  0  0  0  0
 17 12  1  0  0  0  0
 17 21  2  0  0  0  0
 18 14  2  0  0  0  0
 19 18  1  0  0  0  0
 20 16  2  0  0  0  0
 21 20  1  0  0  0  0
M  END
>  <idnumber>
T5775685

>  <LogP>
2.621000000000000e+000

>  <rotating_bonds>
3.000000000000000e+000

>  <hb_acceptors>
3.000000000000000e+000

>  <hb_donors>
1.000000000000000e+000

>  <PSA>
5.540000000000000e+001

>  <clusterid>
-1311

>  <is_centroid>
@

>  <class1>
625

>  <class2>
823

>  <population1>
877209

>  <population2>
227

>  <population>
227

>  <cansmi>
O=C(Nc1ccccc1F)CC1OC(=O)c2c1cccc2

>  <HBA2>
4

>  <HBD>
1

>  <logP>
3.139

>  <TPSA>
55.4

>  <MW>
285.27

$$$$

 OpenBabel02121609142D

 21 24  0  0  0  0  0  0  0  0999 V2000
    0.8167    2.6708    0.0000 C   0  0  0  0  0  0  0  0  0  0  0  0
    0.2292    1.8583    0.0000 N   0  0  0  0  0  0  0  0  0  0  0  0
    0.2292    3.4833    0.0000 N   0  0  0  0  0  0  0  0  0  0  0  0
    1.4667   -1.9417    0.0000 C   0  0  0  0  0  0  0  0  0  0  0  0
    1.1542   -0.9917    0.0000 N   0  0  0  0  0  0  0  0  0  0  0  0
   -0.7208    2.1708    0.0000 C   0  0  0  0  0  0  0  0  0  0  0  0
   -0.7208    3.1708    0.0000 C   0  0  0  0  0  0  0  0  0  0  0  0
    0.8000   -2.6875    0.0000 C   0  0  0  0  0  0  0  0  0  0  0  0
   -0.1500   -2.9917    0.0000 C   0  0  0  0  0  0  0  0  0  0  0  0
    0.5917   -3.6667    0.0000 C   0  0  0  0  0  0  0  0  0  0  0  0
    0.5417    0.9083    0.0000 C   0  0  0  0  0  0  0  0  0  0  0  0
    1.8167    2.6708    0.0000 O   0  0  0  0  0  0  0  0  0  0  0  0
    1.5167    0.7000    0.0000 C   0  0  0  0  0  0  0  0  0  0  0  0
   -0.1333    0.1708    0.0000 C   0  0  0  0  0  0  0  0  0  0  0  0
    1.8292   -0.2500    0.0000 C   0  0  0  0  0  0  0  0  0  0  0  0
    0.1792   -0.7792    0.0000 C   0  0  0  0  0  0  0  0  0  0  0  0
    2.4417   -2.1500    0.0000 O   0  0  0  0  0  0  0  0  0  0  0  0
   -1.5833    1.6708    0.0000 C   0  0  0  0  0  0  0  0  0  0  0  0
   -1.5833    3.6708    0.0000 C   0  0  0  0  0  0  0  0  0  0  0  0
   -2.4500    2.1708    0.0000 C   0  0  0  0  0  0  0  0  0  0  0  0
   -2.4500    3.1708    0.0000 C   0  0  0  0  0  0  0  0  0  0  0  0
  2  1  1  0  0  0  0
  3  1  1  0  0  0  0
  4  5  1  0  0  0  0
  5 16  1  0  0  0  0
  5 15  1  0  0  0  0
  6  2  1  0  0  0  0
  7  3  1  0  0  0  0
  7  6  2  0  0  0  0
  8  4  1  0  0  0  0
  9  8  1  0  0  0  0
  9 10  1  0  0  0  0
 10  8  1  0  0  0  0
 11  2  1  0  0  0  0
 12  1  2  0  0  0  0
 13 11  1  0  0  0  0
 14 11  1  0  0  0  0
 15 13  1  0  0  0  0
 16 14  1  0  0  0  0
 17  4  2  0  0  0  0
 18  6  1  0  0  0  0
 19  7  1  0  0  0  0
 20 18  2  0  0  0  0
 21 19  2  0  0  0  0
 21 20  1  0  0  0  0
M  END
>  <idnumber>
T5777362

>  <LogP>
6.260000000000000e-001

>  <rotating_bonds>
2.000000000000000e+000

>  <hb_acceptors>
2.000000000000000e+000

>  <hb_donors>
1.000000000000000e+000

>  <PSA>
5.265000000000000e+001

>  <clusterid>
494

>  <is_centroid>
@

>  <class1>
675

>  <class2>
727

>  <class3>
639

>  <population1>
33654

>  <population2>
3921

>  <population3>
59855

>  <population>
12

>  <cansmi>
O=C(N1CCC(CC1)n1c(=O)[nH]c2c1cccc2)C1CC1

>  <HBA2>
4

>  <HBD>
1

>  <logP>
1.841

>  <TPSA>
58.1

>  <MW>
285.341

$$$$

 OpenBabel02121609142D

 19 21  0  0  0  0  0  0  0  0999 V2000
    2.8167    0.4333    0.0000 C   0  0  0  0  0  0  0  0  0  0  0  0
   -1.6833   -0.4292    0.0000 N   0  0  0  0  0  0  0  0  0  0  0  0
    3.8167    0.4333    0.0000 C   0  0  0  0  0  0  0  0  0  0  0  0
    4.6792   -0.0667    0.0000 C   0  0  0  0  0  0  0  0  0  0  0  0
    4.6792    0.9333    0.0000 C   0  0  0  0  0  0  0  0  0  0  0  0
    2.3167   -0.4292    0.0000 N   0  0  0  0  0  0  0  0  0  0  0  0
   -3.6833   -0.4292    0.0000 N   0  0  0  0  0  0  0  0  0  0  0  0
   -0.6833   -0.4292    0.0000 C   0  0  0  0  0  0  0  0  0  0  0  0
    2.3167    1.3000    0.0000 O   0  0  0  0  0  0  0  0  0  0  0  0
   -2.1833    0.4333    0.0000 C   0  0  0  0  0  0  0  0  0  0  0  0
   -2.1833   -1.2917    0.0000 C   0  0  0  0  0  0  0  0  0  0  0  0
   -0.1833   -1.2917    0.0000 C   0  0  0  0  0  0  0  0  0  0  0  0
   -0.1833    0.4333    0.0000 C   0  0  0  0  0  0  0  0  0  0  0  0
    1.3167   -0.4292    0.0000 C   0  0  0  0  0  0  0  0  0  0  0  0
   -3.1833   -1.2917    0.0000 C   0  0  0  0  0  0  0  0  0  0  0  0
   -3.1833    0.4333    0.0000 C   0  0  0  0  0  0  0  0  0  0  0  0
    0.8167    0.4333    0.0000 C   0  0  0  0  0  0  0  0  0  0  0  0
    0.8167   -1.2917    0.0000 C   0  0  0  0  0  0  0  0  0  0  0  0
   -4.6833   -0.4292    0.0000 C   0  0  0  0  0  0  0  0  0  0  0  0
  2  8  1  0  0  0  0
  3  1  1  0  0  0  0
  4  3  1  0  0  0  0
  4  5  1  0  0  0  0
  5  3  1  0  0  0  0
  6  1  1  0  0  0  0
  7 15  1  0  0  0  0
  8 12  1  0  0  0  0
  9  1  2  0  0  0  0
 10  2  1  0  0  0  0
 11  2  1  0  0  0  0
 12 18  2  0  0  0  0
 13 17  1  0  0  0  0
 13  8  2  0  0  0  0
 14  6  1  0  0  0  0
 15 11  1  0  0  0  0
 16 10  1  0  0  0  0
 16  7  1  0  0  0  0
 17 14  2  0  0  0  0
 18 14  1  0  0  0  0
 19  7  1  0  0  0  0
M  END
>  <idnumber>
T5777655

>  <LogP>
9.000000000000000e-001

>  <rotating_bonds>
3.000000000000000e+000

>  <hb_acceptors>
3.000000000000000e+000

>  <hb_donors>
1.000000000000000e+000

>  <PSA>
3.558000000000000e+001

>  <clusterid>
-1312

>  <is_centroid>
@

>  <class1>
675

>  <class2>
717

>  <class3>
625

>  <population1>
33654

>  <population2>
74368

>  <population3>
877209

>  <population>
2797

>  <cansmi>
CN1CCN(CC1)c1ccc(cc1)NC(=O)C1CC1

>  <HBA2>
4

>  <HBD>
1

>  <logP>
1.8628

>  <TPSA>
35.58

>  <MW>
259.347

$$$$

 OpenBabel02121609142D

 16 18  0  0  0  0  0  0  0  0999 V2000
    1.2917   -0.8167    0.0000 C   0  0  0  0  0  0  0  0  0  0  0  0
    0.4292   -0.3167    0.0000 N   0  0  0  0  0  0  0  0  0  0  0  0
    1.2917   -1.8167    0.0000 C   0  0  0  0  0  0  0  0  0  0  0  0
    0.4292    0.6833    0.0000 C   0  0  3  0  0  0  0  0  0  0  0  0
   -0.4333    1.1833    0.0000 C   0  0  0  0  0  0  0  0  0  0  0  0
    0.7917   -2.6792    0.0000 C   0  0  0  0  0  0  0  0  0  0  0  0
    1.7917   -2.6792    0.0000 C   0  0  0  0  0  0  0  0  0  0  0  0
   -0.4333    2.1833    0.0000 C   0  0  0  0  0  0  0  0  0  0  0  0
    0.4292    2.6833    0.0000 S   0  0  0  0  0  0  0  0  0  0  0  0
    2.1625   -0.3167    0.0000 O   0  0  0  0  0  0  0  0  0  0  0  0
    1.2917    1.1833    0.0000 C   0  0  0  0  0  0  0  0  0  0  0  0
    1.2917    2.1833    0.0000 C   0  0  0  0  0  0  0  0  0  0  0  0
   -1.3000    0.6833    0.0000 C   0  0  0  0  0  0  0  0  0  0  0  0
   -1.3000    2.6833    0.0000 C   0  0  0  0  0  0  0  0  0  0  0  0
   -2.1708    1.1833    0.0000 C   0  0  0  0  0  0  0  0  0  0  0  0
   -2.1708    2.1833    0.0000 C   0  0  0  0  0  0  0  0  0  0  0  0
  2  1  1  0  0  0  0
  3  1  1  0  0  0  0
  4  2  1  0  0  0  0
  5  4  1  0  0  0  0
  6  3  1  0  0  0  0
  6  7  1  0  0  0  0
  7  3  1  0  0  0  0
  8  5  2  0  0  0  0
  8  9  1  0  0  0  0
  9 12  1  0  0  0  0
 10  1  2  0  0  0  0
 11  4  1  0  0  0  0
 12 11  1  0  0  0  0
 13  5  1  0  0  0  0
 14  8  1  0  0  0  0
 14 16  2  0  0  0  0
 15 13  2  0  0  0  0
 16 15  1  0  0  0  0
M  END
>  <idnumber>
T5777866

>  <LogP>
1.808000000000000e+000

>  <rotating_bonds>
2.000000000000000e+000

>  <hb_acceptors>
2.000000000000000e+000

>  <hb_donors>
1.000000000000000e+000

>  <PSA>
5.440000000000001e+001

>  <clusterid>
723

>  <is_centroid>
@

>  <class1>
675

>  <class2>
860

>  <population1>
33654

>  <population2>
1262

>  <population>
12

>  <cansmi>
O=C(C1CC1)NC1CCSc2c1cccc2

>  <HBA2>
3

>  <HBD>
1

>  <logP>
3.1406

>  <TPSA>
54.4

>  <MW>
233.329

$$$$

 OpenBabel02121609142D

 20 22  0  0  0  0  0  0  0  0999 V2000
    0.0000   -1.0750    0.0000 C   0  0  0  0  0  0  0  0  0  0  0  0
   -0.5000   -2.6125    0.0000 N   0  0  0  0  0  0  0  0  0  0  0  0
    0.5000   -2.6125    0.0000 N   0  0  0  0  0  0  0  0  0  0  0  0
    0.8042   -1.6625    0.0000 C   0  0  0  0  0  0  0  0  0  0  0  0
   -0.8125   -1.6625    0.0000 C   0  0  0  0  0  0  0  0  0  0  0  0
    0.0000   -0.0750    0.0000 C   0  0  0  0  0  0  0  0  0  0  0  0
    0.8625    0.4250    0.0000 N   0  0  0  0  0  0  0  0  0  0  0  0
    0.0000    1.9250    0.0000 C   0  0  0  0  0  0  0  0  0  0  0  0
    0.8625    1.4250    0.0000 C   0  0  3  0  0  0  0  0  0  0  0  0
    0.0000    2.9250    0.0000 C   0  0  0  0  0  0  0  0  0  0  0  0
    1.0875   -3.4167    0.0000 C   0  0  0  0  0  0  0  0  0  0  0  0
    1.7542   -1.3542    0.0000 C   0  0  0  0  0  0  0  0  0  0  0  0
   -1.7625   -1.3542    0.0000 C   0  0  0  0  0  0  0  0  0  0  0  0
    1.7292    2.9250    0.0000 C   0  0  0  0  0  0  0  0  0  0  0  0
   -0.8708    1.4250    0.0000 C   0  0  0  0  0  0  0  0  0  0  0  0
    0.8625    3.4250    0.0000 C   0  0  0  0  0  0  0  0  0  0  0  0
    1.7292    1.9250    0.0000 C   0  0  0  0  0  0  0  0  0  0  0  0
   -0.8708    3.4250    0.0000 C   0  0  0  0  0  0  0  0  0  0  0  0
   -1.7333    1.9250    0.0000 C   0  0  0  0  0  0  0  0  0  0  0  0
   -1.7333    2.9250    0.0000 C   0  0  0  0  0  0  0  0  0  0  0  0
  2  5  2  0  0  0  0
  2  3  1  0  0  0  0
  3  4  1  0  0  0  0
  4  1  2  0  0  0  0
  5  1  1  0  0  0  0
  6  1  1  0  0  0  0
  7  6  1  0  0  0  0
  8  9  1  0  0  0  0
  9  7  1  0  0  0  0
 10  8  2  0  0  0  0
 10 16  1  0  0  0  0
 11  3  1  0  0  0  0
 12  4  1  0  0  0  0
 13  5  1  0  0  0  0
 14 17  1  0  0  0  0
 15  8  1  0  0  0  0
 16 14  1  0  0  0  0
 17  9  1  0  0  0  0
 18 10  1  0  0  0  0
 18 20  2  0  0  0  0
 19 15  2  0  0  0  0
 20 19  1  0  0  0  0
M  END
>  <idnumber>
T5778805

>  <LogP>
2.194000000000000e+000

>  <rotating_bonds>
3.000000000000000e+000

>  <hb_acceptors>
2.000000000000000e+000

>  <hb_donors>
1.000000000000000e+000

>  <PSA>
2.985000000000000e+001

>  <clusterid>
-1313

>  <is_centroid>
@

>  <class1>
631

>  <class2>
807

>  <population1>
41612

>  <population2>
5384

>  <population>
104

>  <cansmi>
Cc1nn(c(c1CNC1CCCc2c1cccc2)C)C

>  <HBA2>
3

>  <HBD>
1

>  <logP>
3.595

>  <TPSA>
29.85

>  <MW>
269.385

$$$$

 OpenBabel02121609142D

 21 23  0  0  0  0  0  0  0  0999 V2000
    1.3667   -1.6667    0.0000 C   0  0  0  0  0  0  0  0  0  0  0  0
    2.4542   -2.8667    0.0000 N   0  0  0  0  0  0  0  0  0  0  0  0
    2.9542   -2.0042    0.0000 N   0  0  0  0  0  0  0  0  0  0  0  0
    2.2792   -1.2542    0.0000 C   0  0  0  0  0  0  0  0  0  0  0  0
    1.4750   -2.6625    0.0000 C   0  0  0  0  0  0  0  0  0  0  0  0
    0.5042   -0.1667    0.0000 C   0  0  0  0  0  0  0  0  0  0  0  0
   -0.3583    0.3333    0.0000 N   0  0  0  0  0  0  0  0  0  0  0  0
   -0.3583    1.3333    0.0000 C   0  0  3  0  0  0  0  0  0  0  0  0
    0.5042   -1.1667    0.0000 C   0  0  0  0  0  0  0  0  0  0  0  0
   -1.2250    1.8333    0.0000 C   0  0  0  0  0  0  0  0  0  0  0  0
    1.3667    0.3333    0.0000 O   0  0  0  0  0  0  0  0  0  0  0  0
   -1.2250    2.8333    0.0000 C   0  0  0  0  0  0  0  0  0  0  0  0
    0.5042    1.8333    0.0000 C   0  0  0  0  0  0  0  0  0  0  0  0
    2.4917   -0.2792    0.0000 C   0  0  0  0  0  0  0  0  0  0  0  0
    0.7292   -3.3292    0.0000 C   0  0  0  0  0  0  0  0  0  0  0  0
    0.5042    2.8333    0.0000 C   0  0  0  0  0  0  0  0  0  0  0  0
   -2.0958    1.3333    0.0000 C   0  0  0  0  0  0  0  0  0  0  0  0
   -0.3583    3.3333    0.0000 C   0  0  0  0  0  0  0  0  0  0  0  0
   -2.0958    3.3333    0.0000 C   0  0  0  0  0  0  0  0  0  0  0  0
   -2.9583    1.8333    0.0000 C   0  0  0  0  0  0  0  0  0  0  0  0
   -2.9583    2.8333    0.0000 C   0  0  0  0  0  0  0  0  0  0  0  0
  2  5  2  0  0  0  0
  2  3  1  0  0  0  0
  3  4  1  0  0  0  0
  4  1  2  0  0  0  0
  5  1  1  0  0  0  0
  6  9  1  0  0  0  0
  7  6  1  0  0  0  0
  8  7  1  0  0  0  0
  9  1  1  0  0  0  0
 10  8  1  0  0  0  0
 11  6  2  0  0  0  0
 12 10  2  0  0  0  0
 12 18  1  0  0  0  0
 13  8  1  0  0  0  0
 14  4  1  0  0  0  0
 15  5  1  0  0  0  0
 16 13  1  0  0  0  0
 17 10  1  0  0  0  0
 18 16  1  0  0  0  0
 19 12  1  0  0  0  0
 19 21  2  0  0  0  0
 20 17  2  0  0  0  0
 21 20  1  0  0  0  0
M  END
>  <idnumber>
T5779373

>  <LogP>
2.228000000000000e+000

>  <rotating_bonds>
3.000000000000000e+000

>  <hb_acceptors>
2.000000000000000e+000

>  <hb_donors>
2.000000000000000e+000

>  <PSA>
5.778000000000000e+001

>  <clusterid>
-1314

>  <is_centroid>
@

>  <class1>
631

>  <class2>
807

>  <population1>
41612

>  <population2>
5384

>  <population>
104

>  <cansmi>
O=C(Cc1c(C)n[nH]c1C)NC1CCCc2c1cccc2

>  <HBA2>
3

>  <HBD>
2

>  <logP>
3.1537

>  <TPSA>
57.78

>  <MW>
283.368

$$$$

 OpenBabel02121609142D

 19 21  0  0  0  0  0  0  0  0999 V2000
    2.2792   -0.6875    0.0000 N   0  0  0  0  0  0  0  0  0  0  0  0
    1.3250   -1.0000    0.0000 C   0  0  0  0  0  0  0  0  0  0  0  0
    2.8667   -1.5000    0.0000 C   0  0  0  0  0  0  0  0  0  0  0  0
    2.2792   -2.3042    0.0000 O   0  0  0  0  0  0  0  0  0  0  0  0
   -1.2708    0.5000    0.0000 C   0  0  0  0  0  0  0  0  0  0  0  0
    1.3250   -2.0000    0.0000 C   0  0  0  0  0  0  0  0  0  0  0  0
   -1.2708   -0.5000    0.0000 N   0  0  0  0  0  0  0  0  0  0  0  0
    0.4625   -0.5000    0.0000 C   0  0  0  0  0  0  0  0  0  0  0  0
   -0.4083   -1.0000    0.0000 C   0  0  0  0  0  0  0  0  0  0  0  0
   -0.4083    1.0000    0.0000 O   0  0  0  0  0  0  0  0  0  0  0  0
   -2.1375    1.0000    0.0000 C   0  0  3  0  0  0  0  0  0  0  0  0
    0.4625   -2.5000    0.0000 C   0  0  0  0  0  0  0  0  0  0  0  0
   -3.8708    1.0000    0.0000 C   0  0  0  0  0  0  0  0  0  0  0  0
   -3.8708    2.0000    0.0000 C   0  0  0  0  0  0  0  0  0  0  0  0
   -0.4083   -2.0000    0.0000 C   0  0  0  0  0  0  0  0  0  0  0  0
    3.8667   -1.5000    0.0000 C   0  0  0  0  0  0  0  0  0  0  0  0
   -3.0083    0.5000    0.0000 C   0  0  0  0  0  0  0  0  0  0  0  0
   -3.0083    2.5000    0.0000 C   0  0  0  0  0  0  0  0  0  0  0  0
   -2.1375    2.0000    0.0000 C   0  0  0  0  0  0  0  0  0  0  0  0
  2  1  1  0  0  0  0
  3  1  2  0  0  0  0
  4  3  1  0  0  0  0
  5  7  1  0  0  0  0
  6  2  2  0  0  0  0
  6  4  1  0  0  0  0
  7  9  1  0  0  0  0
  8  2  1  0  0  0  0
  9  8  2  0  0  0  0
 10  5  2  0  0  0  0
 11  5  1  0  0  0  0
 12  6  1  0  0  0  0
 12 15  2  0  0  0  0
 13 17  1  0  0  0  0
 13 14  2  0  0  0  0
 14 18  1  0  0  0  0
 15  9  1  0  0  0  0
 16  3  1  0  0  0  0
 17 11  1  0  0  0  0
 18 19  1  0  0  0  0
 19 11  1  0  0  0  0
M  END
>  <idnumber>
T5779659

>  <LogP>
2.871000000000000e+000

>  <rotating_bonds>
2.000000000000000e+000

>  <hb_acceptors>
2.000000000000000e+000

>  <hb_donors>
1.000000000000000e+000

>  <PSA>
5.513000000000000e+001

>  <clusterid>
724

>  <is_centroid>
@

>  <class1>
810

>  <class2>
752

>  <population1>
20527

>  <population2>
4005

>  <population>
45

>  <cansmi>
O=C(C1CCC=CC1)Nc1ccc2c(c1)nc(o2)C

>  <HBA2>
4

>  <HBD>
1

>  <logP>
3.504

>  <TPSA>
55.13

>  <MW>
256.3

$$$$

 OpenBabel02121609142D

 22 25  0  0  0  0  0  0  0  0999 V2000
   -1.5625    0.0083    0.0000 C   0  0  0  0  0  0  0  0  0  0  0  0
    1.0292   -0.4917    0.0000 C   0  0  0  0  0  0  0  0  0  0  0  0
    1.9000    0.0083    0.0000 N   0  0  0  0  0  0  0  0  0  0  0  0
    0.1667    0.0083    0.0000 C   0  0  0  0  0  0  0  0  0  0  0  0
   -2.5125   -0.3042    0.0000 C   0  0  0  0  0  0  0  0  0  0  0  0
   -0.6958   -0.4917    0.0000 C   0  0  0  0  0  0  0  0  0  0  0  0
   -1.5625    1.0083    0.0000 C   0  0  0  0  0  0  0  0  0  0  0  0
   -3.1000    0.5083    0.0000 C   0  0  0  0  0  0  0  0  0  0  0  0
   -2.5125    1.3125    0.0000 C   0  0  0  0  0  0  0  0  0  0  0  0
    1.9000    1.0083    0.0000 C   0  0  0  0  0  0  0  0  0  0  0  0
    2.7667   -0.4917    0.0000 C   0  0  0  0  0  0  0  0  0  0  0  0
    1.0292   -1.5000    0.0000 O   0  0  0  0  0  0  0  0  0  0  0  0
   -0.6958    1.5083    0.0000 C   0  0  0  0  0  0  0  0  0  0  0  0
    0.1667    1.0083    0.0000 C   0  0  0  0  0  0  0  0  0  0  0  0
    3.6292    0.0083    0.0000 C   0  0  0  0  0  0  0  0  0  0  0  0
    2.7667    1.5083    0.0000 C   0  0  0  0  0  0  0  0  0  0  0  0
    3.6292    1.0083    0.0000 C   0  0  0  0  0  0  0  0  0  0  0  0
    4.5000    1.5083    0.0000 O   0  0  0  0  0  0  0  0  0  0  0  0
   -2.9208   -1.2167    0.0000 C   0  0  0  0  0  0  0  0  0  0  0  0
   -4.0958    0.3958    0.0000 C   0  0  0  0  0  0  0  0  0  0  0  0
   -3.9208   -1.3250    0.0000 C   0  0  0  0  0  0  0  0  0  0  0  0
   -4.5083   -0.5167    0.0000 C   0  0  0  0  0  0  0  0  0  0  0  0
  2  4  1  0  0  0  0
  3  2  1  0  0  0  0
  4  6  2  0  0  0  0
  4 14  1  0  0  0  0
  5  1  1  0  0  0  0
  6  1  1  0  0  0  0
  7  1  2  0  0  0  0
  8  5  2  0  0  0  0
  9  7  1  0  0  0  0
  9  8  1  0  0  0  0
 10  3  1  0  0  0  0
 11  3  1  0  0  0  0
 12  2  2  0  0  0  0
 13  7  1  0  0  0  0
 14 13  2  0  0  0  0
 15 11  1  0  0  0  0
 16 10  1  0  0  0  0
 17 15  1  0  0  0  0
 17 16  1  0  0  0  0
 18 17  1  0  0  0  0
 19  5  1  0  0  0  0
 20  8  1  0  0  0  0
 20 22  2  0  0  0  0
 21 19  2  0  0  0  0
 22 21  1  0  0  0  0
M  END
>  <idnumber>
T5781125

>  <LogP>
1.646000000000000e+000

>  <rotating_bonds>
1.000000000000000e+000

>  <hb_acceptors>
2.000000000000000e+000

>  <hb_donors>
1.000000000000000e+000

>  <PSA>
4.053999999999999e+001

>  <clusterid>
-1315

>  <is_centroid>
@

>  <class1>
812

>  <class2>
639

>  <population1>
999

>  <population2>
59855

>  <population>
35

>  <cansmi>
OC1CCN(CC1)C(=O)c1ccc2c(c1)c1ccccc1C2

>  <HBA2>
3

>  <HBD>
1

>  <logP>
2.7926

>  <TPSA>
40.54

>  <MW>
293.36

$$$$

 OpenBabel02121609142D

 19 21  0  0  0  0  0  0  0  0999 V2000
    1.7292   -0.5000    0.0000 N   0  0  0  0  0  0  0  0  0  0  0  0
    0.8625   -1.0000    0.0000 C   0  0  0  0  0  0  0  0  0  0  0  0
   -0.8708   -1.0000    0.0000 N   0  0  0  0  0  0  0  0  0  0  0  0
    0.0000   -0.5000    0.0000 C   0  0  0  0  0  0  0  0  0  0  0  0
   -1.7333   -0.5000    0.0000 C   0  0  0  0  0  0  0  0  0  0  0  0
    1.7292    0.5000    0.0000 C   0  0  0  0  0  0  0  0  0  0  0  0
    0.8625   -2.0000    0.0000 O   0  0  0  0  0  0  0  0  0  0  0  0
    0.0000    0.5000    0.0000 C   0  0  0  0  0  0  0  0  0  0  0  0
    3.4625    0.5000    0.0000 O   0  0  0  0  0  0  0  0  0  0  0  0
   -1.7333    0.5000    0.0000 C   0  0  0  0  0  0  0  0  0  0  0  0
   -0.8708    1.0000    0.0000 C   0  0  0  0  0  0  0  0  0  0  0  0
    2.5917   -1.0000    0.0000 C   0  0  0  0  0  0  0  0  0  0  0  0
    2.5917    1.0000    0.0000 C   0  0  3  0  0  0  0  0  0  0  0  0
    3.4625   -0.5000    0.0000 C   0  0  0  0  0  0  0  0  0  0  0  0
   -2.6000   -1.0000    0.0000 C   0  0  0  0  0  0  0  0  0  0  0  0
   -2.6000    1.0000    0.0000 C   0  0  0  0  0  0  0  0  0  0  0  0
    2.5917    2.0000    0.0000 C   0  0  0  0  0  0  0  0  0  0  0  0
   -3.4708   -0.5000    0.0000 C   0  0  0  0  0  0  0  0  0  0  0  0
   -3.4708    0.5000    0.0000 C   0  0  0  0  0  0  0  0  0  0  0  0
  2  1  1  0  0  0  0
  3  4  2  0  0  0  0
  4  2  1  0  0  0  0
  5  3  1  0  0  0  0
  5 10  2  0  0  0  0
  6  1  1  0  0  0  0
  7  2  2  0  0  0  0
  8  4  1  0  0  0  0
  9 14  1  0  0  0  0
 10 11  1  0  0  0  0
 11  8  2  0  0  0  0
 12  1  1  0  0  0  0
 13  6  1  0  0  0  0
 13  9  1  0  0  0  0
 14 12  1  0  0  0  0
 15  5  1  0  0  0  0
 16 10  1  0  0  0  0
 17 13  1  0  0  0  0
 18 15  2  0  0  0  0
 19 16  2  0  0  0  0
 19 18  1  0  0  0  0
M  END
>  <idnumber>
T5781269

>  <LogP>
1.574000000000000e+000

>  <rotating_bonds>
1.000000000000000e+000

>  <hb_acceptors>
3.000000000000000e+000

>  <hb_donors>
0.000000000000000e+000

>  <PSA>
4.243000000000001e+001

>  <clusterid>
65

>  <is_centroid>
@

>  <class1>
786

>  <class2>
682

>  <population1>
48067

>  <population2>
20351

>  <population>
855

>  <cansmi>
CC1OCCN(C1)C(=O)c1ccc2c(n1)cccc2

>  <HBA2>
4

>  <HBD>
0

>  <logP>
2.0336

>  <TPSA>
42.43

>  <MW>
256.3

$$$$

 OpenBabel02121609142D

 21 23  0  0  0  0  0  0  0  0999 V2000
   -1.3958   -1.0000    0.0000 N   0  0  0  0  0  0  0  0  0  0  0  0
   -0.5333   -2.5000    0.0000 C   0  0  0  0  0  0  0  0  0  0  0  0
    0.3292   -2.0000    0.0000 N   0  0  0  0  0  0  0  0  0  0  0  0
    0.3292   -1.0000    0.0000 C   0  0  0  0  0  0  0  0  0  0  0  0
   -0.5333   -0.4917    0.0000 C   0  0  0  0  0  0  0  0  0  0  0  0
   -1.3958   -2.0000    0.0000 C   0  0  3  0  0  0  0  0  0  0  0  0
    2.0667    1.0000    0.0000 C   0  0  0  0  0  0  0  0  0  0  0  0
    1.2000    0.5000    0.0000 C   0  0  0  0  0  0  0  0  0  0  0  0
    1.2000   -0.4917    0.0000 C   0  0  0  0  0  0  0  0  0  0  0  0
   -0.5333    0.5000    0.0000 C   0  0  0  0  0  0  0  0  0  0  0  0
    2.0667    2.0000    0.0000 N   0  0  0  0  0  0  0  0  0  0  0  0
   -0.5333   -3.5000    0.0000 O   0  0  0  0  0  0  0  0  0  0  0  0
    0.3292    1.0000    0.0000 C   0  0  0  0  0  0  0  0  0  0  0  0
    2.9292    0.5000    0.0000 O   0  0  0  0  0  0  0  0  0  0  0  0
   -2.3500   -0.6875    0.0000 C   0  0  0  0  0  0  0  0  0  0  0  0
   -2.3500   -2.3042    0.0000 C   0  0  0  0  0  0  0  0  0  0  0  0
   -2.9375   -1.5000    0.0000 C   0  0  0  0  0  0  0  0  0  0  0  0
    1.2000    2.5000    0.0000 C   0  0  0  0  0  0  0  0  0  0  0  0
    2.9292    2.5000    0.0000 C   0  0  0  0  0  0  0  0  0  0  0  0
    1.2000    3.5000    0.0000 C   0  0  0  0  0  0  0  0  0  0  0  0
    2.9292    3.5000    0.0000 C   0  0  0  0  0  0  0  0  0  0  0  0
  2  6  1  0  0  0  0
  3  2  1  0  0  0  0
  3  4  1  0  0  0  0
  4  5  2  0  0  0  0
  5  1  1  0  0  0  0
  6  1  1  0  0  0  0
  7  8  1  0  0  0  0
  8 13  1  0  0  0  0
  9  4  1  0  0  0  0
  9  8  2  0  0  0  0
 10  5  1  0  0  0  0
 11  7  1  0  0  0  0
 12  2  2  0  0  0  0
 13 10  2  0  0  0  0
 14  7  2  0  0  0  0
 15  1  1  0  0  0  0
 16  6  1  0  0  0  0
 17 15  1  0  0  0  0
 17 16  1  0  0  0  0
 18 11  1  0  0  0  0
 19 11  1  0  0  0  0
 20 18  1  0  0  0  0
 21 19  1  0  0  0  0
M  END
>  <idnumber>
T5785104

>  <LogP>
1.684000000000000e+000

>  <rotating_bonds>
3.000000000000000e+000

>  <hb_acceptors>
3.000000000000000e+000

>  <hb_donors>
1.000000000000000e+000

>  <PSA>
5.265000000000000e+001

>  <clusterid>
-1316

>  <is_centroid>
@

>  <class1>
865

>  <population1>
104

>  <population>
104

>  <cansmi>
CCN(C(=O)c1ccc2c(c1)NC(=O)C1N2CCC1)CC

>  <HBA2>
5

>  <HBD>
1

>  <logP>
2.2925

>  <TPSA>
52.65

>  <MW>
287.357

$$$$

 OpenBabel02121609142D

 12 13  0  0  0  0  0  0  0  0999 V2000
    2.9292    0.0000    0.0000 N   0  0  0  0  0  0  0  0  0  0  0  0
   -1.3958   -0.4917    0.0000 C   0  0  0  0  0  0  0  0  0  0  0  0
    2.0667   -0.4917    0.0000 C   0  0  0  0  0  0  0  0  0  0  0  0
   -1.3958    0.5000    0.0000 C   0  0  0  0  0  0  0  0  0  0  0  0
   -2.3500   -0.8042    0.0000 O   0  0  0  0  0  0  0  0  0  0  0  0
   -2.3500    0.8125    0.0000 O   0  0  0  0  0  0  0  0  0  0  0  0
   -2.9375    0.0000    0.0000 C   0  0  0  0  0  0  0  0  0  0  0  0
   -0.5333   -1.0000    0.0000 C   0  0  0  0  0  0  0  0  0  0  0  0
   -0.5333    1.0000    0.0000 C   0  0  0  0  0  0  0  0  0  0  0  0
    0.3292   -0.4917    0.0000 C   0  0  0  0  0  0  0  0  0  0  0  0
    0.3292    0.5000    0.0000 C   0  0  0  0  0  0  0  0  0  0  0  0
    1.2000   -1.0000    0.0000 C   0  0  0  0  0  0  0  0  0  0  0  0
  2  8  1  0  0  0  0
  2  4  2  0  0  0  0
  3  1  3  0  0  0  0
  4  9  1  0  0  0  0
  5  2  1  0  0  0  0
  6  4  1  0  0  0  0
  6  7  1  0  0  0  0
  7  5  1  0  0  0  0
  8 10  2  0  0  0  0
  9 11  2  0  0  0  0
 10 12  1  0  0  0  0
 11 10  1  0  0  0  0
 12  3  1  0  0  0  0
M  END
>  <idnumber>
T5786640

>  <LogP>
1.129000000000000e+000

>  <rotating_bonds>
2.000000000000000e+000

>  <hb_acceptors>
3.000000000000000e+000

>  <hb_donors>
0.000000000000000e+000

>  <PSA>
4.225000000000000e+001

>  <clusterid>
-1319

>  <is_centroid>
@

>  <class1>
811

>  <population1>
21222

>  <population>
21222

>  <cansmi>
N#CCc1ccc2c(c1)OCO2

>  <HBA2>
3

>  <HBD>
0

>  <logP>
1.48138

>  <TPSA>
42.25

>  <MW>
161.157

$$$$

 OpenBabel02121609142D

 20 22  0  0  0  0  0  0  0  0999 V2000
    1.5667   -2.3417    0.0000 C   0  0  0  0  0  0  0  0  0  0  0  0
   -0.8708   -0.6542    0.0000 C   0  0  0  0  0  0  0  0  0  0  0  0
    0.1167   -1.1417    0.0000 C   0  0  3  0  0  0  0  0  0  0  0  0
    1.7750   -1.7417    0.0000 C   0  0  3  0  0  0  0  0  0  0  0  0
    0.5292   -2.7792    0.0000 C   0  0  3  0  0  0  0  0  0  0  0  0
    1.1042   -0.9042    0.0000 C   0  0  0  0  0  0  0  0  0  0  0  0
   -0.1375   -2.0417    0.0000 C   0  0  0  0  0  0  0  0  0  0  0  0
   -0.9208    0.3375    0.0000 N   0  0  0  0  0  0  0  0  0  0  0  0
    2.6250   -2.2792    0.0000 O   0  0  0  0  0  0  0  0  0  0  0  0
   -1.7500   -1.1167    0.0000 O   0  0  0  0  0  0  0  0  0  0  0  0
   -1.7708    0.8500    0.0000 C   0  0  0  0  0  0  0  0  0  0  0  0
   -1.7833    1.8458    0.0000 C   0  0  0  0  0  0  0  0  0  0  0  0
    0.7792   -3.6792    0.0000 C   0  0  0  0  0  0  0  0  0  0  0  0
    2.1667   -2.8417    0.0000 C   0  0  0  0  0  0  0  0  0  0  0  0
    1.7542   -3.8167    0.0000 C   0  0  0  0  0  0  0  0  0  0  0  0
   -0.9208    2.3375    0.0000 C   0  0  0  0  0  0  0  0  0  0  0  0
   -2.6333    2.3375    0.0000 C   0  0  0  0  0  0  0  0  0  0  0  0
   -2.6333    3.3333    0.0000 C   0  0  0  0  0  0  0  0  0  0  0  0
   -0.9208    3.3333    0.0000 C   0  0  0  0  0  0  0  0  0  0  0  0
   -1.7833    3.8208    0.0000 C   0  0  0  0  0  0  0  0  0  0  0  0
  2  3  1  0  0  0  0
  3  7  1  0  0  0  0
  3  6  1  0  0  0  0
  4  1  1  0  0  0  0
  5  1  1  0  0  0  0
  6  4  1  0  0  0  0
  7  5  1  0  0  0  0
  8  2  1  0  0  0  0
  9  1  2  0  0  0  0
 10  2  2  0  0  0  0
 11  8  1  0  0  0  0
 12 11  1  0  0  0  0
 13  5  1  0  0  0  0
 14  4  1  0  0  0  0
 15 13  1  0  0  0  0
 15 14  1  0  0  0  0
 16 12  1  0  0  0  0
 17 12  2  0  0  0  0
 18 17  1  0  0  0  0
 19 16  2  0  0  0  0
 19 20  1  0  0  0  0
 20 18  2  0  0  0  0
M  END
>  <idnumber>
T5788385

>  <LogP>
1.365000000000000e+000

>  <rotating_bonds>
3.000000000000000e+000

>  <hb_acceptors>
2.000000000000000e+000

>  <hb_donors>
1.000000000000000e+000

>  <PSA>
4.616999999999997e+001

>  <clusterid>
43

>  <is_centroid>
@

>  <class1>
816

>  <class2>
625

>  <population1>
265

>  <population2>
877209

>  <population>
212

>  <cansmi>
O=C(C1CC2CCCC(C1)C2=O)NCc1ccccc1

>  <HBA2>
3

>  <HBD>
1

>  <logP>
3.0891

>  <TPSA>
46.17

>  <MW>
271.354

$$$$

 OpenBabel02121609142D

 16 17  0  0  0  0  0  0  0  0999 V2000
   -0.6708   -0.5792    0.0000 C   0  0  0  0  0  0  0  0  0  0  0  0
   -0.0833    0.2333    0.0000 C   0  0  0  0  0  0  0  0  0  0  0  0
   -0.0833   -1.3875    0.0000 N   0  0  0  0  0  0  0  0  0  0  0  0
    0.8667   -0.0792    0.0000 C   0  0  0  0  0  0  0  0  0  0  0  0
    0.8667   -1.0792    0.0000 C   0  0  0  0  0  0  0  0  0  0  0  0
   -0.3958    1.1833    0.0000 C   0  0  0  0  0  0  0  0  0  0  0  0
   -1.6708   -0.5792    0.0000 N   0  0  0  0  0  0  0  0  0  0  0  0
    1.6750    0.5083    0.0000 O   0  0  0  0  0  0  0  0  0  0  0  0
   -0.3958   -2.3375    0.0000 C   0  0  0  0  0  0  0  0  0  0  0  0
    0.2750    1.9250    0.0000 C   0  0  0  0  0  0  0  0  0  0  0  0
   -1.3708    1.3958    0.0000 C   0  0  0  0  0  0  0  0  0  0  0  0
   -1.3708   -2.5417    0.0000 C   0  0  0  0  0  0  0  0  0  0  0  0
    0.2750   -3.0792    0.0000 C   0  0  0  0  0  0  0  0  0  0  0  0
   -1.6833    2.3458    0.0000 C   0  0  0  0  0  0  0  0  0  0  0  0
   -0.0333    2.8750    0.0000 C   0  0  0  0  0  0  0  0  0  0  0  0
   -1.0125    3.0833    0.0000 C   0  0  0  0  0  0  0  0  0  0  0  0
  2  1  2  0  0  0  0
  3  1  1  0  0  0  0
  4  2  1  0  0  0  0
  5  3  1  0  0  0  0
  5  4  1  0  0  0  0
  6  2  1  0  0  0  0
  7  1  1  0  0  0  0
  8  4  2  0  0  0  0
  9  3  1  0  0  0  0
 10  6  1  0  0  0  0
 11  6  2  0  0  0  0
 12  9  1  0  0  0  0
 13  9  1  0  0  0  0
 14 11  1  0  0  0  0
 15 10  2  0  0  0  0
 15 16  1  0  0  0  0
 16 14  2  0  0  0  0
M  END
>  <idnumber>
T5789061

>  <LogP>
2.503000000000000e+000

>  <rotating_bonds>
2.000000000000000e+000

>  <hb_acceptors>
3.000000000000000e+000

>  <hb_donors>
1.000000000000000e+000

>  <PSA>
4.633000000000000e+001

>  <clusterid>
725

>  <is_centroid>
@

>  <class1>
914

>  <class2>
625

>  <population1>
583

>  <population2>
877209

>  <population>
564

>  <cansmi>
CC(N1CC(=O)C(=C1N)c1ccccc1)C

>  <HBA2>
3

>  <HBD>
1

>  <logP>
2.2452

>  <TPSA>
46.33

>  <MW>
216.279

$$$$

 OpenBabel02121609142D

 14 15  0  0  0  0  0  0  0  0999 V2000
    0.8625   -1.2500    0.0000 N   0  0  0  0  0  0  0  0  0  0  0  0
    0.8625   -0.2500    0.0000 C   0  0  3  0  0  0  0  0  0  0  0  0
    1.7292    0.2500    0.0000 C   0  0  0  0  0  0  0  0  0  0  0  0
    0.0000    0.2500    0.0000 C   0  0  0  0  0  0  0  0  0  0  0  0
   -0.8708   -0.2500    0.0000 C   0  0  0  0  0  0  0  0  0  0  0  0
    0.0000   -1.7500    0.0000 C   0  0  0  0  0  0  0  0  0  0  0  0
   -0.8708   -1.2500    0.0000 C   0  0  0  0  0  0  0  0  0  0  0  0
    2.5917   -0.2500    0.0000 O   0  0  0  0  0  0  0  0  0  0  0  0
    1.7292    1.2500    0.0000 N   0  0  0  0  0  0  0  0  0  0  0  0
   -1.7333    0.2500    0.0000 C   0  0  0  0  0  0  0  0  0  0  0  0
   -1.7333   -1.7500    0.0000 C   0  0  0  0  0  0  0  0  0  0  0  0
    2.5917    1.7500    0.0000 C   0  0  0  0  0  0  0  0  0  0  0  0
   -2.6000   -0.2500    0.0000 C   0  0  0  0  0  0  0  0  0  0  0  0
   -2.6000   -1.2500    0.0000 C   0  0  0  0  0  0  0  0  0  0  0  0
  2  1  1  0  0  0  0
  3  2  1  0  0  0  0
  4  2  1  0  0  0  0
  4  5  1  0  0  0  0
  5  7  2  0  0  0  0
  6  1  1  0  0  0  0
  7  6  1  0  0  0  0
  8  3  2  0  0  0  0
  9  3  1  0  0  0  0
 10  5  1  0  0  0  0
 11  7  1  0  0  0  0
 12  9  1  0  0  0  0
 13 14  1  0  0  0  0
 13 10  2  0  0  0  0
 14 11  2  0  0  0  0
M  END
>  <idnumber>
T5791217

>  <LogP>
4.780000000000000e-001

>  <rotating_bonds>
1.000000000000000e+000

>  <hb_acceptors>
2.000000000000000e+000

>  <hb_donors>
2.000000000000000e+000

>  <PSA>
4.113000000000000e+001

>  <clusterid>
443

>  <is_centroid>
@

>  <class1>
750

>  <population1>
7929

>  <population>
7929

>  <cansmi>
CNC(=O)C1NCc2c(C1)cccc2

>  <HBA2>
3

>  <HBD>
2

>  <logP>
1.1666

>  <TPSA>
41.13

>  <MW>
190.242

$$$$

 OpenBabel02121609142D

 13 14  0  0  0  0  0  0  0  0999 V2000
    0.5292    0.6208    0.0000 C   0  0  0  0  0  0  0  0  0  0  0  0
    0.5292   -0.3792    0.0000 C   0  0  0  0  0  0  0  0  0  0  0  0
    1.4792    0.9333    0.0000 N   0  0  0  0  0  0  0  0  0  0  0  0
    2.0667    0.1208    0.0000 N   0  0  0  0  0  0  0  0  0  0  0  0
   -0.3375    1.1208    0.0000 N   0  0  0  0  0  0  0  0  0  0  0  0
    1.4792   -0.6875    0.0000 C   0  0  0  0  0  0  0  0  0  0  0  0
   -0.3375   -0.8792    0.0000 C   0  0  0  0  0  0  0  0  0  0  0  0
   -1.2083    0.6208    0.0000 C   0  0  0  0  0  0  0  0  0  0  0  0
   -1.2083   -0.3792    0.0000 C   0  0  0  0  0  0  0  0  0  0  0  0
   -2.0708    1.1208    0.0000 O   0  0  0  0  0  0  0  0  0  0  0  0
    1.7875    1.8833    0.0000 C   0  0  0  0  0  0  0  0  0  0  0  0
   -0.3375   -1.8792    0.0000 C   0  0  0  0  0  0  0  0  0  0  0  0
    1.7875   -1.6375    0.0000 C   0  0  0  0  0  0  0  0  0  0  0  0
  2  1  2  0  0  0  0
  3  1  1  0  0  0  0
  4  3  1  0  0  0  0
  5  1  1  0  0  0  0
  6  2  1  0  0  0  0
  6  4  2  0  0  0  0
  7  2  1  0  0  0  0
  7  9  2  0  0  0  0
  8  5  1  0  0  0  0
  9  8  1  0  0  0  0
 10  8  2  0  0  0  0
 11  3  1  0  0  0  0
 12  7  1  0  0  0  0
 13  6  1  0  0  0  0
M  END
>  <idnumber>
T5791222

>  <LogP>
2.810000000000000e-001

>  <rotating_bonds>
0.000000000000000e+000

>  <hb_acceptors>
2.000000000000000e+000

>  <hb_donors>
1.000000000000000e+000

>  <PSA>
4.692000000000000e+001

>  <clusterid>
-1325

>  <is_centroid>
@

>  <class1>
769

>  <population1>
29

>  <population>
29

>  <cansmi>
O=c1cc(C)c2c([nH]1)n(C)nc2C

>  <HBA2>
3

>  <HBD>
1

>  <logP>
0.8784

>  <TPSA>
50.68

>  <MW>
177.203

$$$$

 OpenBabel02121609142D

 15 16  0  0  0  0  0  0  0  0999 V2000
    0.0250   -0.0292    0.0000 C   0  0  0  0  0  0  0  0  0  0  0  0
    0.0250    0.9625    0.0000 C   0  0  0  0  0  0  0  0  0  0  0  0
    0.9750   -0.3417    0.0000 N   0  0  0  0  0  0  0  0  0  0  0  0
    1.5625    0.4625    0.0000 N   0  0  0  0  0  0  0  0  0  0  0  0
   -0.8458   -0.5375    0.0000 N   0  0  0  0  0  0  0  0  0  0  0  0
   -0.8458    1.4625    0.0000 C   0  0  0  0  0  0  0  0  0  0  0  0
    0.9750    1.2708    0.0000 C   0  0  0  0  0  0  0  0  0  0  0  0
   -1.7083   -0.0292    0.0000 C   0  0  0  0  0  0  0  0  0  0  0  0
   -1.7083    0.9625    0.0000 C   0  0  0  0  0  0  0  0  0  0  0  0
   -2.5750   -0.5375    0.0000 O   0  0  0  0  0  0  0  0  0  0  0  0
    1.2792   -1.3000    0.0000 C   0  0  3  0  0  0  0  0  0  0  0  0
   -0.8458    2.4625    0.0000 C   0  0  0  0  0  0  0  0  0  0  0  0
    2.2542   -1.5042    0.0000 C   0  0  0  0  0  0  0  0  0  0  0  0
    0.6125   -2.0417    0.0000 C   0  0  0  0  0  0  0  0  0  0  0  0
    2.5667   -2.4542    0.0000 C   0  0  0  0  0  0  0  0  0  0  0  0
  2  1  2  0  0  0  0
  3  1  1  0  0  0  0
  4  3  1  0  0  0  0
  4  7  2  0  0  0  0
  5  1  1  0  0  0  0
  6  2  1  0  0  0  0
  6  9  2  0  0  0  0
  7  2  1  0  0  0  0
  8  5  1  0  0  0  0
  9  8  1  0  0  0  0
 10  8  2  0  0  0  0
 11  3  1  0  0  0  0
 12  6  1  0  0  0  0
 13 11  1  0  0  0  0
 14 11  1  0  0  0  0
 15 13  1  0  0  0  0
M  END
>  <idnumber>
T5791236

>  <LogP>
1.379000000000000e+000

>  <rotating_bonds>
2.000000000000000e+000

>  <hb_acceptors>
2.000000000000000e+000

>  <hb_donors>
1.000000000000000e+000

>  <PSA>
4.692000000000000e+001

>  <clusterid>
726

>  <is_centroid>
@

>  <class1>
769

>  <population1>
29

>  <population>
29

>  <cansmi>
CCC(n1ncc2c1[nH]c(=O)cc2C)C

>  <HBA2>
3

>  <HBD>
1

>  <logP>
2.004

>  <TPSA>
50.68

>  <MW>
205.256

$$$$

 OpenBabel02121609142D

 15 17  0  0  0  0  0  0  0  0999 V2000
    0.8625    0.2708    0.0000 C   0  0  0  0  0  0  0  0  0  0  0  0
    0.0000    0.7708    0.0000 C   0  0  0  0  0  0  0  0  0  0  0  0
    0.8625   -0.7292    0.0000 N   0  0  0  0  0  0  0  0  0  0  0  0
    1.7292    0.7708    0.0000 N   0  0  0  0  0  0  0  0  0  0  0  0
    0.8625    2.2708    0.0000 N   0  0  0  0  0  0  0  0  0  0  0  0
    1.7292    1.7708    0.0000 C   0  0  0  0  0  0  0  0  0  0  0  0
    0.0000    1.7708    0.0000 C   0  0  0  0  0  0  0  0  0  0  0  0
   -0.8708    0.2708    0.0000 C   0  0  0  0  0  0  0  0  0  0  0  0
    0.0542   -1.3167    0.0000 C   0  0  0  0  0  0  0  0  0  0  0  0
    1.6750   -1.3167    0.0000 C   0  0  0  0  0  0  0  0  0  0  0  0
   -0.8708    2.2708    0.0000 C   0  0  0  0  0  0  0  0  0  0  0  0
   -1.7333    0.7708    0.0000 C   0  0  0  0  0  0  0  0  0  0  0  0
    0.3625   -2.2667    0.0000 C   0  0  0  0  0  0  0  0  0  0  0  0
    1.3625   -2.2667    0.0000 C   0  0  0  0  0  0  0  0  0  0  0  0
   -1.7333    1.7708    0.0000 C   0  0  0  0  0  0  0  0  0  0  0  0
  2  1  2  0  0  0  0
  3  1  1  0  0  0  0
  4  1  1  0  0  0  0
  5  6  1  0  0  0  0
  6  4  2  0  0  0  0
  7  2  1  0  0  0  0
  7  5  2  0  0  0  0
  8  2  1  0  0  0  0
  9  3  1  0  0  0  0
 10  3  1  0  0  0  0
 11  7  1  0  0  0  0
 11 15  2  0  0  0  0
 12  8  2  0  0  0  0
 13  9  1  0  0  0  0
 13 14  1  0  0  0  0
 14 10  1  0  0  0  0
 15 12  1  0  0  0  0
M  END
>  <idnumber>
T5791982

>  <LogP>
2.612000000000000e+000

>  <rotating_bonds>
1.000000000000000e+000

>  <hb_acceptors>
3.000000000000000e+000

>  <hb_donors>
0.000000000000000e+000

>  <PSA>
2.902000000000000e+001

>  <clusterid>
-1327

>  <is_centroid>
@

>  <class1>
642

>  <class2>
641

>  <population1>
51183

>  <population2>
4916

>  <population>
189

>  <cansmi>
C1CCN(C1)c1ncnc2c1cccc2

>  <HBA2>
3

>  <HBD>
0

>  <logP>
2.295

>  <TPSA>
29.02

>  <MW>
199.252

$$$$

 OpenBabel02121609142D

 21 24  0  0  0  0  0  0  0  0999 V2000
   -1.9250   -0.0792    0.0000 C   0  0  3  0  0  0  0  0  0  0  0  0
   -1.7958    1.0333    0.0000 C   0  0  0  0  0  0  0  0  0  0  0  0
   -1.8583   -2.1625    0.0000 C   0  0  3  0  0  0  0  0  0  0  0  0
   -1.8833   -1.3292    0.0000 C   0  0  0  0  0  0  0  0  0  0  0  0
   -1.0500    1.7875    0.0000 N   0  0  0  0  0  0  0  0  0  0  0  0
   -0.8708   -0.0417    0.0000 C   0  0  0  0  0  0  0  0  0  0  0  0
   -2.9083    0.0708    0.0000 C   0  0  0  0  0  0  0  0  0  0  0  0
   -0.6583   -0.9917    0.0000 C   0  0  3  0  0  0  0  0  0  0  0  0
   -2.4875   -0.6292    0.0000 C   0  0  3  0  0  0  0  0  0  0  0  0
   -2.4333    1.8250    0.0000 O   0  0  0  0  0  0  0  0  0  0  0  0
   -2.6375   -1.6667    0.0000 C   0  0  0  0  0  0  0  0  0  0  0  0
   -0.8833   -1.9125    0.0000 C   0  0  0  0  0  0  0  0  0  0  0  0
   -1.4333   -0.4042    0.0000 C   0  0  0  0  0  0  0  0  0  0  0  0
   -0.0458    2.0208    0.0000 C   0  0  0  0  0  0  0  0  0  0  0  0
   -1.3625   -3.0292    0.0000 O   0  0  0  0  0  0  0  0  0  0  0  0
    1.9167    2.2458    0.0000 C   0  0  0  0  0  0  0  0  0  0  0  0
    2.9000    2.3833    0.0000 F   0  0  0  0  0  0  0  0  0  0  0  0
    0.5625    1.2375    0.0000 C   0  0  0  0  0  0  0  0  0  0  0  0
    0.3667    2.9208    0.0000 C   0  0  0  0  0  0  0  0  0  0  0  0
    1.3417    3.0333    0.0000 C   0  0  0  0  0  0  0  0  0  0  0  0
    1.5375    1.3458    0.0000 C   0  0  0  0  0  0  0  0  0  0  0  0
  2  1  1  0  0  0  0
  3  4  1  0  0  0  0
  3 11  1  0  0  0  0
  3 12  1  0  0  0  0
  4  1  1  0  0  0  0
  5  2  1  0  0  0  0
  6  1  1  0  0  0  0
  7  1  1  0  0  0  0
  8  6  1  0  0  0  0
  8 13  1  0  0  0  0
  9  7  1  0  0  0  0
 10  2  2  0  0  0  0
 11  9  1  0  0  0  0
 12  8  1  0  0  0  0
 13  9  1  0  0  0  0
 14  5  1  0  0  0  0
 15  3  1  0  0  0  0
 16 20  2  0  0  0  0
 17 16  1  0  0  0  0
 18 14  1  0  0  0  0
 19 14  2  0  0  0  0
 20 19  1  0  0  0  0
 21 18  2  0  0  0  0
 21 16  1  0  0  0  0
M  END
>  <idnumber>
T5796248

>  <LogP>
2.764000000000000e+000

>  <rotating_bonds>
2.000000000000000e+000

>  <hb_acceptors>
3.000000000000000e+000

>  <hb_donors>
2.000000000000000e+000

>  <PSA>
4.933000000000001e+001

>  <clusterid>
-1331

>  <is_centroid>
@

>  <class1>
809

>  <class2>
625

>  <population1>
8162

>  <population2>
877209

>  <population>
5907

>  <cansmi>
Fc1ccc(cc1)NC(=O)C12CC3CC(C1)CC(C2)(C3)O

>  <HBA2>
3

>  <HBD>
2

>  <logP>
3.1685

>  <TPSA>
49.33

>  <MW>
289.345

$$$$

 OpenBabel02121609142D

 19 21  0  0  0  0  0  0  0  0999 V2000
   -1.3000   -1.2500    0.0000 C   0  0  0  0  0  0  0  0  0  0  0  0
   -0.4333   -0.7500    0.0000 N   0  0  0  0  0  0  0  0  0  0  0  0
   -1.3000    0.7500    0.0000 N   0  0  0  0  0  0  0  0  0  0  0  0
   -2.1708   -0.7500    0.0000 C   0  0  0  0  0  0  0  0  0  0  0  0
   -0.4333    0.2500    0.0000 C   0  0  0  0  0  0  0  0  0  0  0  0
   -2.1708    0.2500    0.0000 C   0  0  0  0  0  0  0  0  0  0  0  0
   -1.3000   -2.2500    0.0000 O   0  0  0  0  0  0  0  0  0  0  0  0
    0.4292    0.7500    0.0000 C   0  0  0  0  0  0  0  0  0  0  0  0
    1.2917    0.2500    0.0000 O   0  0  0  0  0  0  0  0  0  0  0  0
   -3.0333   -1.2500    0.0000 C   0  0  0  0  0  0  0  0  0  0  0  0
    2.1625    0.7500    0.0000 C   0  0  0  0  0  0  0  0  0  0  0  0
   -3.0333    0.7500    0.0000 C   0  0  0  0  0  0  0  0  0  0  0  0
    2.1625    1.7500    0.0000 C   0  0  0  0  0  0  0  0  0  0  0  0
    3.0292    0.2500    0.0000 C   0  0  0  0  0  0  0  0  0  0  0  0
   -3.9000   -0.7500    0.0000 C   0  0  0  0  0  0  0  0  0  0  0  0
   -3.9000    0.2500    0.0000 C   0  0  0  0  0  0  0  0  0  0  0  0
    3.8917    0.7500    0.0000 C   0  0  0  0  0  0  0  0  0  0  0  0
    3.0292    2.2500    0.0000 C   0  0  0  0  0  0  0  0  0  0  0  0
    3.8917    1.7500    0.0000 C   0  0  0  0  0  0  0  0  0  0  0  0
  2  1  1  0  0  0  0
  3  6  1  0  0  0  0
  4  1  1  0  0  0  0
  5  2  1  0  0  0  0
  5  3  2  0  0  0  0
  6  4  2  0  0  0  0
  7  1  2  0  0  0  0
  8  5  1  0  0  0  0
  9  8  1  0  0  0  0
 10  4  1  0  0  0  0
 11  9  1  0  0  0  0
 12  6  1  0  0  0  0
 12 16  2  0  0  0  0
 13 11  2  0  0  0  0
 14 11  1  0  0  0  0
 15 10  2  0  0  0  0
 16 15  1  0  0  0  0
 17 14  2  0  0  0  0
 18 13  1  0  0  0  0
 18 19  2  0  0  0  0
 19 17  1  0  0  0  0
M  END
>  <idnumber>
T5797722

>  <LogP>
1.992000000000000e+000

>  <rotating_bonds>
3.000000000000000e+000

>  <hb_acceptors>
3.000000000000000e+000

>  <hb_donors>
1.000000000000000e+000

>  <PSA>
5.069000000000001e+001

>  <clusterid>
-1333

>  <is_centroid>
@

>  <class1>
625

>  <class2>
648

>  <population1>
877209

>  <population2>
19152

>  <population>
19152

>  <cansmi>
O=c1[nH]c(COc2ccccc2)nc2c1cccc2

>  <HBA2>
3

>  <HBD>
1

>  <logP>
2.5021

>  <TPSA>
54.98

>  <MW>
252.268

$$$$

 OpenBabel02121609142D

 20 22  0  0  0  0  0  0  0  0999 V2000
    0.0000   -0.2500    0.0000 N   0  0  0  0  0  0  0  0  0  0  0  0
   -0.8708   -0.7500    0.0000 C   0  0  0  0  0  0  0  0  0  0  0  0
    0.0000    0.7500    0.0000 N   0  0  0  0  0  0  0  0  0  0  0  0
   -1.7333   -0.2500    0.0000 C   0  0  0  0  0  0  0  0  0  0  0  0
    0.8625   -0.7500    0.0000 C   0  0  0  0  0  0  0  0  0  0  0  0
    0.0000    1.7500    0.0000 N   0  0  0  0  0  0  0  0  0  0  0  0
   -0.8708    1.2500    0.0000 C   0  0  0  0  0  0  0  0  0  0  0  0
    0.8625    1.2500    0.0000 C   0  0  0  0  0  0  0  0  0  0  0  0
    1.7292   -0.2500    0.0000 C   0  0  0  0  0  0  0  0  0  0  0  0
   -1.7333    0.7500    0.0000 C   0  0  0  0  0  0  0  0  0  0  0  0
   -0.8708   -1.7500    0.0000 O   0  0  0  0  0  0  0  0  0  0  0  0
    1.7292    0.7500    0.0000 C   0  0  0  0  0  0  0  0  0  0  0  0
   -2.6000   -0.7500    0.0000 C   0  0  0  0  0  0  0  0  0  0  0  0
    2.5917   -0.7500    0.0000 C   0  0  0  0  0  0  0  0  0  0  0  0
   -2.6000    1.2500    0.0000 C   0  0  0  0  0  0  0  0  0  0  0  0
    2.5917    1.2500    0.0000 C   0  0  0  0  0  0  0  0  0  0  0  0
   -3.4708   -0.2500    0.0000 C   0  0  0  0  0  0  0  0  0  0  0  0
    3.4625   -0.2500    0.0000 C   0  0  0  0  0  0  0  0  0  0  0  0
   -3.4708    0.7500    0.0000 C   0  0  0  0  0  0  0  0  0  0  0  0
    3.4625    0.7500    0.0000 C   0  0  0  0  0  0  0  0  0  0  0  0
  2  1  1  0  0  0  0
  3  1  1  0  0  0  0
  4  2  1  0  0  0  0
  5  1  1  0  0  0  0
  6  8  3  0  0  0  0
  7  3  2  0  0  0  0
  8 12  1  0  0  0  0
  9  5  1  0  0  0  0
 10  7  1  0  0  0  0
 10  4  2  0  0  0  0
 11  2  2  0  0  0  0
 12  9  2  0  0  0  0
 13  4  1  0  0  0  0
 14  9  1  0  0  0  0
 15 10  1  0  0  0  0
 16 12  1  0  0  0  0
 16 20  2  0  0  0  0
 17 13  2  0  0  0  0
 18 14  2  0  0  0  0
 19 15  2  0  0  0  0
 19 17  1  0  0  0  0
 20 18  1  0  0  0  0
M  END
>  <idnumber>
T5798504

>  <LogP>
1.952000000000000e+000

>  <rotating_bonds>
3.000000000000000e+000

>  <hb_acceptors>
3.000000000000000e+000

>  <hb_donors>
0.000000000000000e+000

>  <PSA>
5.646000000000000e+001

>  <clusterid>
728

>  <is_centroid>
@

>  <class1>
625

>  <class2>
792

>  <population1>
877209

>  <population2>
7197

>  <population>
7197

>  <cansmi>
N#Cc1ccccc1Cn1ncc2c(c1=O)cccc2

>  <HBA2>
4

>  <HBD>
0

>  <logP>
2.31648

>  <TPSA>
58.68

>  <MW>
261.278

$$$$

 OpenBabel02121609142D

 16 17  0  0  0  0  0  0  0  0999 V2000
   -0.5458   -1.2542    0.0000 C   0  0  0  0  0  0  0  0  0  0  0  0
   -1.1333   -2.0625    0.0000 O   0  0  0  0  0  0  0  0  0  0  0  0
   -0.5458   -2.8667    0.0000 C   0  0  0  0  0  0  0  0  0  0  0  0
   -0.8500   -0.3042    0.0000 C   0  0  0  0  0  0  0  0  0  0  0  0
    0.4042   -1.5625    0.0000 C   0  0  0  0  0  0  0  0  0  0  0  0
    0.4042   -2.5625    0.0000 C   0  0  0  0  0  0  0  0  0  0  0  0
   -0.1833    0.4375    0.0000 N   0  0  0  0  0  0  0  0  0  0  0  0
   -1.8333   -0.0917    0.0000 O   0  0  0  0  0  0  0  0  0  0  0  0
    0.5375    3.8333    0.0000 N   0  0  0  0  0  0  0  0  0  0  0  0
    0.1792    2.1333    0.0000 C   0  0  0  0  0  0  0  0  0  0  0  0
   -0.8500   -3.8250    0.0000 Br  0  0  0  0  0  0  0  0  0  0  0  0
   -0.4958    1.3958    0.0000 C   0  0  0  0  0  0  0  0  0  0  0  0
   -0.1333    3.0833    0.0000 C   0  0  0  0  0  0  0  0  0  0  0  0
    1.5167    3.6208    0.0000 C   0  0  0  0  0  0  0  0  0  0  0  0
    1.1542    1.9250    0.0000 C   0  0  0  0  0  0  0  0  0  0  0  0
    1.8250    2.6708    0.0000 C   0  0  0  0  0  0  0  0  0  0  0  0
  2  1  1  0  0  0  0
  3  2  1  0  0  0  0
  3  6  2  0  0  0  0
  4  1  1  0  0  0  0
  5  1  2  0  0  0  0
  6  5  1  0  0  0  0
  7  4  1  0  0  0  0
  8  4  2  0  0  0  0
  9 13  1  0  0  0  0
  9 14  2  0  0  0  0
 10 12  1  0  0  0  0
 11  3  1  0  0  0  0
 12  7  1  0  0  0  0
 13 10  2  0  0  0  0
 14 16  1  0  0  0  0
 15 10  1  0  0  0  0
 16 15  2  0  0  0  0
M  END
>  <idnumber>
T5798508

>  <LogP>
1.573000000000000e+000

>  <rotating_bonds>
3.000000000000000e+000

>  <hb_acceptors>
2.000000000000000e+000

>  <hb_donors>
1.000000000000000e+000

>  <PSA>
5.513000000000000e+001

>  <clusterid>
729

>  <is_centroid>
@

>  <class1>
704

>  <class2>
632

>  <population1>
51112

>  <population2>
79489

>  <population>
3605

>  <cansmi>
Brc1ccc(o1)C(=O)NCc1cccnc1

>  <HBA2>
4

>  <HBD>
1

>  <logP>
2.758

>  <TPSA>
55.13

>  <MW>
281.105

$$$$

 OpenBabel02121609142D

 21 23  0  0  0  0  0  0  0  0999 V2000
   -0.3333    1.6333    0.0000 C   0  0  0  0  0  0  0  0  0  0  0  0
    0.5542    0.2833    0.0000 N   0  0  0  0  0  0  0  0  0  0  0  0
   -0.4125    0.0208    0.0000 N   0  0  0  0  0  0  0  0  0  0  0  0
    0.6042    1.2750    0.0000 C   0  0  0  0  0  0  0  0  0  0  0  0
   -0.9583    0.8583    0.0000 C   0  0  0  0  0  0  0  0  0  0  0  0
   -0.5875    2.6000    0.0000 C   0  0  0  0  0  0  0  0  0  0  0  0
    0.1167    3.3083    0.0000 N   0  0  0  0  0  0  0  0  0  0  0  0
    1.3292   -0.3542    0.0000 C   0  0  0  0  0  0  0  0  0  0  0  0
   -1.5583    2.8583    0.0000 O   0  0  0  0  0  0  0  0  0  0  0  0
    1.1750   -1.3417    0.0000 C   0  0  0  0  0  0  0  0  0  0  0  0
    1.1167    4.3042    0.0000 C   0  0  0  0  0  0  0  0  0  0  0  0
    1.1167    3.3083    0.0000 C   0  0  0  0  0  0  0  0  0  0  0  0
    0.1167    4.3042    0.0000 C   0  0  0  0  0  0  0  0  0  0  0  0
    1.4417    1.8208    0.0000 C   0  0  0  0  0  0  0  0  0  0  0  0
   -1.9583    0.9083    0.0000 C   0  0  0  0  0  0  0  0  0  0  0  0
    0.8625   -3.3167    0.0000 C   0  0  0  0  0  0  0  0  0  0  0  0
    1.9500   -1.9667    0.0000 C   0  0  0  0  0  0  0  0  0  0  0  0
    0.2417   -1.7000    0.0000 C   0  0  0  0  0  0  0  0  0  0  0  0
    0.0792   -2.6875    0.0000 C   0  0  0  0  0  0  0  0  0  0  0  0
    1.7917   -2.9542    0.0000 C   0  0  0  0  0  0  0  0  0  0  0  0
    0.7042   -4.3042    0.0000 C   0  0  0  0  0  0  0  0  0  0  0  0
  2  4  1  0  0  0  0
  3  5  2  0  0  0  0
  3  2  1  0  0  0  0
  4  1  2  0  0  0  0
  5  1  1  0  0  0  0
  6  1  1  0  0  0  0
  7  6  1  0  0  0  0
  8  2  1  0  0  0  0
  9  6  2  0  0  0  0
 10  8  1  0  0  0  0
 11 13  1  0  0  0  0
 12  7  1  0  0  0  0
 12 11  1  0  0  0  0
 13  7  1  0  0  0  0
 14  4  1  0  0  0  0
 15  5  1  0  0  0  0
 16 19  1  0  0  0  0
 17 10  2  0  0  0  0
 18 10  1  0  0  0  0
 19 18  2  0  0  0  0
 20 17  1  0  0  0  0
 20 16  2  0  0  0  0
 21 16  1  0  0  0  0
M  END
>  <idnumber>
T5799351

>  <LogP>
2.116000000000000e+000

>  <rotating_bonds>
3.000000000000000e+000

>  <hb_acceptors>
2.000000000000000e+000

>  <hb_donors>
0.000000000000000e+000

>  <PSA>
3.813000000000000e+001

>  <clusterid>
-1336

>  <is_centroid>
@

>  <class1>
625

>  <class2>
631

>  <class3>
678

>  <population1>
877209

>  <population2>
41612

>  <population3>
327

>  <population>
44

>  <cansmi>
Cc1ccc(cc1)Cn1nc(c(c1C)C(=O)N1CCC1)C

>  <HBA2>
4

>  <HBD>
0

>  <logP>
2.6404

>  <TPSA>
38.13

>  <MW>
283.368

$$$$

 OpenBabel02121609142D

 19 21  0  0  0  0  0  0  0  0999 V2000
   -0.4375   -0.5000    0.0000 C   0  0  0  0  0  0  0  0  0  0  0  0
   -0.4375    0.5000    0.0000 N   0  0  0  0  0  0  0  0  0  0  0  0
    0.5125    0.8125    0.0000 N   0  0  0  0  0  0  0  0  0  0  0  0
    0.5125   -0.8042    0.0000 C   0  0  0  0  0  0  0  0  0  0  0  0
   -1.2458   -1.0875    0.0000 C   0  0  0  0  0  0  0  0  0  0  0  0
    1.1000    0.0000    0.0000 C   0  0  0  0  0  0  0  0  0  0  0  0
    2.1000    0.0000    0.0000 C   0  0  0  0  0  0  0  0  0  0  0  0
    2.9667   -0.5000    0.0000 C   0  0  0  0  0  0  0  0  0  0  0  0
    2.9667    0.5000    0.0000 C   0  0  0  0  0  0  0  0  0  0  0  0
   -1.1458   -2.0792    0.0000 N   0  0  0  0  0  0  0  0  0  0  0  0
   -1.2458    1.0958    0.0000 C   0  0  0  0  0  0  0  0  0  0  0  0
   -2.1625   -0.6792    0.0000 O   0  0  0  0  0  0  0  0  0  0  0  0
   -1.9583   -2.6667    0.0000 C   0  0  0  0  0  0  0  0  0  0  0  0
   -0.2333   -2.4875    0.0000 C   0  0  0  0  0  0  0  0  0  0  0  0
   -2.1625    0.6833    0.0000 C   0  0  0  0  0  0  0  0  0  0  0  0
   -1.1458    2.0833    0.0000 C   0  0  0  0  0  0  0  0  0  0  0  0
   -1.9583    2.6708    0.0000 C   0  0  0  0  0  0  0  0  0  0  0  0
   -2.9708    1.2708    0.0000 C   0  0  0  0  0  0  0  0  0  0  0  0
   -2.8708    2.2708    0.0000 C   0  0  0  0  0  0  0  0  0  0  0  0
  2  1  1  0  0  0  0
  3  2  1  0  0  0  0
  4  1  2  0  0  0  0
  5  1  1  0  0  0  0
  6  4  1  0  0  0  0
  6  3  2  0  0  0  0
  7  6  1  0  0  0  0
  8  7  1  0  0  0  0
  8  9  1  0  0  0  0
  9  7  1  0  0  0  0
 10  5  1  0  0  0  0
 11  2  1  0  0  0  0
 12  5  2  0  0  0  0
 13 10  1  0  0  0  0
 14 10  1  0  0  0  0
 15 11  2  0  0  0  0
 16 11  1  0  0  0  0
 17 16  2  0  0  0  0
 18 15  1  0  0  0  0
 18 19  2  0  0  0  0
 19 17  1  0  0  0  0
M  END
>  <idnumber>
T5799385

>  <LogP>
1.889000000000000e+000

>  <rotating_bonds>
3.000000000000000e+000

>  <hb_acceptors>
2.000000000000000e+000

>  <hb_donors>
0.000000000000000e+000

>  <PSA>
3.813000000000000e+001

>  <clusterid>
552

>  <is_centroid>
@

>  <class1>
675

>  <class2>
631

>  <class3>
625

>  <population1>
33654

>  <population2>
41612

>  <population3>
877209

>  <population>
1398

>  <cansmi>
CN(C(=O)c1cc(nn1c1ccccc1)C1CC1)C

>  <HBA2>
4

>  <HBD>
0

>  <logP>
2.4515

>  <TPSA>
38.13

>  <MW>
255.315

$$$$

 OpenBabel02121609142D

 17 18  0  0  0  0  0  0  0  0999 V2000
    0.8625    0.7500    0.0000 N   0  0  0  0  0  0  0  0  0  0  0  0
    0.0000    0.2500    0.0000 C   0  0  3  0  0  0  0  0  0  0  0  0
    0.8625    1.7500    0.0000 C   0  0  0  0  0  0  0  0  0  0  0  0
    0.0000   -0.7500    0.0000 C   0  0  0  0  0  0  0  0  0  0  0  0
   -0.8708    0.7500    0.0000 C   0  0  0  0  0  0  0  0  0  0  0  0
    1.7292    0.2500    0.0000 C   0  0  0  0  0  0  0  0  0  0  0  0
    0.0000    2.2500    0.0000 C   0  0  0  0  0  0  0  0  0  0  0  0
   -0.8708   -1.2500    0.0000 C   0  0  0  0  0  0  0  0  0  0  0  0
   -0.8708    1.7500    0.0000 C   0  0  0  0  0  0  0  0  0  0  0  0
    2.5917    0.7500    0.0000 O   0  0  0  0  0  0  0  0  0  0  0  0
   -1.7333   -0.7500    0.0000 O   0  0  0  0  0  0  0  0  0  0  0  0
   -0.8708   -2.2500    0.0000 O   0  0  0  0  0  0  0  0  0  0  0  0
   -1.7333    0.2500    0.0000 C   0  0  0  0  0  0  0  0  0  0  0  0
    1.7292   -0.7500    0.0000 C   0  0  0  0  0  0  0  0  0  0  0  0
   -1.7333    2.2500    0.0000 C   0  0  0  0  0  0  0  0  0  0  0  0
   -2.6000    0.7500    0.0000 C   0  0  0  0  0  0  0  0  0  0  0  0
   -2.6000    1.7500    0.0000 C   0  0  0  0  0  0  0  0  0  0  0  0
  2  1  1  0  0  0  0
  3  1  1  0  0  0  0
  4  2  1  0  0  0  0
  5  2  1  0  0  0  0
  5  9  2  0  0  0  0
  6  1  1  0  0  0  0
  7  3  2  0  0  0  0
  8  4  1  0  0  0  0
  9  7  1  0  0  0  0
 10  6  2  0  0  0  0
 11  8  2  0  0  0  0
 12  8  1  0  0  0  0
 13  5  1  0  0  0  0
 14  6  1  0  0  0  0
 15  9  1  0  0  0  0
 16 13  2  0  0  0  0
 17 15  2  0  0  0  0
 17 16  1  0  0  0  0
M  END
>  <idnumber>
T5799827

>  <LogP>
9.560000000000002e-001

>  <rotating_bonds>
2.000000000000000e+000

>  <hb_acceptors>
3.000000000000000e+000

>  <hb_donors>
1.000000000000000e+000

>  <PSA>
5.761000000000000e+001

>  <clusterid>
-1337

>  <is_centroid>
@

>  <class1>
708

>  <population1>
464

>  <population>
464

>  <cansmi>
OC(=O)CC1N(C=Cc2c1cccc2)C(=O)C

>  <HBA2>
4

>  <HBD>
1

>  <logP>
1.9731

>  <TPSA>
57.61

>  <MW>
231.247

$$$$

 OpenBabel02121609142D

 19 21  0  0  0  0  0  0  0  0999 V2000
    0.5792    1.0833    0.0000 C   0  0  0  0  0  0  0  0  0  0  0  0
   -0.4208    1.0833    0.0000 C   0  0  0  0  0  0  0  0  0  0  0  0
    1.1667    0.2750    0.0000 C   0  0  0  0  0  0  0  0  0  0  0  0
    2.1167    0.5833    0.0000 N   0  0  0  0  0  0  0  0  0  0  0  0
   -0.9208    1.9583    0.0000 N   0  0  0  0  0  0  0  0  0  0  0  0
    2.1167    1.5833    0.0000 N   0  0  0  0  0  0  0  0  0  0  0  0
    1.1667    1.8958    0.0000 C   0  0  0  0  0  0  0  0  0  0  0  0
    0.8542   -0.6750    0.0000 C   0  0  0  0  0  0  0  0  0  0  0  0
   -0.9208    0.2208    0.0000 O   0  0  0  0  0  0  0  0  0  0  0  0
    1.5292   -1.4167    0.0000 C   0  0  0  0  0  0  0  0  0  0  0  0
   -0.1208   -0.8792    0.0000 C   0  0  0  0  0  0  0  0  0  0  0  0
    0.2417   -2.5792    0.0000 C   0  0  0  0  0  0  0  0  0  0  0  0
    1.2167   -2.3667    0.0000 C   0  0  0  0  0  0  0  0  0  0  0  0
   -0.4333   -1.8292    0.0000 C   0  0  0  0  0  0  0  0  0  0  0  0
   -0.0708   -3.5292    0.0000 F   0  0  0  0  0  0  0  0  0  0  0  0
   -0.5125    2.8625    0.0000 C   0  0  0  0  0  0  0  0  0  0  0  0
   -1.9208    2.0583    0.0000 C   0  0  0  0  0  0  0  0  0  0  0  0
   -2.1208    3.0333    0.0000 C   0  0  0  0  0  0  0  0  0  0  0  0
   -1.2583    3.5333    0.0000 C   0  0  0  0  0  0  0  0  0  0  0  0
  2  1  1  0  0  0  0
  3  1  1  0  0  0  0
  4  3  2  0  0  0  0
  4  6  1  0  0  0  0
  5  2  1  0  0  0  0
  6  7  1  0  0  0  0
  7  1  2  0  0  0  0
  8  3  1  0  0  0  0
  9  2  2  0  0  0  0
 10  8  1  0  0  0  0
 11  8  2  0  0  0  0
 12 14  2  0  0  0  0
 12 13  1  0  0  0  0
 13 10  2  0  0  0  0
 14 11  1  0  0  0  0
 15 12  1  0  0  0  0
 16  5  1  0  0  0  0
 17  5  1  0  0  0  0
 18 17  1  0  0  0  0
 19 16  1  0  0  0  0
 19 18  1  0  0  0  0
M  END
>  <idnumber>
T5800359

>  <LogP>
2.236000000000000e+000

>  <rotating_bonds>
2.000000000000000e+000

>  <hb_acceptors>
3.000000000000000e+000

>  <hb_donors>
1.000000000000000e+000

>  <PSA>
4.899000000000000e+001

>  <clusterid>
733

>  <is_centroid>
@

>  <class1>
642

>  <population1>
51183

>  <population>
51183

>  <cansmi>
Fc1ccc(cc1)c1n[nH]cc1C(=O)N1CCCC1

>  <HBA2>
3

>  <HBD>
1

>  <logP>
2.3897

>  <TPSA>
48.99

>  <MW>
259.279

$$$$

 OpenBabel02121609142D

 17 19  0  0  0  0  0  0  0  0999 V2000
    0.1292    0.4875    0.0000 C   0  0  0  0  0  0  0  0  0  0  0  0
   -0.4583   -0.3250    0.0000 C   0  0  0  0  0  0  0  0  0  0  0  0
   -0.4583    1.2958    0.0000 N   0  0  0  0  0  0  0  0  0  0  0  0
   -1.4083   -0.0125    0.0000 C   0  0  0  0  0  0  0  0  0  0  0  0
   -1.4083    0.9875    0.0000 C   0  0  0  0  0  0  0  0  0  0  0  0
    1.1292    0.4875    0.0000 C   0  0  0  0  0  0  0  0  0  0  0  0
   -0.1458   -1.2750    0.0000 C   0  0  0  0  0  0  0  0  0  0  0  0
   -2.2708   -0.5125    0.0000 C   0  0  0  0  0  0  0  0  0  0  0  0
   -2.2708    1.4875    0.0000 C   0  0  0  0  0  0  0  0  0  0  0  0
    0.8292   -1.4792    0.0000 O   0  0  0  0  0  0  0  0  0  0  0  0
    1.6292   -0.3792    0.0000 C   0  0  0  0  0  0  0  0  0  0  0  0
    1.6292    1.3583    0.0000 C   0  0  0  0  0  0  0  0  0  0  0  0
   -3.1375   -0.0125    0.0000 C   0  0  0  0  0  0  0  0  0  0  0  0
   -3.1375    0.9875    0.0000 C   0  0  0  0  0  0  0  0  0  0  0  0
    2.6292    1.3583    0.0000 C   0  0  0  0  0  0  0  0  0  0  0  0
    2.6292   -0.3792    0.0000 C   0  0  0  0  0  0  0  0  0  0  0  0
    3.1292    0.4875    0.0000 C   0  0  0  0  0  0  0  0  0  0  0  0
  2  1  2  0  0  0  0
  3  1  1  0  0  0  0
  4  2  1  0  0  0  0
  5  3  1  0  0  0  0
  5  4  2  0  0  0  0
  6  1  1  0  0  0  0
  7  2  1  0  0  0  0
  8  4  1  0  0  0  0
  9  5  1  0  0  0  0
 10  7  1  0  0  0  0
 11  6  1  0  0  0  0
 12  6  2  0  0  0  0
 13  8  2  0  0  0  0
 14  9  2  0  0  0  0
 14 13  1  0  0  0  0
 15 12  1  0  0  0  0
 16 11  2  0  0  0  0
 16 17  1  0  0  0  0
 17 15  2  0  0  0  0
M  END
>  <idnumber>
T5800536

>  <LogP>
2.892000000000000e+000

>  <rotating_bonds>
2.000000000000000e+000

>  <hb_acceptors>
1.000000000000000e+000

>  <hb_donors>
2.000000000000000e+000

>  <PSA>
3.602000000000000e+001

>  <clusterid>
-1338

>  <is_centroid>
@

>  <class1>
748

>  <class2>
625

>  <population1>
15713

>  <population2>
877209

>  <population>
15713

>  <cansmi>
OCc1c([nH]c2c1cccc2)c1ccccc1

>  <HBA2>
1

>  <HBD>
2

>  <logP>
3.3272

>  <TPSA>
36.02

>  <MW>
223.27

$$$$

 OpenBabel02121609142D

 21 23  0  0  0  0  0  0  0  0999 V2000
    0.3417   -0.8042    0.0000 C   0  0  0  0  0  0  0  0  0  0  0  0
    2.9167    1.5125    0.0000 N   0  0  0  0  0  0  0  0  0  0  0  0
    0.0375   -1.7542    0.0000 N   0  0  0  0  0  0  0  0  0  0  0  0
    2.6125    0.5583    0.0000 C   0  0  0  0  0  0  0  0  0  0  0  0
    1.3250   -0.6000    0.0000 C   0  0  0  0  0  0  0  0  0  0  0  0
    1.6292    0.3500    0.0000 C   0  0  0  0  0  0  0  0  0  0  0  0
    3.8667    1.8208    0.0000 C   0  0  0  0  0  0  0  0  0  0  0  0
    2.3292    2.3208    0.0000 C   0  0  0  0  0  0  0  0  0  0  0  0
   -0.3250   -0.0625    0.0000 O   0  0  0  0  0  0  0  0  0  0  0  0
    2.9167    3.1333    0.0000 C   0  0  0  0  0  0  0  0  0  0  0  0
    3.8667    2.8208    0.0000 C   0  0  0  0  0  0  0  0  0  0  0  0
   -0.9458   -1.9667    0.0000 C   0  0  3  0  0  0  0  0  0  0  0  0
   -2.8958   -2.3792    0.0000 C   0  0  3  0  0  0  0  0  0  0  0  0
   -1.6083   -1.2167    0.0000 C   0  0  0  0  0  0  0  0  0  0  0  0
   -1.2500   -2.9167    0.0000 C   0  0  0  0  0  0  0  0  0  0  0  0
   -2.5875   -1.4292    0.0000 C   0  0  0  0  0  0  0  0  0  0  0  0
   -2.2333   -3.1250    0.0000 C   0  0  0  0  0  0  0  0  0  0  0  0
   -3.8750   -2.5917    0.0000 O   0  0  0  0  0  0  0  0  0  0  0  0
    3.2792   -0.1792    0.0000 C   0  0  0  0  0  0  0  0  0  0  0  0
    1.9917   -1.3417    0.0000 C   0  0  0  0  0  0  0  0  0  0  0  0
    2.9667   -1.1292    0.0000 C   0  0  0  0  0  0  0  0  0  0  0  0
  2  4  1  0  0  0  0
  3  1  1  0  0  0  0
  4  6  1  0  0  0  0
  4 19  2  0  0  0  0
  5  1  1  0  0  0  0
  6  5  2  0  0  0  0
  7  2  1  0  0  0  0
  8  2  1  0  0  0  0
  9  1  2  0  0  0  0
 10  8  2  0  0  0  0
 11  7  2  0  0  0  0
 11 10  1  0  0  0  0
 12  3  1  0  0  0  0
 13 17  1  0  0  0  0
 14 12  1  0  0  0  0
 15 12  1  0  0  0  0
 16 14  1  0  0  0  0
 16 13  1  0  0  0  0
 17 15  1  0  0  0  0
 18 13  1  0  0  0  0
 19 21  1  0  0  0  0
 20  5  1  0  0  0  0
 21 20  2  0  0  0  0
M  END
>  <idnumber>
T5803721

>  <LogP>
2.042000000000000e+000

>  <rotating_bonds>
3.000000000000000e+000

>  <hb_acceptors>
2.000000000000000e+000

>  <hb_donors>
2.000000000000000e+000

>  <PSA>
5.426000000000001e+001

>  <clusterid>
-1339

>  <is_centroid>
@

>  <class1>
635

>  <class2>
625

>  <class3>
797

>  <population1>
31512

>  <population2>
877209

>  <population3>
40410

>  <population>
345

>  <cansmi>
OC1CCC(CC1)NC(=O)c1cccc(c1)n1cccc1

>  <HBA2>
4

>  <HBD>
2

>  <logP>
2.9015

>  <TPSA>
54.26

>  <MW>
284.353

$$$$

 OpenBabel02121609142D

 19 21  0  0  0  0  0  0  0  0999 V2000
   -0.7708    0.2583    0.0000 N   0  0  0  0  0  0  0  0  0  0  0  0
    0.5167   -0.9042    0.0000 C   0  0  0  0  0  0  0  0  0  0  0  0
    1.1792   -0.1542    0.0000 N   0  0  0  0  0  0  0  0  0  0  0  0
   -0.4625   -0.6917    0.0000 C   0  0  0  0  0  0  0  0  0  0  0  0
    2.1625   -0.3667    0.0000 N   0  0  0  0  0  0  0  0  0  0  0  0
    2.4667   -1.3167    0.0000 C   0  0  0  0  0  0  0  0  0  0  0  0
   -1.7208    0.5708    0.0000 C   0  0  0  0  0  0  0  0  0  0  0  0
    0.8250   -1.8542    0.0000 C   0  0  0  0  0  0  0  0  0  0  0  0
    1.8042   -2.0625    0.0000 C   0  0  0  0  0  0  0  0  0  0  0  0
   -0.1833    1.0708    0.0000 C   0  0  0  0  0  0  0  0  0  0  0  0
   -1.1333   -1.4375    0.0000 O   0  0  0  0  0  0  0  0  0  0  0  0
   -1.7208    1.5708    0.0000 C   0  0  0  0  0  0  0  0  0  0  0  0
    3.4500   -1.5250    0.0000 O   0  0  0  0  0  0  0  0  0  0  0  0
   -0.7708    1.8750    0.0000 C   0  0  0  0  0  0  0  0  0  0  0  0
    2.8292    0.3750    0.0000 C   0  0  0  0  0  0  0  0  0  0  0  0
   -2.5875    0.0708    0.0000 C   0  0  0  0  0  0  0  0  0  0  0  0
   -2.5875    2.0708    0.0000 C   0  0  0  0  0  0  0  0  0  0  0  0
   -3.4583    0.5708    0.0000 C   0  0  0  0  0  0  0  0  0  0  0  0
   -3.4583    1.5708    0.0000 C   0  0  0  0  0  0  0  0  0  0  0  0
  2  4  1  0  0  0  0
  3  2  2  0  0  0  0
  4  1  1  0  0  0  0
  5  3  1  0  0  0  0
  5  6  1  0  0  0  0
  6  9  1  0  0  0  0
  7  1  1  0  0  0  0
  8  2  1  0  0  0  0
  9  8  2  0  0  0  0
 10  1  1  0  0  0  0
 11  4  2  0  0  0  0
 12  7  2  0  0  0  0
 13  6  2  0  0  0  0
 14 10  1  0  0  0  0
 14 12  1  0  0  0  0
 15  5  1  0  0  0  0
 16  7  1  0  0  0  0
 17 12  1  0  0  0  0
 17 19  2  0  0  0  0
 18 16  2  0  0  0  0
 19 18  1  0  0  0  0
M  END
>  <idnumber>
T5805532

>  <LogP>
-2.700000000000000e-002

>  <rotating_bonds>
1.000000000000000e+000

>  <hb_acceptors>
3.000000000000000e+000

>  <hb_donors>
0.000000000000000e+000

>  <PSA>
5.298000000000000e+001

>  <clusterid>
-1341

>  <is_centroid>
@

>  <class1>
826

>  <class2>
732

>  <population1>
2794

>  <population2>
13534

>  <population>
23

>  <cansmi>
O=C(N1CCc2c1cccc2)c1ccc(=O)n(n1)C

>  <HBA2>
5

>  <HBD>
0

>  <logP>
1.0482

>  <TPSA>
55.2

>  <MW>
255.272

$$$$

 OpenBabel02121609142D

 17 19  0  0  0  0  0  0  0  0999 V2000
   -0.4583    1.2958    0.0000 N   0  0  0  0  0  0  0  0  0  0  0  0
   -0.4583   -0.3250    0.0000 C   0  0  0  0  0  0  0  0  0  0  0  0
   -1.4083   -0.0125    0.0000 N   0  0  0  0  0  0  0  0  0  0  0  0
    0.1292    0.4875    0.0000 C   0  0  0  0  0  0  0  0  0  0  0  0
   -1.4083    0.9875    0.0000 C   0  0  0  0  0  0  0  0  0  0  0  0
   -2.2708   -0.5125    0.0000 C   0  0  0  0  0  0  0  0  0  0  0  0
   -2.2708    1.4875    0.0000 C   0  0  0  0  0  0  0  0  0  0  0  0
    1.1292    0.4875    0.0000 C   0  0  0  0  0  0  0  0  0  0  0  0
   -3.1375   -0.0125    0.0000 C   0  0  0  0  0  0  0  0  0  0  0  0
   -3.1375    0.9875    0.0000 C   0  0  0  0  0  0  0  0  0  0  0  0
   -0.1458   -1.2750    0.0000 C   0  0  0  0  0  0  0  0  0  0  0  0
    0.8292   -1.4792    0.0000 O   0  0  0  0  0  0  0  0  0  0  0  0
    1.6292   -0.3792    0.0000 C   0  0  0  0  0  0  0  0  0  0  0  0
    1.6292    1.3583    0.0000 C   0  0  0  0  0  0  0  0  0  0  0  0
    2.6292    1.3583    0.0000 C   0  0  0  0  0  0  0  0  0  0  0  0
    2.6292   -0.3792    0.0000 C   0  0  0  0  0  0  0  0  0  0  0  0
    3.1292    0.4875    0.0000 C   0  0  0  0  0  0  0  0  0  0  0  0
  2  4  2  0  0  0  0
  2  3  1  0  0  0  0
  3  5  1  0  0  0  0
  4  1  1  0  0  0  0
  5  1  2  0  0  0  0
  6  3  1  0  0  0  0
  6  9  2  0  0  0  0
  7  5  1  0  0  0  0
  8  4  1  0  0  0  0
  9 10  1  0  0  0  0
 10  7  2  0  0  0  0
 11  2  1  0  0  0  0
 12 11  1  0  0  0  0
 13  8  1  0  0  0  0
 14  8  2  0  0  0  0
 15 14  1  0  0  0  0
 16 13  2  0  0  0  0
 16 17  1  0  0  0  0
 17 15  2  0  0  0  0
M  END
>  <idnumber>
T5806133

>  <LogP>
1.966000000000000e+000

>  <rotating_bonds>
2.000000000000000e+000

>  <hb_acceptors>
3.000000000000000e+000

>  <hb_donors>
1.000000000000000e+000

>  <PSA>
3.753000000000000e+001

>  <clusterid>
-1342

>  <is_centroid>
@

>  <class1>
660

>  <class2>
625

>  <population1>
3949

>  <population2>
877209

>  <population>
3187

>  <cansmi>
OCc1c(nc2n1cccc2)c1ccccc1

>  <HBA2>
3

>  <HBD>
1

>  <logP>
2.4936

>  <TPSA>
37.53

>  <MW>
224.258

$$$$

 OpenBabel02121609142D

 22 24  0  0  0  0  0  0  0  0999 V2000
    0.7292    0.9500    0.0000 N   0  0  0  0  0  0  0  0  0  0  0  0
   -0.2708    0.9500    0.0000 C   0  0  0  0  0  0  0  0  0  0  0  0
   -0.7708    1.8125    0.0000 C   0  0  0  0  0  0  0  0  0  0  0  0
    1.3167    0.1375    0.0000 C   0  0  3  0  0  0  0  0  0  0  0  0
   -1.7708    1.8125    0.0000 C   0  0  0  0  0  0  0  0  0  0  0  0
   -2.2708    2.6833    0.0000 N   0  0  0  0  0  0  0  0  0  0  0  0
   -0.2708    2.6833    0.0000 C   0  0  0  0  0  0  0  0  0  0  0  0
   -1.7708    3.5458    0.0000 C   0  0  0  0  0  0  0  0  0  0  0  0
   -0.7708    3.5458    0.0000 C   0  0  0  0  0  0  0  0  0  0  0  0
    1.0042   -0.8125    0.0000 C   0  0  0  0  0  0  0  0  0  0  0  0
   -0.7708    0.0833    0.0000 O   0  0  0  0  0  0  0  0  0  0  0  0
   -2.2708    4.4042    0.0000 O   0  0  0  0  0  0  0  0  0  0  0  0
    0.0292   -1.0167    0.0000 C   0  0  0  0  0  0  0  0  0  0  0  0
    1.6750   -1.5542    0.0000 C   0  0  0  0  0  0  0  0  0  0  0  0
    1.3167    1.7583    0.0000 C   0  0  0  0  0  0  0  0  0  0  0  0
    0.3875   -2.7125    0.0000 C   0  0  0  0  0  0  0  0  0  0  0  0
    1.3667   -2.5042    0.0000 C   0  0  0  0  0  0  0  0  0  0  0  0
   -0.2833   -1.9667    0.0000 C   0  0  0  0  0  0  0  0  0  0  0  0
    2.2667    0.4500    0.0000 C   0  0  0  0  0  0  0  0  0  0  0  0
    0.0792   -3.6667    0.0000 O   0  0  0  0  0  0  0  0  0  0  0  0
    2.2667    1.4500    0.0000 C   0  0  0  0  0  0  0  0  0  0  0  0
    0.7500   -4.4042    0.0000 C   0  0  0  0  0  0  0  0  0  0  0  0
  2  1  1  0  0  0  0
  3  2  1  0  0  0  0
  4  1  1  0  0  0  0
  5  3  2  0  0  0  0
  6  5  1  0  0  0  0
  6  8  1  0  0  0  0
  7  3  1  0  0  0  0
  8  9  1  0  0  0  0
  9  7  2  0  0  0  0
 10  4  1  0  0  0  0
 11  2  2  0  0  0  0
 12  8  2  0  0  0  0
 13 10  2  0  0  0  0
 14 10  1  0  0  0  0
 15  1  1  0  0  0  0
 16 17  1  0  0  0  0
 17 14  2  0  0  0  0
 18 13  1  0  0  0  0
 18 16  2  0  0  0  0
 19  4  1  0  0  0  0
 19 21  1  0  0  0  0
 20 16  1  0  0  0  0
 21 15  1  0  0  0  0
 22 20  1  0  0  0  0
M  END
>  <idnumber>
T5807944

>  <LogP>
1.116000000000000e+000

>  <rotating_bonds>
3.000000000000000e+000

>  <hb_acceptors>
3.000000000000000e+000

>  <hb_donors>
1.000000000000000e+000

>  <PSA>
5.863999999999997e+001

>  <clusterid>
-1349

>  <is_centroid>
@

>  <class1>
642

>  <class2>
625

>  <class3>
696

>  <population1>
51183

>  <population2>
877209

>  <population3>
4759

>  <population>
303

>  <cansmi>
COc1ccc(cc1)C1CCCN1C(=O)c1ccc(=O)[nH]c1

>  <HBA2>
4

>  <HBD>
1

>  <logP>
2.2987

>  <TPSA>
62.4

>  <MW>
298.336

$$$$

 OpenBabel02121609142D

 20 22  0  0  0  0  0  0  0  0999 V2000
    0.7667    0.0000    0.0000 C   0  0  0  0  0  0  0  0  0  0  0  0
    1.6292   -0.5000    0.0000 N   0  0  0  0  0  0  0  0  0  0  0  0
    2.5000    0.0000    0.0000 C   0  0  0  0  0  0  0  0  0  0  0  0
   -2.6958    0.0000    0.0000 C   0  0  0  0  0  0  0  0  0  0  0  0
   -2.6958    1.0000    0.0000 C   0  0  0  0  0  0  0  0  0  0  0  0
   -3.6458    1.3125    0.0000 O   0  0  0  0  0  0  0  0  0  0  0  0
   -1.8333   -0.5000    0.0000 C   0  0  0  0  0  0  0  0  0  0  0  0
    0.7667    1.0000    0.0000 O   0  0  0  0  0  0  0  0  0  0  0  0
    3.3667   -0.5000    0.0000 C   0  0  0  0  0  0  0  0  0  0  0  0
   -0.9708    0.0000    0.0000 C   0  0  0  0  0  0  0  0  0  0  0  0
   -0.1000   -0.5000    0.0000 C   0  0  0  0  0  0  0  0  0  0  0  0
   -1.8333    1.5000    0.0000 C   0  0  0  0  0  0  0  0  0  0  0  0
   -0.9708    1.0000    0.0000 C   0  0  0  0  0  0  0  0  0  0  0  0
    3.3667   -1.5000    0.0000 Cl  0  0  0  0  0  0  0  0  0  0  0  0
   -4.2375    0.5000    0.0000 C   0  0  0  0  0  0  0  0  0  0  0  0
   -3.6458   -0.3042    0.0000 C   0  0  0  0  0  0  0  0  0  0  0  0
    2.5000    1.0000    0.0000 C   0  0  0  0  0  0  0  0  0  0  0  0
    4.2292    0.0000    0.0000 C   0  0  0  0  0  0  0  0  0  0  0  0
    3.3667    1.5000    0.0000 C   0  0  0  0  0  0  0  0  0  0  0  0
    4.2292    1.0000    0.0000 C   0  0  0  0  0  0  0  0  0  0  0  0
  2  1  1  0  0  0  0
  3  2  1  0  0  0  0
  4  7  1  0  0  0  0
  4  5  2  0  0  0  0
  5 12  1  0  0  0  0
  6  5  1  0  0  0  0
  6 15  1  0  0  0  0
  7 10  2  0  0  0  0
  8  1  2  0  0  0  0
  9  3  2  0  0  0  0
 10 11  1  0  0  0  0
 11  1  1  0  0  0  0
 12 13  2  0  0  0  0
 13 10  1  0  0  0  0
 14  9  1  0  0  0  0
 15 16  1  0  0  0  0
 16  4  1  0  0  0  0
 17  3  1  0  0  0  0
 18  9  1  0  0  0  0
 18 20  2  0  0  0  0
 19 17  2  0  0  0  0
 20 19  1  0  0  0  0
M  END
>  <idnumber>
T5809728

>  <LogP>
2.874000000000000e+000

>  <rotating_bonds>
3.000000000000000e+000

>  <hb_acceptors>
3.000000000000000e+000

>  <hb_donors>
1.000000000000000e+000

>  <PSA>
3.833000000000000e+001

>  <clusterid>
-1351

>  <is_centroid>
@

>  <class1>
625

>  <class2>
803

>  <population1>
877209

>  <population2>
2603

>  <population>
2603

>  <cansmi>
O=C(Nc1ccccc1Cl)Cc1ccc2c(c1)CCO2

>  <HBA2>
3

>  <HBD>
1

>  <logP>
3.5291

>  <TPSA>
38.33

>  <MW>
287.741

$$$$

 OpenBabel02121609142D

 19 21  0  0  0  0  0  0  0  0999 V2000
   -2.4208    0.0208    0.0000 N   0  0  0  0  0  0  0  0  0  0  0  0
   -1.4208    0.0208    0.0000 C   0  0  0  0  0  0  0  0  0  0  0  0
    2.0792    0.8833    0.0000 C   0  0  0  0  0  0  0  0  0  0  0  0
   -3.0083   -0.7917    0.0000 C   0  0  0  0  0  0  0  0  0  0  0  0
    3.0792    0.8833    0.0000 C   0  0  0  0  0  0  0  0  0  0  0  0
   -0.9208   -0.8500    0.0000 C   0  0  0  0  0  0  0  0  0  0  0  0
    1.5792    0.0208    0.0000 N   0  0  0  0  0  0  0  0  0  0  0  0
    3.9500    1.3833    0.0000 C   0  0  0  0  0  0  0  0  0  0  0  0
    3.9500    0.3833    0.0000 C   0  0  0  0  0  0  0  0  0  0  0  0
   -0.9208    0.8833    0.0000 C   0  0  0  0  0  0  0  0  0  0  0  0
    0.5792    0.0208    0.0000 C   0  0  0  0  0  0  0  0  0  0  0  0
    0.0792   -0.8500    0.0000 C   0  0  0  0  0  0  0  0  0  0  0  0
    1.5792    1.7500    0.0000 O   0  0  0  0  0  0  0  0  0  0  0  0
   -2.6958   -1.7417    0.0000 O   0  0  0  0  0  0  0  0  0  0  0  0
    0.0792    0.8833    0.0000 C   0  0  0  0  0  0  0  0  0  0  0  0
   -3.0083    0.8250    0.0000 C   0  0  0  0  0  0  0  0  0  0  0  0
   -3.9583   -0.4792    0.0000 C   0  0  0  0  0  0  0  0  0  0  0  0
   -1.4208   -1.7167    0.0000 C   0  0  0  0  0  0  0  0  0  0  0  0
   -3.9583    0.5208    0.0000 C   0  0  0  0  0  0  0  0  0  0  0  0
  2  1  1  0  0  0  0
  3  7  1  0  0  0  0
  4  1  1  0  0  0  0
  5  3  1  0  0  0  0
  6  2  2  0  0  0  0
  7 11  1  0  0  0  0
  8  5  1  0  0  0  0
  9  5  1  0  0  0  0
  9  8  1  0  0  0  0
 10  2  1  0  0  0  0
 11 15  1  0  0  0  0
 12  6  1  0  0  0  0
 12 11  2  0  0  0  0
 13  3  2  0  0  0  0
 14  4  2  0  0  0  0
 15 10  2  0  0  0  0
 16  1  1  0  0  0  0
 17  4  1  0  0  0  0
 18  6  1  0  0  0  0
 19 16  1  0  0  0  0
 19 17  1  0  0  0  0
M  END
>  <idnumber>
T5810330

>  <LogP>
1.574000000000000e+000

>  <rotating_bonds>
3.000000000000000e+000

>  <hb_acceptors>
2.000000000000000e+000

>  <hb_donors>
1.000000000000000e+000

>  <PSA>
4.941000000000003e+001

>  <clusterid>
-1352

>  <is_centroid>
@

>  <class1>
675

>  <class2>
673

>  <class3>
625

>  <population1>
33654

>  <population2>
18691

>  <population3>
877209

>  <population>
369

>  <cansmi>
O=C(C1CC1)Nc1ccc(c(c1)C)N1CCCC1=O

>  <HBA2>
4

>  <HBD>
1

>  <logP>
2.6083

>  <TPSA>
49.41

>  <MW>
258.316

$$$$

 OpenBabel02121609142D

 15 16  0  0  0  0  0  0  0  0999 V2000
   -2.1708   -1.2500    0.0000 C   0  0  0  0  0  0  0  0  0  0  0  0
   -1.3000    0.2500    0.0000 N   0  0  0  0  0  0  0  0  0  0  0  0
   -3.0333   -0.7417    0.0000 N   0  0  0  0  0  0  0  0  0  0  0  0
   -1.3000   -0.7417    0.0000 C   0  0  0  0  0  0  0  0  0  0  0  0
    3.0292    1.7500    0.0000 N   0  0  0  0  0  0  0  0  0  0  0  0
   -2.1708   -2.2500    0.0000 O   0  0  0  0  0  0  0  0  0  0  0  0
   -0.4333    0.7500    0.0000 C   0  0  0  0  0  0  0  0  0  0  0  0
   -3.0333    0.2500    0.0000 C   0  0  0  0  0  0  0  0  0  0  0  0
    0.4292    0.2500    0.0000 C   0  0  0  0  0  0  0  0  0  0  0  0
    1.2917    0.7500    0.0000 C   0  0  0  0  0  0  0  0  0  0  0  0
   -2.1708    0.7500    0.0000 C   0  0  0  0  0  0  0  0  0  0  0  0
    2.1625    2.2500    0.0000 C   0  0  0  0  0  0  0  0  0  0  0  0
    3.0292    0.7500    0.0000 C   0  0  0  0  0  0  0  0  0  0  0  0
    1.2917    1.7500    0.0000 C   0  0  0  0  0  0  0  0  0  0  0  0
    2.1625    0.2500    0.0000 C   0  0  0  0  0  0  0  0  0  0  0  0
  2  4  1  0  0  0  0
  3  1  1  0  0  0  0
  4  1  1  0  0  0  0
  5 13  1  0  0  0  0
  6  1  2  0  0  0  0
  7  2  1  0  0  0  0
  8  3  1  0  0  0  0
  8 11  1  0  0  0  0
  9  7  1  0  0  0  0
 10  9  1  0  0  0  0
 11  2  1  0  0  0  0
 12 14  1  0  0  0  0
 12  5  2  0  0  0  0
 13 15  2  0  0  0  0
 14 10  2  0  0  0  0
 15 10  1  0  0  0  0
M  END
>  <idnumber>
T5810432

>  <LogP>
3.600000000000000e-001

>  <rotating_bonds>
3.000000000000000e+000

>  <hb_acceptors>
3.000000000000000e+000

>  <hb_donors>
1.000000000000000e+000

>  <PSA>
4.523000000000000e+001

>  <clusterid>
-1353

>  <is_centroid>
@

>  <class1>
688

>  <class2>
632

>  <population1>
1117

>  <population2>
79489

>  <population>
67

>  <cansmi>
O=C1NCCN(C1)CCc1ccncc1

>  <HBA2>
4

>  <HBD>
1

>  <logP>
0.3226

>  <TPSA>
45.23

>  <MW>
205.256

$$$$

 OpenBabel02121609142D

 22 24  0  0  0  0  0  0  0  0999 V2000
    2.3042   -0.8917    0.0000 C   0  0  0  0  0  0  0  0  0  0  0  0
    1.9917   -1.8417    0.0000 N   0  0  0  0  0  0  0  0  0  0  0  0
    1.6375   -0.1500    0.0000 N   0  0  0  0  0  0  0  0  0  0  0  0
    0.6542   -0.3542    0.0000 C   0  0  0  0  0  0  0  0  0  0  0  0
    1.0167   -2.0542    0.0000 C   0  0  0  0  0  0  0  0  0  0  0  0
    0.3500   -1.3125    0.0000 C   0  0  0  0  0  0  0  0  0  0  0  0
    0.3000    1.3333    0.0000 N   0  0  0  0  0  0  0  0  0  0  0  0
   -0.0083    0.3833    0.0000 C   0  0  0  0  0  0  0  0  0  0  0  0
   -0.2875    2.1458    0.0000 C   0  0  3  0  0  0  0  0  0  0  0  0
    3.2792   -0.6875    0.0000 O   0  0  0  0  0  0  0  0  0  0  0  0
    0.7042   -3.0042    0.0000 O   0  0  0  0  0  0  0  0  0  0  0  0
   -1.2875    2.1458    0.0000 C   0  0  0  0  0  0  0  0  0  0  0  0
    2.6667   -2.5875    0.0000 C   0  0  0  0  0  0  0  0  0  0  0  0
    1.9417    0.8000    0.0000 C   0  0  0  0  0  0  0  0  0  0  0  0
    1.2500    1.6458    0.0000 C   0  0  0  0  0  0  0  0  0  0  0  0
    0.3000    2.9583    0.0000 C   0  0  0  0  0  0  0  0  0  0  0  0
    1.2500    2.6458    0.0000 C   0  0  0  0  0  0  0  0  0  0  0  0
   -1.7875    1.2833    0.0000 C   0  0  0  0  0  0  0  0  0  0  0  0
   -1.7875    3.0083    0.0000 C   0  0  0  0  0  0  0  0  0  0  0  0
   -2.7875    3.0083    0.0000 C   0  0  0  0  0  0  0  0  0  0  0  0
   -2.7875    1.2833    0.0000 C   0  0  0  0  0  0  0  0  0  0  0  0
   -3.2875    2.1458    0.0000 C   0  0  0  0  0  0  0  0  0  0  0  0
  2  1  1  0  0  0  0
  3  1  1  0  0  0  0
  4  3  1  0  0  0  0
  5  2  1  0  0  0  0
  6  4  2  0  0  0  0
  6  5  1  0  0  0  0
  7  8  1  0  0  0  0
  8  4  1  0  0  0  0
  9  7  1  0  0  0  0
 10  1  2  0  0  0  0
 11  5  2  0  0  0  0
 12  9  1  0  0  0  0
 13  2  1  0  0  0  0
 14  3  1  0  0  0  0
 15  7  1  0  0  0  0
 16  9  1  0  0  0  0
 17 15  1  0  0  0  0
 17 16  1  0  0  0  0
 18 12  2  0  0  0  0
 19 12  1  0  0  0  0
 20 19  2  0  0  0  0
 21 18  1  0  0  0  0
 21 22  2  0  0  0  0
 22 20  1  0  0  0  0
M  END
>  <idnumber>
T5812385

>  <LogP>
1.682000000000000e+000

>  <rotating_bonds>
3.000000000000000e+000

>  <hb_acceptors>
3.000000000000000e+000

>  <hb_donors>
0.000000000000000e+000

>  <PSA>
4.386000000000000e+001

>  <clusterid>
-1355

>  <is_centroid>
@

>  <class1>
886

>  <class2>
642

>  <class3>
625

>  <population1>
22353

>  <population2>
51183

>  <population3>
877209

>  <population>
363

>  <cansmi>
O=c1cc(CN2CCCC2c2ccccc2)n(c(=O)n1C)C

>  <HBA2>
5

>  <HBD>
0

>  <logP>
1.359

>  <TPSA>
47.24

>  <MW>
299.368

$$$$

 OpenBabel02121609142D

 22 24  0  0  0  0  0  0  0  0999 V2000
   -0.8708    2.0000    0.0000 C   0  0  0  0  0  0  0  0  0  0  0  0
   -0.8708    1.0000    0.0000 N   0  0  0  0  0  0  0  0  0  0  0  0
   -0.8708   -2.0000    0.0000 C   0  0  0  0  0  0  0  0  0  0  0  0
   -1.7333    0.5000    0.0000 C   0  0  0  0  0  0  0  0  0  0  0  0
    0.0000    0.5000    0.0000 C   0  0  0  0  0  0  0  0  0  0  0  0
   -0.8708   -1.0000    0.0000 C   0  0  0  0  0  0  0  0  0  0  0  0
   -1.7333    2.5000    0.0000 O   0  0  0  0  0  0  0  0  0  0  0  0
    0.0000    2.5000    0.0000 C   0  0  0  0  0  0  0  0  0  0  0  0
   -1.7333   -2.5000    0.0000 O   0  0  0  0  0  0  0  0  0  0  0  0
    1.7292    3.5083    0.0000 N   0  0  0  0  0  0  0  0  0  0  0  0
    0.0000   -2.5000    0.0000 C   0  0  0  0  0  0  0  0  0  0  0  0
   -1.7333   -0.5000    0.0000 C   0  0  0  0  0  0  0  0  0  0  0  0
    0.0000   -0.5000    0.0000 C   0  0  0  0  0  0  0  0  0  0  0  0
    0.8625    4.0000    0.0000 C   0  0  0  0  0  0  0  0  0  0  0  0
    1.7292    2.5000    0.0000 C   0  0  0  0  0  0  0  0  0  0  0  0
    0.0000    3.5083    0.0000 C   0  0  0  0  0  0  0  0  0  0  0  0
    0.8625    2.0000    0.0000 C   0  0  0  0  0  0  0  0  0  0  0  0
    0.0000   -3.5000    0.0000 C   0  0  0  0  0  0  0  0  0  0  0  0
    0.8625   -2.0000    0.0000 C   0  0  0  0  0  0  0  0  0  0  0  0
    1.7292   -2.5000    0.0000 C   0  0  0  0  0  0  0  0  0  0  0  0
    0.8625   -4.0000    0.0000 C   0  0  0  0  0  0  0  0  0  0  0  0
    1.7292   -3.5000    0.0000 C   0  0  0  0  0  0  0  0  0  0  0  0
  2  1  1  0  0  0  0
  3  6  1  0  0  0  0
  4  2  1  0  0  0  0
  5  2  1  0  0  0  0
  6 13  1  0  0  0  0
  7  1  2  0  0  0  0
  8  1  1  0  0  0  0
  9  3  2  0  0  0  0
 10 15  1  0  0  0  0
 11  3  1  0  0  0  0
 12  4  1  0  0  0  0
 12  6  1  0  0  0  0
 13  5  1  0  0  0  0
 14 16  1  0  0  0  0
 14 10  2  0  0  0  0
 15 17  2  0  0  0  0
 16  8  2  0  0  0  0
 17  8  1  0  0  0  0
 18 11  1  0  0  0  0
 19 11  2  0  0  0  0
 20 19  1  0  0  0  0
 21 18  2  0  0  0  0
 21 22  1  0  0  0  0
 22 20  2  0  0  0  0
M  END
>  <idnumber>
T5813872

>  <LogP>
9.570000000000002e-001

>  <rotating_bonds>
3.000000000000000e+000

>  <hb_acceptors>
3.000000000000000e+000

>  <hb_donors>
0.000000000000000e+000

>  <PSA>
5.027000000000000e+001

>  <clusterid>
-1358

>  <is_centroid>
@

>  <class1>
625

>  <class2>
639

>  <class3>
632

>  <population1>
877209

>  <population2>
59855

>  <population3>
79489

>  <population>
2905

>  <cansmi>
O=C(c1ccccc1)C1CCN(CC1)C(=O)c1ccncc1

>  <HBA2>
4

>  <HBD>
0

>  <logP>
2.7546

>  <TPSA>
50.27

>  <MW>
294.348

$$$$

 OpenBabel02121609142D

 20 22  0  0  0  0  0  0  0  0999 V2000
   -1.4958    0.5208    0.0000 C   0  0  0  0  0  0  0  0  0  0  0  0
   -0.8250   -0.2292    0.0000 N   0  0  0  0  0  0  0  0  0  0  0  0
    0.5125   -1.7125    0.0000 N   0  0  0  0  0  0  0  0  0  0  0  0
   -1.1333   -1.1792    0.0000 C   0  0  0  0  0  0  0  0  0  0  0  0
   -0.4708   -1.9167    0.0000 C   0  0  0  0  0  0  0  0  0  0  0  0
   -2.4750    0.3083    0.0000 O   0  0  0  0  0  0  0  0  0  0  0  0
   -1.1875    1.4708    0.0000 C   0  0  0  0  0  0  0  0  0  0  0  0
    2.4667   -1.3000    0.0000 O   0  0  0  0  0  0  0  0  0  0  0  0
    0.8167   -0.7625    0.0000 C   0  0  0  0  0  0  0  0  0  0  0  0
    1.1792   -2.4542    0.0000 C   0  0  0  0  0  0  0  0  0  0  0  0
   -2.1125   -1.3875    0.0000 C   0  0  0  0  0  0  0  0  0  0  0  0
   -0.7750   -2.8667    0.0000 C   0  0  0  0  0  0  0  0  0  0  0  0
    2.1542   -2.2500    0.0000 C   0  0  0  0  0  0  0  0  0  0  0  0
    1.8000   -0.5542    0.0000 C   0  0  0  0  0  0  0  0  0  0  0  0
   -0.2333    1.7750    0.0000 C   0  0  0  0  0  0  0  0  0  0  0  0
   -1.7833    2.2750    0.0000 C   0  0  0  0  0  0  0  0  0  0  0  0
   -2.4208   -2.3375    0.0000 C   0  0  0  0  0  0  0  0  0  0  0  0
   -1.7583   -3.0792    0.0000 C   0  0  0  0  0  0  0  0  0  0  0  0
   -1.1875    3.0833    0.0000 C   0  0  0  0  0  0  0  0  0  0  0  0
   -0.2333    2.7750    0.0000 C   0  0  0  0  0  0  0  0  0  0  0  0
  2  1  1  0  0  0  0
  3  5  1  0  0  0  0
  4  2  1  0  0  0  0
  5  4  2  0  0  0  0
  6  1  2  0  0  0  0
  7  1  1  0  0  0  0
  8 13  1  0  0  0  0
  9  3  1  0  0  0  0
 10  3  1  0  0  0  0
 11  4  1  0  0  0  0
 12  5  1  0  0  0  0
 12 18  2  0  0  0  0
 13 10  1  0  0  0  0
 14  9  1  0  0  0  0
 14  8  1  0  0  0  0
 15  7  1  0  0  0  0
 16  7  1  0  0  0  0
 17 11  2  0  0  0  0
 18 17  1  0  0  0  0
 19 16  1  0  0  0  0
 20 15  1  0  0  0  0
 20 19  1  0  0  0  0
M  END
>  <idnumber>
T5814283

>  <LogP>
2.453000000000000e+000

>  <rotating_bonds>
3.000000000000000e+000

>  <hb_acceptors>
3.000000000000000e+000

>  <hb_donors>
1.000000000000000e+000

>  <PSA>
4.156999999999997e+001

>  <clusterid>
-1359

>  <is_centroid>
@

>  <class1>
674

>  <class2>
786

>  <class3>
625

>  <population1>
16474

>  <population2>
48067

>  <population3>
877209

>  <population>
601

>  <cansmi>
O=C(C1CCCC1)Nc1ccccc1N1CCOCC1

>  <HBA2>
4

>  <HBD>
1

>  <logP>
2.7899

>  <TPSA>
41.57

>  <MW>
274.358

$$$$

 OpenBabel02121609142D

 21 23  0  0  0  0  0  0  0  0999 V2000
   -2.0250    1.2208    0.0000 C   0  0  0  0  0  0  0  0  0  0  0  0
   -1.2208    1.8083    0.0000 C   0  0  0  0  0  0  0  0  0  0  0  0
   -3.5625    0.7208    0.0000 N   0  0  0  0  0  0  0  0  0  0  0  0
   -0.3083    1.4083    0.0000 N   0  0  0  0  0  0  0  0  0  0  0  0
   -2.0250    0.2208    0.0000 C   0  0  0  0  0  0  0  0  0  0  0  0
   -2.9750   -0.0875    0.0000 N   0  0  0  0  0  0  0  0  0  0  0  0
   -2.9750    1.5333    0.0000 C   0  0  0  0  0  0  0  0  0  0  0  0
    1.5250    0.5958    0.0000 N   0  0  0  0  0  0  0  0  0  0  0  0
   -1.3208    2.8083    0.0000 O   0  0  0  0  0  0  0  0  0  0  0  0
   -0.2000    0.4083    0.0000 C   0  0  0  0  0  0  0  0  0  0  0  0
    0.5042    1.9958    0.0000 C   0  0  0  0  0  0  0  0  0  0  0  0
    2.4375    0.1833    0.0000 C   0  0  0  0  0  0  0  0  0  0  0  0
    1.4167    1.5833    0.0000 C   0  0  0  0  0  0  0  0  0  0  0  0
    0.7167    0.0083    0.0000 C   0  0  0  0  0  0  0  0  0  0  0  0
    2.5417   -0.8125    0.0000 C   0  0  0  0  0  0  0  0  0  0  0  0
   -3.2875   -1.0375    0.0000 C   0  0  0  0  0  0  0  0  0  0  0  0
    1.7292   -1.4000    0.0000 C   0  0  0  0  0  0  0  0  0  0  0  0
    3.4542   -1.2167    0.0000 C   0  0  0  0  0  0  0  0  0  0  0  0
    3.5542   -2.2125    0.0000 C   0  0  0  0  0  0  0  0  0  0  0  0
    1.8375   -2.3917    0.0000 C   0  0  0  0  0  0  0  0  0  0  0  0
    2.7500   -2.8000    0.0000 C   0  0  0  0  0  0  0  0  0  0  0  0
  2  1  1  0  0  0  0
  3  7  2  0  0  0  0
  4  2  1  0  0  0  0
  5  1  2  0  0  0  0
  6  5  1  0  0  0  0
  6  3  1  0  0  0  0
  7  1  1  0  0  0  0
  8 13  1  0  0  0  0
  9  2  2  0  0  0  0
 10  4  1  0  0  0  0
 11  4  1  0  0  0  0
 12  8  1  0  0  0  0
 13 11  1  0  0  0  0
 14 10  1  0  0  0  0
 14  8  1  0  0  0  0
 15 12  1  0  0  0  0
 16  6  1  0  0  0  0
 17 15  1  0  0  0  0
 18 15  2  0  0  0  0
 19 18  1  0  0  0  0
 20 17  2  0  0  0  0
 20 21  1  0  0  0  0
 21 19  2  0  0  0  0
M  END
>  <idnumber>
T5814621

>  <LogP>
1.684000000000000e+000

>  <rotating_bonds>
3.000000000000000e+000

>  <hb_acceptors>
3.000000000000000e+000

>  <hb_donors>
0.000000000000000e+000

>  <PSA>
4.137000000000000e+001

>  <clusterid>
-1360

>  <is_centroid>
@

>  <class1>
631

>  <class2>
625

>  <class3>
717

>  <population1>
41612

>  <population2>
877209

>  <population3>
74368

>  <population>
2680

>  <cansmi>
Cn1ncc(c1)C(=O)N1CCN(CC1)Cc1ccccc1

>  <HBA2>
5

>  <HBD>
0

>  <logP>
1.2539

>  <TPSA>
41.37

>  <MW>
284.356

$$$$

 OpenBabel02121609142D

 16 18  0  0  0  0  0  0  0  0999 V2000
    0.5042    0.1083    0.0000 N   0  0  0  0  0  0  0  0  0  0  0  0
    0.5042    1.1083    0.0000 N   0  0  0  0  0  0  0  0  0  0  0  0
   -0.3583   -0.3917    0.0000 C   0  0  0  0  0  0  0  0  0  0  0  0
   -0.3583    1.6083    0.0000 N   0  0  0  0  0  0  0  0  0  0  0  0
   -1.2250    0.1083    0.0000 C   0  0  0  0  0  0  0  0  0  0  0  0
   -1.2250    1.1083    0.0000 C   0  0  0  0  0  0  0  0  0  0  0  0
   -0.3583   -1.3917    0.0000 O   0  0  0  0  0  0  0  0  0  0  0  0
    1.3667   -0.3917    0.0000 C   0  0  0  0  0  0  0  0  0  0  0  0
   -2.0958   -0.3917    0.0000 C   0  0  0  0  0  0  0  0  0  0  0  0
   -2.0958    1.6083    0.0000 C   0  0  0  0  0  0  0  0  0  0  0  0
    1.4750   -1.3917    0.0000 C   0  0  0  0  0  0  0  0  0  0  0  0
    2.2792    0.0083    0.0000 C   0  0  0  0  0  0  0  0  0  0  0  0
   -2.9583    0.1083    0.0000 C   0  0  0  0  0  0  0  0  0  0  0  0
   -2.9583    1.1083    0.0000 C   0  0  0  0  0  0  0  0  0  0  0  0
    2.9542   -0.7292    0.0000 C   0  0  0  0  0  0  0  0  0  0  0  0
    2.4542   -1.6000    0.0000 C   0  0  0  0  0  0  0  0  0  0  0  0
  2  1  1  0  0  0  0
  3  1  1  0  0  0  0
  4  2  2  0  0  0  0
  4  6  1  0  0  0  0
  5  3  1  0  0  0  0
  6  5  2  0  0  0  0
  7  3  2  0  0  0  0
  8  1  1  0  0  0  0
  9  5  1  0  0  0  0
 10  6  1  0  0  0  0
 11  8  1  0  0  0  0
 12  8  1  0  0  0  0
 13  9  2  0  0  0  0
 14 13  1  0  0  0  0
 14 10  2  0  0  0  0
 15 12  1  0  0  0  0
 16 11  1  0  0  0  0
 16 15  1  0  0  0  0
M  END
>  <idnumber>
T5817554

>  <LogP>
2.306000000000000e+000

>  <rotating_bonds>
1.000000000000000e+000

>  <hb_acceptors>
3.000000000000000e+000

>  <hb_donors>
0.000000000000000e+000

>  <PSA>
4.503000000000000e+001

>  <clusterid>
-1366

>  <is_centroid>
@

>  <class1>
773

>  <class2>
674

>  <population1>
1392

>  <population2>
16474

>  <population>
14

>  <cansmi>
O=c1c2ccccc2nnn1C1CCCC1

>  <HBA2>
4

>  <HBD>
0

>  <logP>
1.9066

>  <TPSA>
47.78

>  <MW>
215.251

$$$$

 OpenBabel02121609142D

 14 16  0  0  0  0  0  0  0  0999 V2000
    0.7917    0.0000    0.0000 N   0  0  0  0  0  0  0  0  0  0  0  0
    0.7917    1.0000    0.0000 N   0  0  0  0  0  0  0  0  0  0  0  0
   -0.0708   -0.5000    0.0000 C   0  0  0  0  0  0  0  0  0  0  0  0
   -0.0708    1.5000    0.0000 N   0  0  0  0  0  0  0  0  0  0  0  0
   -0.9333    0.0000    0.0000 C   0  0  0  0  0  0  0  0  0  0  0  0
    1.6625   -0.5000    0.0000 C   0  0  0  0  0  0  0  0  0  0  0  0
   -0.9333    1.0000    0.0000 C   0  0  0  0  0  0  0  0  0  0  0  0
    2.1625   -1.3625    0.0000 C   0  0  0  0  0  0  0  0  0  0  0  0
    2.6625   -0.5000    0.0000 C   0  0  0  0  0  0  0  0  0  0  0  0
   -0.0708   -1.5000    0.0000 O   0  0  0  0  0  0  0  0  0  0  0  0
   -1.8000   -0.5000    0.0000 C   0  0  0  0  0  0  0  0  0  0  0  0
   -1.8000    1.5000    0.0000 C   0  0  0  0  0  0  0  0  0  0  0  0
   -2.6708    0.0000    0.0000 C   0  0  0  0  0  0  0  0  0  0  0  0
   -2.6708    1.0000    0.0000 C   0  0  0  0  0  0  0  0  0  0  0  0
  2  1  1  0  0  0  0
  3  1  1  0  0  0  0
  4  2  2  0  0  0  0
  4  7  1  0  0  0  0
  5  3  1  0  0  0  0
  6  1  1  0  0  0  0
  7  5  2  0  0  0  0
  8  6  1  0  0  0  0
  8  9  1  0  0  0  0
  9  6  1  0  0  0  0
 10  3  2  0  0  0  0
 11  5  1  0  0  0  0
 12  7  1  0  0  0  0
 13 11  2  0  0  0  0
 14 13  1  0  0  0  0
 14 12  2  0  0  0  0
M  END
>  <idnumber>
T5817556

>  <LogP>
1.188000000000000e+000

>  <rotating_bonds>
1.000000000000000e+000

>  <hb_acceptors>
3.000000000000000e+000

>  <hb_donors>
0.000000000000000e+000

>  <PSA>
4.503000000000000e+001

>  <clusterid>
-1367

>  <is_centroid>
@

>  <class1>
773

>  <class2>
675

>  <population1>
1392

>  <population2>
33654

>  <population>
34

>  <cansmi>
O=c1c2ccccc2nnn1C1CC1

>  <HBA2>
4

>  <HBD>
0

>  <logP>
1.1264

>  <TPSA>
47.78

>  <MW>
187.198

$$$$

 OpenBabel02121609142D

 18 20  0  0  0  0  0  0  0  0999 V2000
    0.0000    0.2583    0.0000 N   0  0  0  0  0  0  0  0  0  0  0  0
   -0.8708   -0.2417    0.0000 C   0  0  0  0  0  0  0  0  0  0  0  0
    0.0000    1.2583    0.0000 N   0  0  0  0  0  0  0  0  0  0  0  0
   -1.7333    0.2500    0.0000 C   0  0  0  0  0  0  0  0  0  0  0  0
   -0.8708    1.7583    0.0000 C   0  0  0  0  0  0  0  0  0  0  0  0
    0.8625   -0.2417    0.0000 C   0  0  0  0  0  0  0  0  0  0  0  0
   -0.8708   -1.2417    0.0000 O   0  0  0  0  0  0  0  0  0  0  0  0
   -1.7333    1.2583    0.0000 C   0  0  0  0  0  0  0  0  0  0  0  0
    0.8625   -1.2417    0.0000 C   0  0  0  0  0  0  0  0  0  0  0  0
    1.7292    0.2583    0.0000 C   0  0  0  0  0  0  0  0  0  0  0  0
    2.5917   -1.2500    0.0000 C   0  0  0  0  0  0  0  0  0  0  0  0
    1.7292   -1.7417    0.0000 C   0  0  0  0  0  0  0  0  0  0  0  0
    2.5917   -0.2417    0.0000 C   0  0  0  0  0  0  0  0  0  0  0  0
    3.4625   -1.7500    0.0000 F   0  0  0  0  0  0  0  0  0  0  0  0
   -2.6000   -0.2500    0.0000 C   0  0  0  0  0  0  0  0  0  0  0  0
   -2.6000    1.7583    0.0000 C   0  0  0  0  0  0  0  0  0  0  0  0
   -3.4708    0.2500    0.0000 C   0  0  0  0  0  0  0  0  0  0  0  0
   -3.4708    1.2500    0.0000 C   0  0  0  0  0  0  0  0  0  0  0  0
  2  1  1  0  0  0  0
  3  1  1  0  0  0  0
  4  2  1  0  0  0  0
  4  8  2  0  0  0  0
  5  3  2  0  0  0  0
  6  1  1  0  0  0  0
  7  2  2  0  0  0  0
  8  5  1  0  0  0  0
  9  6  2  0  0  0  0
 10  6  1  0  0  0  0
 11 13  1  0  0  0  0
 12  9  1  0  0  0  0
 12 11  2  0  0  0  0
 13 10  2  0  0  0  0
 14 11  1  0  0  0  0
 15  4  1  0  0  0  0
 16  8  1  0  0  0  0
 17 15  2  0  0  0  0
 18 16  2  0  0  0  0
 18 17  1  0  0  0  0
M  END
>  <idnumber>
T5817690

>  <LogP>
2.273000000000000e+000

>  <rotating_bonds>
1.000000000000000e+000

>  <hb_acceptors>
3.000000000000000e+000

>  <hb_donors>
0.000000000000000e+000

>  <PSA>
3.267000000000000e+001

>  <clusterid>
-1368

>  <is_centroid>
@

>  <class1>
792

>  <class2>
625

>  <population1>
7197

>  <population2>
877209

>  <population>
7197

>  <cansmi>
Fc1ccc(cc1)n1ncc2c(c1=O)cccc2

>  <HBA2>
3

>  <HBD>
0

>  <logP>
2.5248

>  <TPSA>
34.89

>  <MW>
240.232

$$$$

 OpenBabel02121609142D

 18 20  0  0  0  0  0  0  0  0999 V2000
   -0.1083    1.1083    0.0000 C   0  0  0  0  0  0  0  0  0  0  0  0
    0.4875    1.9125    0.0000 C   0  0  0  0  0  0  0  0  0  0  0  0
    0.2042    0.1583    0.0000 C   0  0  0  0  0  0  0  0  0  0  0  0
   -0.1083    2.7208    0.0000 N   0  0  0  0  0  0  0  0  0  0  0  0
   -1.0583    1.4125    0.0000 C   0  0  0  0  0  0  0  0  0  0  0  0
    1.4917   -1.0042    0.0000 N   0  0  0  0  0  0  0  0  0  0  0  0
   -1.0583    2.4125    0.0000 C   0  0  0  0  0  0  0  0  0  0  0  0
    1.1792   -0.0542    0.0000 C   0  0  0  0  0  0  0  0  0  0  0  0
   -0.4625   -0.5917    0.0000 O   0  0  0  0  0  0  0  0  0  0  0  0
    2.1125   -2.9042    0.0000 O   0  0  0  0  0  0  0  0  0  0  0  0
   -1.9208    0.9125    0.0000 C   0  0  0  0  0  0  0  0  0  0  0  0
    0.8250   -1.7500    0.0000 C   0  0  0  0  0  0  0  0  0  0  0  0
    2.4667   -1.2125    0.0000 C   0  0  0  0  0  0  0  0  0  0  0  0
    2.7792   -2.1667    0.0000 C   0  0  0  0  0  0  0  0  0  0  0  0
    1.1292   -2.7000    0.0000 C   0  0  0  0  0  0  0  0  0  0  0  0
   -1.9208    2.9125    0.0000 C   0  0  0  0  0  0  0  0  0  0  0  0
   -2.7833    1.4125    0.0000 C   0  0  0  0  0  0  0  0  0  0  0  0
   -2.7833    2.4125    0.0000 C   0  0  0  0  0  0  0  0  0  0  0  0
  2  1  2  0  0  0  0
  3  1  1  0  0  0  0
  4  2  1  0  0  0  0
  4  7  1  0  0  0  0
  5  1  1  0  0  0  0
  6  8  1  0  0  0  0
  7  5  2  0  0  0  0
  8  3  1  0  0  0  0
  9  3  2  0  0  0  0
 10 14  1  0  0  0  0
 11  5  1  0  0  0  0
 12  6  1  0  0  0  0
 13  6  1  0  0  0  0
 14 13  1  0  0  0  0
 15 12  1  0  0  0  0
 15 10  1  0  0  0  0
 16  7  1  0  0  0  0
 16 18  2  0  0  0  0
 17 11  2  0  0  0  0
 18 17  1  0  0  0  0
M  END
>  <idnumber>
T5819071

>  <LogP>
1.976000000000000e+000

>  <rotating_bonds>
3.000000000000000e+000

>  <hb_acceptors>
3.000000000000000e+000

>  <hb_donors>
1.000000000000000e+000

>  <PSA>
4.533000000000001e+001

>  <clusterid>
205

>  <is_centroid>
@

>  <class1>
748

>  <class2>
786

>  <population1>
15713

>  <population2>
48067

>  <population>
510

>  <cansmi>
O=C(c1c[nH]c2c1cccc2)CN1CCOCC1

>  <HBA2>
3

>  <HBD>
1

>  <logP>
1.6207

>  <TPSA>
45.33

>  <MW>
244.289

$$$$

 OpenBabel02121609142D

 22 24  0  0  0  0  0  0  0  0999 V2000
   -1.3708   -1.1500    0.0000 C   0  0  0  0  0  0  0  0  0  0  0  0
   -1.3708   -2.7667    0.0000 C   0  0  0  0  0  0  0  0  0  0  0  0
   -1.6750   -0.2000    0.0000 C   0  0  0  0  0  0  0  0  0  0  0  0
   -1.9583   -1.9542    0.0000 C   0  0  0  0  0  0  0  0  0  0  0  0
   -0.4208   -1.4542    0.0000 N   0  0  0  0  0  0  0  0  0  0  0  0
   -1.0083    0.5458    0.0000 N   0  0  0  0  0  0  0  0  0  0  0  0
   -0.4208   -2.4542    0.0000 C   0  0  0  0  0  0  0  0  0  0  0  0
    0.3292    2.0333    0.0000 C   0  0  0  0  0  0  0  0  0  0  0  0
   -0.6458    2.2375    0.0000 C   0  0  0  0  0  0  0  0  0  0  0  0
   -1.6750   -3.7167    0.0000 C   0  0  0  0  0  0  0  0  0  0  0  0
   -1.3208    1.4958    0.0000 C   0  0  0  0  0  0  0  0  0  0  0  0
   -0.0333    0.3375    0.0000 C   0  0  0  0  0  0  0  0  0  0  0  0
   -2.6583    0.0083    0.0000 O   0  0  0  0  0  0  0  0  0  0  0  0
    0.6417    1.0833    0.0000 C   0  0  0  0  0  0  0  0  0  0  0  0
    1.0000    2.7708    0.0000 C   0  0  0  0  0  0  0  0  0  0  0  0
   -1.0083   -4.4625    0.0000 O   0  0  0  0  0  0  0  0  0  0  0  0
   -2.6583   -3.9292    0.0000 C   0  0  0  0  0  0  0  0  0  0  0  0
    1.9792    2.5708    0.0000 C   0  0  0  0  0  0  0  0  0  0  0  0
    0.6917    3.7333    0.0000 C   0  0  0  0  0  0  0  0  0  0  0  0
    1.3625    4.4625    0.0000 C   0  0  0  0  0  0  0  0  0  0  0  0
    2.6500    3.3083    0.0000 C   0  0  0  0  0  0  0  0  0  0  0  0
    2.3417    4.2542    0.0000 C   0  0  0  0  0  0  0  0  0  0  0  0
  2  4  1  0  0  0  0
  2  7  2  0  0  0  0
  3  1  1  0  0  0  0
  4  1  2  0  0  0  0
  5  1  1  0  0  0  0
  6  3  1  0  0  0  0
  7  5  1  0  0  0  0
  8 14  1  0  0  0  0
  9 11  1  0  0  0  0
  9  8  2  0  0  0  0
 10  2  1  0  0  0  0
 11  6  1  0  0  0  0
 12  6  1  0  0  0  0
 13  3  2  0  0  0  0
 14 12  1  0  0  0  0
 15  8  1  0  0  0  0
 16 10  2  0  0  0  0
 17 10  1  0  0  0  0
 18 15  1  0  0  0  0
 19 15  2  0  0  0  0
 20 19  1  0  0  0  0
 21 18  2  0  0  0  0
 21 22  1  0  0  0  0
 22 20  2  0  0  0  0
M  END
>  <idnumber>
T5819130

>  <LogP>
1.782000000000000e+000

>  <rotating_bonds>
3.000000000000000e+000

>  <hb_acceptors>
2.000000000000000e+000

>  <hb_donors>
1.000000000000000e+000

>  <PSA>
5.317000000000000e+001

>  <clusterid>
-1369

>  <is_centroid>
@

>  <class1>
715

>  <class2>
625

>  <class3>
635

>  <population1>
4585

>  <population2>
877209

>  <population3>
31512

>  <population>
32

>  <cansmi>
O=C(c1[nH]cc(c1)C(=O)C)N1CCC(=CC1)c1ccccc1

>  <HBA2>
3

>  <HBD>
1

>  <logP>
3.0847

>  <TPSA>
53.17

>  <MW>
294.348

$$$$

 OpenBabel02121609142D

 13 14  0  0  0  0  0  0  0  0999 V2000
   -0.8708   -0.5000    0.0000 N   0  0  0  0  0  0  0  0  0  0  0  0
   -0.8708   -1.5000    0.0000 N   0  0  0  0  0  0  0  0  0  0  0  0
    0.0000    0.0000    0.0000 C   0  0  0  0  0  0  0  0  0  0  0  0
    0.0000   -1.9917    0.0000 C   0  0  0  0  0  0  0  0  0  0  0  0
    0.0000   -2.9917    0.0000 O   0  0  0  0  0  0  0  0  0  0  0  0
    0.8625   -0.5000    0.0000 C   0  0  0  0  0  0  0  0  0  0  0  0
    0.0000    1.0000    0.0000 C   0  0  0  0  0  0  0  0  0  0  0  0
    0.8625   -1.5000    0.0000 C   0  0  0  0  0  0  0  0  0  0  0  0
    0.8625    1.5000    0.0000 C   0  0  0  0  0  0  0  0  0  0  0  0
   -0.8708    1.5000    0.0000 C   0  0  0  0  0  0  0  0  0  0  0  0
   -0.8708    2.5000    0.0000 C   0  0  0  0  0  0  0  0  0  0  0  0
    0.8625    2.5000    0.0000 C   0  0  0  0  0  0  0  0  0  0  0  0
    0.0000    3.0000    0.0000 C   0  0  0  0  0  0  0  0  0  0  0  0
  2  1  1  0  0  0  0
  3  1  2  0  0  0  0
  4  2  1  0  0  0  0
  4  8  1  0  0  0  0
  5  4  2  0  0  0  0
  6  3  1  0  0  0  0
  7  3  1  0  0  0  0
  8  6  1  0  0  0  0
  9  7  1  0  0  0  0
 10  7  2  0  0  0  0
 11 10  1  0  0  0  0
 12  9  2  0  0  0  0
 12 13  1  0  0  0  0
 13 11  2  0  0  0  0
M  END
>  <idnumber>
T5820013

>  <LogP>
1.943000000000000e+000

>  <rotating_bonds>
1.000000000000000e+000

>  <hb_acceptors>
2.000000000000000e+000

>  <hb_donors>
1.000000000000000e+000

>  <PSA>
4.146000000000000e+001

>  <clusterid>
736

>  <is_centroid>
@

>  <class1>
817

>  <class2>
625

>  <population1>
1687

>  <population2>
877209

>  <population>
1518

>  <cansmi>
O=C1CCC(=NN1)c1ccccc1

>  <HBA2>
3

>  <HBD>
1

>  <logP>
1.0651

>  <TPSA>
41.46

>  <MW>
174.199

$$$$

 OpenBabel02121609142D

 16 17  0  0  0  0  0  0  0  0999 V2000
    0.8625    1.7500    0.0000 N   0  0  0  0  0  0  0  0  0  0  0  0
    0.8625    2.7500    0.0000 N   0  0  0  0  0  0  0  0  0  0  0  0
   -0.0083    1.2500    0.0000 C   0  0  0  0  0  0  0  0  0  0  0  0
   -0.0083    3.2500    0.0000 C   0  0  0  0  0  0  0  0  0  0  0  0
   -0.0083    0.2500    0.0000 C   0  0  0  0  0  0  0  0  0  0  0  0
   -0.0083    4.2417    0.0000 O   0  0  0  0  0  0  0  0  0  0  0  0
   -0.8708    1.7500    0.0000 C   0  0  0  0  0  0  0  0  0  0  0  0
    0.8625   -0.2500    0.0000 C   0  0  0  0  0  0  0  0  0  0  0  0
   -0.8708   -0.2500    0.0000 C   0  0  0  0  0  0  0  0  0  0  0  0
   -0.8708    2.7500    0.0000 C   0  0  0  0  0  0  0  0  0  0  0  0
   -0.0083   -1.7500    0.0000 C   0  0  0  0  0  0  0  0  0  0  0  0
   -0.8708   -1.2500    0.0000 C   0  0  0  0  0  0  0  0  0  0  0  0
    0.8625   -1.2500    0.0000 C   0  0  0  0  0  0  0  0  0  0  0  0
   -0.0083   -2.7417    0.0000 O   0  0  0  0  0  0  0  0  0  0  0  0
    0.8625   -3.2500    0.0000 C   0  0  0  0  0  0  0  0  0  0  0  0
    0.8625   -4.2417    0.0000 C   0  0  0  0  0  0  0  0  0  0  0  0
  2  1  1  0  0  0  0
  3  1  2  0  0  0  0
  4  2  1  0  0  0  0
  4 10  1  0  0  0  0
  5  3  1  0  0  0  0
  6  4  2  0  0  0  0
  7  3  1  0  0  0  0
  8  5  1  0  0  0  0
  9  5  2  0  0  0  0
 10  7  1  0  0  0  0
 11 12  2  0  0  0  0
 11 13  1  0  0  0  0
 12  9  1  0  0  0  0
 13  8  2  0  0  0  0
 14 11  1  0  0  0  0
 15 14  1  0  0  0  0
 16 15  1  0  0  0  0
M  END
>  <idnumber>
T5820022

>  <LogP>
2.391000000000000e+000

>  <rotating_bonds>
3.000000000000000e+000

>  <hb_acceptors>
3.000000000000000e+000

>  <hb_donors>
1.000000000000000e+000

>  <PSA>
5.069000000000001e+001

>  <clusterid>
-1374

>  <is_centroid>
@

>  <class1>
817

>  <class2>
625

>  <population1>
1687

>  <population2>
877209

>  <population>
1518

>  <cansmi>
CCOc1ccc(cc1)C1=NNC(=O)CC1

>  <HBA2>
4

>  <HBD>
1

>  <logP>
1.4638

>  <TPSA>
50.69

>  <MW>
218.252

$$$$

 OpenBabel02121609142D

 21 23  0  0  0  0  0  0  0  0999 V2000
    1.3667   -1.4417    0.0000 N   0  0  0  0  0  0  0  0  0  0  0  0
    1.4750   -2.4292    0.0000 N   0  0  0  0  0  0  0  0  0  0  0  0
    2.2792   -1.0292    0.0000 C   0  0  0  0  0  0  0  0  0  0  0  0
    0.5042   -0.9417    0.0000 C   0  0  0  0  0  0  0  0  0  0  0  0
    2.9542   -1.7750    0.0000 C   0  0  0  0  0  0  0  0  0  0  0  0
    0.5042    0.0583    0.0000 C   0  0  0  0  0  0  0  0  0  0  0  0
    2.4542   -2.6417    0.0000 C   0  0  0  0  0  0  0  0  0  0  0  0
   -0.3625    0.5583    0.0000 N   0  0  0  0  0  0  0  0  0  0  0  0
   -0.3625    1.5583    0.0000 C   0  0  0  0  0  0  0  0  0  0  0  0
   -1.2250    2.0583    0.0000 C   0  0  0  0  0  0  0  0  0  0  0  0
   -2.0958    1.5583    0.0000 N   0  0  0  0  0  0  0  0  0  0  0  0
    1.3667    0.5583    0.0000 O   0  0  0  0  0  0  0  0  0  0  0  0
   -1.2250    3.0583    0.0000 C   0  0  0  0  0  0  0  0  0  0  0  0
    2.4917   -0.0542    0.0000 C   0  0  0  0  0  0  0  0  0  0  0  0
    0.5042    2.0583    0.0000 C   0  0  0  0  0  0  0  0  0  0  0  0
    0.5042    3.0583    0.0000 C   0  0  0  0  0  0  0  0  0  0  0  0
    2.8625   -3.5542    0.0000 C   0  0  0  0  0  0  0  0  0  0  0  0
   -2.9583    2.0583    0.0000 C   0  0  0  0  0  0  0  0  0  0  0  0
   -0.3625    3.5583    0.0000 C   0  0  0  0  0  0  0  0  0  0  0  0
   -2.0958    3.5583    0.0000 C   0  0  0  0  0  0  0  0  0  0  0  0
   -2.9583    3.0583    0.0000 C   0  0  0  0  0  0  0  0  0  0  0  0
  2  1  1  0  0  0  0
  3  1  1  0  0  0  0
  4  1  1  0  0  0  0
  5  3  2  0  0  0  0
  6  4  1  0  0  0  0
  7  2  2  0  0  0  0
  7  5  1  0  0  0  0
  8  6  1  0  0  0  0
  9  8  1  0  0  0  0
 10  9  2  0  0  0  0
 11 10  1  0  0  0  0
 12  6  2  0  0  0  0
 13 10  1  0  0  0  0
 13 19  2  0  0  0  0
 14  3  1  0  0  0  0
 15  9  1  0  0  0  0
 16 15  2  0  0  0  0
 17  7  1  0  0  0  0
 18 11  2  0  0  0  0
 19 16  1  0  0  0  0
 20 13  1  0  0  0  0
 21 20  2  0  0  0  0
 21 18  1  0  0  0  0
M  END
>  <idnumber>
T5820373

>  <LogP>
2.265000000000000e+000

>  <rotating_bonds>
3.000000000000000e+000

>  <hb_acceptors>
3.000000000000000e+000

>  <hb_donors>
1.000000000000000e+000

>  <PSA>
5.981000000000002e+001

>  <clusterid>
-1375

>  <is_centroid>
@

>  <class1>
631

>  <class2>
682

>  <population1>
41612

>  <population2>
20351

>  <population>
326

>  <cansmi>
O=C(Nc1cccc2c1nccc2)Cn1nc(cc1C)C

>  <HBA2>
5

>  <HBD>
1

>  <logP>
2.7598

>  <TPSA>
59.81

>  <MW>
280.324

$$$$

 OpenBabel02121609142D

 19 21  0  0  0  0  0  0  0  0999 V2000
   -0.6333   -2.7417    0.0000 N   0  0  0  0  0  0  0  0  0  0  0  0
   -1.5833   -4.0542    0.0000 N   0  0  0  0  0  0  0  0  0  0  0  0
    0.6042    1.0583    0.0000 C   0  0  0  0  0  0  0  0  0  0  0  0
   -0.0458   -3.5542    0.0000 N   0  0  0  0  0  0  0  0  0  0  0  0
   -1.5833   -3.0542    0.0000 C   0  0  0  0  0  0  0  0  0  0  0  0
   -0.6333   -4.3667    0.0000 C   0  0  0  0  0  0  0  0  0  0  0  0
   -0.0708    1.8000    0.0000 N   0  0  0  0  0  0  0  0  0  0  0  0
   -0.3250   -1.7917    0.0000 C   0  0  0  0  0  0  0  0  0  0  0  0
    0.2917    0.1083    0.0000 C   0  0  0  0  0  0  0  0  0  0  0  0
    1.5792    1.2708    0.0000 O   0  0  0  0  0  0  0  0  0  0  0  0
    0.6542   -1.5875    0.0000 C   0  0  0  0  0  0  0  0  0  0  0  0
   -0.9958   -1.0542    0.0000 C   0  0  0  0  0  0  0  0  0  0  0  0
    0.9625   -0.6375    0.0000 C   0  0  0  0  0  0  0  0  0  0  0  0
   -0.6833   -0.0917    0.0000 C   0  0  0  0  0  0  0  0  0  0  0  0
    0.2417    2.7500    0.0000 C   0  0  0  0  0  0  0  0  0  0  0  0
   -0.3458    3.5583    0.0000 C   0  0  0  0  0  0  0  0  0  0  0  0
    1.1917    3.0583    0.0000 C   0  0  0  0  0  0  0  0  0  0  0  0
    1.1917    4.0542    0.0000 C   0  0  0  0  0  0  0  0  0  0  0  0
    0.2417    4.3667    0.0000 C   0  0  0  0  0  0  0  0  0  0  0  0
  2  5  2  0  0  0  0
  2  6  1  0  0  0  0
  3  9  1  0  0  0  0
  4  1  1  0  0  0  0
  5  1  1  0  0  0  0
  6  4  2  0  0  0  0
  7  3  1  0  0  0  0
  8  1  1  0  0  0  0
  9 14  1  0  0  0  0
 10  3  2  0  0  0  0
 11  8  2  0  0  0  0
 12  8  1  0  0  0  0
 13 11  1  0  0  0  0
 13  9  2  0  0  0  0
 14 12  2  0  0  0  0
 15  7  1  0  0  0  0
 16 15  1  0  0  0  0
 17 15  1  0  0  0  0
 18 17  1  0  0  0  0
 18 19  1  0  0  0  0
 19 16  1  0  0  0  0
M  END
>  <idnumber>
T5823186

>  <LogP>
2.147000000000000e+000

>  <rotating_bonds>
3.000000000000000e+000

>  <hb_acceptors>
3.000000000000000e+000

>  <hb_donors>
1.000000000000000e+000

>  <PSA>
5.981000000000002e+001

>  <clusterid>
645

>  <is_centroid>
@

>  <class1>
674

>  <class2>
636

>  <class3>
625

>  <population1>
16474

>  <population2>
10575

>  <population3>
877209

>  <population>
102

>  <cansmi>
O=C(c1ccc(cc1)n1ncnc1)NC1CCCC1

>  <HBA2>
5

>  <HBD>
1

>  <logP>
2.3306

>  <TPSA>
59.81

>  <MW>
256.303

$$$$

 OpenBabel02121609142D

 19 20  0  0  0  0  0  0  0  0999 V2000
    1.3792    0.4583    0.0000 C   0  0  0  0  0  0  0  0  0  0  0  0
    2.3292    1.7708    0.0000 N   0  0  0  0  0  0  0  0  0  0  0  0
    0.7917    1.2708    0.0000 C   0  0  0  0  0  0  0  0  0  0  0  0
    1.3792    2.0833    0.0000 N   0  0  0  0  0  0  0  0  0  0  0  0
    2.3292    0.7708    0.0000 C   0  0  0  0  0  0  0  0  0  0  0  0
    1.0750   -0.4917    0.0000 N   0  0  0  0  0  0  0  0  0  0  0  0
    0.0917   -0.7042    0.0000 C   0  0  0  0  0  0  0  0  0  0  0  0
   -1.1958   -1.8625    0.0000 N   0  0  0  0  0  0  0  0  0  0  0  0
   -0.2125   -1.6542    0.0000 C   0  0  3  0  0  0  0  0  0  0  0  0
   -0.5750    0.0458    0.0000 O   0  0  0  0  0  0  0  0  0  0  0  0
   -0.2083    1.2708    0.0000 C   0  0  0  0  0  0  0  0  0  0  0  0
    1.0750    3.0250    0.0000 C   0  0  0  0  0  0  0  0  0  0  0  0
    3.1417    0.1833    0.0000 C   0  0  0  0  0  0  0  0  0  0  0  0
   -1.5000   -2.8125    0.0000 C   0  0  0  0  0  0  0  0  0  0  0  0
   -1.8583   -1.1167    0.0000 C   0  0  0  0  0  0  0  0  0  0  0  0
    0.4542   -2.3917    0.0000 C   0  0  0  0  0  0  0  0  0  0  0  0
   -2.8375   -1.3250    0.0000 C   0  0  0  0  0  0  0  0  0  0  0  0
   -2.4833   -3.0167    0.0000 C   0  0  0  0  0  0  0  0  0  0  0  0
   -3.1458   -2.2792    0.0000 C   0  0  0  0  0  0  0  0  0  0  0  0
  2  5  2  0  0  0  0
  2  4  1  0  0  0  0
  3  1  2  0  0  0  0
  4  3  1  0  0  0  0
  5  1  1  0  0  0  0
  6  1  1  0  0  0  0
  7  6  1  0  0  0  0
  8  9  1  0  0  0  0
  9  7  1  0  0  0  0
 10  7  2  0  0  0  0
 11  3  1  0  0  0  0
 12  4  1  0  0  0  0
 13  5  1  0  0  0  0
 14  8  1  0  0  0  0
 15  8  1  0  0  0  0
 16  9  1  0  0  0  0
 17 15  1  0  0  0  0
 18 14  1  0  0  0  0
 18 19  1  0  0  0  0
 19 17  1  0  0  0  0
M  END
>  <idnumber>
T5823597

>  <LogP>
5.750000000000001e-001

>  <rotating_bonds>
3.000000000000000e+000

>  <hb_acceptors>
3.000000000000000e+000

>  <hb_donors>
1.000000000000000e+000

>  <PSA>
5.016000000000000e+001

>  <clusterid>
-1379

>  <is_centroid>
@

>  <class1>
631

>  <class2>
639

>  <population1>
41612

>  <population2>
59855

>  <population>
1732

>  <cansmi>
CC(C(=O)Nc1c(C)nn(c1C)C)N1CCCCC1

>  <HBA2>
5

>  <HBD>
1

>  <logP>
1.8607

>  <TPSA>
50.16

>  <MW>
264.367

$$$$

 OpenBabel02121609142D

 19 21  0  0  0  0  0  0  0  0999 V2000
   -0.6708   -1.4917    0.0000 C   0  0  0  0  0  0  0  0  0  0  0  0
    0.5667    2.3125    0.0000 N   0  0  0  0  0  0  0  0  0  0  0  0
    0.0000   -2.2292    0.0000 N   0  0  0  0  0  0  0  0  0  0  0  0
   -0.3625   -0.5375    0.0000 C   0  0  0  0  0  0  0  0  0  0  0  0
    0.2542    1.3625    0.0000 C   0  0  0  0  0  0  0  0  0  0  0  0
    1.5167    2.6208    0.0000 C   0  0  0  0  0  0  0  0  0  0  0  0
   -0.0208    3.1208    0.0000 C   0  0  0  0  0  0  0  0  0  0  0  0
   -1.6500   -1.7000    0.0000 O   0  0  0  0  0  0  0  0  0  0  0  0
    0.5667    3.9333    0.0000 C   0  0  0  0  0  0  0  0  0  0  0  0
    1.5167    3.6208    0.0000 C   0  0  0  0  0  0  0  0  0  0  0  0
   -0.7208    1.1583    0.0000 C   0  0  0  0  0  0  0  0  0  0  0  0
    0.9250    0.6208    0.0000 C   0  0  0  0  0  0  0  0  0  0  0  0
   -1.0333    0.2083    0.0000 C   0  0  0  0  0  0  0  0  0  0  0  0
    0.6167   -0.3292    0.0000 C   0  0  0  0  0  0  0  0  0  0  0  0
    1.3375   -3.7167    0.0000 O   0  0  0  0  0  0  0  0  0  0  0  0
    0.9750   -2.0250    0.0000 C   0  0  0  0  0  0  0  0  0  0  0  0
   -0.3125   -3.1792    0.0000 C   0  0  0  0  0  0  0  0  0  0  0  0
    0.3542   -3.9292    0.0000 C   0  0  0  0  0  0  0  0  0  0  0  0
    1.6417   -2.7667    0.0000 C   0  0  0  0  0  0  0  0  0  0  0  0
  2  5  1  0  0  0  0
  3  1  1  0  0  0  0
  4  1  1  0  0  0  0
  5 12  1  0  0  0  0
  6  2  1  0  0  0  0
  7  2  1  0  0  0  0
  8  1  2  0  0  0  0
  9  7  2  0  0  0  0
 10  6  2  0  0  0  0
 10  9  1  0  0  0  0
 11 13  1  0  0  0  0
 11  5  2  0  0  0  0
 12 14  2  0  0  0  0
 13  4  2  0  0  0  0
 14  4  1  0  0  0  0
 15 18  1  0  0  0  0
 16  3  1  0  0  0  0
 17  3  1  0  0  0  0
 18 17  1  0  0  0  0
 19 16  1  0  0  0  0
 19 15  1  0  0  0  0
M  END
>  <idnumber>
T5824170

>  <LogP>
1.910000000000000e+000

>  <rotating_bonds>
2.000000000000000e+000

>  <hb_acceptors>
2.000000000000000e+000

>  <hb_donors>
0.000000000000000e+000

>  <PSA>
3.447000000000000e+001

>  <clusterid>
-1380

>  <is_centroid>
@

>  <class1>
635

>  <class2>
625

>  <class3>
786

>  <population1>
31512

>  <population2>
877209

>  <population3>
48067

>  <population>
823

>  <cansmi>
O=C(c1ccc(cc1)n1cccc1)N1CCOCC1

>  <HBA2>
4

>  <HBD>
0

>  <logP>
1.8876

>  <TPSA>
34.47

>  <MW>
256.3

$$$$

 OpenBabel02121609142D

 19 21  0  0  0  0  0  0  0  0999 V2000
   -0.3708   -1.2292    0.0000 C   0  0  0  0  0  0  0  0  0  0  0  0
    1.1292   -0.3625    0.0000 N   0  0  0  0  0  0  0  0  0  0  0  0
    0.6292   -1.2292    0.0000 C   0  0  0  0  0  0  0  0  0  0  0  0
   -0.9583   -2.0375    0.0000 S   0  0  0  0  0  0  0  0  0  0  0  0
   -0.9583   -0.4167    0.0000 C   0  0  0  0  0  0  0  0  0  0  0  0
   -1.9083   -1.7292    0.0000 C   0  0  0  0  0  0  0  0  0  0  0  0
   -1.9083   -0.7292    0.0000 C   0  0  0  0  0  0  0  0  0  0  0  0
    2.1292    1.3708    0.0000 O   0  0  0  0  0  0  0  0  0  0  0  0
    2.1292   -0.3625    0.0000 C   0  0  0  0  0  0  0  0  0  0  0  0
    0.6292    0.5000    0.0000 C   0  0  0  0  0  0  0  0  0  0  0  0
    1.1292   -2.0917    0.0000 O   0  0  0  0  0  0  0  0  0  0  0  0
    1.1292    1.3708    0.0000 C   0  0  3  0  0  0  0  0  0  0  0  0
    2.6292    0.5000    0.0000 C   0  0  3  0  0  0  0  0  0  0  0  0
   -2.7708   -2.2292    0.0000 C   0  0  0  0  0  0  0  0  0  0  0  0
   -2.7708   -0.2292    0.0000 C   0  0  0  0  0  0  0  0  0  0  0  0
    0.6292    2.2333    0.0000 C   0  0  0  0  0  0  0  0  0  0  0  0
    3.6292    0.5000    0.0000 C   0  0  0  0  0  0  0  0  0  0  0  0
   -3.6375   -1.7292    0.0000 C   0  0  0  0  0  0  0  0  0  0  0  0
   -3.6375   -0.7292    0.0000 C   0  0  0  0  0  0  0  0  0  0  0  0
  2  3  1  0  0  0  0
  3  1  1  0  0  0  0
  4  1  1  0  0  0  0
  5  1  2  0  0  0  0
  6  4  1  0  0  0  0
  7  5  1  0  0  0  0
  7  6  2  0  0  0  0
  8 12  1  0  0  0  0
  9  2  1  0  0  0  0
 10  2  1  0  0  0  0
 11  3  2  0  0  0  0
 12 10  1  0  0  0  0
 13  9  1  0  0  0  0
 13  8  1  0  0  0  0
 14  6  1  0  0  0  0
 15  7  1  0  0  0  0
 16 12  1  0  0  0  0
 17 13  1  0  0  0  0
 18 14  2  0  0  0  0
 19 15  2  0  0  0  0
 19 18  1  0  0  0  0
M  END
>  <idnumber>
T5824171

>  <LogP>
2.970000000000000e+000

>  <rotating_bonds>
1.000000000000000e+000

>  <hb_acceptors>
3.000000000000000e+000

>  <hb_donors>
0.000000000000000e+000

>  <PSA>
5.778000000000000e+001

>  <clusterid>
739

>  <is_centroid>
@

>  <class1>
825

>  <class2>
786

>  <population1>
3362

>  <population2>
48067

>  <population>
153

>  <cansmi>
CC1OC(C)CN(C1)C(=O)c1cc2c(s1)cccc2

>  <HBA2>
4

>  <HBD>
0

>  <logP>
3.0886

>  <TPSA>
57.78

>  <MW>
275.366

$$$$

 OpenBabel02121609142D

 18 20  0  0  0  0  0  0  0  0999 V2000
   -0.7208   -0.1125    0.0000 C   0  0  0  0  0  0  0  0  0  0  0  0
    0.8167    0.3875    0.0000 C   0  0  0  0  0  0  0  0  0  0  0  0
    0.2292   -0.4250    0.0000 S   0  0  0  0  0  0  0  0  0  0  0  0
   -0.7208    0.8875    0.0000 C   0  0  0  0  0  0  0  0  0  0  0  0
    0.2292    1.1958    0.0000 C   0  0  0  0  0  0  0  0  0  0  0  0
    1.8167    0.3875    0.0000 C   0  0  0  0  0  0  0  0  0  0  0  0
   -1.5875   -0.6125    0.0000 C   0  0  0  0  0  0  0  0  0  0  0  0
   -2.4583    0.8875    0.0000 O   0  0  0  0  0  0  0  0  0  0  0  0
   -1.5875    1.3875    0.0000 C   0  0  0  0  0  0  0  0  0  0  0  0
   -2.4583   -0.1125    0.0000 C   0  0  0  0  0  0  0  0  0  0  0  0
    2.3167    1.2500    0.0000 N   0  0  0  0  0  0  0  0  0  0  0  0
    2.3167   -0.4792    0.0000 O   0  0  0  0  0  0  0  0  0  0  0  0
   -1.5875   -1.6125    0.0000 C   0  0  0  0  0  0  0  0  0  0  0  0
    1.8167    2.1208    0.0000 C   0  0  0  0  0  0  0  0  0  0  0  0
    3.3167    1.2500    0.0000 C   0  0  0  0  0  0  0  0  0  0  0  0
   -3.3208   -0.6125    0.0000 C   0  0  0  0  0  0  0  0  0  0  0  0
   -2.4583   -2.1125    0.0000 C   0  0  0  0  0  0  0  0  0  0  0  0
   -3.3208   -1.6125    0.0000 C   0  0  0  0  0  0  0  0  0  0  0  0
  2  3  1  0  0  0  0
  2  5  2  0  0  0  0
  3  1  1  0  0  0  0
  4  1  2  0  0  0  0
  5  4  1  0  0  0  0
  6  2  1  0  0  0  0
  7  1  1  0  0  0  0
  8 10  1  0  0  0  0
  9  4  1  0  0  0  0
  9  8  1  0  0  0  0
 10  7  2  0  0  0  0
 11  6  1  0  0  0  0
 12  6  2  0  0  0  0
 13  7  1  0  0  0  0
 14 11  1  0  0  0  0
 15 11  1  0  0  0  0
 16 10  1  0  0  0  0
 16 18  2  0  0  0  0
 17 13  2  0  0  0  0
 18 17  1  0  0  0  0
M  END
>  <idnumber>
T5824608

>  <LogP>
2.203000000000000e+000

>  <rotating_bonds>
1.000000000000000e+000

>  <hb_acceptors>
3.000000000000000e+000

>  <hb_donors>
0.000000000000000e+000

>  <PSA>
5.778000000000000e+001

>  <clusterid>
-1381

>  <is_centroid>
@

>  <class1>
677

>  <population1>
157

>  <population>
157

>  <cansmi>
CN(C(=O)c1cc2c(s1)c1ccccc1OC2)C

>  <HBA2>
4

>  <HBD>
0

>  <logP>
3.0093

>  <TPSA>
57.78

>  <MW>
259.324

$$$$

 OpenBabel02121609142D

 21 23  0  0  0  0  0  0  0  0999 V2000
   -1.1833    0.0083    0.0000 C   0  0  0  0  0  0  0  0  0  0  0  0
    0.8167    3.4708    0.0000 C   0  0  0  0  0  0  0  0  0  0  0  0
   -0.6833    0.8708    0.0000 N   0  0  0  0  0  0  0  0  0  0  0  0
    0.3167    2.6000    0.0000 N   0  0  0  0  0  0  0  0  0  0  0  0
    1.8167    3.4708    0.0000 C   0  0  0  0  0  0  0  0  0  0  0  0
   -0.6833   -0.8625    0.0000 N   0  0  0  0  0  0  0  0  0  0  0  0
    2.6792    2.9708    0.0000 C   0  0  0  0  0  0  0  0  0  0  0  0
    2.6792    3.9708    0.0000 C   0  0  0  0  0  0  0  0  0  0  0  0
   -2.1833    0.0083    0.0000 O   0  0  0  0  0  0  0  0  0  0  0  0
    0.3167    0.8708    0.0000 C   0  0  0  0  0  0  0  0  0  0  0  0
   -1.1833    1.7333    0.0000 C   0  0  0  0  0  0  0  0  0  0  0  0
   -0.6833    2.6000    0.0000 C   0  0  0  0  0  0  0  0  0  0  0  0
    0.8167    1.7333    0.0000 C   0  0  0  0  0  0  0  0  0  0  0  0
    0.3167    4.3292    0.0000 O   0  0  0  0  0  0  0  0  0  0  0  0
   -1.1833   -1.7292    0.0000 C   0  0  0  0  0  0  0  0  0  0  0  0
   -2.1833   -3.4625    0.0000 C   0  0  0  0  0  0  0  0  0  0  0  0
   -0.6833   -2.5917    0.0000 C   0  0  0  0  0  0  0  0  0  0  0  0
   -2.1833   -1.7292    0.0000 C   0  0  0  0  0  0  0  0  0  0  0  0
   -1.1833   -3.4625    0.0000 C   0  0  0  0  0  0  0  0  0  0  0  0
   -2.6833   -2.5917    0.0000 C   0  0  0  0  0  0  0  0  0  0  0  0
   -2.6833   -4.3292    0.0000 C   0  0  0  0  0  0  0  0  0  0  0  0
  2  4  1  0  0  0  0
  3  1  1  0  0  0  0
  4 12  1  0  0  0  0
  5  2  1  0  0  0  0
  6  1  1  0  0  0  0
  7  5  1  0  0  0  0
  7  8  1  0  0  0  0
  8  5  1  0  0  0  0
  9  1  2  0  0  0  0
 10  3  1  0  0  0  0
 11  3  1  0  0  0  0
 12 11  1  0  0  0  0
 13 10  1  0  0  0  0
 13  4  1  0  0  0  0
 14  2  2  0  0  0  0
 15  6  1  0  0  0  0
 16 20  2  0  0  0  0
 16 19  1  0  0  0  0
 17 15  1  0  0  0  0
 18 15  2  0  0  0  0
 19 17  2  0  0  0  0
 20 18  1  0  0  0  0
 21 16  1  0  0  0  0
M  END
>  <idnumber>
T5824915

>  <LogP>
1.241000000000000e+000

>  <rotating_bonds>
2.000000000000000e+000

>  <hb_acceptors>
2.000000000000000e+000

>  <hb_donors>
1.000000000000000e+000

>  <PSA>
5.265000000000000e+001

>  <clusterid>
-1383

>  <is_centroid>
@

>  <class1>
675

>  <class2>
625

>  <class3>
717

>  <population1>
33654

>  <population2>
877209

>  <population3>
74368

>  <population>
2797

>  <cansmi>
O=C(N1CCN(CC1)C(=O)C1CC1)Nc1ccc(cc1)C

>  <HBA2>
5

>  <HBD>
1

>  <logP>
2.0299

>  <TPSA>
52.65

>  <MW>
287.357

$$$$

 OpenBabel02121609142D

 21 23  0  0  0  0  0  0  0  0999 V2000
   -1.9583   -1.1750    0.0000 N   0  0  0  0  0  0  0  0  0  0  0  0
   -2.9083    0.1375    0.0000 N   0  0  0  0  0  0  0  0  0  0  0  0
   -2.9083   -0.8625    0.0000 C   0  0  0  0  0  0  0  0  0  0  0  0
   -1.3708   -0.3625    0.0000 C   0  0  0  0  0  0  0  0  0  0  0  0
   -1.9583    0.4458    0.0000 C   0  0  0  0  0  0  0  0  0  0  0  0
    4.1292    0.5000    0.0000 C   0  0  0  0  0  0  0  0  0  0  0  0
    3.1292    0.5000    0.0000 N   0  0  0  0  0  0  0  0  0  0  0  0
   -0.3708   -0.3625    0.0000 C   0  0  0  0  0  0  0  0  0  0  0  0
   -3.7708    0.6375    0.0000 C   0  0  0  0  0  0  0  0  0  0  0  0
   -3.7708   -1.3625    0.0000 C   0  0  0  0  0  0  0  0  0  0  0  0
    2.6292   -0.3625    0.0000 C   0  0  0  0  0  0  0  0  0  0  0  0
    4.6292   -0.3625    0.0000 O   0  0  0  0  0  0  0  0  0  0  0  0
   -4.6458    0.1375    0.0000 C   0  0  0  0  0  0  0  0  0  0  0  0
   -4.6458   -0.8625    0.0000 C   0  0  0  0  0  0  0  0  0  0  0  0
    0.1292   -1.2292    0.0000 C   0  0  0  0  0  0  0  0  0  0  0  0
    0.1292    0.5000    0.0000 C   0  0  0  0  0  0  0  0  0  0  0  0
    1.6292   -0.3625    0.0000 C   0  0  0  0  0  0  0  0  0  0  0  0
    1.1292   -1.2292    0.0000 C   0  0  0  0  0  0  0  0  0  0  0  0
    1.1292    0.5000    0.0000 C   0  0  0  0  0  0  0  0  0  0  0  0
    4.6292    1.3708    0.0000 C   0  0  0  0  0  0  0  0  0  0  0  0
    2.6292    1.3708    0.0000 C   0  0  0  0  0  0  0  0  0  0  0  0
  2  3  1  0  0  0  0
  3  1  2  0  0  0  0
  4  1  1  0  0  0  0
  5  4  2  0  0  0  0
  5  2  1  0  0  0  0
  6  7  1  0  0  0  0
  7 11  1  0  0  0  0
  8  4  1  0  0  0  0
  9  2  1  0  0  0  0
  9 13  2  0  0  0  0
 10  3  1  0  0  0  0
 11 17  1  0  0  0  0
 12  6  2  0  0  0  0
 13 14  1  0  0  0  0
 14 10  2  0  0  0  0
 15  8  2  0  0  0  0
 16  8  1  0  0  0  0
 17 19  1  0  0  0  0
 18 15  1  0  0  0  0
 18 17  2  0  0  0  0
 19 16  2  0  0  0  0
 20  6  1  0  0  0  0
 21  7  1  0  0  0  0
M  END
>  <idnumber>
T5826621

>  <LogP>
2.128000000000000e+000

>  <rotating_bonds>
3.000000000000000e+000

>  <hb_acceptors>
3.000000000000000e+000

>  <hb_donors>
0.000000000000000e+000

>  <PSA>
3.761000000000000e+001

>  <clusterid>
-1387

>  <is_centroid>
@

>  <class1>
660

>  <class2>
625

>  <population1>
3949

>  <population2>
877209

>  <population>
3187

>  <cansmi>
CN(C(=O)C)Cc1ccc(cc1)c1nc2n(c1)cccc2

>  <HBA2>
4

>  <HBD>
0

>  <logP>
2.9796

>  <TPSA>
37.61

>  <MW>
279.336

$$$$

 OpenBabel02121609142D

 21 23  0  0  0  0  0  0  0  0999 V2000
   -1.2583   -0.1417    0.0000 N   0  0  0  0  0  0  0  0  0  0  0  0
   -0.6708   -0.9500    0.0000 C   0  0  0  0  0  0  0  0  0  0  0  0
   -1.2583   -1.7542    0.0000 N   0  0  0  0  0  0  0  0  0  0  0  0
   -2.2125   -0.4500    0.0000 C   0  0  0  0  0  0  0  0  0  0  0  0
   -2.2125   -1.4500    0.0000 C   0  0  0  0  0  0  0  0  0  0  0  0
   -0.9500    0.8125    0.0000 C   0  0  0  0  0  0  0  0  0  0  0  0
    0.0250    1.0208    0.0000 C   0  0  0  0  0  0  0  0  0  0  0  0
    3.9375    1.8500    0.0000 N   0  0  0  0  0  0  0  0  0  0  0  0
    0.3375    1.9708    0.0000 C   0  0  0  0  0  0  0  0  0  0  0  0
    0.3292   -0.9500    0.0000 O   0  0  0  0  0  0  0  0  0  0  0  0
    2.9625    1.6458    0.0000 C   0  0  0  0  0  0  0  0  0  0  0  0
    1.3125    2.1833    0.0000 C   0  0  0  0  0  0  0  0  0  0  0  0
    0.6917    0.2750    0.0000 C   0  0  0  0  0  0  0  0  0  0  0  0
    1.9792    1.4333    0.0000 C   0  0  0  0  0  0  0  0  0  0  0  0
   -0.9500   -2.7042    0.0000 C   0  0  0  0  0  0  0  0  0  0  0  0
   -0.3333    2.7125    0.0000 F   0  0  0  0  0  0  0  0  0  0  0  0
    1.6750    0.4833    0.0000 C   0  0  0  0  0  0  0  0  0  0  0  0
   -3.0833    0.0500    0.0000 C   0  0  0  0  0  0  0  0  0  0  0  0
   -3.0833   -1.9500    0.0000 C   0  0  0  0  0  0  0  0  0  0  0  0
   -3.9458   -0.4500    0.0000 C   0  0  0  0  0  0  0  0  0  0  0  0
   -3.9458   -1.4500    0.0000 C   0  0  0  0  0  0  0  0  0  0  0  0
  2  1  1  0  0  0  0
  3  2  1  0  0  0  0
  3  5  1  0  0  0  0
  4  1  1  0  0  0  0
  5  4  2  0  0  0  0
  6  1  1  0  0  0  0
  7  6  1  0  0  0  0
  8 11  3  0  0  0  0
  9  7  2  0  0  0  0
 10  2  2  0  0  0  0
 11 14  1  0  0  0  0
 12  9  1  0  0  0  0
 12 14  2  0  0  0  0
 13  7  1  0  0  0  0
 14 17  1  0  0  0  0
 15  3  1  0  0  0  0
 16  9  1  0  0  0  0
 17 13  2  0  0  0  0
 18  4  1  0  0  0  0
 19  5  1  0  0  0  0
 19 21  2  0  0  0  0
 20 18  2  0  0  0  0
 21 20  1  0  0  0  0
M  END
>  <idnumber>
T5826775

>  <LogP>
2.804000000000000e+000

>  <rotating_bonds>
3.000000000000000e+000

>  <hb_acceptors>
3.000000000000000e+000

>  <hb_donors>
0.000000000000000e+000

>  <PSA>
4.734000000000000e+001

>  <clusterid>
740

>  <is_centroid>
@

>  <class1>
625

>  <class2>
727

>  <population1>
877209

>  <population2>
3921

>  <population>
3921

>  <cansmi>
N#Cc1ccc(c(c1)F)Cn1c(=O)n(c2c1cccc2)C

>  <HBA2>
4

>  <HBD>
0

>  <logP>
2.39908

>  <TPSA>
50.72

>  <MW>
281.284

$$$$

 OpenBabel02121609142D

 21 24  0  0  0  0  0  0  0  0999 V2000
    0.4167    0.4458    0.0000 C   0  0  0  0  0  0  0  0  0  0  0  0
   -0.4500   -0.0542    0.0000 C   0  0  0  0  0  0  0  0  0  0  0  0
    1.3292    0.0375    0.0000 C   0  0  0  0  0  0  0  0  0  0  0  0
    2.0000    0.7833    0.0000 N   0  0  0  0  0  0  0  0  0  0  0  0
   -0.4500   -1.0542    0.0000 N   0  0  0  0  0  0  0  0  0  0  0  0
   -1.3125    0.4458    0.0000 N   0  0  0  0  0  0  0  0  0  0  0  0
    0.5167    1.4375    0.0000 C   0  0  0  0  0  0  0  0  0  0  0  0
    1.5000    1.6458    0.0000 C   0  0  0  0  0  0  0  0  0  0  0  0
   -1.3125   -1.5542    0.0000 C   0  0  0  0  0  0  0  0  0  0  0  0
   -2.1833   -1.0542    0.0000 C   0  0  0  0  0  0  0  0  0  0  0  0
   -2.1833   -0.0542    0.0000 C   0  0  0  0  0  0  0  0  0  0  0  0
    2.9917    0.6750    0.0000 C   0  0  0  0  0  0  0  0  0  0  0  0
    3.8042    0.0875    0.0000 C   0  0  0  0  0  0  0  0  0  0  0  0
    3.9042    1.0833    0.0000 C   0  0  0  0  0  0  0  0  0  0  0  0
   -1.3125   -2.5542    0.0000 O   0  0  0  0  0  0  0  0  0  0  0  0
    1.5375   -0.9417    0.0000 C   0  0  0  0  0  0  0  0  0  0  0  0
    1.9042    2.5583    0.0000 C   0  0  0  0  0  0  0  0  0  0  0  0
   -3.0458   -1.5542    0.0000 C   0  0  0  0  0  0  0  0  0  0  0  0
   -3.0458    0.4458    0.0000 C   0  0  0  0  0  0  0  0  0  0  0  0
   -3.9125   -1.0542    0.0000 C   0  0  0  0  0  0  0  0  0  0  0  0
   -3.9125   -0.0542    0.0000 C   0  0  0  0  0  0  0  0  0  0  0  0
  2  1  1  0  0  0  0
  3  1  2  0  0  0  0
  4  3  1  0  0  0  0
  5  2  1  0  0  0  0
  6  2  2  0  0  0  0
  7  1  1  0  0  0  0
  8  7  2  0  0  0  0
  8  4  1  0  0  0  0
  9  5  1  0  0  0  0
  9 10  1  0  0  0  0
 10 11  2  0  0  0  0
 11  6  1  0  0  0  0
 12  4  1  0  0  0  0
 13 12  1  0  0  0  0
 13 14  1  0  0  0  0
 14 12  1  0  0  0  0
 15  9  2  0  0  0  0
 16  3  1  0  0  0  0
 17  8  1  0  0  0  0
 18 10  1  0  0  0  0
 19 11  1  0  0  0  0
 20 21  1  0  0  0  0
 20 18  2  0  0  0  0
 21 19  2  0  0  0  0
M  END
>  <idnumber>
T5832478

>  <LogP>
2.587000000000000e+000

>  <rotating_bonds>
2.000000000000000e+000

>  <hb_acceptors>
2.000000000000000e+000

>  <hb_donors>
1.000000000000000e+000

>  <PSA>
4.639000000000000e+001

>  <clusterid>
-1390

>  <is_centroid>
@

>  <class1>
648

>  <class2>
675

>  <class3>
635

>  <population1>
19152

>  <population2>
33654

>  <population3>
31512

>  <population>
26

>  <cansmi>
O=c1[nH]c(nc2c1cccc2)c1cc(n(c1C)C1CC1)C

>  <HBA2>
3

>  <HBD>
1

>  <logP>
3.3433

>  <TPSA>
50.68

>  <MW>
279.336

$$$$

 OpenBabel02121609142D

 12 13  0  0  0  0  0  0  0  0999 V2000
    0.5292    0.5000    0.0000 C   0  0  0  0  0  0  0  0  0  0  0  0
    0.5292   -0.5000    0.0000 C   0  0  0  0  0  0  0  0  0  0  0  0
    2.0667    0.0000    0.0000 N   0  0  0  0  0  0  0  0  0  0  0  0
    1.4792    0.8125    0.0000 N   0  0  0  0  0  0  0  0  0  0  0  0
    1.4792   -0.8042    0.0000 C   0  0  0  0  0  0  0  0  0  0  0  0
   -0.3375    1.0000    0.0000 N   0  0  0  0  0  0  0  0  0  0  0  0
   -0.3375   -0.9917    0.0000 C   0  0  0  0  0  0  0  0  0  0  0  0
   -1.2083    0.5000    0.0000 C   0  0  0  0  0  0  0  0  0  0  0  0
   -1.2083   -0.5000    0.0000 C   0  0  0  0  0  0  0  0  0  0  0  0
    1.7875    1.7625    0.0000 C   0  0  0  0  0  0  0  0  0  0  0  0
   -2.0708   -1.0000    0.0000 N   0  0  0  0  0  0  0  0  0  0  0  0
    1.7875   -1.7542    0.0000 C   0  0  0  0  0  0  0  0  0  0  0  0
  2  1  2  0  0  0  0
  3  4  1  0  0  0  0
  4  1  1  0  0  0  0
  5  2  1  0  0  0  0
  5  3  2  0  0  0  0
  6  1  1  0  0  0  0
  7  2  1  0  0  0  0
  7  9  2  0  0  0  0
  8  6  2  0  0  0  0
  9  8  1  0  0  0  0
 10  4  1  0  0  0  0
 11  9  1  0  0  0  0
 12  5  1  0  0  0  0
M  END
>  <idnumber>
T5833268

>  <LogP>
8.490000000000002e-001

>  <rotating_bonds>
0.000000000000000e+000

>  <hb_acceptors>
3.000000000000000e+000

>  <hb_donors>
1.000000000000000e+000

>  <PSA>
5.673000000000000e+001

>  <clusterid>
-1392

>  <is_centroid>
@

>  <class1>
726

>  <population1>
3632

>  <population>
3632

>  <cansmi>
Cc1nn(c2c1cc(N)cn2)C

>  <HBA2>
4

>  <HBD>
1

>  <logP>
1.4401

>  <TPSA>
56.73

>  <MW>
162.192

$$$$

 OpenBabel02121609142D

 13 14  0  0  0  0  0  0  0  0999 V2000
   -0.2083    0.0208    0.0000 C   0  0  0  0  0  0  0  0  0  0  0  0
   -0.2083   -0.9875    0.0000 C   0  0  0  0  0  0  0  0  0  0  0  0
   -0.9875    0.6375    0.0000 C   0  0  0  0  0  0  0  0  0  0  0  0
    0.6542   -1.4792    0.0000 C   0  0  0  0  0  0  0  0  0  0  0  0
    0.6542    0.5125    0.0000 C   0  0  0  0  0  0  0  0  0  0  0  0
   -0.9875   -1.6042    0.0000 O   0  0  0  0  0  0  0  0  0  0  0  0
   -0.7708    1.6125    0.0000 O   0  0  0  0  0  0  0  0  0  0  0  0
    1.5250   -0.9875    0.0000 C   0  0  0  0  0  0  0  0  0  0  0  0
    1.5250    0.0208    0.0000 C   0  0  0  0  0  0  0  0  0  0  0  0
    2.3917   -1.4792    0.0000 Br  0  0  0  0  0  0  0  0  0  0  0  0
   -1.9708    0.4208    0.0000 C   0  0  0  0  0  0  0  0  0  0  0  0
   -1.9708   -1.3875    0.0000 C   0  0  0  0  0  0  0  0  0  0  0  0
   -2.3958   -0.4875    0.0000 C   0  0  0  0  0  0  0  0  0  0  0  0
  2  1  2  0  0  0  0
  3  1  1  0  0  0  0
  4  2  1  0  0  0  0
  4  8  2  0  0  0  0
  5  1  1  0  0  0  0
  6  2  1  0  0  0  0
  7  3  2  0  0  0  0
  8  9  1  0  0  0  0
  9  5  2  0  0  0  0
 10  8  1  0  0  0  0
 11  3  1  0  0  0  0
 12  6  1  0  0  0  0
 13 11  1  0  0  0  0
 13 12  1  0  0  0  0
M  END
>  <idnumber>
T5833274

>  <LogP>
2.781000000000000e+000

>  <rotating_bonds>
0.000000000000000e+000

>  <hb_acceptors>
2.000000000000000e+000

>  <hb_donors>
0.000000000000000e+000

>  <PSA>
2.630000000000000e+001

>  <clusterid>
-1393

>  <is_centroid>
@

>  <class1>
772

>  <population1>
38

>  <population>
38

>  <cansmi>
Brc1ccc2c(c1)OCCCC2=O

>  <HBA2>
2

>  <HBD>
0

>  <logP>
2.8044

>  <TPSA>
26.3

>  <MW>
241.081

$$$$

 OpenBabel02121609142D

 13 14  0  0  0  0  0  0  0  0999 V2000
    0.9917   -0.3292    0.0000 C   0  0  0  0  0  0  0  0  0  0  0  0
    1.3000    0.6208    0.0000 N   0  0  0  0  0  0  0  0  0  0  0  0
   -2.2583   -1.9042    0.0000 N   0  0  0  0  0  0  0  0  0  0  0  0
    1.6542   -1.0750    0.0000 N   0  0  0  0  0  0  0  0  0  0  0  0
   -1.2750   -1.7000    0.0000 C   0  0  0  0  0  0  0  0  0  0  0  0
    0.0125   -0.5375    0.0000 C   0  0  0  0  0  0  0  0  0  0  0  0
   -0.2958   -1.4917    0.0000 C   0  0  0  0  0  0  0  0  0  0  0  0
    1.3500   -2.0250    0.0000 C   0  0  0  0  0  0  0  0  0  0  0  0
    2.2500    0.9333    0.0000 C   0  0  0  0  0  0  0  0  0  0  0  0
    0.7125    1.4333    0.0000 C   0  0  0  0  0  0  0  0  0  0  0  0
    0.3667   -2.2292    0.0000 C   0  0  0  0  0  0  0  0  0  0  0  0
    1.3000    2.2375    0.0000 C   0  0  0  0  0  0  0  0  0  0  0  0
    2.2500    1.9333    0.0000 C   0  0  0  0  0  0  0  0  0  0  0  0
  2  1  1  0  0  0  0
  3  5  3  0  0  0  0
  4  1  2  0  0  0  0
  5  7  1  0  0  0  0
  6  1  1  0  0  0  0
  7  6  2  0  0  0  0
  8  4  1  0  0  0  0
  9  2  1  0  0  0  0
 10  2  1  0  0  0  0
 11  7  1  0  0  0  0
 11  8  2  0  0  0  0
 12 10  1  0  0  0  0
 13  9  1  0  0  0  0
 13 12  1  0  0  0  0
M  END
>  <idnumber>
T5833308

>  <LogP>
1.623000000000000e+000

>  <rotating_bonds>
2.000000000000000e+000

>  <hb_acceptors>
3.000000000000000e+000

>  <hb_donors>
0.000000000000000e+000

>  <PSA>
3.992000000000000e+001

>  <clusterid>
742

>  <is_centroid>
@

>  <class1>
642

>  <class2>
632

>  <population1>
51183

>  <population2>
79489

>  <population>
3055

>  <cansmi>
N#Cc1ccnc(c1)N1CCCC1

>  <HBA2>
3

>  <HBD>
0

>  <logP>
1.61848

>  <TPSA>
39.92

>  <MW>
173.214

$$$$

 OpenBabel02121609142D

 11 11  0  0  0  0  0  0  0  0999 V2000
    0.4292   -1.7500    0.0000 C   0  0  0  0  0  0  0  0  0  0  0  0
   -0.4333   -1.2500    0.0000 N   0  0  0  0  0  0  0  0  0  0  0  0
   -0.4333    1.7500    0.0000 C   0  0  0  0  0  0  0  0  0  0  0  0
    0.4292   -2.7417    0.0000 O   0  0  0  0  0  0  0  0  0  0  0  0
   -0.4333    2.7500    0.0000 O   0  0  0  0  0  0  0  0  0  0  0  0
   -0.4333   -0.2500    0.0000 C   0  0  0  0  0  0  0  0  0  0  0  0
    0.4292    1.2500    0.0000 C   0  0  0  0  0  0  0  0  0  0  0  0
   -1.3000    1.2500    0.0000 C   0  0  0  0  0  0  0  0  0  0  0  0
    0.4292    0.2500    0.0000 C   0  0  0  0  0  0  0  0  0  0  0  0
   -1.3000    0.2500    0.0000 C   0  0  0  0  0  0  0  0  0  0  0  0
    1.2917   -1.2500    0.0000 C   0  0  0  0  0  0  0  0  0  0  0  0
  2  1  1  0  0  0  0
  3  8  1  0  0  0  0
  4  1  2  0  0  0  0
  5  3  2  0  0  0  0
  6  2  1  0  0  0  0
  7  9  1  0  0  0  0
  7  3  1  0  0  0  0
  8 10  1  0  0  0  0
  9  6  1  0  0  0  0
 10  6  1  0  0  0  0
 11  1  1  0  0  0  0
M  END
>  <idnumber>
T5833311

>  <LogP>
-1.536000000000000e+000

>  <rotating_bonds>
1.000000000000000e+000

>  <hb_acceptors>
2.000000000000000e+000

>  <hb_donors>
1.000000000000000e+000

>  <PSA>
4.616999999999997e+001

>  <clusterid>
-1396

>  <is_centroid>
@

>  <class1>
839

>  <population1>
1494

>  <population>
1494

>  <cansmi>
O=C1CCC(CC1)NC(=O)C

>  <HBA2>
3

>  <HBD>
1

>  <logP>
1.0251

>  <TPSA>
46.17

>  <MW>
155.194

$$$$

 OpenBabel02121609142D

 16 18  0  0  0  0  0  0  0  0999 V2000
    0.7917   -0.5000    0.0000 C   0  0  0  0  0  0  0  0  0  0  0  0
    1.6625    0.0000    0.0000 N   0  0  0  0  0  0  0  0  0  0  0  0
   -0.0708    0.0000    0.0000 C   0  0  0  0  0  0  0  0  0  0  0  0
    2.5292   -0.5000    0.0000 C   0  0  0  0  0  0  0  0  0  0  0  0
   -0.9333   -0.5000    0.0000 C   0  0  0  0  0  0  0  0  0  0  0  0
    3.0292   -1.3625    0.0000 C   0  0  0  0  0  0  0  0  0  0  0  0
    3.5292   -0.5000    0.0000 C   0  0  0  0  0  0  0  0  0  0  0  0
   -1.8000    0.0000    0.0000 C   0  0  0  0  0  0  0  0  0  0  0  0
    0.7917   -1.5000    0.0000 O   0  0  0  0  0  0  0  0  0  0  0  0
   -0.0708    1.0000    0.0000 C   0  0  0  0  0  0  0  0  0  0  0  0
   -1.8000    1.0000    0.0000 C   0  0  0  0  0  0  0  0  0  0  0  0
   -0.9333    1.5000    0.0000 C   0  0  0  0  0  0  0  0  0  0  0  0
   -2.6708   -0.5000    0.0000 C   0  0  0  0  0  0  0  0  0  0  0  0
   -2.6708    1.5000    0.0000 C   0  0  0  0  0  0  0  0  0  0  0  0
   -3.5333    0.0000    0.0000 C   0  0  0  0  0  0  0  0  0  0  0  0
   -3.5333    1.0000    0.0000 C   0  0  0  0  0  0  0  0  0  0  0  0
  2  1  1  0  0  0  0
  3  1  1  0  0  0  0
  4  2  1  0  0  0  0
  5  3  2  0  0  0  0
  6  4  1  0  0  0  0
  6  7  1  0  0  0  0
  7  4  1  0  0  0  0
  8  5  1  0  0  0  0
  8 11  2  0  0  0  0
  9  1  2  0  0  0  0
 10  3  1  0  0  0  0
 11 12  1  0  0  0  0
 12 10  2  0  0  0  0
 13  8  1  0  0  0  0
 14 11  1  0  0  0  0
 15 13  2  0  0  0  0
 16 14  2  0  0  0  0
 16 15  1  0  0  0  0
M  END
>  <idnumber>
T5833577

>  <LogP>
2.389000000000000e+000

>  <rotating_bonds>
2.000000000000000e+000

>  <hb_acceptors>
1.000000000000000e+000

>  <hb_donors>
1.000000000000000e+000

>  <PSA>
2.910000000000000e+001

>  <clusterid>
-1399

>  <is_centroid>
@

>  <class1>
675

>  <class2>
796

>  <population1>
33654

>  <population2>
21922

>  <population>
392

>  <cansmi>
O=C(c1ccc2c(c1)cccc2)NC1CC1

>  <HBA2>
2

>  <HBD>
1

>  <logP>
3.1229

>  <TPSA>
29.1

>  <MW>
211.259

$$$$

 OpenBabel02121609142D

 19 21  0  0  0  0  0  0  0  0999 V2000
    0.0000   -1.3500    0.0000 C   0  0  0  0  0  0  0  0  0  0  0  0
   -0.8708    0.1500    0.0000 C   0  0  0  0  0  0  0  0  0  0  0  0
    0.0000   -0.3500    0.0000 C   0  0  0  0  0  0  0  0  0  0  0  0
   -0.8708   -1.8500    0.0000 O   0  0  0  0  0  0  0  0  0  0  0  0
   -1.7333   -1.3500    0.0000 C   0  0  0  0  0  0  0  0  0  0  0  0
   -1.7333   -0.3500    0.0000 C   0  0  0  0  0  0  0  0  0  0  0  0
    0.8625   -1.8500    0.0000 C   0  0  0  0  0  0  0  0  0  0  0  0
    0.0000    1.6500    0.0000 N   0  0  0  0  0  0  0  0  0  0  0  0
    1.0792    2.8583    0.0000 N   0  0  0  0  0  0  0  0  0  0  0  0
   -0.8708    1.1500    0.0000 C   0  0  0  0  0  0  0  0  0  0  0  0
    0.1042    2.6458    0.0000 C   0  0  0  0  0  0  0  0  0  0  0  0
    0.8625    0.1500    0.0000 C   0  0  0  0  0  0  0  0  0  0  0  0
    1.7292   -1.3500    0.0000 C   0  0  0  0  0  0  0  0  0  0  0  0
    1.5792    1.9875    0.0000 C   0  0  0  0  0  0  0  0  0  0  0  0
    0.9125    1.2458    0.0000 C   0  0  0  0  0  0  0  0  0  0  0  0
   -2.6000   -1.8500    0.0000 O   0  0  0  0  0  0  0  0  0  0  0  0
    1.7292   -0.3500    0.0000 C   0  0  0  0  0  0  0  0  0  0  0  0
    0.8625   -2.8500    0.0000 C   0  0  0  0  0  0  0  0  0  0  0  0
    2.5917   -1.8500    0.0000 C   0  0  0  0  0  0  0  0  0  0  0  0
  2  3  1  0  0  0  0
  2  6  2  0  0  0  0
  3  1  2  0  0  0  0
  4  1  1  0  0  0  0
  5  4  1  0  0  0  0
  6  5  1  0  0  0  0
  7  1  1  0  0  0  0
  8 10  1  0  0  0  0
  9 11  2  0  0  0  0
 10  2  1  0  0  0  0
 11  8  1  0  0  0  0
 12  3  1  0  0  0  0
 13  7  2  0  0  0  0
 14 15  2  0  0  0  0
 14  9  1  0  0  0  0
 15  8  1  0  0  0  0
 16  5  2  0  0  0  0
 17 13  1  0  0  0  0
 17 12  2  0  0  0  0
 18  7  1  0  0  0  0
 19 13  1  0  0  0  0
M  END
>  <idnumber>
T5834389

>  <LogP>
1.973000000000000e+000

>  <rotating_bonds>
2.000000000000000e+000

>  <hb_acceptors>
2.000000000000000e+000

>  <hb_donors>
0.000000000000000e+000

>  <PSA>
4.412000000000001e+001

>  <clusterid>
743

>  <is_centroid>
@

>  <class1>
799

>  <class2>
686

>  <population1>
7929

>  <population2>
31113

>  <population>
64

>  <cansmi>
O=c1cc(Cn2cncc2)c2c(o1)c(C)c(cc2)C

>  <HBA2>
4

>  <HBD>
0

>  <logP>
2.6546

>  <TPSA>
48.03

>  <MW>
254.284

$$$$

 OpenBabel02121609142D

 21 23  0  0  0  0  0  0  0  0999 V2000
   -0.8500   -0.8042    0.0000 C   0  0  0  0  0  0  0  0  0  0  0  0
   -1.1583   -1.7542    0.0000 C   0  0  0  0  0  0  0  0  0  0  0  0
   -0.4958   -2.5000    0.0000 N   0  0  0  0  0  0  0  0  0  0  0  0
   -0.8500    0.8125    0.0000 N   0  0  0  0  0  0  0  0  0  0  0  0
    0.1000    0.5000    0.0000 N   0  0  0  0  0  0  0  0  0  0  0  0
   -1.4375    0.0000    0.0000 C   0  0  0  0  0  0  0  0  0  0  0  0
    0.1000   -0.5000    0.0000 C   0  0  0  0  0  0  0  0  0  0  0  0
    0.4875   -2.2917    0.0000 C   0  0  0  0  0  0  0  0  0  0  0  0
   -2.1375   -1.9667    0.0000 O   0  0  0  0  0  0  0  0  0  0  0  0
    0.8417   -3.9875    0.0000 O   0  0  0  0  0  0  0  0  0  0  0  0
   -1.1583    1.7625    0.0000 C   0  0  0  0  0  0  0  0  0  0  0  0
   -0.8000   -3.4542    0.0000 C   0  0  0  0  0  0  0  0  0  0  0  0
    1.1542   -3.0375    0.0000 C   0  0  3  0  0  0  0  0  0  0  0  0
   -0.1333   -4.1917    0.0000 C   0  0  0  0  0  0  0  0  0  0  0  0
   -0.4958    2.5083    0.0000 C   0  0  0  0  0  0  0  0  0  0  0  0
   -0.8000    3.4583    0.0000 C   0  0  0  0  0  0  0  0  0  0  0  0
    0.4875    2.2958    0.0000 C   0  0  0  0  0  0  0  0  0  0  0  0
    2.1292   -2.8292    0.0000 C   0  0  0  0  0  0  0  0  0  0  0  0
    1.1542    3.0458    0.0000 C   0  0  0  0  0  0  0  0  0  0  0  0
   -0.1333    4.1917    0.0000 C   0  0  0  0  0  0  0  0  0  0  0  0
    0.8417    3.9958    0.0000 C   0  0  0  0  0  0  0  0  0  0  0  0
  2  1  1  0  0  0  0
  3  2  1  0  0  0  0
  4  6  1  0  0  0  0
  5  7  2  0  0  0  0
  5  4  1  0  0  0  0
  6  1  2  0  0  0  0
  7  1  1  0  0  0  0
  8  3  1  0  0  0  0
  9  2  2  0  0  0  0
 10 14  1  0  0  0  0
 11  4  1  0  0  0  0
 12  3  1  0  0  0  0
 13  8  1  0  0  0  0
 13 10  1  0  0  0  0
 14 12  1  0  0  0  0
 15 11  1  0  0  0  0
 16 15  2  0  0  0  0
 17 15  1  0  0  0  0
 18 13  1  0  0  0  0
 19 17  2  0  0  0  0
 20 16  1  0  0  0  0
 20 21  2  0  0  0  0
 21 19  1  0  0  0  0
M  END
>  <idnumber>
T5835336

>  <LogP>
1.688000000000000e+000

>  <rotating_bonds>
3.000000000000000e+000

>  <hb_acceptors>
3.000000000000000e+000

>  <hb_donors>
0.000000000000000e+000

>  <PSA>
4.736000000000001e+001

>  <clusterid>
745

>  <is_centroid>
@

>  <class1>
631

>  <class2>
625

>  <class3>
786

>  <population1>
41612

>  <population2>
877209

>  <population3>
48067

>  <population>
1493

>  <cansmi>
CC1OCCN(C1)C(=O)c1cnn(c1)Cc1ccccc1

>  <HBA2>
5

>  <HBD>
0

>  <logP>
1.7302

>  <TPSA>
47.36

>  <MW>
285.341

$$$$

 OpenBabel02121609142D

 19 21  0  0  0  0  0  0  0  0999 V2000
    0.5667   -1.2292    0.0000 C   0  0  0  0  0  0  0  0  0  0  0  0
   -0.0208   -2.0375    0.0000 N   0  0  0  0  0  0  0  0  0  0  0  0
   -0.9708   -1.7292    0.0000 C   0  0  0  0  0  0  0  0  0  0  0  0
   -0.9708   -0.7292    0.0000 N   0  0  0  0  0  0  0  0  0  0  0  0
    1.5667   -1.2292    0.0000 C   0  0  0  0  0  0  0  0  0  0  0  0
   -0.0208   -0.4167    0.0000 C   0  0  0  0  0  0  0  0  0  0  0  0
    2.0667   -0.3625    0.0000 N   0  0  0  0  0  0  0  0  0  0  0  0
   -1.8458   -2.2292    0.0000 C   0  0  0  0  0  0  0  0  0  0  0  0
   -1.8458   -0.2292    0.0000 C   0  0  0  0  0  0  0  0  0  0  0  0
   -2.7083   -1.7292    0.0000 C   0  0  0  0  0  0  0  0  0  0  0  0
   -2.7083   -0.7292    0.0000 C   0  0  0  0  0  0  0  0  0  0  0  0
    2.0667   -2.0917    0.0000 O   0  0  0  0  0  0  0  0  0  0  0  0
    3.0667   -0.3625    0.0000 C   0  0  0  0  0  0  0  0  0  0  0  0
    1.5667    0.5000    0.0000 C   0  0  0  0  0  0  0  0  0  0  0  0
    3.5667    0.5000    0.0000 C   0  0  0  0  0  0  0  0  0  0  0  0
    2.0667    1.3708    0.0000 C   0  0  0  0  0  0  0  0  0  0  0  0
    3.0667    1.3708    0.0000 C   0  0  0  0  0  0  0  0  0  0  0  0
   -3.5708   -2.2292    0.0000 C   0  0  0  0  0  0  0  0  0  0  0  0
    3.5667    2.2333    0.0000 C   0  0  0  0  0  0  0  0  0  0  0  0
  2  1  1  0  0  0  0
  3  2  2  0  0  0  0
  4  6  1  0  0  0  0
  4  3  1  0  0  0  0
  5  1  1  0  0  0  0
  6  1  2  0  0  0  0
  7  5  1  0  0  0  0
  8  3  1  0  0  0  0
  9  4  1  0  0  0  0
 10  8  2  0  0  0  0
 11  9  2  0  0  0  0
 11 10  1  0  0  0  0
 12  5  2  0  0  0  0
 13  7  1  0  0  0  0
 14  7  1  0  0  0  0
 15 13  1  0  0  0  0
 15 17  1  0  0  0  0
 16 14  1  0  0  0  0
 17 16  1  0  0  0  0
 18 10  1  0  0  0  0
 19 17  1  0  0  0  0
M  END
>  <idnumber>
T5835356

>  <LogP>
2.226000000000000e+000

>  <rotating_bonds>
1.000000000000000e+000

>  <hb_acceptors>
3.000000000000000e+000

>  <hb_donors>
0.000000000000000e+000

>  <PSA>
3.761000000000000e+001

>  <clusterid>
-1402

>  <is_centroid>
@

>  <class1>
660

>  <class2>
639

>  <population1>
3949

>  <population2>
59855

>  <population>
144

>  <cansmi>
CC1CCN(CC1)C(=O)c1cn2c(n1)cc(cc2)C

>  <HBA2>
4

>  <HBD>
0

>  <logP>
2.4527

>  <TPSA>
37.61

>  <MW>
257.331

$$$$

 OpenBabel02121609142D

 20 22  0  0  0  0  0  0  0  0999 V2000
    1.4667   -1.4792    0.0000 N   0  0  0  0  0  0  0  0  0  0  0  0
   -1.1083    2.4583    0.0000 N   0  0  0  0  0  0  0  0  0  0  0  0
    0.4917   -1.2750    0.0000 C   0  0  0  0  0  0  0  0  0  0  0  0
   -1.1083    0.8375    0.0000 C   0  0  0  0  0  0  0  0  0  0  0  0
   -0.5208    1.6458    0.0000 C   0  0  0  0  0  0  0  0  0  0  0  0
   -2.0583    1.1458    0.0000 C   0  0  0  0  0  0  0  0  0  0  0  0
   -2.0583    2.1458    0.0000 C   0  0  0  0  0  0  0  0  0  0  0  0
    2.1292   -0.7375    0.0000 C   0  0  0  0  0  0  0  0  0  0  0  0
    0.1792   -0.3250    0.0000 C   0  0  0  0  0  0  0  0  0  0  0  0
   -0.7958   -0.1167    0.0000 C   0  0  0  0  0  0  0  0  0  0  0  0
   -0.1833   -2.0167    0.0000 O   0  0  0  0  0  0  0  0  0  0  0  0
    3.4250   -1.8917    0.0000 O   0  0  0  0  0  0  0  0  0  0  0  0
    3.1167   -0.9417    0.0000 C   0  0  3  0  0  0  0  0  0  0  0  0
    1.7792   -2.4292    0.0000 C   0  0  0  0  0  0  0  0  0  0  0  0
    2.7542   -2.6417    0.0000 C   0  0  0  0  0  0  0  0  0  0  0  0
   -2.9250    0.6458    0.0000 C   0  0  0  0  0  0  0  0  0  0  0  0
   -2.9250    2.6458    0.0000 C   0  0  0  0  0  0  0  0  0  0  0  0
    3.7792   -0.2042    0.0000 C   0  0  0  0  0  0  0  0  0  0  0  0
   -3.7875    1.1458    0.0000 C   0  0  0  0  0  0  0  0  0  0  0  0
   -3.7875    2.1458    0.0000 C   0  0  0  0  0  0  0  0  0  0  0  0
  2  5  1  0  0  0  0
  2  7  1  0  0  0  0
  3  1  1  0  0  0  0
  4 10  1  0  0  0  0
  5  4  2  0  0  0  0
  6  4  1  0  0  0  0
  7  6  2  0  0  0  0
  8  1  1  0  0  0  0
  9  3  1  0  0  0  0
 10  9  1  0  0  0  0
 11  3  2  0  0  0  0
 12 15  1  0  0  0  0
 13  8  1  0  0  0  0
 13 12  1  0  0  0  0
 14  1  1  0  0  0  0
 15 14  1  0  0  0  0
 16  6  1  0  0  0  0
 17  7  1  0  0  0  0
 17 20  2  0  0  0  0
 18 13  1  0  0  0  0
 19 16  2  0  0  0  0
 20 19  1  0  0  0  0
M  END
>  <idnumber>
T5835926

>  <LogP>
1.793000000000000e+000

>  <rotating_bonds>
3.000000000000000e+000

>  <hb_acceptors>
2.000000000000000e+000

>  <hb_donors>
1.000000000000000e+000

>  <PSA>
4.533000000000001e+001

>  <clusterid>
-1404

>  <is_centroid>
@

>  <class1>
748

>  <class2>
786

>  <population1>
15713

>  <population2>
48067

>  <population>
510

>  <cansmi>
CC1OCCN(C1)C(=O)CCc1c[nH]c2c1cccc2

>  <HBA2>
3

>  <HBD>
1

>  <logP>
2.2857

>  <TPSA>
45.33

>  <MW>
272.342

$$$$

 OpenBabel02121609142D

 16 18  0  0  0  0  0  0  0  0999 V2000
   -0.4583    0.0125    0.0000 N   0  0  0  0  0  0  0  0  0  0  0  0
    0.1292   -0.7917    0.0000 C   0  0  0  0  0  0  0  0  0  0  0  0
   -0.4583   -1.6042    0.0000 N   0  0  0  0  0  0  0  0  0  0  0  0
   -1.4083   -0.2917    0.0000 C   0  0  0  0  0  0  0  0  0  0  0  0
   -1.4083   -1.2917    0.0000 C   0  0  0  0  0  0  0  0  0  0  0  0
    1.6292    0.0708    0.0000 N   0  0  0  0  0  0  0  0  0  0  0  0
    1.1292   -0.7917    0.0000 C   0  0  0  0  0  0  0  0  0  0  0  0
    2.6292    1.8000    0.0000 O   0  0  0  0  0  0  0  0  0  0  0  0
    1.1292    0.9333    0.0000 C   0  0  0  0  0  0  0  0  0  0  0  0
    2.6292    0.0708    0.0000 C   0  0  0  0  0  0  0  0  0  0  0  0
   -2.2708    0.2083    0.0000 C   0  0  0  0  0  0  0  0  0  0  0  0
   -2.2708   -1.7917    0.0000 C   0  0  0  0  0  0  0  0  0  0  0  0
    3.1292    0.9333    0.0000 C   0  0  0  0  0  0  0  0  0  0  0  0
    1.6292    1.8000    0.0000 C   0  0  0  0  0  0  0  0  0  0  0  0
   -3.1375   -1.2917    0.0000 C   0  0  0  0  0  0  0  0  0  0  0  0
   -3.1375   -0.2917    0.0000 C   0  0  0  0  0  0  0  0  0  0  0  0
  2  1  2  0  0  0  0
  3  2  1  0  0  0  0
  4  1  1  0  0  0  0
  5  4  2  0  0  0  0
  5  3  1  0  0  0  0
  6  7  1  0  0  0  0
  7  2  1  0  0  0  0
  8 13  1  0  0  0  0
  9  6  1  0  0  0  0
 10  6  1  0  0  0  0
 11  4  1  0  0  0  0
 12  5  1  0  0  0  0
 12 15  2  0  0  0  0
 13 10  1  0  0  0  0
 14  9  1  0  0  0  0
 14  8  1  0  0  0  0
 15 16  1  0  0  0  0
 16 11  2  0  0  0  0
M  END
>  <idnumber>
T5837560

>  <LogP>
1.312000000000000e+000

>  <rotating_bonds>
2.000000000000000e+000

>  <hb_acceptors>
3.000000000000000e+000

>  <hb_donors>
1.000000000000000e+000

>  <PSA>
4.114999999999996e+001

>  <clusterid>
-1407

>  <is_centroid>
@

>  <class1>
685

>  <class2>
786

>  <population1>
28767

>  <population2>
48067

>  <population>
1248

>  <cansmi>
O1CCN(CC1)Cc1nc2c([nH]1)cccc2

>  <HBA2>
3

>  <HBD>
1

>  <logP>
1.333

>  <TPSA>
41.15

>  <MW>
217.267

$$$$

 OpenBabel02121609142D

 19 21  0  0  0  0  0  0  0  0999 V2000
    0.0917    1.6708    0.0000 C   0  0  0  0  0  0  0  0  0  0  0  0
   -0.8583    1.9833    0.0000 O   0  0  0  0  0  0  0  0  0  0  0  0
    0.0917    0.6708    0.0000 N   0  0  0  0  0  0  0  0  0  0  0  0
   -0.8583    0.3625    0.0000 N   0  0  0  0  0  0  0  0  0  0  0  0
   -1.4458    1.1708    0.0000 C   0  0  0  0  0  0  0  0  0  0  0  0
    0.9042    2.2583    0.0000 C   0  0  0  0  0  0  0  0  0  0  0  0
   -1.1708   -0.5917    0.0000 C   0  0  0  0  0  0  0  0  0  0  0  0
    0.9042    3.2583    0.0000 O   0  0  0  0  0  0  0  0  0  0  0  0
   -2.4458    1.1708    0.0000 O   0  0  0  0  0  0  0  0  0  0  0  0
    1.8542    1.9583    0.0000 C   0  0  0  0  0  0  0  0  0  0  0  0
    1.8542    3.5708    0.0000 C   0  0  0  0  0  0  0  0  0  0  0  0
    2.4417    2.7583    0.0000 C   0  0  0  0  0  0  0  0  0  0  0  0
   -0.4958   -1.3292    0.0000 C   0  0  0  0  0  0  0  0  0  0  0  0
    0.8417   -2.8167    0.0000 C   0  0  0  0  0  0  0  0  0  0  0  0
    0.4792   -1.1250    0.0000 C   0  0  0  0  0  0  0  0  0  0  0  0
   -0.8083   -2.2792    0.0000 C   0  0  0  0  0  0  0  0  0  0  0  0
    1.1500   -1.8667    0.0000 C   0  0  0  0  0  0  0  0  0  0  0  0
   -0.1375   -3.0292    0.0000 C   0  0  0  0  0  0  0  0  0  0  0  0
    1.5042   -3.5625    0.0000 C   0  0  0  0  0  0  0  0  0  0  0  0
  2  1  1  0  0  0  0
  3  1  2  0  0  0  0
  4  3  1  0  0  0  0
  4  5  1  0  0  0  0
  5  2  1  0  0  0  0
  6  1  1  0  0  0  0
  7  4  1  0  0  0  0
  8  6  1  0  0  0  0
  9  5  2  0  0  0  0
 10  6  2  0  0  0  0
 11  8  1  0  0  0  0
 12 10  1  0  0  0  0
 12 11  2  0  0  0  0
 13  7  1  0  0  0  0
 14 18  2  0  0  0  0
 14 17  1  0  0  0  0
 15 13  1  0  0  0  0
 16 13  2  0  0  0  0
 17 15  2  0  0  0  0
 18 16  1  0  0  0  0
 19 14  1  0  0  0  0
M  END
>  <idnumber>
T5837625

>  <LogP>
2.854000000000000e+000

>  <rotating_bonds>
3.000000000000000e+000

>  <hb_acceptors>
3.000000000000000e+000

>  <hb_donors>
0.000000000000000e+000

>  <PSA>
5.503999999999999e+001

>  <clusterid>
-1408

>  <is_centroid>
@

>  <class1>
625

>  <class2>
740

>  <class3>
704

>  <population1>
877209

>  <population2>
1052

>  <population3>
51112

>  <population>
98

>  <cansmi>
Cc1ccc(cc1)Cn1nc(oc1=O)c1ccco1

>  <HBA2>
5

>  <HBD>
0

>  <logP>
2.453

>  <TPSA>
61.17

>  <MW>
256.257

$$$$

 OpenBabel02121609142D

 22 25  0  0  0  0  0  0  0  0999 V2000
   -0.5708    1.5583    0.0000 C   0  0  0  0  0  0  0  0  0  0  0  0
    0.6625   -2.2417    0.0000 C   0  0  0  0  0  0  0  0  0  0  0  0
    1.6417   -2.4500    0.0000 C   0  0  0  0  0  0  0  0  0  0  0  0
    0.0167    2.3708    0.0000 C   0  0  0  0  0  0  0  0  0  0  0  0
    0.3542   -1.2917    0.0000 N   0  0  0  0  0  0  0  0  0  0  0  0
   -0.5708    3.1833    0.0000 N   0  0  0  0  0  0  0  0  0  0  0  0
   -1.5250    1.8708    0.0000 C   0  0  0  0  0  0  0  0  0  0  0  0
   -1.5250    2.8708    0.0000 C   0  0  0  0  0  0  0  0  0  0  0  0
    2.3792   -1.7792    0.0000 C   0  0  0  0  0  0  0  0  0  0  0  0
   -0.2625    0.6083    0.0000 C   0  0  0  0  0  0  0  0  0  0  0  0
    2.0500   -3.3667    0.0000 C   0  0  0  0  0  0  0  0  0  0  0  0
    3.2500   -2.2792    0.0000 O   0  0  0  0  0  0  0  0  0  0  0  0
   -0.0083   -2.9875    0.0000 O   0  0  0  0  0  0  0  0  0  0  0  0
   -0.6250   -1.0792    0.0000 C   0  0  0  0  0  0  0  0  0  0  0  0
    1.0250   -0.5500    0.0000 C   0  0  0  0  0  0  0  0  0  0  0  0
    3.0417   -3.2625    0.0000 C   0  0  0  0  0  0  0  0  0  0  0  0
   -0.9333   -0.1292    0.0000 C   0  0  0  0  0  0  0  0  0  0  0  0
    0.7167    0.4000    0.0000 C   0  0  0  0  0  0  0  0  0  0  0  0
   -2.3875    1.3708    0.0000 C   0  0  0  0  0  0  0  0  0  0  0  0
   -2.3875    3.3708    0.0000 C   0  0  0  0  0  0  0  0  0  0  0  0
   -3.2583    1.8708    0.0000 C   0  0  0  0  0  0  0  0  0  0  0  0
   -3.2583    2.8708    0.0000 C   0  0  0  0  0  0  0  0  0  0  0  0
  2  5  1  0  0  0  0
  3  2  1  0  0  0  0
  4  1  2  0  0  0  0
  5 15  1  0  0  0  0
  6  4  1  0  0  0  0
  6  8  1  0  0  0  0
  7  1  1  0  0  0  0
  8  7  2  0  0  0  0
  9  3  2  0  0  0  0
 10  1  1  0  0  0  0
 11  3  1  0  0  0  0
 12  9  1  0  0  0  0
 13  2  2  0  0  0  0
 14 17  1  0  0  0  0
 14  5  1  0  0  0  0
 15 18  1  0  0  0  0
 16 11  2  0  0  0  0
 16 12  1  0  0  0  0
 17 10  1  0  0  0  0
 18 10  1  0  0  0  0
 19  7  1  0  0  0  0
 20  8  1  0  0  0  0
 20 22  2  0  0  0  0
 21 19  2  0  0  0  0
 22 21  1  0  0  0  0
M  END
>  <idnumber>
T5837898

>  <LogP>
2.374000000000000e+000

>  <rotating_bonds>
2.000000000000000e+000

>  <hb_acceptors>
1.000000000000000e+000

>  <hb_donors>
1.000000000000000e+000

>  <PSA>
4.924000000000000e+001

>  <clusterid>
-1409

>  <is_centroid>
@

>  <class1>
704

>  <class2>
639

>  <class3>
748

>  <population1>
51112

>  <population2>
59855

>  <population3>
15713

>  <population>
11

>  <cansmi>
O=C(c1cocc1)N1CCC(CC1)c1c[nH]c2c1cccc2

>  <HBA2>
3

>  <HBD>
1

>  <logP>
3.7186

>  <TPSA>
49.24

>  <MW>
294.348

$$$$

 OpenBabel02121609142D

 19 21  0  0  0  0  0  0  0  0999 V2000
   -0.6958    1.0833    0.0000 N   0  0  0  0  0  0  0  0  0  0  0  0
    0.2542    0.7708    0.0000 N   0  0  0  0  0  0  0  0  0  0  0  0
   -0.6958   -0.5375    0.0000 C   0  0  0  0  0  0  0  0  0  0  0  0
   -1.2833    0.2708    0.0000 C   0  0  0  0  0  0  0  0  0  0  0  0
   -0.3375   -2.2292    0.0000 N   0  0  0  0  0  0  0  0  0  0  0  0
    0.2542   -0.2292    0.0000 C   0  0  0  0  0  0  0  0  0  0  0  0
    1.3125   -2.7667    0.0000 C   0  0  0  0  0  0  0  0  0  0  0  0
    1.0000   -3.7167    0.0000 N   0  0  0  0  0  0  0  0  0  0  0  0
   -1.0083   -1.4917    0.0000 C   0  0  0  0  0  0  0  0  0  0  0  0
   -1.0083    2.0333    0.0000 C   0  0  0  0  0  0  0  0  0  0  0  0
    0.6417   -2.0250    0.0000 C   0  0  0  0  0  0  0  0  0  0  0  0
    2.2875   -2.5625    0.0000 O   0  0  0  0  0  0  0  0  0  0  0  0
    0.0250   -3.9292    0.0000 C   0  0  0  0  0  0  0  0  0  0  0  0
   -0.6458   -3.1792    0.0000 C   0  0  0  0  0  0  0  0  0  0  0  0
   -1.9833    2.2375    0.0000 C   0  0  0  0  0  0  0  0  0  0  0  0
   -0.3375    2.7708    0.0000 C   0  0  0  0  0  0  0  0  0  0  0  0
   -0.6458    3.7333    0.0000 C   0  0  0  0  0  0  0  0  0  0  0  0
   -2.2958    3.1875    0.0000 C   0  0  0  0  0  0  0  0  0  0  0  0
   -1.6250    3.9333    0.0000 C   0  0  0  0  0  0  0  0  0  0  0  0
  2  1  1  0  0  0  0
  3  4  2  0  0  0  0
  3  6  1  0  0  0  0
  4  1  1  0  0  0  0
  5  9  1  0  0  0  0
  6  2  2  0  0  0  0
  7 11  1  0  0  0  0
  7  8  1  0  0  0  0
  8 13  1  0  0  0  0
  9  3  1  0  0  0  0
 10  1  1  0  0  0  0
 11  5  1  0  0  0  0
 12  7  2  0  0  0  0
 13 14  1  0  0  0  0
 14  5  1  0  0  0  0
 15 10  2  0  0  0  0
 16 10  1  0  0  0  0
 17 16  2  0  0  0  0
 18 15  1  0  0  0  0
 18 19  2  0  0  0  0
 19 17  1  0  0  0  0
M  END
>  <idnumber>
T5840847

>  <LogP>
1.589000000000000e+000

>  <rotating_bonds>
3.000000000000000e+000

>  <hb_acceptors>
3.000000000000000e+000

>  <hb_donors>
1.000000000000000e+000

>  <PSA>
5.016000000000000e+001

>  <clusterid>
-1410

>  <is_centroid>
@

>  <class1>
631

>  <class2>
625

>  <class3>
688

>  <population1>
41612

>  <population2>
877209

>  <population3>
1117

>  <population>
52

>  <cansmi>
O=C1NCCN(C1)Cc1cnn(c1)c1ccccc1

>  <HBA2>
5

>  <HBD>
1

>  <logP>
1.0708

>  <TPSA>
50.16

>  <MW>
256.303

$$$$

 OpenBabel02121609142D

 19 21  0  0  0  0  0  0  0  0999 V2000
   -0.2833    0.4208    0.0000 N   0  0  0  0  0  0  0  0  0  0  0  0
   -1.2333    0.7333    0.0000 C   0  0  0  0  0  0  0  0  0  0  0  0
    0.0250   -0.5292    0.0000 C   0  0  3  0  0  0  0  0  0  0  0  0
    0.3042    1.2333    0.0000 C   0  0  0  0  0  0  0  0  0  0  0  0
   -0.6458   -1.2750    0.0000 C   0  0  0  0  0  0  0  0  0  0  0  0
   -1.2333    1.7333    0.0000 C   0  0  0  0  0  0  0  0  0  0  0  0
   -0.2833    2.0375    0.0000 C   0  0  0  0  0  0  0  0  0  0  0  0
   -1.6208   -1.0667    0.0000 O   0  0  0  0  0  0  0  0  0  0  0  0
    1.0042   -0.7375    0.0000 C   0  0  0  0  0  0  0  0  0  0  0  0
   -0.3333   -2.2250    0.0000 N   0  0  0  0  0  0  0  0  0  0  0  0
   -2.1000    0.2333    0.0000 C   0  0  0  0  0  0  0  0  0  0  0  0
   -2.1000    2.2333    0.0000 C   0  0  0  0  0  0  0  0  0  0  0  0
    1.3125   -1.6917    0.0000 C   0  0  0  0  0  0  0  0  0  0  0  0
    1.6750    0.0083    0.0000 C   0  0  0  0  0  0  0  0  0  0  0  0
   -2.9708    0.7333    0.0000 C   0  0  0  0  0  0  0  0  0  0  0  0
   -2.9708    1.7333    0.0000 C   0  0  0  0  0  0  0  0  0  0  0  0
    2.6542   -0.2042    0.0000 C   0  0  0  0  0  0  0  0  0  0  0  0
    2.2917   -1.8917    0.0000 C   0  0  0  0  0  0  0  0  0  0  0  0
    2.9625   -1.1542    0.0000 C   0  0  0  0  0  0  0  0  0  0  0  0
  2  1  1  0  0  0  0
  3  1  1  0  0  0  0
  4  1  1  0  0  0  0
  5  3  1  0  0  0  0
  6  2  2  0  0  0  0
  7  4  1  0  0  0  0
  7  6  1  0  0  0  0
  8  5  2  0  0  0  0
  9  3  1  0  0  0  0
 10  5  1  0  0  0  0
 11  2  1  0  0  0  0
 12  6  1  0  0  0  0
 12 16  2  0  0  0  0
 13  9  1  0  0  0  0
 14  9  2  0  0  0  0
 15 11  2  0  0  0  0
 16 15  1  0  0  0  0
 17 14  1  0  0  0  0
 18 13  2  0  0  0  0
 18 19  1  0  0  0  0
 19 17  2  0  0  0  0
M  END
>  <idnumber>
T5840965

>  <LogP>
2.704000000000000e+000

>  <rotating_bonds>
3.000000000000000e+000

>  <hb_acceptors>
2.000000000000000e+000

>  <hb_donors>
1.000000000000000e+000

>  <PSA>
4.633000000000000e+001

>  <clusterid>
747

>  <is_centroid>
@

>  <class1>
625

>  <class2>
732

>  <population1>
877209

>  <population2>
13534

>  <population>
13534

>  <cansmi>
NC(=O)C(N1CCc2c1cccc2)c1ccccc1

>  <HBA2>
3

>  <HBD>
1

>  <logP>
3.041

>  <TPSA>
46.33

>  <MW>
252.311

$$$$

 OpenBabel02121609142D

 18 20  0  0  0  0  0  0  0  0999 V2000
    0.7667   -0.5000    0.0000 C   0  0  0  0  0  0  0  0  0  0  0  0
   -0.1000    0.0000    0.0000 N   0  0  0  0  0  0  0  0  0  0  0  0
    1.6292    0.0000    0.0000 C   0  0  0  0  0  0  0  0  0  0  0  0
   -1.8333    0.0000    0.0000 C   0  0  0  0  0  0  0  0  0  0  0  0
   -1.8333    1.0000    0.0000 C   0  0  0  0  0  0  0  0  0  0  0  0
   -0.9708   -0.5000    0.0000 C   0  0  0  0  0  0  0  0  0  0  0  0
   -2.7833    1.3125    0.0000 S   0  0  0  0  0  0  0  0  0  0  0  0
   -0.9708    1.5000    0.0000 C   0  0  0  0  0  0  0  0  0  0  0  0
   -0.1000    1.0000    0.0000 C   0  0  0  0  0  0  0  0  0  0  0  0
   -3.3708    0.5000    0.0000 C   0  0  0  0  0  0  0  0  0  0  0  0
   -2.7833   -0.3042    0.0000 C   0  0  0  0  0  0  0  0  0  0  0  0
    2.5000   -0.5000    0.0000 C   0  0  0  0  0  0  0  0  0  0  0  0
    0.7667   -1.5000    0.0000 O   0  0  0  0  0  0  0  0  0  0  0  0
    2.5000   -1.5000    0.0000 F   0  0  0  0  0  0  0  0  0  0  0  0
    1.6292    1.0000    0.0000 C   0  0  0  0  0  0  0  0  0  0  0  0
    3.3667    0.0000    0.0000 C   0  0  0  0  0  0  0  0  0  0  0  0
    2.5000    1.5000    0.0000 C   0  0  0  0  0  0  0  0  0  0  0  0
    3.3667    1.0000    0.0000 C   0  0  0  0  0  0  0  0  0  0  0  0
  2  1  1  0  0  0  0
  3  1  1  0  0  0  0
  4  6  1  0  0  0  0
  4  5  2  0  0  0  0
  5  8  1  0  0  0  0
  6  2  1  0  0  0  0
  7  5  1  0  0  0  0
  7 10  1  0  0  0  0
  8  9  1  0  0  0  0
  9  2  1  0  0  0  0
 10 11  2  0  0  0  0
 11  4  1  0  0  0  0
 12  3  2  0  0  0  0
 13  1  2  0  0  0  0
 14 12  1  0  0  0  0
 15  3  1  0  0  0  0
 16 12  1  0  0  0  0
 16 18  2  0  0  0  0
 17 15  2  0  0  0  0
 18 17  1  0  0  0  0
M  END
>  <idnumber>
T5841720

>  <LogP>
2.945000000000000e+000

>  <rotating_bonds>
1.000000000000000e+000

>  <hb_acceptors>
3.000000000000000e+000

>  <hb_donors>
0.000000000000000e+000

>  <PSA>
4.855000000000000e+001

>  <clusterid>
749

>  <is_centroid>
@

>  <class1>
625

>  <class2>
709

>  <population1>
877209

>  <population2>
2293

>  <population>
1900

>  <cansmi>
Fc1ccccc1C(=O)N1CCc2c(C1)ccs2

>  <HBA2>
3

>  <HBD>
0

>  <logP>
3.0236

>  <TPSA>
48.55

>  <MW>
261.315

$$$$

 OpenBabel02121609142D

 18 19  0  0  0  0  0  0  0  0999 V2000
    0.2250   -1.4042    0.0000 N   0  0  0  0  0  0  0  0  0  0  0  0
   -1.5083   -1.4042    0.0000 C   0  0  0  0  0  0  0  0  0  0  0  0
   -0.6458   -0.9042    0.0000 C   0  0  3  0  0  0  0  0  0  0  0  0
   -0.6458    0.0958    0.0000 C   0  0  0  0  0  0  0  0  0  0  0  0
   -1.5083   -2.4042    0.0000 O   0  0  0  0  0  0  0  0  0  0  0  0
    0.2250    0.5958    0.0000 C   0  0  0  0  0  0  0  0  0  0  0  0
   -1.5083    0.5958    0.0000 C   0  0  0  0  0  0  0  0  0  0  0  0
   -2.3750   -0.9042    0.0000 N   0  0  0  0  0  0  0  0  0  0  0  0
   -0.6458    2.0958    0.0000 C   0  0  0  0  0  0  0  0  0  0  0  0
   -1.5083    1.5958    0.0000 C   0  0  0  0  0  0  0  0  0  0  0  0
    0.2250    1.5958    0.0000 C   0  0  0  0  0  0  0  0  0  0  0  0
   -0.6458    3.0958    0.0000 F   0  0  0  0  0  0  0  0  0  0  0  0
    1.0500   -0.8417    0.0000 C   0  0  0  0  0  0  0  0  0  0  0  0
    0.1500   -2.4042    0.0000 C   0  0  0  0  0  0  0  0  0  0  0  0
    0.8792   -3.0875    0.0000 C   0  0  0  0  0  0  0  0  0  0  0  0
    2.0042   -1.1417    0.0000 C   0  0  0  0  0  0  0  0  0  0  0  0
    2.3667   -2.0667    0.0000 C   0  0  0  0  0  0  0  0  0  0  0  0
    1.8667   -2.9375    0.0000 C   0  0  0  0  0  0  0  0  0  0  0  0
  2  3  1  0  0  0  0
  3  1  1  0  0  0  0
  4  3  1  0  0  0  0
  5  2  2  0  0  0  0
  6  4  1  0  0  0  0
  7  4  2  0  0  0  0
  8  2  1  0  0  0  0
  9 10  2  0  0  0  0
 10  7  1  0  0  0  0
 11  6  2  0  0  0  0
 11  9  1  0  0  0  0
 12  9  1  0  0  0  0
 13  1  1  0  0  0  0
 14  1  1  0  0  0  0
 15 14  1  0  0  0  0
 16 13  1  0  0  0  0
 17 16  1  0  0  0  0
 18 15  1  0  0  0  0
 18 17  1  0  0  0  0
M  END
>  <idnumber>
T5843033

>  <LogP>
2.584000000000000e+000

>  <rotating_bonds>
3.000000000000000e+000

>  <hb_acceptors>
3.000000000000000e+000

>  <hb_donors>
1.000000000000000e+000

>  <PSA>
4.633000000000000e+001

>  <clusterid>
-1413

>  <is_centroid>
@

>  <class1>
702

>  <class2>
625

>  <population1>
14026

>  <population2>
877209

>  <population>
12779

>  <cansmi>
NC(=O)C(c1ccc(cc1)F)N1CCCCCC1

>  <HBA2>
3

>  <HBD>
1

>  <logP>
2.8663

>  <TPSA>
46.33

>  <MW>
250.312

$$$$

 OpenBabel02121609142D

 10 10  0  0  0  0  0  0  0  0999 V2000
    0.0417   -0.1417    0.0000 C   0  0  0  0  0  0  0  0  0  0  0  0
    0.8167    0.4958    0.0000 O   0  0  0  0  0  0  0  0  0  0  0  0
    1.6542   -0.0417    0.0000 C   0  0  0  0  0  0  0  0  0  0  0  0
   -0.9250    0.1125    0.0000 C   0  0  0  0  0  0  0  0  0  0  0  0
    0.4125   -1.0667    0.0000 C   0  0  0  0  0  0  0  0  0  0  0  0
    1.4042   -1.0042    0.0000 C   0  0  0  0  0  0  0  0  0  0  0  0
   -1.1958    1.0750    0.0000 O   0  0  0  0  0  0  0  0  0  0  0  0
   -1.6250   -0.6042    0.0000 N   0  0  0  0  0  0  0  0  0  0  0  0
    2.5875    0.3250    0.0000 Br  0  0  0  0  0  0  0  0  0  0  0  0
   -2.5958   -0.3542    0.0000 C   0  0  0  0  0  0  0  0  0  0  0  0
  2  1  1  0  0  0  0
  3  2  1  0  0  0  0
  4  1  1  0  0  0  0
  5  1  2  0  0  0  0
  6  5  1  0  0  0  0
  6  3  2  0  0  0  0
  7  4  2  0  0  0  0
  8  4  1  0  0  0  0
  9  3  1  0  0  0  0
 10  8  1  0  0  0  0
M  END
>  <idnumber>
T5843220

>  <LogP>
1.102000000000000e+000

>  <rotating_bonds>
1.000000000000000e+000

>  <hb_acceptors>
1.000000000000000e+000

>  <hb_donors>
1.000000000000000e+000

>  <PSA>
4.224000000000000e+001

>  <clusterid>
-1414

>  <is_centroid>
@

>  <class1>
704

>  <population1>
51112

>  <population>
51112

>  <cansmi>
CNC(=O)c1ccc(o1)Br

>  <HBA2>
3

>  <HBD>
1

>  <logP>
1.7926

>  <TPSA>
42.24

>  <MW>
204.021

$$$$

 OpenBabel02121609142D

 17 19  0  0  0  0  0  0  0  0999 V2000
    0.9667    0.0000    0.0000 N   0  0  0  0  0  0  0  0  0  0  0  0
    0.9667   -0.9917    0.0000 C   0  0  0  0  0  0  0  0  0  0  0  0
    0.0167    0.3125    0.0000 N   0  0  0  0  0  0  0  0  0  0  0  0
    0.0167   -1.3042    0.0000 C   0  0  0  0  0  0  0  0  0  0  0  0
    1.8292    0.5083    0.0000 C   0  0  0  0  0  0  0  0  0  0  0  0
   -0.5708   -0.5000    0.0000 C   0  0  0  0  0  0  0  0  0  0  0  0
    2.7000    0.0000    0.0000 C   0  0  0  0  0  0  0  0  0  0  0  0
    1.8292   -1.5000    0.0000 N   0  0  0  0  0  0  0  0  0  0  0  0
    2.7000   -0.9917    0.0000 C   0  0  0  0  0  0  0  0  0  0  0  0
    1.8292    1.5000    0.0000 O   0  0  0  0  0  0  0  0  0  0  0  0
   -1.5708   -0.5000    0.0000 C   0  0  0  0  0  0  0  0  0  0  0  0
    3.5667   -1.5000    0.0000 C   0  0  0  0  0  0  0  0  0  0  0  0
   -2.0708    0.3708    0.0000 C   0  0  0  0  0  0  0  0  0  0  0  0
   -2.0708   -1.3625    0.0000 C   0  0  0  0  0  0  0  0  0  0  0  0
   -3.0708   -1.3625    0.0000 C   0  0  0  0  0  0  0  0  0  0  0  0
   -3.0708    0.3708    0.0000 C   0  0  0  0  0  0  0  0  0  0  0  0
   -3.5708   -0.5000    0.0000 C   0  0  0  0  0  0  0  0  0  0  0  0
  2  1  1  0  0  0  0
  3  1  1  0  0  0  0
  4  2  2  0  0  0  0
  5  1  1  0  0  0  0
  6  3  2  0  0  0  0
  6  4  1  0  0  0  0
  7  5  1  0  0  0  0
  8  2  1  0  0  0  0
  8  9  1  0  0  0  0
  9  7  2  0  0  0  0
 10  5  2  0  0  0  0
 11  6  1  0  0  0  0
 12  9  1  0  0  0  0
 13 11  1  0  0  0  0
 14 11  2  0  0  0  0
 15 14  1  0  0  0  0
 16 13  2  0  0  0  0
 16 17  1  0  0  0  0
 17 15  2  0  0  0  0
M  END
>  <idnumber>
T5844014

>  <LogP>
1.817000000000000e+000

>  <rotating_bonds>
1.000000000000000e+000

>  <hb_acceptors>
3.000000000000000e+000

>  <hb_donors>
1.000000000000000e+000

>  <PSA>
4.692000000000000e+001

>  <clusterid>
-1420

>  <is_centroid>
@

>  <class1>
658

>  <class2>
625

>  <population1>
36

>  <population2>
877209

>  <population>
32

>  <cansmi>
Cc1cc(=O)n2c([nH]1)cc(n2)c1ccccc1

>  <HBA2>
3

>  <HBD>
1

>  <logP>
1.998

>  <TPSA>
50.16

>  <MW>
225.246

$$$$

 OpenBabel02121609142D

 19 21  0  0  0  0  0  0  0  0999 V2000
    0.8667    0.8833    0.0000 C   0  0  0  0  0  0  0  0  0  0  0  0
    0.8667    1.8833    0.0000 C   0  0  0  0  0  0  0  0  0  0  0  0
   -0.0833    0.5708    0.0000 C   0  0  0  0  0  0  0  0  0  0  0  0
   -0.0833    2.1958    0.0000 N   0  0  0  0  0  0  0  0  0  0  0  0
   -0.6708    1.3833    0.0000 C   0  0  0  0  0  0  0  0  0  0  0  0
   -1.8875   -1.3542    0.0000 C   0  0  0  0  0  0  0  0  0  0  0  0
   -1.4833   -0.4417    0.0000 C   0  0  0  0  0  0  0  0  0  0  0  0
   -0.4875   -0.3417    0.0000 C   0  0  0  0  0  0  0  0  0  0  0  0
    1.7375    0.3833    0.0000 C   0  0  0  0  0  0  0  0  0  0  0  0
   -2.8833   -1.4625    0.0000 N   0  0  0  0  0  0  0  0  0  0  0  0
    1.7375    2.3833    0.0000 C   0  0  0  0  0  0  0  0  0  0  0  0
   -1.3000   -2.1667    0.0000 O   0  0  0  0  0  0  0  0  0  0  0  0
   -1.6625    1.2750    0.0000 C   0  0  0  0  0  0  0  0  0  0  0  0
   -2.0708    0.3625    0.0000 C   0  0  0  0  0  0  0  0  0  0  0  0
    2.6000    0.8833    0.0000 C   0  0  3  0  0  0  0  0  0  0  0  0
    2.6000    1.8833    0.0000 C   0  0  0  0  0  0  0  0  0  0  0  0
   -3.4708   -0.6542    0.0000 C   0  0  0  0  0  0  0  0  0  0  0  0
   -3.2958   -2.3792    0.0000 C   0  0  0  0  0  0  0  0  0  0  0  0
    3.4667    0.3833    0.0000 C   0  0  0  0  0  0  0  0  0  0  0  0
  2  1  2  0  0  0  0
  3  1  1  0  0  0  0
  4  2  1  0  0  0  0
  4  5  1  0  0  0  0
  5  3  2  0  0  0  0
  6  7  1  0  0  0  0
  7  8  2  0  0  0  0
  8  3  1  0  0  0  0
  9  1  1  0  0  0  0
 10  6  1  0  0  0  0
 11  2  1  0  0  0  0
 12  6  2  0  0  0  0
 13  5  1  0  0  0  0
 13 14  2  0  0  0  0
 14  7  1  0  0  0  0
 15  9  1  0  0  0  0
 16 15  1  0  0  0  0
 16 11  1  0  0  0  0
 17 10  1  0  0  0  0
 18 10  1  0  0  0  0
 19 15  1  0  0  0  0
M  END
>  <idnumber>
T5844212

>  <LogP>
2.994000000000000e+000

>  <rotating_bonds>
1.000000000000000e+000

>  <hb_acceptors>
1.000000000000000e+000

>  <hb_donors>
1.000000000000000e+000

>  <PSA>
3.610000000000000e+001

>  <clusterid>
601

>  <is_centroid>
@

>  <class1>
830

>  <population1>
426

>  <population>
426

>  <cansmi>
CC1CCc2c(C1)c1cc(ccc1[nH]2)C(=O)N(C)C

>  <HBA2>
2

>  <HBD>
1

>  <logP>
2.9945

>  <TPSA>
36.1

>  <MW>
256.343

$$$$

 OpenBabel02121609142D

 22 25  0  0  0  0  0  0  0  0999 V2000
   -1.5625    0.2500    0.0000 C   0  0  0  0  0  0  0  0  0  0  0  0
   -1.5625    1.2500    0.0000 C   0  0  0  0  0  0  0  0  0  0  0  0
    0.1667    0.2500    0.0000 N   0  0  0  0  0  0  0  0  0  0  0  0
    1.0292   -0.2500    0.0000 C   0  0  0  0  0  0  0  0  0  0  0  0
   -2.5125    1.5625    0.0000 N   0  0  0  0  0  0  0  0  0  0  0  0
   -0.6958   -0.2500    0.0000 C   0  0  0  0  0  0  0  0  0  0  0  0
   -2.5125   -0.0542    0.0000 C   0  0  0  0  0  0  0  0  0  0  0  0
   -3.1000    0.7500    0.0000 C   0  0  0  0  0  0  0  0  0  0  0  0
    1.9000    0.2500    0.0000 N   0  0  0  0  0  0  0  0  0  0  0  0
   -0.6958    1.7500    0.0000 C   0  0  0  0  0  0  0  0  0  0  0  0
    0.1667    1.2500    0.0000 C   0  0  0  0  0  0  0  0  0  0  0  0
    1.0292   -1.2500    0.0000 O   0  0  0  0  0  0  0  0  0  0  0  0
    2.7667   -0.2500    0.0000 C   0  0  0  0  0  0  0  0  0  0  0  0
   -2.9208   -0.9667    0.0000 C   0  0  0  0  0  0  0  0  0  0  0  0
   -4.0958    0.6458    0.0000 C   0  0  0  0  0  0  0  0  0  0  0  0
    3.6292    0.2500    0.0000 C   0  0  0  0  0  0  0  0  0  0  0  0
    2.7667   -1.2500    0.0000 C   0  0  0  0  0  0  0  0  0  0  0  0
   -3.9208   -1.0750    0.0000 C   0  0  0  0  0  0  0  0  0  0  0  0
   -4.5083   -0.2667    0.0000 C   0  0  0  0  0  0  0  0  0  0  0  0
    3.6292   -1.7417    0.0000 C   0  0  0  0  0  0  0  0  0  0  0  0
    4.5000   -0.2500    0.0000 C   0  0  0  0  0  0  0  0  0  0  0  0
    4.5000   -1.2500    0.0000 C   0  0  0  0  0  0  0  0  0  0  0  0
  2  1  2  0  0  0  0
  3  6  1  0  0  0  0
  4  3  1  0  0  0  0
  5  2  1  0  0  0  0
  5  8  1  0  0  0  0
  6  1  1  0  0  0  0
  7  1  1  0  0  0  0
  8  7  2  0  0  0  0
  9  4  1  0  0  0  0
 10  2  1  0  0  0  0
 11  3  1  0  0  0  0
 11 10  1  0  0  0  0
 12  4  2  0  0  0  0
 13  9  1  0  0  0  0
 14  7  1  0  0  0  0
 15  8  1  0  0  0  0
 15 19  2  0  0  0  0
 16 13  2  0  0  0  0
 17 13  1  0  0  0  0
 18 14  2  0  0  0  0
 19 18  1  0  0  0  0
 20 17  2  0  0  0  0
 21 16  1  0  0  0  0
 21 22  2  0  0  0  0
 22 20  1  0  0  0  0
M  END
>  <idnumber>
T5844611

>  <LogP>
2.500000000000000e+000

>  <rotating_bonds>
1.000000000000000e+000

>  <hb_acceptors>
1.000000000000000e+000

>  <hb_donors>
2.000000000000000e+000

>  <PSA>
4.813000000000000e+001

>  <clusterid>
-1426

>  <is_centroid>
@

>  <class1>
625

>  <class2>
749

>  <population1>
877209

>  <population2>
251

>  <population>
251

>  <cansmi>
O=C(N1CCc2c(C1)c1ccccc1[nH]2)Nc1ccccc1

>  <HBA2>
3

>  <HBD>
2

>  <logP>
3.769

>  <TPSA>
48.13

>  <MW>
291.347

$$$$

 OpenBabel02121609142D

 20 22  0  0  0  0  0  0  0  0999 V2000
    0.3625    1.1250    0.0000 C   0  0  0  0  0  0  0  0  0  0  0  0
   -0.2250    1.9333    0.0000 N   0  0  0  0  0  0  0  0  0  0  0  0
   -0.2250    0.3208    0.0000 N   0  0  0  0  0  0  0  0  0  0  0  0
    1.9500    0.3208    0.0000 N   0  0  0  0  0  0  0  0  0  0  0  0
    1.3625    1.1250    0.0000 C   0  0  3  0  0  0  0  0  0  0  0  0
   -1.1750    0.6250    0.0000 C   0  0  0  0  0  0  0  0  0  0  0  0
   -1.1750    1.6250    0.0000 C   0  0  0  0  0  0  0  0  0  0  0  0
    1.6417   -0.6292    0.0000 C   0  0  0  0  0  0  0  0  0  0  0  0
   -0.5833   -1.3792    0.0000 C   0  0  0  0  0  0  0  0  0  0  0  0
   -1.2583   -2.1167    0.0000 C   0  0  0  0  0  0  0  0  0  0  0  0
    0.0792   -0.6292    0.0000 C   0  0  0  0  0  0  0  0  0  0  0  0
    2.3125   -1.3792    0.0000 O   0  0  0  0  0  0  0  0  0  0  0  0
    2.9042    0.6250    0.0000 C   0  0  0  0  0  0  0  0  0  0  0  0
    1.9500    1.9333    0.0000 C   0  0  0  0  0  0  0  0  0  0  0  0
   -2.0458    0.1250    0.0000 C   0  0  0  0  0  0  0  0  0  0  0  0
   -2.0458    2.1250    0.0000 C   0  0  0  0  0  0  0  0  0  0  0  0
    0.6625   -0.8417    0.0000 C   0  0  0  0  0  0  0  0  0  0  0  0
    2.9042    1.6250    0.0000 C   0  0  0  0  0  0  0  0  0  0  0  0
   -2.9083    0.6250    0.0000 C   0  0  0  0  0  0  0  0  0  0  0  0
   -2.9083    1.6250    0.0000 C   0  0  0  0  0  0  0  0  0  0  0  0
  2  1  2  0  0  0  0
  3  1  1  0  0  0  0
  4  5  1  0  0  0  0
  5  1  1  0  0  0  0
  6  3  1  0  0  0  0
  7  2  1  0  0  0  0
  7  6  2  0  0  0  0
  8  4  1  0  0  0  0
  9 11  1  0  0  0  0
 10  9  3  0  0  0  0
 11  3  1  0  0  0  0
 12  8  2  0  0  0  0
 13  4  1  0  0  0  0
 13 18  1  0  0  0  0
 14  5  1  0  0  0  0
 15  6  1  0  0  0  0
 16  7  1  0  0  0  0
 17  8  1  0  0  0  0
 18 14  1  0  0  0  0
 19 15  2  0  0  0  0
 20 16  2  0  0  0  0
 20 19  1  0  0  0  0
M  END
>  <idnumber>
T5845185

>  <LogP>
5.189999999999999e-001

>  <rotating_bonds>
3.000000000000000e+000

>  <hb_acceptors>
2.000000000000000e+000

>  <hb_donors>
0.000000000000000e+000

>  <PSA>
3.813000000000000e+001

>  <clusterid>
-1427

>  <is_centroid>
@

>  <class1>
642

>  <class2>
685

>  <population1>
51183

>  <population2>
28767

>  <population>
2215

>  <cansmi>
C#CCn1c(nc2c1cccc2)C1CCCN1C(=O)C

>  <HBA2>
4

>  <HBD>
0

>  <logP>
2.2908

>  <TPSA>
38.13

>  <MW>
267.326

$$$$

 OpenBabel02121609142D

 20 23  0  0  0  0  0  0  0  0999 V2000
   -1.8208    0.3208    0.0000 C   0  0  0  0  0  0  0  0  0  0  0  0
   -3.2833   -0.1542    0.0000 N   0  0  0  0  0  0  0  0  0  0  0  0
   -1.8125   -0.6292    0.0000 C   0  0  0  0  0  0  0  0  0  0  0  0
   -1.0625    0.8958    0.0000 C   0  0  0  0  0  0  0  0  0  0  0  0
   -2.7208   -0.9292    0.0000 N   0  0  0  0  0  0  0  0  0  0  0  0
    1.3750    0.6708    0.0000 C   0  0  3  0  0  0  0  0  0  0  0  0
   -2.7208    0.6125    0.0000 C   0  0  0  0  0  0  0  0  0  0  0  0
   -0.2208    0.4500    0.0000 N   0  0  0  0  0  0  0  0  0  0  0  0
    2.3917   -0.6292    0.0000 C   0  0  3  0  0  0  0  0  0  0  0  0
    3.2042    0.7833    0.0000 C   0  0  3  0  0  0  0  0  0  0  0  0
    2.7250    0.9583    0.0000 C   0  0  3  0  0  0  0  0  0  0  0  0
    1.4167   -0.2750    0.0000 C   0  0  0  0  0  0  0  0  0  0  0  0
    2.0500   -0.1875    0.0000 C   0  0  0  0  0  0  0  0  0  0  0  0
    2.1750    1.3208    0.0000 C   0  0  0  0  0  0  0  0  0  0  0  0
   -1.1458    1.8458    0.0000 O   0  0  0  0  0  0  0  0  0  0  0  0
    0.4917    1.0958    0.0000 C   0  0  0  0  0  0  0  0  0  0  0  0
    2.0417    0.6333    0.0000 C   0  0  0  0  0  0  0  0  0  0  0  0
    2.7500   -0.0167    0.0000 C   0  0  0  0  0  0  0  0  0  0  0  0
    3.2750   -0.1125    0.0000 C   0  0  0  0  0  0  0  0  0  0  0  0
   -3.0125   -1.8375    0.0000 C   0  0  0  0  0  0  0  0  0  0  0  0
  2  7  2  0  0  0  0
  3  1  2  0  0  0  0
  4  1  1  0  0  0  0
  5  3  1  0  0  0  0
  5  2  1  0  0  0  0
  6 16  1  0  0  0  0
  7  1  1  0  0  0  0
  8  4  1  0  0  0  0
  9 12  1  0  0  0  0
  9 19  1  0  0  0  0
  9 17  1  0  0  0  0
 10 14  1  0  0  0  0
 11 13  1  0  0  0  0
 12  6  1  0  0  0  0
 13  6  1  0  0  0  0
 14  6  1  0  0  0  0
 15  4  2  0  0  0  0
 16  8  1  0  0  0  0
 17 11  1  0  0  0  0
 18 10  1  0  0  0  0
 18 11  1  0  0  0  0
 19 10  1  0  0  0  0
 20  5  1  0  0  0  0
M  END
>  <idnumber>
T5845907

>  <LogP>
2.820000000000000e+000

>  <rotating_bonds>
3.000000000000000e+000

>  <hb_acceptors>
2.000000000000000e+000

>  <hb_donors>
1.000000000000000e+000

>  <PSA>
4.692000000000000e+001

>  <clusterid>
-1429

>  <is_centroid>
@

>  <class1>
809

>  <class2>
631

>  <population1>
8162

>  <population2>
41612

>  <population>
137

>  <cansmi>
Cn1ncc(c1)C(=O)NCC12CC3CC(C2)CC(C1)C3

>  <HBA2>
4

>  <HBD>
1

>  <logP>
2.7572

>  <TPSA>
46.92

>  <MW>
273.373

$$$$

 OpenBabel02121609142D

 22 24  0  0  0  0  0  0  0  0999 V2000
   -0.4458    0.7083    0.0000 C   0  0  0  0  0  0  0  0  0  0  0  0
   -1.0333    1.5208    0.0000 N   0  0  0  0  0  0  0  0  0  0  0  0
   -1.0333   -0.0917    0.0000 N   0  0  0  0  0  0  0  0  0  0  0  0
    0.5542    0.7083    0.0000 C   0  0  3  0  0  0  0  0  0  0  0  0
    2.0917    0.2083    0.0000 N   0  0  0  0  0  0  0  0  0  0  0  0
    2.0917    1.2083    0.0000 C   0  0  0  0  0  0  0  0  0  0  0  0
    1.1417   -0.0917    0.0000 C   0  0  0  0  0  0  0  0  0  0  0  0
   -1.9833    0.2083    0.0000 C   0  0  0  0  0  0  0  0  0  0  0  0
   -1.9833    1.2083    0.0000 C   0  0  0  0  0  0  0  0  0  0  0  0
    1.1417    1.5208    0.0000 C   0  0  0  0  0  0  0  0  0  0  0  0
    2.9042   -0.3792    0.0000 C   0  0  0  0  0  0  0  0  0  0  0  0
    2.9042    1.7958    0.0000 O   0  0  0  0  0  0  0  0  0  0  0  0
   -0.7250   -1.0500    0.0000 C   0  0  0  0  0  0  0  0  0  0  0  0
   -2.8500   -0.2917    0.0000 C   0  0  0  0  0  0  0  0  0  0  0  0
   -2.8500    1.7083    0.0000 C   0  0  0  0  0  0  0  0  0  0  0  0
    3.4917    0.4333    0.0000 C   0  0  0  0  0  0  0  0  0  0  0  0
    2.3167   -1.1875    0.0000 C   0  0  0  0  0  0  0  0  0  0  0  0
    3.7125   -0.9667    0.0000 C   0  0  0  0  0  0  0  0  0  0  0  0
    0.2542   -1.2542    0.0000 C   0  0  0  0  0  0  0  0  0  0  0  0
   -1.3958   -1.7917    0.0000 C   0  0  0  0  0  0  0  0  0  0  0  0
   -3.7208    0.2083    0.0000 C   0  0  0  0  0  0  0  0  0  0  0  0
   -3.7208    1.2083    0.0000 C   0  0  0  0  0  0  0  0  0  0  0  0
  2  1  2  0  0  0  0
  3  1  1  0  0  0  0
  4  1  1  0  0  0  0
  5  7  1  0  0  0  0
  5  6  1  0  0  0  0
  6 10  1  0  0  0  0
  7  4  1  0  0  0  0
  8  3  1  0  0  0  0
  9  2  1  0  0  0  0
  9  8  2  0  0  0  0
 10  4  1  0  0  0  0
 11  5  1  0  0  0  0
 12  6  2  0  0  0  0
 13  3  1  0  0  0  0
 14  8  1  0  0  0  0
 15  9  1  0  0  0  0
 16 11  1  0  0  0  0
 17 11  1  0  0  0  0
 18 11  1  0  0  0  0
 19 13  1  0  0  0  0
 20 13  1  0  0  0  0
 21 14  2  0  0  0  0
 22 15  2  0  0  0  0
 22 21  1  0  0  0  0
M  END
>  <idnumber>
T5846113

>  <LogP>
2.115000000000000e+000

>  <rotating_bonds>
3.000000000000000e+000

>  <hb_acceptors>
2.000000000000000e+000

>  <hb_donors>
0.000000000000000e+000

>  <PSA>
3.813000000000000e+001

>  <clusterid>
750

>  <is_centroid>
@

>  <class1>
673

>  <class2>
685

>  <population1>
18691

>  <population2>
28767

>  <population>
1325

>  <cansmi>
CC(n1c(nc2c1cccc2)C1CC(=O)N(C1)C(C)(C)C)C

>  <HBA2>
4

>  <HBD>
0

>  <logP>
3.6695

>  <TPSA>
38.13

>  <MW>
299.411

$$$$

 OpenBabel02121609142D

 22 24  0  0  0  0  0  0  0  0999 V2000
   -1.3708    2.0000    0.0000 C   0  0  0  0  0  0  0  0  0  0  0  0
   -1.6750    1.0500    0.0000 C   0  0  0  0  0  0  0  0  0  0  0  0
   -1.0083    0.3083    0.0000 N   0  0  0  0  0  0  0  0  0  0  0  0
   -0.4208    3.3125    0.0000 N   0  0  0  0  0  0  0  0  0  0  0  0
   -1.9583    2.8125    0.0000 C   0  0  0  0  0  0  0  0  0  0  0  0
    0.3292   -1.1792    0.0000 N   0  0  0  0  0  0  0  0  0  0  0  0
   -1.3708    3.6208    0.0000 N   0  0  0  0  0  0  0  0  0  0  0  0
    1.0000   -1.9167    0.0000 C   0  0  0  0  0  0  0  0  0  0  0  0
   -0.4208    2.3125    0.0000 C   0  0  0  0  0  0  0  0  0  0  0  0
    0.6917   -2.8667    0.0000 C   0  0  0  0  0  0  0  0  0  0  0  0
   -2.6583    0.8458    0.0000 O   0  0  0  0  0  0  0  0  0  0  0  0
   -0.0333    0.5208    0.0000 C   0  0  0  0  0  0  0  0  0  0  0  0
   -1.3208   -0.6417    0.0000 C   0  0  0  0  0  0  0  0  0  0  0  0
    0.6417   -0.2292    0.0000 C   0  0  0  0  0  0  0  0  0  0  0  0
   -0.6458   -1.3875    0.0000 C   0  0  0  0  0  0  0  0  0  0  0  0
    1.3625   -3.6167    0.0000 C   0  0  0  0  0  0  0  0  0  0  0  0
    1.9792   -1.7125    0.0000 C   0  0  0  0  0  0  0  0  0  0  0  0
   -1.6750    4.5667    0.0000 C   0  0  0  0  0  0  0  0  0  0  0  0
   -0.2875   -3.0792    0.0000 C   0  0  0  0  0  0  0  0  0  0  0  0
    2.6500   -2.4542    0.0000 C   0  0  0  0  0  0  0  0  0  0  0  0
    2.3417   -3.4042    0.0000 C   0  0  0  0  0  0  0  0  0  0  0  0
    1.0542   -4.5667    0.0000 C   0  0  0  0  0  0  0  0  0  0  0  0
  2  1  1  0  0  0  0
  3  2  1  0  0  0  0
  4  9  2  0  0  0  0
  4  7  1  0  0  0  0
  5  1  2  0  0  0  0
  6 15  1  0  0  0  0
  6 14  1  0  0  0  0
  7  5  1  0  0  0  0
  8  6  1  0  0  0  0
  9  1  1  0  0  0  0
 10  8  1  0  0  0  0
 11  2  2  0  0  0  0
 12  3  1  0  0  0  0
 13  3  1  0  0  0  0
 14 12  1  0  0  0  0
 15 13  1  0  0  0  0
 16 10  2  0  0  0  0
 16 21  1  0  0  0  0
 17  8  2  0  0  0  0
 18  7  1  0  0  0  0
 19 10  1  0  0  0  0
 20 17  1  0  0  0  0
 21 20  2  0  0  0  0
 22 16  1  0  0  0  0
M  END
>  <idnumber>
T5847102

>  <LogP>
1.523000000000000e+000

>  <rotating_bonds>
2.000000000000000e+000

>  <hb_acceptors>
3.000000000000000e+000

>  <hb_donors>
0.000000000000000e+000

>  <PSA>
4.137000000000000e+001

>  <clusterid>
-1431

>  <is_centroid>
@

>  <class1>
717

>  <class2>
625

>  <class3>
631

>  <population1>
74368

>  <population2>
877209

>  <population3>
41612

>  <population>
2680

>  <cansmi>
Cn1ncc(c1)C(=O)N1CCN(CC1)c1cccc(c1C)C

>  <HBA2>
5

>  <HBD>
0

>  <logP>
2.0022

>  <TPSA>
41.37

>  <MW>
298.383

$$$$

 OpenBabel02121609142D

 21 23  0  0  0  0  0  0  0  0999 V2000
   -0.6958   -1.0167    0.0000 C   0  0  0  0  0  0  0  0  0  0  0  0
   -1.0083   -1.9667    0.0000 C   0  0  0  0  0  0  0  0  0  0  0  0
   -0.3375   -2.7042    0.0000 N   0  0  0  0  0  0  0  0  0  0  0  0
   -1.2833   -0.2042    0.0000 O   0  0  0  0  0  0  0  0  0  0  0  0
   -0.6958    0.6083    0.0000 C   0  0  0  0  0  0  0  0  0  0  0  0
    0.2542   -0.7042    0.0000 C   0  0  0  0  0  0  0  0  0  0  0  0
    0.2542    0.2958    0.0000 C   0  0  0  0  0  0  0  0  0  0  0  0
   -1.0083    1.5583    0.0000 C   0  0  0  0  0  0  0  0  0  0  0  0
    0.6417   -2.5000    0.0000 C   0  0  0  0  0  0  0  0  0  0  0  0
   -1.9833   -2.1750    0.0000 O   0  0  0  0  0  0  0  0  0  0  0  0
    1.0000   -4.1917    0.0000 O   0  0  0  0  0  0  0  0  0  0  0  0
   -0.3375    2.2958    0.0000 C   0  0  0  0  0  0  0  0  0  0  0  0
   -1.9833    1.7625    0.0000 C   0  0  0  0  0  0  0  0  0  0  0  0
   -0.6458   -3.6542    0.0000 C   0  0  0  0  0  0  0  0  0  0  0  0
    1.3125   -3.2417    0.0000 C   0  0  3  0  0  0  0  0  0  0  0  0
   -1.6250    3.4583    0.0000 C   0  0  0  0  0  0  0  0  0  0  0  0
   -2.2958    2.7125    0.0000 C   0  0  0  0  0  0  0  0  0  0  0  0
   -0.6458    3.2500    0.0000 C   0  0  0  0  0  0  0  0  0  0  0  0
    0.0250   -4.4042    0.0000 C   0  0  0  0  0  0  0  0  0  0  0  0
   -1.9333    4.4042    0.0000 F   0  0  0  0  0  0  0  0  0  0  0  0
    2.2875   -3.0375    0.0000 C   0  0  0  0  0  0  0  0  0  0  0  0
  2  1  1  0  0  0  0
  3  2  1  0  0  0  0
  4  1  1  0  0  0  0
  5  4  1  0  0  0  0
  6  1  2  0  0  0  0
  7  6  1  0  0  0  0
  7  5  2  0  0  0  0
  8  5  1  0  0  0  0
  9  3  1  0  0  0  0
 10  2  2  0  0  0  0
 11 19  1  0  0  0  0
 12  8  1  0  0  0  0
 13  8  2  0  0  0  0
 14  3  1  0  0  0  0
 15  9  1  0  0  0  0
 15 11  1  0  0  0  0
 16 17  2  0  0  0  0
 17 13  1  0  0  0  0
 18 12  2  0  0  0  0
 18 16  1  0  0  0  0
 19 14  1  0  0  0  0
 20 16  1  0  0  0  0
 21 15  1  0  0  0  0
M  END
>  <idnumber>
T5847748

>  <LogP>
2.723000000000000e+000

>  <rotating_bonds>
2.000000000000000e+000

>  <hb_acceptors>
3.000000000000000e+000

>  <hb_donors>
0.000000000000000e+000

>  <PSA>
4.268000000000000e+001

>  <clusterid>
-1432

>  <is_centroid>
@

>  <class1>
704

>  <class2>
625

>  <class3>
786

>  <population1>
51112

>  <population2>
877209

>  <population3>
48067

>  <population>
1367

>  <cansmi>
CC1OCCN(C1)C(=O)c1ccc(o1)c1ccc(cc1)F

>  <HBA2>
4

>  <HBD>
0

>  <logP>
2.8845

>  <TPSA>
42.68

>  <MW>
289.302

$$$$

 OpenBabel02121609142D

 21 23  0  0  0  0  0  0  0  0999 V2000
    0.3667    2.2750    0.0000 C   0  0  0  0  0  0  0  0  0  0  0  0
    0.0625    1.3250    0.0000 C   0  0  0  0  0  0  0  0  0  0  0  0
    1.3167    3.5833    0.0000 N   0  0  0  0  0  0  0  0  0  0  0  0
   -0.2208    3.0833    0.0000 C   0  0  0  0  0  0  0  0  0  0  0  0
    0.3667    3.8958    0.0000 N   0  0  0  0  0  0  0  0  0  0  0  0
   -0.1958   -2.2667    0.0000 C   0  0  0  0  0  0  0  0  0  0  0  0
    1.3167    2.5833    0.0000 C   0  0  0  0  0  0  0  0  0  0  0  0
   -0.5083   -3.2167    0.0000 N   0  0  0  0  0  0  0  0  0  0  0  0
    0.7292    0.5833    0.0000 N   0  0  0  0  0  0  0  0  0  0  0  0
    0.7792   -2.0625    0.0000 C   0  0  0  0  0  0  0  0  0  0  0  0
   -0.8708   -1.5292    0.0000 C   0  0  0  0  0  0  0  0  0  0  0  0
    0.4167   -0.3667    0.0000 C   0  0  0  0  0  0  0  0  0  0  0  0
    1.0917   -1.1125    0.0000 C   0  0  0  0  0  0  0  0  0  0  0  0
   -0.9208    1.1208    0.0000 O   0  0  0  0  0  0  0  0  0  0  0  0
   -0.5583   -0.5792    0.0000 C   0  0  0  0  0  0  0  0  0  0  0  0
   -1.4583   -3.5292    0.0000 C   0  0  0  0  0  0  0  0  0  0  0  0
    0.0792   -4.0292    0.0000 C   0  0  0  0  0  0  0  0  0  0  0  0
    0.0625    4.8417    0.0000 C   0  0  0  0  0  0  0  0  0  0  0  0
    1.4500   -2.8042    0.0000 C   0  0  0  0  0  0  0  0  0  0  0  0
   -0.5083   -4.8417    0.0000 C   0  0  0  0  0  0  0  0  0  0  0  0
   -1.4583   -4.5292    0.0000 C   0  0  0  0  0  0  0  0  0  0  0  0
  2  1  1  0  0  0  0
  3  7  2  0  0  0  0
  3  5  1  0  0  0  0
  4  1  2  0  0  0  0
  5  4  1  0  0  0  0
  6 11  1  0  0  0  0
  7  1  1  0  0  0  0
  8  6  1  0  0  0  0
  9  2  1  0  0  0  0
 10 13  1  0  0  0  0
 10  6  2  0  0  0  0
 11 15  2  0  0  0  0
 12  9  1  0  0  0  0
 13 12  2  0  0  0  0
 14  2  2  0  0  0  0
 15 12  1  0  0  0  0
 16  8  1  0  0  0  0
 17  8  1  0  0  0  0
 18  5  1  0  0  0  0
 19 10  1  0  0  0  0
 20 17  1  0  0  0  0
 21 16  1  0  0  0  0
 21 20  1  0  0  0  0
M  END
>  <idnumber>
T5849003

>  <LogP>
2.629000000000000e+000

>  <rotating_bonds>
3.000000000000000e+000

>  <hb_acceptors>
3.000000000000000e+000

>  <hb_donors>
1.000000000000000e+000

>  <PSA>
5.016000000000000e+001

>  <clusterid>
-1433

>  <is_centroid>
@

>  <class1>
631

>  <class2>
642

>  <class3>
625

>  <population1>
41612

>  <population2>
51183

>  <population3>
877209

>  <population>
1306

>  <cansmi>
Cn1ncc(c1)C(=O)Nc1ccc(c(c1)C)N1CCCC1

>  <HBA2>
5

>  <HBD>
1

>  <logP>
2.719

>  <TPSA>
50.16

>  <MW>
284.356

$$$$

 OpenBabel02121609142D

 19 20  0  0  0  0  0  0  0  0999 V2000
   -1.3000    1.7583    0.0000 C   0  0  0  0  0  0  0  0  0  0  0  0
   -1.3000    0.7500    0.0000 C   0  0  0  0  0  0  0  0  0  0  0  0
   -0.4333    0.2500    0.0000 N   0  0  0  0  0  0  0  0  0  0  0  0
    0.4292   -1.2500    0.0000 C   0  0  0  0  0  0  0  0  0  0  0  0
   -0.4333   -0.7417    0.0000 C   0  0  3  0  0  0  0  0  0  0  0  0
   -2.1708    2.2500    0.0000 O   0  0  0  0  0  0  0  0  0  0  0  0
   -0.4333    2.2500    0.0000 C   0  0  0  0  0  0  0  0  0  0  0  0
    1.2917   -0.7417    0.0000 C   0  0  0  0  0  0  0  0  0  0  0  0
    0.4292   -2.2500    0.0000 C   0  0  0  0  0  0  0  0  0  0  0  0
   -2.1708    0.2500    0.0000 O   0  0  0  0  0  0  0  0  0  0  0  0
   -0.4333    3.2500    0.0000 O   0  0  0  0  0  0  0  0  0  0  0  0
    2.1625   -1.2500    0.0000 C   0  0  0  0  0  0  0  0  0  0  0  0
    1.2917   -2.7500    0.0000 C   0  0  0  0  0  0  0  0  0  0  0  0
    2.1625   -2.2500    0.0000 C   0  0  0  0  0  0  0  0  0  0  0  0
   -1.3000   -1.2500    0.0000 C   0  0  0  0  0  0  0  0  0  0  0  0
   -2.1708    3.2500    0.0000 C   0  0  0  0  0  0  0  0  0  0  0  0
   -1.3000    3.7500    0.0000 C   0  0  0  0  0  0  0  0  0  0  0  0
    1.2917    0.2500    0.0000 C   0  0  0  0  0  0  0  0  0  0  0  0
    1.2917   -3.7500    0.0000 C   0  0  0  0  0  0  0  0  0  0  0  0
  2  1  1  0  0  0  0
  3  2  1  0  0  0  0
  4  5  1  0  0  0  0
  5  3  1  0  0  0  0
  6  1  1  0  0  0  0
  7  1  2  0  0  0  0
  8  4  2  0  0  0  0
  9  4  1  0  0  0  0
 10  2  2  0  0  0  0
 11  7  1  0  0  0  0
 12  8  1  0  0  0  0
 12 14  2  0  0  0  0
 13  9  2  0  0  0  0
 14 13  1  0  0  0  0
 15  5  1  0  0  0  0
 16  6  1  0  0  0  0
 16 17  1  0  0  0  0
 17 11  1  0  0  0  0
 18  8  1  0  0  0  0
 19 13  1  0  0  0  0
M  END
>  <idnumber>
T5849238

>  <LogP>
2.244000000000000e+000

>  <rotating_bonds>
3.000000000000000e+000

>  <hb_acceptors>
3.000000000000000e+000

>  <hb_donors>
1.000000000000000e+000

>  <PSA>
4.756000000000000e+001

>  <clusterid>
-1434

>  <is_centroid>
@

>  <class1>
808

>  <class2>
625

>  <population1>
716

>  <population2>
877209

>  <population>
586

>  <cansmi>
CC(c1cc(C)ccc1C)NC(=O)C1=COCCO1

>  <HBA2>
4

>  <HBD>
1

>  <logP>
2.7597

>  <TPSA>
47.56

>  <MW>
261.316

$$$$

 OpenBabel02121609142D

 20 22  0  0  0  0  0  0  0  0999 V2000
   -0.2083    1.0208    0.0000 C   0  0  0  0  0  0  0  0  0  0  0  0
   -0.7958    0.2083    0.0000 O   0  0  0  0  0  0  0  0  0  0  0  0
   -0.5208    1.9708    0.0000 C   0  0  0  0  0  0  0  0  0  0  0  0
   -0.2083   -0.6000    0.0000 C   0  0  0  0  0  0  0  0  0  0  0  0
    0.1542    2.7125    0.0000 N   0  0  0  0  0  0  0  0  0  0  0  0
    0.7417    0.7083    0.0000 C   0  0  0  0  0  0  0  0  0  0  0  0
    0.7417   -0.2917    0.0000 C   0  0  0  0  0  0  0  0  0  0  0  0
   -0.5208   -1.5500    0.0000 C   0  0  0  0  0  0  0  0  0  0  0  0
   -1.4958    2.1833    0.0000 O   0  0  0  0  0  0  0  0  0  0  0  0
    1.4917    4.1917    0.0000 O   0  0  0  0  0  0  0  0  0  0  0  0
   -1.4958   -1.7542    0.0000 C   0  0  0  0  0  0  0  0  0  0  0  0
    0.1542   -2.2917    0.0000 C   0  0  0  0  0  0  0  0  0  0  0  0
   -1.1333   -3.4542    0.0000 C   0  0  0  0  0  0  0  0  0  0  0  0
   -1.8083   -2.7042    0.0000 C   0  0  0  0  0  0  0  0  0  0  0  0
   -0.1583   -3.2417    0.0000 C   0  0  0  0  0  0  0  0  0  0  0  0
   -1.4458   -4.4042    0.0000 Cl  0  0  0  0  0  0  0  0  0  0  0  0
    1.1292    2.5083    0.0000 C   0  0  0  0  0  0  0  0  0  0  0  0
   -0.1583    3.6708    0.0000 C   0  0  0  0  0  0  0  0  0  0  0  0
    0.5125    4.4042    0.0000 C   0  0  0  0  0  0  0  0  0  0  0  0
    1.8000    3.2500    0.0000 C   0  0  0  0  0  0  0  0  0  0  0  0
  2  1  1  0  0  0  0
  3  1  1  0  0  0  0
  4  2  1  0  0  0  0
  4  7  2  0  0  0  0
  5  3  1  0  0  0  0
  6  1  2  0  0  0  0
  7  6  1  0  0  0  0
  8  4  1  0  0  0  0
  9  3  2  0  0  0  0
 10 19  1  0  0  0  0
 11  8  2  0  0  0  0
 12  8  1  0  0  0  0
 13 15  1  0  0  0  0
 14 11  1  0  0  0  0
 14 13  2  0  0  0  0
 15 12  2  0  0  0  0
 16 13  1  0  0  0  0
 17  5  1  0  0  0  0
 18  5  1  0  0  0  0
 19 18  1  0  0  0  0
 20 17  1  0  0  0  0
 20 10  1  0  0  0  0
M  END
>  <idnumber>
T5849407

>  <LogP>
2.774000000000000e+000

>  <rotating_bonds>
2.000000000000000e+000

>  <hb_acceptors>
3.000000000000000e+000

>  <hb_donors>
0.000000000000000e+000

>  <PSA>
4.268000000000000e+001

>  <clusterid>
-1436

>  <is_centroid>
@

>  <class1>
704

>  <class2>
625

>  <class3>
786

>  <population1>
51112

>  <population2>
877209

>  <population3>
48067

>  <population>
1367

>  <cansmi>
Clc1ccc(cc1)c1ccc(o1)C(=O)N1CCOCC1

>  <HBA2>
4

>  <HBD>
0

>  <logP>
3.0103

>  <TPSA>
42.68

>  <MW>
291.73

$$$$

 OpenBabel02121609142D

 21 23  0  0  0  0  0  0  0  0999 V2000
   -1.3000   -1.2417    0.0000 N   0  0  0  0  0  0  0  0  0  0  0  0
   -1.3000   -0.2500    0.0000 C   0  0  0  0  0  0  0  0  0  0  0  0
   -0.4333    1.2500    0.0000 N   0  0  0  0  0  0  0  0  0  0  0  0
   -0.4333   -1.7417    0.0000 C   0  0  0  0  0  0  0  0  0  0  0  0
   -1.3000    1.7500    0.0000 C   0  0  0  0  0  0  0  0  0  0  0  0
   -0.4333    0.2500    0.0000 C   0  0  0  0  0  0  0  0  0  0  0  0
   -0.4333   -2.7500    0.0000 C   0  0  0  0  0  0  0  0  0  0  0  0
    0.4292   -1.2417    0.0000 C   0  0  0  0  0  0  0  0  0  0  0  0
    0.4292    1.7500    0.0000 C   0  0  0  0  0  0  0  0  0  0  0  0
   -2.1708    0.2500    0.0000 O   0  0  0  0  0  0  0  0  0  0  0  0
   -1.3000    2.7500    0.0000 C   0  0  0  0  0  0  0  0  0  0  0  0
    0.4292   -3.2500    0.0000 C   0  0  0  0  0  0  0  0  0  0  0  0
   -2.1708    1.2500    0.0000 O   0  0  0  0  0  0  0  0  0  0  0  0
    0.4292    2.7500    0.0000 C   0  0  0  0  0  0  0  0  0  0  0  0
   -0.4333    3.2500    0.0000 C   0  0  0  0  0  0  0  0  0  0  0  0
   -2.1708   -1.7417    0.0000 C   0  0  0  0  0  0  0  0  0  0  0  0
    1.2917   -1.7417    0.0000 C   0  0  0  0  0  0  0  0  0  0  0  0
    1.2917   -2.7500    0.0000 C   0  0  0  0  0  0  0  0  0  0  0  0
   -1.3000   -3.2500    0.0000 C   0  0  0  0  0  0  0  0  0  0  0  0
   -2.1708   -2.7500    0.0000 C   0  0  0  0  0  0  0  0  0  0  0  0
    2.1625   -3.2500    0.0000 C   0  0  0  0  0  0  0  0  0  0  0  0
  2  1  1  0  0  0  0
  3  6  1  0  0  0  0
  4  1  1  0  0  0  0
  5  3  1  0  0  0  0
  6  2  1  0  0  0  0
  7  4  2  0  0  0  0
  8  4  1  0  0  0  0
  9  3  1  0  0  0  0
 10  2  2  0  0  0  0
 11  5  1  0  0  0  0
 11 15  2  0  0  0  0
 12  7  1  0  0  0  0
 12 18  2  0  0  0  0
 13  5  2  0  0  0  0
 14  9  2  0  0  0  0
 15 14  1  0  0  0  0
 16  1  1  0  0  0  0
 17  8  2  0  0  0  0
 18 17  1  0  0  0  0
 19 20  1  0  0  0  0
 19  7  1  0  0  0  0
 20 16  1  0  0  0  0
 21 18  1  0  0  0  0
M  END
>  <idnumber>
T5849626

>  <LogP>
2.468000000000000e+000

>  <rotating_bonds>
2.000000000000000e+000

>  <hb_acceptors>
2.000000000000000e+000

>  <hb_donors>
0.000000000000000e+000

>  <PSA>
4.062000000000001e+001

>  <clusterid>
-1437

>  <is_centroid>
@

>  <class1>
814

>  <class2>
696

>  <population1>
5317

>  <population2>
4759

>  <population>
19

>  <cansmi>
Cc1ccc2c(c1)CCCN2C(=O)Cn1ccccc1=O

>  <HBA2>
4

>  <HBD>
0

>  <logP>
2.2011

>  <TPSA>
42.31

>  <MW>
282.337

$$$$

 OpenBabel02121609142D

 19 21  0  0  0  0  0  0  0  0999 V2000
   -0.1083    1.1083    0.0000 C   0  0  0  0  0  0  0  0  0  0  0  0
    0.2042    0.1583    0.0000 C   0  0  0  0  0  0  0  0  0  0  0  0
    0.4875    1.9125    0.0000 C   0  0  0  0  0  0  0  0  0  0  0  0
   -1.0583    1.4125    0.0000 C   0  0  0  0  0  0  0  0  0  0  0  0
    1.1792   -0.0542    0.0000 N   0  0  0  0  0  0  0  0  0  0  0  0
   -0.1083    2.7208    0.0000 N   0  0  0  0  0  0  0  0  0  0  0  0
   -1.0583    2.4125    0.0000 C   0  0  0  0  0  0  0  0  0  0  0  0
   -0.4625   -0.5917    0.0000 O   0  0  0  0  0  0  0  0  0  0  0  0
    1.4917   -1.0042    0.0000 C   0  0  0  0  0  0  0  0  0  0  0  0
    1.8542    0.6875    0.0000 C   0  0  0  0  0  0  0  0  0  0  0  0
   -1.9208    0.9125    0.0000 C   0  0  0  0  0  0  0  0  0  0  0  0
   -1.9208    2.9125    0.0000 C   0  0  0  0  0  0  0  0  0  0  0  0
    0.8250   -1.7500    0.0000 C   0  0  0  0  0  0  0  0  0  0  0  0
    2.4667   -1.2125    0.0000 C   0  0  0  0  0  0  0  0  0  0  0  0
   -2.7833    1.4125    0.0000 C   0  0  0  0  0  0  0  0  0  0  0  0
   -2.7833    2.4125    0.0000 C   0  0  0  0  0  0  0  0  0  0  0  0
    2.7792   -2.1667    0.0000 C   0  0  0  0  0  0  0  0  0  0  0  0
    1.1292   -2.7000    0.0000 C   0  0  0  0  0  0  0  0  0  0  0  0
    2.1125   -2.9042    0.0000 C   0  0  0  0  0  0  0  0  0  0  0  0
  2  1  1  0  0  0  0
  3  1  2  0  0  0  0
  4  1  1  0  0  0  0
  5  2  1  0  0  0  0
  6  3  1  0  0  0  0
  6  7  1  0  0  0  0
  7  4  2  0  0  0  0
  8  2  2  0  0  0  0
  9  5  1  0  0  0  0
 10  5  1  0  0  0  0
 11  4  1  0  0  0  0
 12  7  1  0  0  0  0
 12 16  2  0  0  0  0
 13  9  1  0  0  0  0
 14  9  2  0  0  0  0
 15 11  2  0  0  0  0
 16 15  1  0  0  0  0
 17 14  1  0  0  0  0
 18 13  2  0  0  0  0
 18 19  1  0  0  0  0
 19 17  2  0  0  0  0
M  END
>  <idnumber>
T5850510

>  <LogP>
2.774000000000000e+000

>  <rotating_bonds>
2.000000000000000e+000

>  <hb_acceptors>
1.000000000000000e+000

>  <hb_donors>
1.000000000000000e+000

>  <PSA>
3.610000000000000e+001

>  <clusterid>
-1438

>  <is_centroid>
@

>  <class1>
625

>  <class2>
748

>  <population1>
877209

>  <population2>
15713

>  <population>
15713

>  <cansmi>
CN(C(=O)c1c[nH]c2c1cccc2)c1ccccc1

>  <HBA2>
2

>  <HBD>
1

>  <logP>
3.4445

>  <TPSA>
36.1

>  <MW>
250.295

$$$$

 OpenBabel02121609142D

 19 21  0  0  0  0  0  0  0  0999 V2000
   -0.9875   -1.1792    0.0000 C   0  0  0  0  0  0  0  0  0  0  0  0
   -0.3208   -1.9167    0.0000 C   0  0  0  0  0  0  0  0  0  0  0  0
   -0.6833   -0.2292    0.0000 C   0  0  0  0  0  0  0  0  0  0  0  0
    0.6625   -1.7125    0.0000 N   0  0  0  0  0  0  0  0  0  0  0  0
   -1.3458    0.5208    0.0000 N   0  0  0  0  0  0  0  0  0  0  0  0
   -0.6250   -2.8667    0.0000 N   0  0  0  0  0  0  0  0  0  0  0  0
    0.3000   -0.0167    0.0000 O   0  0  0  0  0  0  0  0  0  0  0  0
   -1.9708   -1.3875    0.0000 C   0  0  0  0  0  0  0  0  0  0  0  0
   -1.0375    1.4708    0.0000 C   0  0  0  0  0  0  0  0  0  0  0  0
    1.4042   -2.3792    0.0000 C   0  0  0  0  0  0  0  0  0  0  0  0
    1.0667   -0.8000    0.0000 C   0  0  0  0  0  0  0  0  0  0  0  0
   -1.6083   -3.0792    0.0000 C   0  0  0  0  0  0  0  0  0  0  0  0
   -0.0875    1.7750    0.0000 C   0  0  0  0  0  0  0  0  0  0  0  0
   -1.6250    2.2750    0.0000 C   0  0  0  0  0  0  0  0  0  0  0  0
   -2.2750   -2.3375    0.0000 C   0  0  0  0  0  0  0  0  0  0  0  0
    2.0625   -0.9042    0.0000 C   0  0  0  0  0  0  0  0  0  0  0  0
    2.2667   -1.8792    0.0000 C   0  0  0  0  0  0  0  0  0  0  0  0
   -0.0875    2.7750    0.0000 C   0  0  0  0  0  0  0  0  0  0  0  0
   -1.0375    3.0833    0.0000 C   0  0  0  0  0  0  0  0  0  0  0  0
  2  1  2  0  0  0  0
  3  1  1  0  0  0  0
  4  2  1  0  0  0  0
  5  3  1  0  0  0  0
  6  2  1  0  0  0  0
  6 12  2  0  0  0  0
  7  3  2  0  0  0  0
  8  1  1  0  0  0  0
  9  5  1  0  0  0  0
 10  4  1  0  0  0  0
 11  4  1  0  0  0  0
 12 15  1  0  0  0  0
 13  9  1  0  0  0  0
 14  9  1  0  0  0  0
 15  8  2  0  0  0  0
 16 11  1  0  0  0  0
 17 10  1  0  0  0  0
 17 16  1  0  0  0  0
 18 13  1  0  0  0  0
 18 19  1  0  0  0  0
 19 14  1  0  0  0  0
M  END
>  <idnumber>
T5852704

>  <LogP>
2.929000000000000e+000

>  <rotating_bonds>
3.000000000000000e+000

>  <hb_acceptors>
3.000000000000000e+000

>  <hb_donors>
1.000000000000000e+000

>  <PSA>
4.523000000000000e+001

>  <clusterid>
-1439

>  <is_centroid>
@

>  <class1>
674

>  <class2>
642

>  <class3>
632

>  <population1>
16474

>  <population2>
51183

>  <population3>
79489

>  <population>
35

>  <cansmi>
O=C(c1cccnc1N1CCCC1)NC1CCCC1

>  <HBA2>
4

>  <HBD>
1

>  <logP>
2.8101

>  <TPSA>
45.23

>  <MW>
259.347

$$$$

 OpenBabel02121609142D

 20 22  0  0  0  0  0  0  0  0999 V2000
    0.2875   -0.7500    0.0000 C   0  0  0  0  0  0  0  0  0  0  0  0
   -1.2583   -1.2500    0.0000 C   0  0  0  0  0  0  0  0  0  0  0  0
   -0.6708   -0.4375    0.0000 S   0  0  0  0  0  0  0  0  0  0  0  0
    0.2875   -1.7500    0.0000 C   0  0  0  0  0  0  0  0  0  0  0  0
   -0.6708   -2.0542    0.0000 C   0  0  0  0  0  0  0  0  0  0  0  0
   -2.2583   -1.2500    0.0000 C   0  0  0  0  0  0  0  0  0  0  0  0
    1.1500   -0.2500    0.0000 C   0  0  0  0  0  0  0  0  0  0  0  0
    2.0167   -0.7500    0.0000 C   0  0  0  0  0  0  0  0  0  0  0  0
    1.1500    0.7500    0.0000 C   0  0  0  0  0  0  0  0  0  0  0  0
   -2.7583   -0.3792    0.0000 N   0  0  0  0  0  0  0  0  0  0  0  0
    1.1500   -2.2500    0.0000 C   0  0  0  0  0  0  0  0  0  0  0  0
   -2.7583   -2.1125    0.0000 O   0  0  0  0  0  0  0  0  0  0  0  0
    2.8792   -0.2500    0.0000 C   0  0  0  0  0  0  0  0  0  0  0  0
    2.0167   -1.7500    0.0000 C   0  0  0  0  0  0  0  0  0  0  0  0
    2.8792    0.7500    0.0000 C   0  0  0  0  0  0  0  0  0  0  0  0
    2.0167    1.2500    0.0000 C   0  0  0  0  0  0  0  0  0  0  0  0
    3.7500    1.2500    0.0000 O   0  0  0  0  0  0  0  0  0  0  0  0
   -2.2583    0.4833    0.0000 C   0  0  0  0  0  0  0  0  0  0  0  0
   -3.7583   -0.3792    0.0000 C   0  0  0  0  0  0  0  0  0  0  0  0
    3.7500    2.2500    0.0000 C   0  0  0  0  0  0  0  0  0  0  0  0
  2  3  1  0  0  0  0
  2  5  2  0  0  0  0
  3  1  1  0  0  0  0
  4  1  2  0  0  0  0
  5  4  1  0  0  0  0
  6  2  1  0  0  0  0
  7  1  1  0  0  0  0
  8  7  2  0  0  0  0
  9  7  1  0  0  0  0
 10  6  1  0  0  0  0
 11  4  1  0  0  0  0
 11 14  1  0  0  0  0
 12  6  2  0  0  0  0
 13  8  1  0  0  0  0
 13 15  2  0  0  0  0
 14  8  1  0  0  0  0
 15 16  1  0  0  0  0
 16  9  2  0  0  0  0
 17 15  1  0  0  0  0
 18 10  1  0  0  0  0
 19 10  1  0  0  0  0
 20 17  1  0  0  0  0
M  END
>  <idnumber>
T5852720

>  <LogP>
2.881000000000000e+000

>  <rotating_bonds>
2.000000000000000e+000

>  <hb_acceptors>
3.000000000000000e+000

>  <hb_donors>
0.000000000000000e+000

>  <PSA>
5.778000000000000e+001

>  <clusterid>
754

>  <is_centroid>
@

>  <class1>
679

>  <population1>
168

>  <population>
168

>  <cansmi>
COc1ccc2c(c1)CCc1c2sc(c1)C(=O)N(C)C

>  <HBA2>
4

>  <HBD>
0

>  <logP>
3.2241

>  <TPSA>
57.78

>  <MW>
287.377

$$$$

 OpenBabel02121609142D

 19 21  0  0  0  0  0  0  0  0999 V2000
   -0.5333    0.2500    0.0000 N   0  0  0  0  0  0  0  0  0  0  0  0
    0.3292   -0.2500    0.0000 C   0  0  0  0  0  0  0  0  0  0  0  0
   -2.2625    0.2500    0.0000 C   0  0  0  0  0  0  0  0  0  0  0  0
   -1.3958   -0.2500    0.0000 C   0  0  3  0  0  0  0  0  0  0  0  0
   -2.2625    1.2500    0.0000 N   0  0  0  0  0  0  0  0  0  0  0  0
    1.2000    0.2500    0.0000 N   0  0  0  0  0  0  0  0  0  0  0  0
   -0.5333    1.2500    0.0000 C   0  0  0  0  0  0  0  0  0  0  0  0
   -3.2208   -0.0542    0.0000 C   0  0  0  0  0  0  0  0  0  0  0  0
    0.3292   -1.2500    0.0000 O   0  0  0  0  0  0  0  0  0  0  0  0
   -3.2208    1.5625    0.0000 C   0  0  0  0  0  0  0  0  0  0  0  0
   -1.3958    1.7500    0.0000 C   0  0  0  0  0  0  0  0  0  0  0  0
   -3.8083    0.7500    0.0000 C   0  0  0  0  0  0  0  0  0  0  0  0
    2.0667   -0.2500    0.0000 C   0  0  0  0  0  0  0  0  0  0  0  0
   -1.3958   -1.2500    0.0000 C   0  0  0  0  0  0  0  0  0  0  0  0
    2.0667   -1.2500    0.0000 C   0  0  0  0  0  0  0  0  0  0  0  0
    2.9292    0.2500    0.0000 C   0  0  0  0  0  0  0  0  0  0  0  0
    3.8000   -0.2500    0.0000 C   0  0  0  0  0  0  0  0  0  0  0  0
    2.9292   -1.7500    0.0000 C   0  0  0  0  0  0  0  0  0  0  0  0
    3.8000   -1.2500    0.0000 C   0  0  0  0  0  0  0  0  0  0  0  0
  2  1  1  0  0  0  0
  3  4  1  0  0  0  0
  4  1  1  0  0  0  0
  5 11  1  0  0  0  0
  5  3  1  0  0  0  0
  6  2  1  0  0  0  0
  7  1  1  0  0  0  0
  8  3  2  0  0  0  0
  9  2  2  0  0  0  0
 10  5  1  0  0  0  0
 10 12  2  0  0  0  0
 11  7  1  0  0  0  0
 12  8  1  0  0  0  0
 13  6  1  0  0  0  0
 14  4  1  0  0  0  0
 15 13  1  0  0  0  0
 16 13  2  0  0  0  0
 17 16  1  0  0  0  0
 18 15  2  0  0  0  0
 18 19  1  0  0  0  0
 19 17  2  0  0  0  0
M  END
>  <idnumber>
T5854557

>  <LogP>
2.031000000000000e+000

>  <rotating_bonds>
1.000000000000000e+000

>  <hb_acceptors>
1.000000000000000e+000

>  <hb_donors>
1.000000000000000e+000

>  <PSA>
3.727000000000000e+001

>  <clusterid>
755

>  <is_centroid>
@

>  <class1>
625

>  <class2>
838

>  <population1>
877209

>  <population2>
232

>  <population>
197

>  <cansmi>
O=C(N1CCn2c(C1C)ccc2)Nc1ccccc1

>  <HBA2>
4

>  <HBD>
1

>  <logP>
3.1077

>  <TPSA>
37.27

>  <MW>
255.315

$$$$

 OpenBabel02121609142D

 10 11  0  0  0  0  0  0  0  0999 V2000
    0.4667   -1.8792    0.0000 S   0  0  0  0  0  0  0  0  0  0  0  0
    1.0375    2.1458    0.0000 N   0  0  0  0  0  0  0  0  0  0  0  0
   -0.4125   -0.5250    0.0000 C   0  0  0  0  0  0  0  0  0  0  0  0
    0.5167   -0.8792    0.0000 C   0  0  0  0  0  0  0  0  0  0  0  0
   -0.4958   -2.1417    0.0000 C   0  0  0  0  0  0  0  0  0  0  0  0
   -1.0458   -1.3042    0.0000 C   0  0  0  0  0  0  0  0  0  0  0  0
   -0.6708    0.4375    0.0000 C   0  0  0  0  0  0  0  0  0  0  0  0
    0.0375    1.1458    0.0000 C   0  0  0  0  0  0  0  0  0  0  0  0
    0.0375    2.1458    0.0000 C   0  0  0  0  0  0  0  0  0  0  0  0
    1.0375    1.1458    0.0000 C   0  0  0  0  0  0  0  0  0  0  0  0
  2 10  1  0  0  0  0
  3  4  2  0  0  0  0
  3  6  1  0  0  0  0
  4  1  1  0  0  0  0
  5  1  1  0  0  0  0
  6  5  2  0  0  0  0
  7  3  1  0  0  0  0
  8  7  1  0  0  0  0
  9  8  1  0  0  0  0
  9  2  1  0  0  0  0
 10  8  1  0  0  0  0
M  END
>  <idnumber>
T5856543

>  <LogP>
1.400000000000000e+000

>  <rotating_bonds>
2.000000000000000e+000

>  <hb_acceptors>
2.000000000000000e+000

>  <hb_donors>
1.000000000000000e+000

>  <PSA>
4.027000000000000e+001

>  <clusterid>
-1446

>  <is_centroid>
@

>  <class1>
645

>  <class2>
678

>  <population1>
105961

>  <population2>
327

>  <population>
18

>  <cansmi>
N1CC(C1)Cc1cscc1

>  <HBA2>
2

>  <HBD>
1

>  <logP>
1.8388

>  <TPSA>
40.27

>  <MW>
153.245

$$$$

 OpenBabel02121609142D

 12 13  0  0  0  0  0  0  0  0999 V2000
    0.0292    0.0000    0.0000 N   0  0  0  0  0  0  0  0  0  0  0  0
    0.0292    1.0083    0.0000 C   0  0  0  0  0  0  0  0  0  0  0  0
   -0.8375   -0.5000    0.0000 C   0  0  0  0  0  0  0  0  0  0  0  0
    0.9792   -0.3042    0.0000 N   0  0  0  0  0  0  0  0  0  0  0  0
    0.9792    1.3125    0.0000 C   0  0  0  0  0  0  0  0  0  0  0  0
   -1.7083    0.0000    0.0000 C   0  0  0  0  0  0  0  0  0  0  0  0
   -0.8375    1.5000    0.0000 N   0  0  0  0  0  0  0  0  0  0  0  0
   -1.7083    1.0000    0.0000 C   0  0  0  0  0  0  0  0  0  0  0  0
    1.5667    0.5000    0.0000 C   0  0  0  0  0  0  0  0  0  0  0  0
   -0.8375   -1.5000    0.0000 O   0  0  0  0  0  0  0  0  0  0  0  0
   -2.5708    1.5000    0.0000 C   0  0  0  0  0  0  0  0  0  0  0  0
    2.5667    0.5000    0.0000 C   0  0  0  0  0  0  0  0  0  0  0  0
  2  1  1  0  0  0  0
  3  1  1  0  0  0  0
  4  1  1  0  0  0  0
  5  2  2  0  0  0  0
  6  3  1  0  0  0  0
  7  2  1  0  0  0  0
  7  8  1  0  0  0  0
  8  6  2  0  0  0  0
  9  4  2  0  0  0  0
  9  5  1  0  0  0  0
 10  3  2  0  0  0  0
 11  8  1  0  0  0  0
 12  9  1  0  0  0  0
M  END
>  <idnumber>
T5856577

>  <LogP>
-1.200000000000000e-002

>  <rotating_bonds>
0.000000000000000e+000

>  <hb_acceptors>
3.000000000000000e+000

>  <hb_donors>
1.000000000000000e+000

>  <PSA>
4.692000000000000e+001

>  <clusterid>
-1449

>  <is_centroid>
@

>  <class1>
658

>  <population1>
36

>  <population>
36

>  <cansmi>
Cc1[nH]c2cc(nn2c(=O)c1)C

>  <HBA2>
3

>  <HBD>
1

>  <logP>
0.6394

>  <TPSA>
50.16

>  <MW>
163.177

$$$$

 OpenBabel02121609142D

 12 13  0  0  0  0  0  0  0  0999 V2000
   -0.5333   -0.5000    0.0000 C   0  0  0  0  0  0  0  0  0  0  0  0
   -0.5333    0.5000    0.0000 C   0  0  0  0  0  0  0  0  0  0  0  0
    0.3292   -1.0000    0.0000 C   0  0  0  0  0  0  0  0  0  0  0  0
   -1.4833   -0.8042    0.0000 O   0  0  0  0  0  0  0  0  0  0  0  0
   -1.4833    0.8125    0.0000 O   0  0  0  0  0  0  0  0  0  0  0  0
    0.3292    1.0000    0.0000 C   0  0  0  0  0  0  0  0  0  0  0  0
    1.2000   -0.5000    0.0000 C   0  0  0  0  0  0  0  0  0  0  0  0
   -2.0708    0.0000    0.0000 C   0  0  0  0  0  0  0  0  0  0  0  0
    1.2000    0.5000    0.0000 C   0  0  0  0  0  0  0  0  0  0  0  0
    0.3292   -2.0000    0.0000 Br  0  0  0  0  0  0  0  0  0  0  0  0
    2.0667    2.0000    0.0000 O   0  0  0  0  0  0  0  0  0  0  0  0
    2.0667    1.0000    0.0000 C   0  0  0  0  0  0  0  0  0  0  0  0
  2  1  1  0  0  0  0
  3  1  2  0  0  0  0
  4  1  1  0  0  0  0
  5  2  1  0  0  0  0
  5  8  1  0  0  0  0
  6  2  2  0  0  0  0
  7  3  1  0  0  0  0
  8  4  1  0  0  0  0
  9  7  2  0  0  0  0
  9  6  1  0  0  0  0
 10  3  1  0  0  0  0
 11 12  1  0  0  0  0
 12  9  1  0  0  0  0
M  END
>  <idnumber>
T5857970

>  <LogP>
1.603000000000000e+000

>  <rotating_bonds>
1.000000000000000e+000

>  <hb_acceptors>
3.000000000000000e+000

>  <hb_donors>
1.000000000000000e+000

>  <PSA>
3.869000000000001e+001

>  <clusterid>
-1450

>  <is_centroid>
@

>  <class1>
811

>  <population1>
21222

>  <population>
21222

>  <cansmi>
OCc1cc(Br)c2c(c1)OCO2

>  <HBA2>
3

>  <HBD>
1

>  <logP>
1.6701

>  <TPSA>
38.69

>  <MW>
231.043

$$$$

 OpenBabel02121609142D

 19 21  0  0  0  0  0  0  0  0999 V2000
    0.7667   -0.2417    0.0000 C   0  0  0  0  0  0  0  0  0  0  0  0
   -0.1000    0.2583    0.0000 N   0  0  0  0  0  0  0  0  0  0  0  0
    1.6292    0.2583    0.0000 C   0  0  0  0  0  0  0  0  0  0  0  0
   -1.8333    0.2583    0.0000 C   0  0  0  0  0  0  0  0  0  0  0  0
   -1.8333    1.2500    0.0000 C   0  0  0  0  0  0  0  0  0  0  0  0
   -0.9708   -0.2417    0.0000 C   0  0  0  0  0  0  0  0  0  0  0  0
   -2.7833    1.5625    0.0000 S   0  0  0  0  0  0  0  0  0  0  0  0
   -0.9708    1.7500    0.0000 C   0  0  0  0  0  0  0  0  0  0  0  0
   -0.1000    1.2500    0.0000 C   0  0  0  0  0  0  0  0  0  0  0  0
   -3.3708    0.7500    0.0000 C   0  0  0  0  0  0  0  0  0  0  0  0
   -2.7833   -0.0542    0.0000 C   0  0  0  0  0  0  0  0  0  0  0  0
    2.5000   -0.2417    0.0000 C   0  0  0  0  0  0  0  0  0  0  0  0
    0.7667   -1.2500    0.0000 O   0  0  0  0  0  0  0  0  0  0  0  0
    1.6292    1.2500    0.0000 C   0  0  0  0  0  0  0  0  0  0  0  0
    2.5000   -1.2500    0.0000 O   0  0  0  0  0  0  0  0  0  0  0  0
    3.3667    0.2583    0.0000 C   0  0  0  0  0  0  0  0  0  0  0  0
    3.3667   -1.7500    0.0000 C   0  0  0  0  0  0  0  0  0  0  0  0
    2.5000    1.7500    0.0000 C   0  0  0  0  0  0  0  0  0  0  0  0
    3.3667    1.2500    0.0000 C   0  0  0  0  0  0  0  0  0  0  0  0
  2  1  1  0  0  0  0
  3  1  1  0  0  0  0
  4  6  1  0  0  0  0
  4  5  2  0  0  0  0
  5  8  1  0  0  0  0
  6  2  1  0  0  0  0
  7  5  1  0  0  0  0
  7 10  1  0  0  0  0
  8  9  1  0  0  0  0
  9  2  1  0  0  0  0
 10 11  2  0  0  0  0
 11  4  1  0  0  0  0
 12  3  2  0  0  0  0
 13  1  2  0  0  0  0
 14  3  1  0  0  0  0
 15 12  1  0  0  0  0
 16 12  1  0  0  0  0
 16 19  2  0  0  0  0
 17 15  1  0  0  0  0
 18 14  2  0  0  0  0
 19 18  1  0  0  0  0
M  END
>  <idnumber>
T5859521

>  <LogP>
2.946000000000000e+000

>  <rotating_bonds>
2.000000000000000e+000

>  <hb_acceptors>
3.000000000000000e+000

>  <hb_donors>
0.000000000000000e+000

>  <PSA>
5.778000000000000e+001

>  <clusterid>
-1453

>  <is_centroid>
@

>  <class1>
625

>  <class2>
709

>  <population1>
877209

>  <population2>
2293

>  <population>
1900

>  <cansmi>
COc1ccccc1C(=O)N1CCc2c(C1)ccs2

>  <HBA2>
4

>  <HBD>
0

>  <logP>
2.8931

>  <TPSA>
57.78

>  <MW>
273.35

$$$$

 OpenBabel02121609142D

 22 24  0  0  0  0  0  0  0  0999 V2000
    0.4792    1.8125    0.0000 C   0  0  0  0  0  0  0  0  0  0  0  0
    1.4792    1.8125    0.0000 N   0  0  0  0  0  0  0  0  0  0  0  0
    2.0667    1.0083    0.0000 C   0  0  3  0  0  0  0  0  0  0  0  0
   -0.0208    2.6833    0.0000 N   0  0  0  0  0  0  0  0  0  0  0  0
   -0.0208    0.9500    0.0000 O   0  0  0  0  0  0  0  0  0  0  0  0
    1.7542    0.0583    0.0000 C   0  0  0  0  0  0  0  0  0  0  0  0
   -2.5208    1.8125    0.0000 N   0  0  0  0  0  0  0  0  0  0  0  0
    2.4250   -0.6875    0.0000 C   0  0  0  0  0  0  0  0  0  0  0  0
    0.7792   -0.1542    0.0000 C   0  0  0  0  0  0  0  0  0  0  0  0
    2.0667    2.6250    0.0000 C   0  0  0  0  0  0  0  0  0  0  0  0
   -1.0208    2.6833    0.0000 C   0  0  0  0  0  0  0  0  0  0  0  0
    1.1375   -1.8500    0.0000 C   0  0  0  0  0  0  0  0  0  0  0  0
    2.1167   -1.6417    0.0000 C   0  0  0  0  0  0  0  0  0  0  0  0
    0.4667   -1.1042    0.0000 C   0  0  0  0  0  0  0  0  0  0  0  0
    3.0167    1.3125    0.0000 C   0  0  0  0  0  0  0  0  0  0  0  0
    0.8292   -2.8000    0.0000 O   0  0  0  0  0  0  0  0  0  0  0  0
   -1.5208    1.8125    0.0000 C   0  0  0  0  0  0  0  0  0  0  0  0
    3.0167    2.3125    0.0000 C   0  0  0  0  0  0  0  0  0  0  0  0
   -3.0208    2.6833    0.0000 C   0  0  0  0  0  0  0  0  0  0  0  0
   -1.5208    3.5458    0.0000 C   0  0  0  0  0  0  0  0  0  0  0  0
    1.5000   -3.5417    0.0000 C   0  0  0  0  0  0  0  0  0  0  0  0
   -2.5208    3.5458    0.0000 C   0  0  0  0  0  0  0  0  0  0  0  0
  2  1  1  0  0  0  0
  3  2  1  0  0  0  0
  4  1  1  0  0  0  0
  5  1  2  0  0  0  0
  6  3  1  0  0  0  0
  7 17  1  0  0  0  0
  7 19  2  0  0  0  0
  8  6  1  0  0  0  0
  9  6  2  0  0  0  0
 10  2  1  0  0  0  0
 11  4  1  0  0  0  0
 12 14  2  0  0  0  0
 12 13  1  0  0  0  0
 13  8  2  0  0  0  0
 14  9  1  0  0  0  0
 15  3  1  0  0  0  0
 15 18  1  0  0  0  0
 16 12  1  0  0  0  0
 17 11  2  0  0  0  0
 18 10  1  0  0  0  0
 19 22  1  0  0  0  0
 20 11  1  0  0  0  0
 21 16  1  0  0  0  0
 22 20  2  0  0  0  0
M  END
>  <idnumber>
T5860058

>  <LogP>
2.243000000000000e+000

>  <rotating_bonds>
3.000000000000000e+000

>  <hb_acceptors>
3.000000000000000e+000

>  <hb_donors>
1.000000000000000e+000

>  <PSA>
5.446000000000002e+001

>  <clusterid>
-1454

>  <is_centroid>
@

>  <class1>
642

>  <class2>
625

>  <class3>
632

>  <population1>
51183

>  <population2>
877209

>  <population3>
79489

>  <population>
2488

>  <cansmi>
COc1ccc(cc1)C1CCCN1C(=O)Nc1cccnc1

>  <HBA2>
5

>  <HBD>
1

>  <logP>
3.4701

>  <TPSA>
54.46

>  <MW>
297.352

$$$$

 OpenBabel02121609142D

 10 11  0  0  0  0  0  0  0  0999 V2000
    0.5417    0.8125    0.0000 N   0  0  0  0  0  0  0  0  0  0  0  0
    1.1292    0.0000    0.0000 C   0  0  0  0  0  0  0  0  0  0  0  0
    0.5417   -0.8042    0.0000 O   0  0  0  0  0  0  0  0  0  0  0  0
   -0.4083    0.5000    0.0000 C   0  0  0  0  0  0  0  0  0  0  0  0
   -0.4083   -0.5000    0.0000 C   0  0  0  0  0  0  0  0  0  0  0  0
    2.1292    0.0000    0.0000 Cl  0  0  0  0  0  0  0  0  0  0  0  0
   -1.2708    1.0000    0.0000 C   0  0  0  0  0  0  0  0  0  0  0  0
   -1.2708   -1.0000    0.0000 C   0  0  0  0  0  0  0  0  0  0  0  0
   -2.1375   -0.5000    0.0000 C   0  0  0  0  0  0  0  0  0  0  0  0
   -2.1375    0.5000    0.0000 C   0  0  0  0  0  0  0  0  0  0  0  0
  2  1  2  0  0  0  0
  3  2  1  0  0  0  0
  4  1  1  0  0  0  0
  5  4  2  0  0  0  0
  5  3  1  0  0  0  0
  6  2  1  0  0  0  0
  7  4  1  0  0  0  0
  8  5  1  0  0  0  0
  8  9  2  0  0  0  0
  9 10  1  0  0  0  0
 10  7  2  0  0  0  0
M  END
>  <idnumber>
T5860451

>  <LogP>
2.212000000000000e+000

>  <rotating_bonds>
0.000000000000000e+000

>  <hb_acceptors>
2.000000000000000e+000

>  <hb_donors>
0.000000000000000e+000

>  <PSA>
2.603000000000000e+001

>  <clusterid>
-1458

>  <is_centroid>
@

>  <class1>
752

>  <population1>
4005

>  <population>
4005

>  <cansmi>
Clc1nc2c(o1)cccc2

>  <HBA2>
2

>  <HBD>
0

>  <logP>
2.4812

>  <TPSA>
26.03

>  <MW>
153.566

$$$$

 OpenBabel02121609142D

 19 20  0  0  0  0  0  0  0  0999 V2000
   -0.6208    1.0000    0.0000 C   0  0  0  0  0  0  0  0  0  0  0  0
   -0.6208    0.0000    0.0000 C   0  0  0  0  0  0  0  0  0  0  0  0
   -1.5708    1.3083    0.0000 N   0  0  0  0  0  0  0  0  0  0  0  0
   -2.1583    0.5000    0.0000 N   0  0  0  0  0  0  0  0  0  0  0  0
    0.2500    1.5000    0.0000 N   0  0  0  0  0  0  0  0  0  0  0  0
    0.2500   -0.5000    0.0000 C   0  0  0  0  0  0  0  0  0  0  0  0
   -1.5708   -0.3042    0.0000 C   0  0  0  0  0  0  0  0  0  0  0  0
    1.1167    1.0000    0.0000 C   0  0  0  0  0  0  0  0  0  0  0  0
    1.1167    0.0000    0.0000 C   0  0  0  0  0  0  0  0  0  0  0  0
    0.2500   -1.5000    0.0000 C   0  0  0  0  0  0  0  0  0  0  0  0
   -1.8750    2.2708    0.0000 C   0  0  0  0  0  0  0  0  0  0  0  0
   -0.6208   -2.0000    0.0000 O   0  0  0  0  0  0  0  0  0  0  0  0
    1.1167   -2.0000    0.0000 N   0  0  0  0  0  0  0  0  0  0  0  0
    1.9792    1.5000    0.0000 C   0  0  0  0  0  0  0  0  0  0  0  0
    1.1167   -3.0000    0.0000 C   0  0  0  0  0  0  0  0  0  0  0  0
   -1.2083    3.0083    0.0000 C   0  0  0  0  0  0  0  0  0  0  0  0
   -2.8583    2.4708    0.0000 C   0  0  0  0  0  0  0  0  0  0  0  0
    1.9792    2.5000    0.0000 C   0  0  0  0  0  0  0  0  0  0  0  0
    2.8500    1.0000    0.0000 C   0  0  0  0  0  0  0  0  0  0  0  0
  2  1  1  0  0  0  0
  3  1  1  0  0  0  0
  4  3  1  0  0  0  0
  4  7  2  0  0  0  0
  5  1  2  0  0  0  0
  6  2  2  0  0  0  0
  6  9  1  0  0  0  0
  7  2  1  0  0  0  0
  8  5  1  0  0  0  0
  9  8  2  0  0  0  0
 10  6  1  0  0  0  0
 11  3  1  0  0  0  0
 12 10  2  0  0  0  0
 13 10  1  0  0  0  0
 14  8  1  0  0  0  0
 15 13  1  0  0  0  0
 16 11  1  0  0  0  0
 17 11  1  0  0  0  0
 18 14  1  0  0  0  0
 19 14  1  0  0  0  0
M  END
>  <idnumber>
T5865076

>  <LogP>
2.532000000000000e+000

>  <rotating_bonds>
3.000000000000000e+000

>  <hb_acceptors>
3.000000000000000e+000

>  <hb_donors>
1.000000000000000e+000

>  <PSA>
5.981000000000002e+001

>  <clusterid>
-1462

>  <is_centroid>
@

>  <class1>
726

>  <population1>
3632

>  <population>
3632

>  <cansmi>
CNC(=O)c1cc(nc2c1cnn2C(C)C)C(C)C

>  <HBA2>
5

>  <HBD>
1

>  <logP>
2.8861

>  <TPSA>
59.81

>  <MW>
260.335

$$$$

 OpenBabel02121609142D

 22 24  0  0  0  0  0  0  0  0999 V2000
   -1.3000   -0.5000    0.0000 N   0  0  0  0  0  0  0  0  0  0  0  0
   -0.4333   -1.0000    0.0000 C   0  0  0  0  0  0  0  0  0  0  0  0
   -2.1708   -1.0000    0.0000 C   0  0  0  0  0  0  0  0  0  0  0  0
    0.4292   -0.5000    0.0000 N   0  0  0  0  0  0  0  0  0  0  0  0
    3.8917   -0.5000    0.0000 N   0  0  0  0  0  0  0  0  0  0  0  0
   -3.0333   -0.5000    0.0000 C   0  0  0  0  0  0  0  0  0  0  0  0
    3.8917    0.5083    0.0000 C   0  0  0  0  0  0  0  0  0  0  0  0
   -1.3000    0.5000    0.0000 C   0  0  0  0  0  0  0  0  0  0  0  0
   -0.4333   -2.0000    0.0000 O   0  0  0  0  0  0  0  0  0  0  0  0
   -3.0333    0.5000    0.0000 C   0  0  0  0  0  0  0  0  0  0  0  0
    2.1625   -0.5000    0.0000 C   0  0  0  0  0  0  0  0  0  0  0  0
   -2.1708    1.0000    0.0000 C   0  0  0  0  0  0  0  0  0  0  0  0
    3.0292   -1.0000    0.0000 C   0  0  0  0  0  0  0  0  0  0  0  0
    1.2917   -1.0000    0.0000 C   0  0  0  0  0  0  0  0  0  0  0  0
    3.0292    1.0000    0.0000 C   0  0  0  0  0  0  0  0  0  0  0  0
    2.1625    0.5083    0.0000 C   0  0  0  0  0  0  0  0  0  0  0  0
    4.7625    1.0000    0.0000 O   0  0  0  0  0  0  0  0  0  0  0  0
   -3.9000   -1.0000    0.0000 C   0  0  0  0  0  0  0  0  0  0  0  0
   -3.9000    1.0000    0.0000 C   0  0  0  0  0  0  0  0  0  0  0  0
    4.7625    2.0000    0.0000 C   0  0  0  0  0  0  0  0  0  0  0  0
   -4.7708   -0.5000    0.0000 C   0  0  0  0  0  0  0  0  0  0  0  0
   -4.7708    0.5000    0.0000 C   0  0  0  0  0  0  0  0  0  0  0  0
  2  1  1  0  0  0  0
  3  1  1  0  0  0  0
  4  2  1  0  0  0  0
  5 13  1  0  0  0  0
  5  7  2  0  0  0  0
  6  3  1  0  0  0  0
  6 10  2  0  0  0  0
  7 15  1  0  0  0  0
  8  1  1  0  0  0  0
  9  2  2  0  0  0  0
 10 12  1  0  0  0  0
 11 14  1  0  0  0  0
 12  8  1  0  0  0  0
 13 11  2  0  0  0  0
 14  4  1  0  0  0  0
 15 16  2  0  0  0  0
 16 11  1  0  0  0  0
 17  7  1  0  0  0  0
 18  6  1  0  0  0  0
 19 10  1  0  0  0  0
 20 17  1  0  0  0  0
 21 18  2  0  0  0  0
 22 19  2  0  0  0  0
 22 21  1  0  0  0  0
M  END
>  <idnumber>
T5867485

>  <LogP>
2.552000000000000e+000

>  <rotating_bonds>
3.000000000000000e+000

>  <hb_acceptors>
3.000000000000000e+000

>  <hb_donors>
1.000000000000000e+000

>  <PSA>
5.446000000000002e+001

>  <clusterid>
-1464

>  <is_centroid>
@

>  <class1>
750

>  <class2>
632

>  <population1>
7929

>  <population2>
79489

>  <population>
464

>  <cansmi>
COc1ccc(cn1)CNC(=O)N1CCc2c(C1)cccc2

>  <HBA2>
5

>  <HBD>
1

>  <logP>
2.6869

>  <TPSA>
54.46

>  <MW>
297.352

$$$$

 OpenBabel02121609142D

 19 22  0  0  0  0  0  0  0  0999 V2000
   -0.2833   -1.5500    0.0000 C   0  0  3  0  0  0  0  0  0  0  0  0
   -0.5250    0.0583    0.0000 C   0  0  0  0  0  0  0  0  0  0  0  0
   -0.9458   -0.8167    0.0000 N   0  0  0  0  0  0  0  0  0  0  0  0
   -0.8958    3.1458    0.0000 S   0  0  0  0  0  0  0  0  0  0  0  0
   -0.8875    1.6125    0.0000 C   0  0  0  0  0  0  0  0  0  0  0  0
    0.1167   -3.1417    0.0000 C   0  0  3  0  0  0  0  0  0  0  0  0
    1.4417   -2.1917    0.0000 C   0  0  3  0  0  0  0  0  0  0  0  0
    1.0625   -1.8167    0.0000 C   0  0  3  0  0  0  0  0  0  0  0  0
   -1.4458    2.3833    0.0000 C   0  0  0  0  0  0  0  0  0  0  0  0
   -0.6208   -2.4292    0.0000 C   0  0  0  0  0  0  0  0  0  0  0  0
   -0.0208   -2.6000    0.0000 C   0  0  0  0  0  0  0  0  0  0  0  0
    0.7042   -1.2792    0.0000 C   0  0  0  0  0  0  0  0  0  0  0  0
    0.0125    2.8583    0.0000 C   0  0  0  0  0  0  0  0  0  0  0  0
    0.0125    1.9083    0.0000 C   0  0  0  0  0  0  0  0  0  0  0  0
    0.4167    0.2250    0.0000 O   0  0  0  0  0  0  0  0  0  0  0  0
   -1.2083    0.7208    0.0000 C   0  0  0  0  0  0  0  0  0  0  0  0
    0.3250   -1.8417    0.0000 C   0  0  0  0  0  0  0  0  0  0  0  0
    0.6917   -2.7292    0.0000 C   0  0  0  0  0  0  0  0  0  0  0  0
    1.1375   -3.0250    0.0000 C   0  0  0  0  0  0  0  0  0  0  0  0
  2  3  1  0  0  0  0
  3  1  1  0  0  0  0
  4  9  1  0  0  0  0
  5 16  1  0  0  0  0
  6 10  1  0  0  0  0
  6 19  1  0  0  0  0
  6 17  1  0  0  0  0
  7 12  1  0  0  0  0
  8 11  1  0  0  0  0
  9  5  2  0  0  0  0
 10  1  1  0  0  0  0
 11  1  1  0  0  0  0
 12  1  1  0  0  0  0
 13 14  2  0  0  0  0
 13  4  1  0  0  0  0
 14  5  1  0  0  0  0
 15  2  2  0  0  0  0
 16  2  1  0  0  0  0
 17  8  1  0  0  0  0
 18  7  1  0  0  0  0
 18  8  1  0  0  0  0
 19  7  1  0  0  0  0
M  END
>  <idnumber>
T5869521

>  <LogP>
2.995000000000000e+000

>  <rotating_bonds>
3.000000000000000e+000

>  <hb_acceptors>
2.000000000000000e+000

>  <hb_donors>
1.000000000000000e+000

>  <PSA>
5.734000000000000e+001

>  <clusterid>
-1466

>  <is_centroid>
@

>  <class1>
809

>  <class2>
645

>  <population1>
8162

>  <population2>
105961

>  <population>
395

>  <cansmi>
O=C(NC12CC3CC(C2)CC(C1)C3)Cc1cscc1

>  <HBA2>
3

>  <HBD>
1

>  <logP>
3.7665

>  <TPSA>
57.34

>  <MW>
275.409

$$$$

 OpenBabel02121609142D

 19 21  0  0  0  0  0  0  0  0999 V2000
   -1.6750    1.0500    0.0000 C   0  0  0  0  0  0  0  0  0  0  0  0
   -1.3708    2.0000    0.0000 C   0  0  0  0  0  0  0  0  0  0  0  0
   -1.0083    0.3083    0.0000 N   0  0  0  0  0  0  0  0  0  0  0  0
    0.3292   -1.1792    0.0000 C   0  0  0  0  0  0  0  0  0  0  0  0
    0.6417   -0.2292    0.0000 C   0  0  0  0  0  0  0  0  0  0  0  0
   -1.9583    2.8125    0.0000 C   0  0  0  0  0  0  0  0  0  0  0  0
   -0.0333    0.5208    0.0000 C   0  0  0  0  0  0  0  0  0  0  0  0
   -0.4208    2.3125    0.0000 C   0  0  0  0  0  0  0  0  0  0  0  0
   -1.3708    3.6208    0.0000 O   0  0  0  0  0  0  0  0  0  0  0  0
   -2.6583    0.8458    0.0000 O   0  0  0  0  0  0  0  0  0  0  0  0
   -1.3208   -0.6417    0.0000 C   0  0  0  0  0  0  0  0  0  0  0  0
   -0.6458   -1.3875    0.0000 C   0  0  0  0  0  0  0  0  0  0  0  0
   -0.4208    3.3125    0.0000 C   0  0  0  0  0  0  0  0  0  0  0  0
    1.0000   -1.9167    0.0000 C   0  0  0  0  0  0  0  0  0  0  0  0
    1.9792   -1.7125    0.0000 C   0  0  0  0  0  0  0  0  0  0  0  0
    0.6917   -2.8667    0.0000 C   0  0  0  0  0  0  0  0  0  0  0  0
    1.3625   -3.6167    0.0000 C   0  0  0  0  0  0  0  0  0  0  0  0
    2.6500   -2.4542    0.0000 C   0  0  0  0  0  0  0  0  0  0  0  0
    2.3417   -3.4042    0.0000 C   0  0  0  0  0  0  0  0  0  0  0  0
  2  1  1  0  0  0  0
  3  1  1  0  0  0  0
  4 12  1  0  0  0  0
  5  7  1  0  0  0  0
  5  4  2  0  0  0  0
  6  2  2  0  0  0  0
  7  3  1  0  0  0  0
  8  2  1  0  0  0  0
  9  6  1  0  0  0  0
 10  1  2  0  0  0  0
 11  3  1  0  0  0  0
 12 11  1  0  0  0  0
 13  8  2  0  0  0  0
 13  9  1  0  0  0  0
 14  4  1  0  0  0  0
 15 14  2  0  0  0  0
 16 14  1  0  0  0  0
 17 16  2  0  0  0  0
 18 15  1  0  0  0  0
 18 19  2  0  0  0  0
 19 17  1  0  0  0  0
M  END
>  <idnumber>
T5870435

>  <LogP>
2.280000000000000e+000

>  <rotating_bonds>
2.000000000000000e+000

>  <hb_acceptors>
1.000000000000000e+000

>  <hb_donors>
0.000000000000000e+000

>  <PSA>
3.345000000000000e+001

>  <clusterid>
-1470

>  <is_centroid>
@

>  <class1>
704

>  <class2>
715

>  <class3>
625

>  <population1>
51112

>  <population2>
4585

>  <population3>
877209

>  <population>
85

>  <cansmi>
O=C(c1cocc1)N1CCC(=CC1)c1ccccc1

>  <HBA2>
3

>  <HBD>
0

>  <logP>
3.147

>  <TPSA>
33.45

>  <MW>
253.296

$$$$

 OpenBabel02121609142D

 19 21  0  0  0  0  0  0  0  0999 V2000
    1.8042   -0.6917    0.0000 C   0  0  0  0  0  0  0  0  0  0  0  0
    1.9042   -1.6792    0.0000 N   0  0  0  0  0  0  0  0  0  0  0  0
    0.9375    0.8083    0.0000 C   0  0  0  0  0  0  0  0  0  0  0  0
    0.0667    1.3083    0.0000 C   0  0  3  0  0  0  0  0  0  0  0  0
    0.9375   -0.1917    0.0000 N   0  0  0  0  0  0  0  0  0  0  0  0
    2.7167   -0.2792    0.0000 C   0  0  0  0  0  0  0  0  0  0  0  0
    2.8875   -1.8917    0.0000 N   0  0  0  0  0  0  0  0  0  0  0  0
   -0.7958    2.8083    0.0000 O   0  0  0  0  0  0  0  0  0  0  0  0
    3.3875   -1.0250    0.0000 C   0  0  0  0  0  0  0  0  0  0  0  0
   -0.7958    0.8083    0.0000 C   0  0  0  0  0  0  0  0  0  0  0  0
   -1.6583    1.3083    0.0000 C   0  0  0  0  0  0  0  0  0  0  0  0
    0.0667    2.3083    0.0000 C   0  0  0  0  0  0  0  0  0  0  0  0
   -1.6583    2.3083    0.0000 C   0  0  0  0  0  0  0  0  0  0  0  0
    1.8042    1.3083    0.0000 O   0  0  0  0  0  0  0  0  0  0  0  0
    3.2917   -2.8042    0.0000 C   0  0  0  0  0  0  0  0  0  0  0  0
   -2.5250    0.8083    0.0000 C   0  0  0  0  0  0  0  0  0  0  0  0
   -2.5250    2.8083    0.0000 C   0  0  0  0  0  0  0  0  0  0  0  0
   -3.3958    1.3083    0.0000 C   0  0  0  0  0  0  0  0  0  0  0  0
   -3.3958    2.3083    0.0000 C   0  0  0  0  0  0  0  0  0  0  0  0
  2  1  2  0  0  0  0
  3  5  1  0  0  0  0
  4  3  1  0  0  0  0
  5  1  1  0  0  0  0
  6  1  1  0  0  0  0
  7  2  1  0  0  0  0
  7  9  1  0  0  0  0
  8 12  1  0  0  0  0
  9  6  2  0  0  0  0
 10  4  1  0  0  0  0
 11 10  1  0  0  0  0
 11 13  2  0  0  0  0
 12  4  1  0  0  0  0
 13  8  1  0  0  0  0
 14  3  2  0  0  0  0
 15  7  1  0  0  0  0
 16 11  1  0  0  0  0
 17 13  1  0  0  0  0
 18 16  2  0  0  0  0
 19 17  2  0  0  0  0
 19 18  1  0  0  0  0
M  END
>  <idnumber>
T5870544

>  <LogP>
1.602000000000000e+000

>  <rotating_bonds>
2.000000000000000e+000

>  <hb_acceptors>
3.000000000000000e+000

>  <hb_donors>
1.000000000000000e+000

>  <PSA>
5.614999999999996e+001

>  <clusterid>
-1471

>  <is_centroid>
@

>  <class1>
631

>  <class2>
766

>  <population1>
41612

>  <population2>
1661

>  <population>
56

>  <cansmi>
Cn1ccc(n1)NC(=O)C1COc2c(C1)cccc2

>  <HBA2>
5

>  <HBD>
1

>  <logP>
1.6829

>  <TPSA>
56.15

>  <MW>
257.288

$$$$

 OpenBabel02121609142D

 14 14  0  0  0  0  0  0  0  0999 V2000
    2.1292    1.2333    0.0000 C   0  0  0  0  0  0  0  0  0  0  0  0
    1.5417    2.0375    0.0000 N   0  0  0  0  0  0  0  0  0  0  0  0
    0.5917    1.7333    0.0000 C   0  0  0  0  0  0  0  0  0  0  0  0
    1.5417    0.4208    0.0000 C   0  0  3  0  0  0  0  0  0  0  0  0
    0.5917    0.7333    0.0000 C   0  0  0  0  0  0  0  0  0  0  0  0
    3.1292    1.2333    0.0000 O   0  0  0  0  0  0  0  0  0  0  0  0
   -3.1375    0.6375    0.0000 Cl  0  0  0  0  0  0  0  0  0  0  0  0
    1.4917   -2.2250    0.0000 N   0  0  0  0  0  0  0  0  0  0  0  0
    1.8542   -0.5292    0.0000 C   0  0  0  0  0  0  0  0  0  0  0  0
   -0.2708    0.2333    0.0000 C   0  0  0  0  0  0  0  0  0  0  0  0
   -0.2708    2.2333    0.0000 C   0  0  0  0  0  0  0  0  0  0  0  0
    1.1875   -1.2750    0.0000 C   0  0  0  0  0  0  0  0  0  0  0  0
   -1.1375    0.7333    0.0000 C   0  0  0  0  0  0  0  0  0  0  0  0
   -1.1375    1.7333    0.0000 C   0  0  0  0  0  0  0  0  0  0  0  0
  2  1  1  0  0  0  0
  3  2  1  0  0  0  0
  3  5  2  0  0  0  0
  4  1  1  0  0  0  0
  5  4  1  0  0  0  0
  6  1  2  0  0  0  0
  8 12  1  0  0  0  0
  9  4  1  0  0  0  0
 10  5  1  0  0  0  0
 11  3  1  0  0  0  0
 12  9  1  0  0  0  0
 13 10  2  0  0  0  0
 14 11  2  0  0  0  0
 14 13  1  0  0  0  0
M  END
>  <idnumber>
T5870673

>  <LogP>
3.300000000000000e-001

>  <rotating_bonds>
2.000000000000000e+000

>  <hb_acceptors>
2.000000000000000e+000

>  <hb_donors>
2.000000000000000e+000

>  <PSA>
5.512000000000001e+001

>  <clusterid>
-1473

>  <is_centroid>
@

>  <class1>
968

>  <population1>
3974

>  <population>
3974

>  <cansmi>
NCCC1C(=O)Nc2c1cccc2.Cl

>  <HBA2>
3

>  <HBD>
3

>  <logP>
2.7114

>  <TPSA>
55.12

>  <MW>
212.676

$$$$

 OpenBabel02121609142D

 18 20  0  0  0  0  0  0  0  0999 V2000
    0.9417   -1.1417    0.0000 N   0  0  0  0  0  0  0  0  0  0  0  0
    0.3542   -0.3375    0.0000 C   0  0  0  0  0  0  0  0  0  0  0  0
    0.9417    0.4750    0.0000 S   0  0  0  0  0  0  0  0  0  0  0  0
   -3.6875    1.0333    0.0000 N   0  0  0  0  0  0  0  0  0  0  0  0
    1.8917   -0.8375    0.0000 C   0  0  0  0  0  0  0  0  0  0  0  0
   -3.6875    0.0333    0.0000 N   0  0  0  0  0  0  0  0  0  0  0  0
   -2.1458    0.5333    0.0000 C   0  0  0  0  0  0  0  0  0  0  0  0
    1.8917    0.1625    0.0000 C   0  0  0  0  0  0  0  0  0  0  0  0
   -2.7333   -0.2792    0.0000 C   0  0  0  0  0  0  0  0  0  0  0  0
   -0.6458   -0.3375    0.0000 C   0  0  0  0  0  0  0  0  0  0  0  0
   -1.1458    0.5333    0.0000 C   0  0  0  0  0  0  0  0  0  0  0  0
   -2.7333    1.3375    0.0000 C   0  0  0  0  0  0  0  0  0  0  0  0
    2.7542   -1.3375    0.0000 C   0  0  0  0  0  0  0  0  0  0  0  0
    2.7542    0.6625    0.0000 C   0  0  0  0  0  0  0  0  0  0  0  0
    3.6250   -0.8375    0.0000 C   0  0  0  0  0  0  0  0  0  0  0  0
    3.6250    0.1625    0.0000 C   0  0  0  0  0  0  0  0  0  0  0  0
   -4.4958   -0.5542    0.0000 C   0  0  0  0  0  0  0  0  0  0  0  0
    4.4917   -1.3375    0.0000 C   0  0  0  0  0  0  0  0  0  0  0  0
  2  1  2  0  0  0  0
  3  2  1  0  0  0  0
  4 12  2  0  0  0  0
  4  6  1  0  0  0  0
  5  1  1  0  0  0  0
  6  9  1  0  0  0  0
  7 11  1  0  0  0  0
  8  5  2  0  0  0  0
  8  3  1  0  0  0  0
  9  7  2  0  0  0  0
 10  2  1  0  0  0  0
 11 10  2  0  0  0  0
 12  7  1  0  0  0  0
 13  5  1  0  0  0  0
 14  8  1  0  0  0  0
 15 13  2  0  0  0  0
 16 15  1  0  0  0  0
 16 14  2  0  0  0  0
 17  6  1  0  0  0  0
 18 15  1  0  0  0  0
M  END
>  <idnumber>
T5871902

>  <LogP>
2.986000000000000e+000

>  <rotating_bonds>
2.000000000000000e+000

>  <hb_acceptors>
3.000000000000000e+000

>  <hb_donors>
0.000000000000000e+000

>  <PSA>
5.895000000000000e+001

>  <clusterid>
764

>  <is_centroid>
@

>  <class1>
631

>  <class2>
640

>  <population1>
41612

>  <population2>
23901

>  <population>
606

>  <cansmi>
Cc1ccc2c(c1)nc(s2)/C=C/c1cnn(c1)C

>  <HBA2>
4

>  <HBD>
0

>  <logP>
3.5086

>  <TPSA>
58.95

>  <MW>
255.338

$$$$

 OpenBabel02121609142D

 18 20  0  0  0  0  0  0  0  0999 V2000
    0.3625    0.0083    0.0000 C   0  0  0  0  0  0  0  0  0  0  0  0
    1.2292   -0.5000    0.0000 C   0  0  0  0  0  0  0  0  0  0  0  0
   -0.5000    1.5000    0.0000 N   0  0  0  0  0  0  0  0  0  0  0  0
    0.3625    1.0083    0.0000 C   0  0  0  0  0  0  0  0  0  0  0  0
   -0.5000   -0.5000    0.0000 C   0  0  0  0  0  0  0  0  0  0  0  0
    2.0917    0.0083    0.0000 N   0  0  0  0  0  0  0  0  0  0  0  0
   -1.3708    0.0083    0.0000 C   0  0  0  0  0  0  0  0  0  0  0  0
   -1.3708    1.0083    0.0000 C   0  0  0  0  0  0  0  0  0  0  0  0
    2.9625   -0.5000    0.0000 C   0  0  0  0  0  0  0  0  0  0  0  0
    3.4625   -1.3625    0.0000 C   0  0  0  0  0  0  0  0  0  0  0  0
    3.9625   -0.5000    0.0000 C   0  0  0  0  0  0  0  0  0  0  0  0
    1.2292   -1.5000    0.0000 O   0  0  0  0  0  0  0  0  0  0  0  0
   -2.2333   -0.5000    0.0000 C   0  0  0  0  0  0  0  0  0  0  0  0
   -2.2333    1.5000    0.0000 C   0  0  0  0  0  0  0  0  0  0  0  0
   -3.1000    0.0083    0.0000 C   0  0  0  0  0  0  0  0  0  0  0  0
   -3.1000    1.0083    0.0000 C   0  0  0  0  0  0  0  0  0  0  0  0
   -3.9708   -0.5000    0.0000 Cl  0  0  0  0  0  0  0  0  0  0  0  0
    1.2292    1.5000    0.0000 C   0  0  0  0  0  0  0  0  0  0  0  0
  2  1  1  0  0  0  0
  3  4  1  0  0  0  0
  3  8  2  0  0  0  0
  4  1  2  0  0  0  0
  5  1  1  0  0  0  0
  6  2  1  0  0  0  0
  7  5  2  0  0  0  0
  8  7  1  0  0  0  0
  9  6  1  0  0  0  0
 10  9  1  0  0  0  0
 10 11  1  0  0  0  0
 11  9  1  0  0  0  0
 12  2  2  0  0  0  0
 13  7  1  0  0  0  0
 14  8  1  0  0  0  0
 15 13  2  0  0  0  0
 16 15  1  0  0  0  0
 16 14  2  0  0  0  0
 17 15  1  0  0  0  0
 18  4  1  0  0  0  0
M  END
>  <idnumber>
T5873779

>  <LogP>
2.778000000000000e+000

>  <rotating_bonds>
2.000000000000000e+000

>  <hb_acceptors>
3.000000000000000e+000

>  <hb_donors>
1.000000000000000e+000

>  <PSA>
4.199000000000000e+001

>  <clusterid>
-1475

>  <is_centroid>
@

>  <class1>
675

>  <class2>
682

>  <population1>
33654

>  <population2>
20351

>  <population>
612

>  <cansmi>
O=C(c1cc2cc(Cl)ccc2nc1C)NC1CC1

>  <HBA2>
3

>  <HBD>
1

>  <logP>
3.4797

>  <TPSA>
41.99

>  <MW>
260.719

$$$$

 OpenBabel02121609142D

 19 21  0  0  0  0  0  0  0  0999 V2000
    0.8625    1.0083    0.0000 N   0  0  0  0  0  0  0  0  0  0  0  0
    0.0000    0.5000    0.0000 C   0  0  0  0  0  0  0  0  0  0  0  0
    0.8625    2.0083    0.0000 C   0  0  0  0  0  0  0  0  0  0  0  0
    0.0000    2.5000    0.0000 N   0  0  0  0  0  0  0  0  0  0  0  0
   -0.8708    1.0083    0.0000 C   0  0  0  0  0  0  0  0  0  0  0  0
   -0.8708    2.0083    0.0000 C   0  0  0  0  0  0  0  0  0  0  0  0
    1.7292    0.5000    0.0000 C   0  0  0  0  0  0  0  0  0  0  0  0
    0.0000   -0.5000    0.0000 O   0  0  0  0  0  0  0  0  0  0  0  0
    2.5917   -2.0000    0.0000 N   0  0  0  0  0  0  0  0  0  0  0  0
    1.7292   -0.5000    0.0000 C   0  0  0  0  0  0  0  0  0  0  0  0
   -1.7333    0.5000    0.0000 C   0  0  0  0  0  0  0  0  0  0  0  0
    1.7292    2.5000    0.0000 C   0  0  0  0  0  0  0  0  0  0  0  0
    2.5917   -1.0000    0.0000 C   0  0  0  0  0  0  0  0  0  0  0  0
   -1.7333    2.5000    0.0000 C   0  0  0  0  0  0  0  0  0  0  0  0
    1.7292   -2.5000    0.0000 C   0  0  0  0  0  0  0  0  0  0  0  0
    0.8625   -1.0000    0.0000 C   0  0  0  0  0  0  0  0  0  0  0  0
   -2.6000    1.0083    0.0000 C   0  0  0  0  0  0  0  0  0  0  0  0
    0.8625   -2.0000    0.0000 C   0  0  0  0  0  0  0  0  0  0  0  0
   -2.6000    2.0083    0.0000 C   0  0  0  0  0  0  0  0  0  0  0  0
  2  1  1  0  0  0  0
  3  1  1  0  0  0  0
  4  3  2  0  0  0  0
  5  2  1  0  0  0  0
  6  4  1  0  0  0  0
  6  5  2  0  0  0  0
  7  1  1  0  0  0  0
  8  2  2  0  0  0  0
  9 13  1  0  0  0  0
  9 15  2  0  0  0  0
 10  7  1  0  0  0  0
 11  5  1  0  0  0  0
 12  3  1  0  0  0  0
 13 10  2  0  0  0  0
 14  6  1  0  0  0  0
 15 18  1  0  0  0  0
 16 10  1  0  0  0  0
 17 11  2  0  0  0  0
 18 16  2  0  0  0  0
 19 14  2  0  0  0  0
 19 17  1  0  0  0  0
M  END
>  <idnumber>
T5874174

>  <LogP>
1.291000000000000e+000

>  <rotating_bonds>
2.000000000000000e+000

>  <hb_acceptors>
3.000000000000000e+000

>  <hb_donors>
0.000000000000000e+000

>  <PSA>
4.556000000000000e+001

>  <clusterid>
-1476

>  <is_centroid>
@

>  <class1>
632

>  <class2>
648

>  <population1>
79489

>  <population2>
19152

>  <population>
744

>  <cansmi>
Cc1nc2ccccc2c(=O)n1Cc1cccnc1

>  <HBA2>
4

>  <HBD>
0

>  <logP>
2.1482

>  <TPSA>
47.78

>  <MW>
251.283

$$$$

 OpenBabel02121609142D

 21 23  0  0  0  0  0  0  0  0999 V2000
    1.1042    1.1250    0.0000 C   0  0  0  0  0  0  0  0  0  0  0  0
    0.5167    1.9333    0.0000 N   0  0  0  0  0  0  0  0  0  0  0  0
    0.8000    0.1750    0.0000 C   0  0  0  0  0  0  0  0  0  0  0  0
    1.4667   -0.5667    0.0000 N   0  0  0  0  0  0  0  0  0  0  0  0
    2.0542    2.4333    0.0000 N   0  0  0  0  0  0  0  0  0  0  0  0
    1.1042    2.7458    0.0000 C   0  0  0  0  0  0  0  0  0  0  0  0
    2.0542    1.4333    0.0000 C   0  0  0  0  0  0  0  0  0  0  0  0
   -0.4833    1.9333    0.0000 C   0  0  0  0  0  0  0  0  0  0  0  0
   -0.1833   -0.0292    0.0000 O   0  0  0  0  0  0  0  0  0  0  0  0
    2.4417   -0.3542    0.0000 C   0  0  0  0  0  0  0  0  0  0  0  0
    1.1542   -1.5167    0.0000 C   0  0  0  0  0  0  0  0  0  0  0  0
   -0.9833    2.8000    0.0000 C   0  0  0  0  0  0  0  0  0  0  0  0
   -0.9833    1.0708    0.0000 C   0  0  0  0  0  0  0  0  0  0  0  0
   -2.4833    1.9333    0.0000 C   0  0  0  0  0  0  0  0  0  0  0  0
   -1.9833    1.0708    0.0000 C   0  0  0  0  0  0  0  0  0  0  0  0
   -1.9833    2.8000    0.0000 C   0  0  0  0  0  0  0  0  0  0  0  0
    1.8292   -2.2625    0.0000 C   0  0  0  0  0  0  0  0  0  0  0  0
    3.1167   -1.1042    0.0000 C   0  0  0  0  0  0  0  0  0  0  0  0
   -3.4833    1.9333    0.0000 F   0  0  0  0  0  0  0  0  0  0  0  0
    2.8042   -2.0542    0.0000 C   0  0  0  0  0  0  0  0  0  0  0  0
    3.4750   -2.7917    0.0000 C   0  0  0  0  0  0  0  0  0  0  0  0
  2  1  1  0  0  0  0
  3  1  1  0  0  0  0
  4  3  1  0  0  0  0
  5  7  1  0  0  0  0
  5  6  2  0  0  0  0
  6  2  1  0  0  0  0
  7  1  2  0  0  0  0
  8  2  1  0  0  0  0
  9  3  2  0  0  0  0
 10  4  1  0  0  0  0
 11  4  1  0  0  0  0
 12  8  1  0  0  0  0
 13  8  2  0  0  0  0
 14 15  2  0  0  0  0
 15 13  1  0  0  0  0
 16 12  2  0  0  0  0
 16 14  1  0  0  0  0
 17 11  1  0  0  0  0
 18 10  1  0  0  0  0
 19 14  1  0  0  0  0
 20 17  1  0  0  0  0
 20 18  1  0  0  0  0
 21 20  1  0  0  0  0
M  END
>  <idnumber>
T5876709

>  <LogP>
2.552000000000000e+000

>  <rotating_bonds>
2.000000000000000e+000

>  <hb_acceptors>
3.000000000000000e+000

>  <hb_donors>
0.000000000000000e+000

>  <PSA>
3.813000000000000e+001

>  <clusterid>
598

>  <is_centroid>
@

>  <class1>
686

>  <class2>
625

>  <class3>
639

>  <population1>
31113

>  <population2>
877209

>  <population3>
59855

>  <population>
1029

>  <cansmi>
CC1CCN(CC1)C(=O)c1cncn1c1ccc(cc1)F

>  <HBA2>
4

>  <HBD>
0

>  <logP>
2.8214

>  <TPSA>
38.13

>  <MW>
287.332

$$$$

 OpenBabel02121609142D

 19 21  0  0  0  0  0  0  0  0999 V2000
   -1.3000   -0.5000    0.0000 N   0  0  0  0  0  0  0  0  0  0  0  0
   -1.3000    0.5000    0.0000 C   0  0  0  0  0  0  0  0  0  0  0  0
   -0.4333   -1.0000    0.0000 C   0  0  0  0  0  0  0  0  0  0  0  0
   -0.4333   -2.0000    0.0000 C   0  0  0  0  0  0  0  0  0  0  0  0
    0.4292   -0.5000    0.0000 C   0  0  0  0  0  0  0  0  0  0  0  0
   -0.4333    1.0000    0.0000 C   0  0  0  0  0  0  0  0  0  0  0  0
   -2.1708    1.0000    0.0000 O   0  0  0  0  0  0  0  0  0  0  0  0
   -0.4333    2.0000    0.0000 N   0  0  0  0  0  0  0  0  0  0  0  0
    0.4292   -2.5000    0.0000 C   0  0  0  0  0  0  0  0  0  0  0  0
   -2.1708   -1.0000    0.0000 C   0  0  0  0  0  0  0  0  0  0  0  0
    1.2917   -1.0000    0.0000 C   0  0  0  0  0  0  0  0  0  0  0  0
    1.2917   -2.0000    0.0000 C   0  0  0  0  0  0  0  0  0  0  0  0
   -1.3000   -2.5000    0.0000 C   0  0  0  0  0  0  0  0  0  0  0  0
   -2.1708   -2.0000    0.0000 C   0  0  0  0  0  0  0  0  0  0  0  0
    0.4292    2.5000    0.0000 C   0  0  0  0  0  0  0  0  0  0  0  0
    0.4292    0.5000    0.0000 C   0  0  0  0  0  0  0  0  0  0  0  0
    2.1625   -2.5000    0.0000 C   0  0  0  0  0  0  0  0  0  0  0  0
    1.2917    2.0000    0.0000 C   0  0  0  0  0  0  0  0  0  0  0  0
    1.2917    1.0000    0.0000 C   0  0  0  0  0  0  0  0  0  0  0  0
  2  1  1  0  0  0  0
  3  1  1  0  0  0  0
  4  3  2  0  0  0  0
  5  3  1  0  0  0  0
  6  2  1  0  0  0  0
  7  2  2  0  0  0  0
  8  6  2  0  0  0  0
  9  4  1  0  0  0  0
  9 12  2  0  0  0  0
 10  1  1  0  0  0  0
 11  5  2  0  0  0  0
 12 11  1  0  0  0  0
 13 14  1  0  0  0  0
 13  4  1  0  0  0  0
 14 10  1  0  0  0  0
 15  8  1  0  0  0  0
 15 18  2  0  0  0  0
 16  6  1  0  0  0  0
 17 12  1  0  0  0  0
 18 19  1  0  0  0  0
 19 16  2  0  0  0  0
M  END
>  <idnumber>
T5876712

>  <LogP>
2.438000000000000e+000

>  <rotating_bonds>
1.000000000000000e+000

>  <hb_acceptors>
2.000000000000000e+000

>  <hb_donors>
0.000000000000000e+000

>  <PSA>
3.320000000000000e+001

>  <clusterid>
-1477

>  <is_centroid>
@

>  <class1>
814

>  <class2>
632

>  <population1>
5317

>  <population2>
79489

>  <population>
195

>  <cansmi>
Cc1ccc2c(c1)CCCN2C(=O)c1ccccn1

>  <HBA2>
3

>  <HBD>
0

>  <logP>
3.048

>  <TPSA>
33.2

>  <MW>
252.311

$$$$

 OpenBabel02121609142D

 21 23  0  0  0  0  0  0  0  0999 V2000
   -0.4083   -0.7417    0.0000 N   0  0  0  0  0  0  0  0  0  0  0  0
    1.3167    0.5583    0.0000 C   0  0  0  0  0  0  0  0  0  0  0  0
    1.7667   -0.2917    0.0000 N   0  0  0  0  0  0  0  0  0  0  0  0
    1.4167   -1.2125    0.0000 C   0  0  0  0  0  0  0  0  0  0  0  0
    0.4042   -1.4000    0.0000 C   0  0  0  0  0  0  0  0  0  0  0  0
   -1.7375    0.8208    0.0000 N   0  0  0  0  0  0  0  0  0  0  0  0
    0.4667    0.5250    0.0000 O   0  0  0  0  0  0  0  0  0  0  0  0
   -0.1458    0.1958    0.0000 C   0  0  0  0  0  0  0  0  0  0  0  0
   -1.4083   -0.9042    0.0000 C   0  0  0  0  0  0  0  0  0  0  0  0
    1.3542    1.5208    0.0000 C   0  0  0  0  0  0  0  0  0  0  0  0
   -2.0708   -0.1375    0.0000 C   0  0  0  0  0  0  0  0  0  0  0  0
   -0.7708    1.0125    0.0000 C   0  0  0  0  0  0  0  0  0  0  0  0
   -2.3250    1.6458    0.0000 C   0  0  0  0  0  0  0  0  0  0  0  0
    2.1000   -1.9625    0.0000 C   0  0  0  0  0  0  0  0  0  0  0  0
    0.1167   -2.3750    0.0000 C   0  0  0  0  0  0  0  0  0  0  0  0
    2.3167    1.8083    0.0000 C   0  0  0  0  0  0  0  0  0  0  0  0
    0.7542    2.3208    0.0000 C   0  0  0  0  0  0  0  0  0  0  0  0
    1.7792   -2.9167    0.0000 C   0  0  0  0  0  0  0  0  0  0  0  0
    0.7917   -3.1292    0.0000 C   0  0  0  0  0  0  0  0  0  0  0  0
    1.3542    3.1458    0.0000 C   0  0  0  0  0  0  0  0  0  0  0  0
    2.3167    2.8208    0.0000 C   0  0  0  0  0  0  0  0  0  0  0  0
  2  3  1  0  0  0  0
  3  4  1  0  0  0  0
  4  5  2  0  0  0  0
  5  1  1  0  0  0  0
  6 11  1  0  0  0  0
  7  2  2  0  0  0  0
  8  1  1  0  0  0  0
  9  1  1  0  0  0  0
 10  2  1  0  0  0  0
 11  9  1  0  0  0  0
 12  8  1  0  0  0  0
 12  6  1  0  0  0  0
 13  6  1  0  0  0  0
 14  4  1  0  0  0  0
 14 18  2  0  0  0  0
 15  5  1  0  0  0  0
 16 10  1  0  0  0  0
 17 10  1  0  0  0  0
 18 19  1  0  0  0  0
 19 15  2  0  0  0  0
 20 17  1  0  0  0  0
 21 16  1  0  0  0  0
 21 20  1  0  0  0  0
M  END
>  <idnumber>
T5877093

>  <LogP>
2.018000000000000e+000

>  <rotating_bonds>
3.000000000000000e+000

>  <hb_acceptors>
3.000000000000000e+000

>  <hb_donors>
1.000000000000000e+000

>  <PSA>
3.558000000000000e+001

>  <clusterid>
-1478

>  <is_centroid>
@

>  <class1>
674

>  <class2>
717

>  <class3>
625

>  <population1>
16474

>  <population2>
74368

>  <population3>
877209

>  <population>
816

>  <cansmi>
CN1CCN(CC1)c1ccccc1NC(=O)C1CCCC1

>  <HBA2>
4

>  <HBD>
1

>  <logP>
2.643

>  <TPSA>
35.58

>  <MW>
287.4

$$$$

 OpenBabel02121609142D

 20 22  0  0  0  0  0  0  0  0999 V2000
    2.5000   -0.4917    0.0000 N   0  0  0  0  0  0  0  0  0  0  0  0
    2.5000    0.5000    0.0000 C   0  0  0  0  0  0  0  0  0  0  0  0
    0.7667   -0.5000    0.0000 C   0  0  0  0  0  0  0  0  0  0  0  0
    1.6292   -1.0000    0.0000 C   0  0  0  0  0  0  0  0  0  0  0  0
   -0.1000   -1.0000    0.0000 N   0  0  0  0  0  0  0  0  0  0  0  0
   -2.6958   -0.5000    0.0000 C   0  0  0  0  0  0  0  0  0  0  0  0
    3.3667   -1.0000    0.0000 C   0  0  0  0  0  0  0  0  0  0  0  0
    3.3667    1.0083    0.0000 C   0  0  0  0  0  0  0  0  0  0  0  0
   -0.9625   -0.5000    0.0000 C   0  0  0  0  0  0  0  0  0  0  0  0
   -1.8333   -1.0000    0.0000 C   0  0  0  0  0  0  0  0  0  0  0  0
   -2.6958    0.5000    0.0000 C   0  0  0  0  0  0  0  0  0  0  0  0
    1.6292    1.0083    0.0000 O   0  0  0  0  0  0  0  0  0  0  0  0
    0.7667    0.5000    0.0000 O   0  0  0  0  0  0  0  0  0  0  0  0
    4.2292   -0.4917    0.0000 C   0  0  0  0  0  0  0  0  0  0  0  0
    4.2292    0.5000    0.0000 C   0  0  0  0  0  0  0  0  0  0  0  0
   -1.8333    1.0000    0.0000 C   0  0  0  0  0  0  0  0  0  0  0  0
   -0.9625    0.5000    0.0000 C   0  0  0  0  0  0  0  0  0  0  0  0
   -3.6458   -0.8042    0.0000 C   0  0  0  0  0  0  0  0  0  0  0  0
   -4.2375    0.0000    0.0000 C   0  0  0  0  0  0  0  0  0  0  0  0
   -3.6458    0.8125    0.0000 C   0  0  0  0  0  0  0  0  0  0  0  0
  2  1  1  0  0  0  0
  3  4  1  0  0  0  0
  4  1  1  0  0  0  0
  5  3  1  0  0  0  0
  6 10  1  0  0  0  0
  6 11  2  0  0  0  0
  7  1  1  0  0  0  0
  8  2  1  0  0  0  0
  8 15  2  0  0  0  0
  9  5  1  0  0  0  0
 10  9  2  0  0  0  0
 11 16  1  0  0  0  0
 12  2  2  0  0  0  0
 13  3  2  0  0  0  0
 14  7  2  0  0  0  0
 15 14  1  0  0  0  0
 16 17  2  0  0  0  0
 17  9  1  0  0  0  0
 18  6  1  0  0  0  0
 19 18  1  0  0  0  0
 20 11  1  0  0  0  0
 20 19  1  0  0  0  0
M  END
>  <idnumber>
T5877323

>  <LogP>
2.113000000000000e+000

>  <rotating_bonds>
3.000000000000000e+000

>  <hb_acceptors>
2.000000000000000e+000

>  <hb_donors>
1.000000000000000e+000

>  <PSA>
4.941000000000003e+001

>  <clusterid>
-1479

>  <is_centroid>
@

>  <class1>
644

>  <class2>
696

>  <population1>
7036

>  <population2>
4759

>  <population>
27

>  <cansmi>
O=C(Cn1ccccc1=O)Nc1ccc2c(c1)CCC2

>  <HBA2>
4

>  <HBD>
1

>  <logP>
2.0487

>  <TPSA>
51.1

>  <MW>
268.31

$$$$

 OpenBabel02121609142D

 20 22  0  0  0  0  0  0  0  0999 V2000
   -0.9708    0.0083    0.0000 N   0  0  0  0  0  0  0  0  0  0  0  0
   -2.6958    0.0083    0.0000 C   0  0  0  0  0  0  0  0  0  0  0  0
   -0.1000   -0.4917    0.0000 C   0  0  0  0  0  0  0  0  0  0  0  0
   -2.6958    1.0000    0.0000 C   0  0  0  0  0  0  0  0  0  0  0  0
   -1.8333   -0.4917    0.0000 C   0  0  0  0  0  0  0  0  0  0  0  0
    0.7667    0.0083    0.0000 C   0  0  0  0  0  0  0  0  0  0  0  0
   -3.6458    1.3125    0.0000 S   0  0  0  0  0  0  0  0  0  0  0  0
    1.6292   -0.4917    0.0000 N   0  0  0  0  0  0  0  0  0  0  0  0
   -1.8333    1.5000    0.0000 C   0  0  0  0  0  0  0  0  0  0  0  0
   -4.2375    0.5000    0.0000 C   0  0  0  0  0  0  0  0  0  0  0  0
   -3.6458   -0.3042    0.0000 C   0  0  0  0  0  0  0  0  0  0  0  0
   -0.9708    1.0000    0.0000 C   0  0  0  0  0  0  0  0  0  0  0  0
   -0.1000   -1.5000    0.0000 O   0  0  0  0  0  0  0  0  0  0  0  0
    2.5000    0.0083    0.0000 C   0  0  0  0  0  0  0  0  0  0  0  0
    1.6292   -1.5000    0.0000 C   0  0  0  0  0  0  0  0  0  0  0  0
    3.3667   -0.4917    0.0000 C   0  0  0  0  0  0  0  0  0  0  0  0
    2.5000    1.0000    0.0000 C   0  0  0  0  0  0  0  0  0  0  0  0
    3.3667    1.5000    0.0000 C   0  0  0  0  0  0  0  0  0  0  0  0
    4.2292    0.0083    0.0000 C   0  0  0  0  0  0  0  0  0  0  0  0
    4.2292    1.0000    0.0000 C   0  0  0  0  0  0  0  0  0  0  0  0
  2  5  1  0  0  0  0
  2  4  2  0  0  0  0
  3  1  1  0  0  0  0
  4  9  1  0  0  0  0
  5  1  1  0  0  0  0
  6  3  1  0  0  0  0
  7  4  1  0  0  0  0
  7 10  1  0  0  0  0
  8  6  1  0  0  0  0
  9 12  1  0  0  0  0
 10 11  2  0  0  0  0
 11  2  1  0  0  0  0
 12  1  1  0  0  0  0
 13  3  2  0  0  0  0
 14  8  1  0  0  0  0
 15  8  1  0  0  0  0
 16 14  1  0  0  0  0
 17 14  2  0  0  0  0
 18 17  1  0  0  0  0
 19 16  2  0  0  0  0
 19 20  1  0  0  0  0
 20 18  2  0  0  0  0
M  END
>  <idnumber>
T5879137

>  <LogP>
2.881000000000000e+000

>  <rotating_bonds>
3.000000000000000e+000

>  <hb_acceptors>
3.000000000000000e+000

>  <hb_donors>
0.000000000000000e+000

>  <PSA>
5.179000000000001e+001

>  <clusterid>
-1481

>  <is_centroid>
@

>  <class1>
625

>  <class2>
709

>  <population1>
877209

>  <population2>
2293

>  <population>
1900

>  <cansmi>
O=C(N1CCc2c(C1)ccs2)CN(c1ccccc1)C

>  <HBA2>
4

>  <HBD>
0

>  <logP>
2.7071

>  <TPSA>
51.79

>  <MW>
286.392

$$$$

 OpenBabel02121609142D

 17 18  0  0  0  0  0  0  0  0999 V2000
   -0.9833   -2.0625    0.0000 N   0  0  0  0  0  0  0  0  0  0  0  0
   -0.3958   -1.2542    0.0000 C   0  0  0  0  0  0  0  0  0  0  0  0
   -0.3958   -2.8667    0.0000 C   0  0  0  0  0  0  0  0  0  0  0  0
    0.5542   -1.5625    0.0000 C   0  0  0  0  0  0  0  0  0  0  0  0
    0.5542   -2.5625    0.0000 C   0  0  0  0  0  0  0  0  0  0  0  0
   -0.3458    1.3958    0.0000 C   0  0  0  0  0  0  0  0  0  0  0  0
   -0.0333    0.4375    0.0000 N   0  0  0  0  0  0  0  0  0  0  0  0
   -0.7000   -0.3042    0.0000 C   0  0  0  0  0  0  0  0  0  0  0  0
   -1.3208    1.6000    0.0000 O   0  0  0  0  0  0  0  0  0  0  0  0
    0.3292    2.1333    0.0000 C   0  0  0  0  0  0  0  0  0  0  0  0
   -1.9833   -2.0625    0.0000 C   0  0  0  0  0  0  0  0  0  0  0  0
   -0.7000   -3.8250    0.0000 C   0  0  0  0  0  0  0  0  0  0  0  0
    1.3042    1.9250    0.0000 C   0  0  0  0  0  0  0  0  0  0  0  0
    0.0167    3.0833    0.0000 C   0  0  0  0  0  0  0  0  0  0  0  0
    0.6875    3.8333    0.0000 C   0  0  0  0  0  0  0  0  0  0  0  0
    1.9750    2.6708    0.0000 C   0  0  0  0  0  0  0  0  0  0  0  0
    1.6667    3.6208    0.0000 C   0  0  0  0  0  0  0  0  0  0  0  0
  2  1  1  0  0  0  0
  3  1  1  0  0  0  0
  4  2  2  0  0  0  0
  5  3  2  0  0  0  0
  5  4  1  0  0  0  0
  6  7  1  0  0  0  0
  7  8  1  0  0  0  0
  8  2  1  0  0  0  0
  9  6  2  0  0  0  0
 10  6  1  0  0  0  0
 11  1  1  0  0  0  0
 12  3  1  0  0  0  0
 13 10  1  0  0  0  0
 14 10  1  0  0  0  0
 15 14  1  0  0  0  0
 16 13  1  0  0  0  0
 16 17  1  0  0  0  0
 17 15  1  0  0  0  0
M  END
>  <idnumber>
T5880415

>  <LogP>
2.552000000000000e+000

>  <rotating_bonds>
3.000000000000000e+000

>  <hb_acceptors>
1.000000000000000e+000

>  <hb_donors>
1.000000000000000e+000

>  <PSA>
3.403000000000000e+001

>  <clusterid>
-1483

>  <is_centroid>
@

>  <class1>
635

>  <class2>
797

>  <population1>
31512

>  <population2>
40410

>  <population>
883

>  <cansmi>
O=C(C1CCCCC1)NCc1ccc(n1C)C

>  <HBA2>
3

>  <HBD>
1

>  <logP>
2.9209

>  <TPSA>
34.03

>  <MW>
234.337

$$$$

 OpenBabel02121609142D

 21 23  0  0  0  0  0  0  0  0999 V2000
   -0.2083   -0.2667    0.0000 C   0  0  0  0  0  0  0  0  0  0  0  0
   -0.2083    1.3458    0.0000 C   0  0  0  0  0  0  0  0  0  0  0  0
   -0.7958    0.5375    0.0000 O   0  0  0  0  0  0  0  0  0  0  0  0
   -0.5208   -1.2167    0.0000 C   0  0  0  0  0  0  0  0  0  0  0  0
    0.1542   -1.9667    0.0000 N   0  0  0  0  0  0  0  0  0  0  0  0
   -0.5208    2.2958    0.0000 C   0  0  0  0  0  0  0  0  0  0  0  0
    0.7417    0.0375    0.0000 C   0  0  0  0  0  0  0  0  0  0  0  0
    0.7417    1.0375    0.0000 C   0  0  0  0  0  0  0  0  0  0  0  0
    1.4917   -3.4542    0.0000 N   0  0  0  0  0  0  0  0  0  0  0  0
   -1.4958   -1.4292    0.0000 O   0  0  0  0  0  0  0  0  0  0  0  0
   -1.4958    2.5083    0.0000 C   0  0  0  0  0  0  0  0  0  0  0  0
   -0.1583   -2.9167    0.0000 C   0  0  0  0  0  0  0  0  0  0  0  0
    1.1292   -1.7542    0.0000 C   0  0  0  0  0  0  0  0  0  0  0  0
    0.5125   -3.6542    0.0000 C   0  0  0  0  0  0  0  0  0  0  0  0
    1.8000   -2.5000    0.0000 C   0  0  0  0  0  0  0  0  0  0  0  0
   -2.1625    1.7625    0.0000 F   0  0  0  0  0  0  0  0  0  0  0  0
    0.1542    3.0458    0.0000 C   0  0  0  0  0  0  0  0  0  0  0  0
    2.1542   -4.1917    0.0000 C   0  0  0  0  0  0  0  0  0  0  0  0
   -1.8083    3.4583    0.0000 C   0  0  0  0  0  0  0  0  0  0  0  0
   -0.1583    3.9958    0.0000 C   0  0  0  0  0  0  0  0  0  0  0  0
   -1.1333    4.1917    0.0000 C   0  0  0  0  0  0  0  0  0  0  0  0
  2  3  1  0  0  0  0
  3  1  1  0  0  0  0
  4  1  1  0  0  0  0
  5  4  1  0  0  0  0
  6  2  1  0  0  0  0
  7  1  2  0  0  0  0
  8  7  1  0  0  0  0
  8  2  2  0  0  0  0
  9 15  1  0  0  0  0
 10  4  2  0  0  0  0
 11  6  2  0  0  0  0
 12  5  1  0  0  0  0
 13  5  1  0  0  0  0
 14 12  1  0  0  0  0
 14  9  1  0  0  0  0
 15 13  1  0  0  0  0
 16 11  1  0  0  0  0
 17  6  1  0  0  0  0
 18  9  1  0  0  0  0
 19 11  1  0  0  0  0
 19 21  2  0  0  0  0
 20 17  2  0  0  0  0
 21 20  1  0  0  0  0
M  END
>  <idnumber>
T5881871

>  <LogP>
2.765000000000000e+000

>  <rotating_bonds>
2.000000000000000e+000

>  <hb_acceptors>
3.000000000000000e+000

>  <hb_donors>
0.000000000000000e+000

>  <PSA>
3.669000000000001e+001

>  <clusterid>
-1485

>  <is_centroid>
@

>  <class1>
717

>  <class2>
704

>  <class3>
625

>  <population1>
74368

>  <population2>
51112

>  <population3>
877209

>  <population>
3504

>  <cansmi>
CN1CCN(CC1)C(=O)c1ccc(o1)c1ccccc1F

>  <HBA2>
4

>  <HBD>
0

>  <logP>
2.3491

>  <TPSA>
36.69

>  <MW>
288.317

$$$$

 OpenBabel02121609142D

 14 15  0  0  0  0  0  0  0  0999 V2000
    0.1667   -0.8417    0.0000 C   0  0  0  0  0  0  0  0  0  0  0  0
   -0.1458    0.1083    0.0000 C   0  0  0  0  0  0  0  0  0  0  0  0
   -0.4208   -1.6542    0.0000 C   0  0  0  0  0  0  0  0  0  0  0  0
    1.1167   -1.1542    0.0000 N   0  0  0  0  0  0  0  0  0  0  0  0
    0.1667   -2.4625    0.0000 C   0  0  0  0  0  0  0  0  0  0  0  0
    0.5250    0.8500    0.0000 N   0  0  0  0  0  0  0  0  0  0  0  0
    1.1167   -2.1542    0.0000 C   0  0  0  0  0  0  0  0  0  0  0  0
   -1.1208    0.3125    0.0000 O   0  0  0  0  0  0  0  0  0  0  0  0
   -0.1458   -3.4125    0.0000 Br  0  0  0  0  0  0  0  0  0  0  0  0
    0.2167    1.8000    0.0000 C   0  0  0  0  0  0  0  0  0  0  0  0
    0.8042    2.6083    0.0000 C   0  0  0  0  0  0  0  0  0  0  0  0
   -0.7333    2.1083    0.0000 C   0  0  0  0  0  0  0  0  0  0  0  0
   -0.7333    3.1083    0.0000 C   0  0  0  0  0  0  0  0  0  0  0  0
    0.2167    3.4208    0.0000 C   0  0  0  0  0  0  0  0  0  0  0  0
  2  1  1  0  0  0  0
  3  1  2  0  0  0  0
  4  1  1  0  0  0  0
  5  3  1  0  0  0  0
  5  7  2  0  0  0  0
  6  2  1  0  0  0  0
  7  4  1  0  0  0  0
  8  2  2  0  0  0  0
  9  5  1  0  0  0  0
 10  6  1  0  0  0  0
 11 10  1  0  0  0  0
 12 10  1  0  0  0  0
 13 12  1  0  0  0  0
 14 11  1  0  0  0  0
 14 13  1  0  0  0  0
M  END
>  <idnumber>
T5882969

>  <LogP>
2.537000000000000e+000

>  <rotating_bonds>
2.000000000000000e+000

>  <hb_acceptors>
1.000000000000000e+000

>  <hb_donors>
2.000000000000000e+000

>  <PSA>
4.489000000000003e+001

>  <clusterid>
-1487

>  <is_centroid>
@

>  <class1>
674

>  <class2>
635

>  <population1>
16474

>  <population2>
31512

>  <population>
452

>  <cansmi>
O=C(c1[nH]cc(c1)Br)NC1CCCC1

>  <HBA2>
2

>  <HBD>
2

>  <logP>
2.8405

>  <TPSA>
44.89

>  <MW>
257.127

$$$$

 OpenBabel02121609142D

 12 13  0  0  0  0  0  0  0  0999 V2000
    0.4292   -1.0000    0.0000 N   0  0  0  0  0  0  0  0  0  0  0  0
    0.4292    1.0000    0.0000 N   0  0  0  0  0  0  0  0  0  0  0  0
    1.2917   -0.5000    0.0000 C   0  0  0  0  0  0  0  0  0  0  0  0
    1.2917    0.5000    0.0000 C   0  0  0  0  0  0  0  0  0  0  0  0
   -0.4333   -0.5000    0.0000 C   0  0  0  0  0  0  0  0  0  0  0  0
   -0.4333    0.5000    0.0000 C   0  0  0  0  0  0  0  0  0  0  0  0
    2.1625   -1.0000    0.0000 O   0  0  0  0  0  0  0  0  0  0  0  0
    2.1625    1.0000    0.0000 C   0  0  0  0  0  0  0  0  0  0  0  0
   -1.3000    1.0000    0.0000 C   0  0  0  0  0  0  0  0  0  0  0  0
   -1.3000   -1.0000    0.0000 C   0  0  0  0  0  0  0  0  0  0  0  0
   -2.1708   -0.5000    0.0000 C   0  0  0  0  0  0  0  0  0  0  0  0
   -2.1708    0.5000    0.0000 C   0  0  0  0  0  0  0  0  0  0  0  0
  2  6  2  0  0  0  0
  3  1  1  0  0  0  0
  4  3  2  0  0  0  0
  4  2  1  0  0  0  0
  5  1  2  0  0  0  0
  6  5  1  0  0  0  0
  7  3  1  0  0  0  0
  8  4  1  0  0  0  0
  9  6  1  0  0  0  0
  9 12  2  0  0  0  0
 10  5  1  0  0  0  0
 11 10  2  0  0  0  0
 12 11  1  0  0  0  0
M  END
>  <idnumber>
T5883731

>  <LogP>
2.351999999999999e+000

>  <rotating_bonds>
0.000000000000000e+000

>  <hb_acceptors>
3.000000000000000e+000

>  <hb_donors>
1.000000000000000e+000

>  <PSA>
4.601000000000000e+001

>  <clusterid>
-1490

>  <is_centroid>
@

>  <class1>
821

>  <population1>
4380

>  <population>
4380

>  <cansmi>
Cc1nc2ccccc2nc1O

>  <HBA2>
3

>  <HBD>
1

>  <logP>
1.6438

>  <TPSA>
46.01

>  <MW>
160.173

$$$$

 OpenBabel02121609142D

 13 14  0  0  0  0  0  0  0  0999 V2000
   -0.5000    0.0458    0.0000 N   0  0  0  0  0  0  0  0  0  0  0  0
   -0.5000   -0.9542    0.0000 N   0  0  0  0  0  0  0  0  0  0  0  0
   -1.4500    0.3583    0.0000 C   0  0  0  0  0  0  0  0  0  0  0  0
   -1.4500   -1.2625    0.0000 C   0  0  0  0  0  0  0  0  0  0  0  0
   -2.0375   -0.4542    0.0000 C   0  0  0  0  0  0  0  0  0  0  0  0
    0.3125    0.6333    0.0000 C   0  0  0  0  0  0  0  0  0  0  0  0
   -1.7583    1.3083    0.0000 O   0  0  0  0  0  0  0  0  0  0  0  0
   -1.7583   -2.2125    0.0000 N   0  0  0  0  0  0  0  0  0  0  0  0
    1.2250    0.2333    0.0000 C   0  0  0  0  0  0  0  0  0  0  0  0
    0.2042    1.6333    0.0000 C   0  0  0  0  0  0  0  0  0  0  0  0
    1.0167    2.2208    0.0000 C   0  0  0  0  0  0  0  0  0  0  0  0
    2.0292    0.8208    0.0000 C   0  0  0  0  0  0  0  0  0  0  0  0
    1.9292    1.8125    0.0000 C   0  0  0  0  0  0  0  0  0  0  0  0
  2  1  1  0  0  0  0
  3  1  1  0  0  0  0
  4  2  2  0  0  0  0
  4  5  1  0  0  0  0
  5  3  1  0  0  0  0
  6  1  1  0  0  0  0
  7  3  2  0  0  0  0
  8  4  1  0  0  0  0
  9  6  1  0  0  0  0
 10  6  2  0  0  0  0
 11 10  1  0  0  0  0
 12  9  2  0  0  0  0
 12 13  1  0  0  0  0
 13 11  2  0  0  0  0
M  END
>  <idnumber>
T5883879

>  <LogP>
-3.600000000000000e-002

>  <rotating_bonds>
1.000000000000000e+000

>  <hb_acceptors>
3.000000000000000e+000

>  <hb_donors>
1.000000000000000e+000

>  <PSA>
5.869000000000001e+001

>  <clusterid>
-1500

>  <is_centroid>
@

>  <class1>
861

>  <class2>
625

>  <population1>
529

>  <population2>
877209

>  <population>
512

>  <cansmi>
O=C1CC(=NN1c1ccccc1)N

>  <HBA2>
4

>  <HBD>
1

>  <logP>
0.8964

>  <TPSA>
58.69

>  <MW>
175.187

$$$$

 OpenBabel02121609142D

 16 17  0  0  0  0  0  0  0  0999 V2000
   -0.5458   -1.2542    0.0000 C   0  0  0  0  0  0  0  0  0  0  0  0
   -1.1333   -2.0625    0.0000 C   0  0  0  0  0  0  0  0  0  0  0  0
    0.4042   -1.5625    0.0000 N   0  0  0  0  0  0  0  0  0  0  0  0
   -0.8500   -0.3042    0.0000 C   0  0  0  0  0  0  0  0  0  0  0  0
   -0.5458   -2.8667    0.0000 C   0  0  0  0  0  0  0  0  0  0  0  0
    0.4042   -2.5625    0.0000 C   0  0  0  0  0  0  0  0  0  0  0  0
   -0.1833    0.4375    0.0000 N   0  0  0  0  0  0  0  0  0  0  0  0
   -1.8333   -0.0917    0.0000 O   0  0  0  0  0  0  0  0  0  0  0  0
    1.5167    3.6208    0.0000 N   0  0  0  0  0  0  0  0  0  0  0  0
   -0.4958    1.3958    0.0000 C   0  0  0  0  0  0  0  0  0  0  0  0
   -0.8500   -3.8250    0.0000 Br  0  0  0  0  0  0  0  0  0  0  0  0
    0.1792    2.1333    0.0000 C   0  0  0  0  0  0  0  0  0  0  0  0
    1.8250    2.6708    0.0000 C   0  0  0  0  0  0  0  0  0  0  0  0
    0.5375    3.8333    0.0000 C   0  0  0  0  0  0  0  0  0  0  0  0
    1.1542    1.9250    0.0000 C   0  0  0  0  0  0  0  0  0  0  0  0
   -0.1333    3.0833    0.0000 C   0  0  0  0  0  0  0  0  0  0  0  0
  2  1  2  0  0  0  0
  3  1  1  0  0  0  0
  4  1  1  0  0  0  0
  5  2  1  0  0  0  0
  5  6  2  0  0  0  0
  6  3  1  0  0  0  0
  7  4  1  0  0  0  0
  8  4  2  0  0  0  0
  9 14  2  0  0  0  0
 10  7  1  0  0  0  0
 11  5  1  0  0  0  0
 12 10  1  0  0  0  0
 13 15  2  0  0  0  0
 13  9  1  0  0  0  0
 14 16  1  0  0  0  0
 15 12  1  0  0  0  0
 16 12  2  0  0  0  0
M  END
>  <idnumber>
T5885066

>  <LogP>
1.536000000000000e+000

>  <rotating_bonds>
3.000000000000000e+000

>  <hb_acceptors>
2.000000000000000e+000

>  <hb_donors>
2.000000000000000e+000

>  <PSA>
5.778000000000000e+001

>  <clusterid>
-1504

>  <is_centroid>
@

>  <class1>
635

>  <class2>
632

>  <population1>
31512

>  <population2>
79489

>  <population>
1851

>  <cansmi>
Brc1c[nH]c(c1)C(=O)NCc1ccncc1

>  <HBA2>
3

>  <HBD>
2

>  <logP>
2.4931

>  <TPSA>
57.78

>  <MW>
280.121

$$$$

 OpenBabel02121609142D

 18 20  0  0  0  0  0  0  0  0999 V2000
    0.6917   -0.0125    0.0000 N   0  0  0  0  0  0  0  0  0  0  0  0
    0.4667   -0.9875    0.0000 C   0  0  0  0  0  0  0  0  0  0  0  0
   -0.0958    0.6083    0.0000 C   0  0  0  0  0  0  0  0  0  0  0  0
   -0.4875   -1.2792    0.0000 C   0  0  0  0  0  0  0  0  0  0  0  0
   -0.8083   -2.2292    0.0000 O   0  0  0  0  0  0  0  0  0  0  0  0
   -0.0958    1.6083    0.0000 C   0  0  0  0  0  0  0  0  0  0  0  0
    0.6917    2.2333    0.0000 S   0  0  0  0  0  0  0  0  0  0  0  0
    1.2000   -1.6667    0.0000 O   0  0  0  0  0  0  0  0  0  0  0  0
   -1.2875   -0.6792    0.0000 C   0  0  0  0  0  0  0  0  0  0  0  0
   -1.8083   -2.2125    0.0000 C   0  0  0  0  0  0  0  0  0  0  0  0
   -2.1083   -1.2542    0.0000 C   0  0  0  0  0  0  0  0  0  0  0  0
    1.6667    0.2083    0.0000 C   0  0  0  0  0  0  0  0  0  0  0  0
    2.1000    1.1083    0.0000 C   0  0  0  0  0  0  0  0  0  0  0  0
   -0.9583    0.1083    0.0000 C   0  0  0  0  0  0  0  0  0  0  0  0
    1.6667    2.0208    0.0000 C   0  0  0  0  0  0  0  0  0  0  0  0
   -0.9583    2.1083    0.0000 C   0  0  0  0  0  0  0  0  0  0  0  0
   -1.8208    0.6083    0.0000 C   0  0  0  0  0  0  0  0  0  0  0  0
   -1.8208    1.6083    0.0000 C   0  0  0  0  0  0  0  0  0  0  0  0
  2  1  1  0  0  0  0
  3  1  1  0  0  0  0
  4  2  1  0  0  0  0
  5  4  1  0  0  0  0
  6  3  2  0  0  0  0
  7  6  1  0  0  0  0
  8  2  2  0  0  0  0
  9  4  2  0  0  0  0
 10  5  1  0  0  0  0
 11  9  1  0  0  0  0
 11 10  2  0  0  0  0
 12  1  1  0  0  0  0
 13 12  1  0  0  0  0
 14  3  1  0  0  0  0
 15 13  1  0  0  0  0
 15  7  1  0  0  0  0
 16  6  1  0  0  0  0
 16 18  2  0  0  0  0
 17 14  2  0  0  0  0
 18 17  1  0  0  0  0
M  END
>  <idnumber>
T5885140

>  <LogP>
2.306000000000000e+000

>  <rotating_bonds>
1.000000000000000e+000

>  <hb_acceptors>
2.000000000000000e+000

>  <hb_donors>
0.000000000000000e+000

>  <PSA>
5.875000000000000e+001

>  <clusterid>
766

>  <is_centroid>
@

>  <class1>
866

>  <class2>
704

>  <population1>
828

>  <population2>
51112

>  <population>
22

>  <cansmi>
O=C(N1CCCSc2c1cccc2)c1ccco1

>  <HBA2>
4

>  <HBD>
0

>  <logP>
3.4872

>  <TPSA>
58.75

>  <MW>
259.324

$$$$

 OpenBabel02121609142D

 15 17  0  0  0  0  0  0  0  0999 V2000
   -0.1000    1.0000    0.0000 C   0  0  0  0  0  0  0  0  0  0  0  0
    0.7667    0.5000    0.0000 C   0  0  3  0  0  0  0  0  0  0  0  0
   -0.1000    2.0083    0.0000 C   0  0  0  0  0  0  0  0  0  0  0  0
   -1.0500    2.3125    0.0000 S   0  0  0  0  0  0  0  0  0  0  0  0
    1.6292    1.0000    0.0000 N   0  0  0  0  0  0  0  0  0  0  0  0
   -1.0500    0.6958    0.0000 C   0  0  0  0  0  0  0  0  0  0  0  0
   -1.6375    1.5000    0.0000 C   0  0  0  0  0  0  0  0  0  0  0  0
    0.7667   -0.5000    0.0000 C   0  0  0  0  0  0  0  0  0  0  0  0
    0.7667    2.5000    0.0000 C   0  0  0  0  0  0  0  0  0  0  0  0
    1.6292    2.0083    0.0000 C   0  0  0  0  0  0  0  0  0  0  0  0
   -0.1000   -1.0000    0.0000 C   0  0  0  0  0  0  0  0  0  0  0  0
    1.6292   -1.0000    0.0000 C   0  0  0  0  0  0  0  0  0  0  0  0
    1.6292   -2.0000    0.0000 C   0  0  0  0  0  0  0  0  0  0  0  0
   -0.1000   -2.0000    0.0000 C   0  0  0  0  0  0  0  0  0  0  0  0
    0.7667   -2.5000    0.0000 C   0  0  0  0  0  0  0  0  0  0  0  0
  2  1  1  0  0  0  0
  3  1  2  0  0  0  0
  4  3  1  0  0  0  0
  4  7  1  0  0  0  0
  5  2  1  0  0  0  0
  5 10  1  0  0  0  0
  6  1  1  0  0  0  0
  7  6  2  0  0  0  0
  8  2  1  0  0  0  0
  9  3  1  0  0  0  0
 10  9  1  0  0  0  0
 11  8  1  0  0  0  0
 12  8  2  0  0  0  0
 13 12  1  0  0  0  0
 14 11  2  0  0  0  0
 14 15  1  0  0  0  0
 15 13  2  0  0  0  0
M  END
>  <idnumber>
T5885910

>  <LogP>
2.799000000000000e+000

>  <rotating_bonds>
1.000000000000000e+000

>  <hb_acceptors>
2.000000000000000e+000

>  <hb_donors>
1.000000000000000e+000

>  <PSA>
4.027000000000000e+001

>  <clusterid>
-1505

>  <is_centroid>
@

>  <class1>
709

>  <class2>
625

>  <population1>
2293

>  <population2>
877209

>  <population>
1900

>  <cansmi>
c1ccc(cc1)C1NCCc2c1ccs2

>  <HBA2>
2

>  <HBD>
1

>  <logP>
3.312

>  <TPSA>
40.27

>  <MW>
215.314

$$$$

 OpenBabel02121609142D

 14 15  0  0  0  0  0  0  0  0999 V2000
    0.3792    0.0083    0.0000 N   0  0  0  0  0  0  0  0  0  0  0  0
   -0.2083    0.8125    0.0000 C   0  0  0  0  0  0  0  0  0  0  0  0
   -0.2083   -0.8042    0.0000 C   0  0  0  0  0  0  0  0  0  0  0  0
   -1.1583   -0.4917    0.0000 C   0  0  0  0  0  0  0  0  0  0  0  0
   -1.1583    0.5000    0.0000 C   0  0  0  0  0  0  0  0  0  0  0  0
    0.1042    1.7625    0.0000 O   0  0  0  0  0  0  0  0  0  0  0  0
    0.1042   -1.7542    0.0000 O   0  0  0  0  0  0  0  0  0  0  0  0
    1.3792    0.0083    0.0000 C   0  0  0  0  0  0  0  0  0  0  0  0
   -2.0208   -1.0000    0.0000 C   0  0  0  0  0  0  0  0  0  0  0  0
   -2.0208    1.0083    0.0000 C   0  0  0  0  0  0  0  0  0  0  0  0
    2.8792   -0.8625    0.0000 O   0  0  0  0  0  0  0  0  0  0  0  0
    1.8792   -0.8625    0.0000 C   0  0  0  0  0  0  0  0  0  0  0  0
   -2.8875    0.5000    0.0000 C   0  0  0  0  0  0  0  0  0  0  0  0
   -2.8875   -0.4917    0.0000 C   0  0  0  0  0  0  0  0  0  0  0  0
  2  1  1  0  0  0  0
  3  1  1  0  0  0  0
  4  3  1  0  0  0  0
  5  2  1  0  0  0  0
  5  4  2  0  0  0  0
  6  2  2  0  0  0  0
  7  3  2  0  0  0  0
  8  1  1  0  0  0  0
  9  4  1  0  0  0  0
 10  5  1  0  0  0  0
 11 12  1  0  0  0  0
 12  8  1  0  0  0  0
 13 10  2  0  0  0  0
 13 14  1  0  0  0  0
 14  9  2  0  0  0  0
M  END
>  <idnumber>
T5885935

>  <LogP>
6.749999999999999e-001

>  <rotating_bonds>
2.000000000000000e+000

>  <hb_acceptors>
3.000000000000000e+000

>  <hb_donors>
1.000000000000000e+000

>  <PSA>
5.761000000000000e+001

>  <clusterid>
-1507

>  <is_centroid>
@

>  <class1>
661

>  <population1>
7628

>  <population>
7628

>  <cansmi>
OCCN1C(=O)c2c(C1=O)cccc2

>  <HBA2>
4

>  <HBD>
1

>  <logP>
0.2128

>  <TPSA>
57.61

>  <MW>
191.183

$$$$

 OpenBabel02121609142D

 12 13  0  0  0  0  0  0  0  0999 V2000
    1.2917   -0.5000    0.0000 C   0  0  0  0  0  0  0  0  0  0  0  0
    0.4292   -1.0000    0.0000 N   0  0  0  0  0  0  0  0  0  0  0  0
    1.2917    0.5000    0.0000 N   0  0  0  0  0  0  0  0  0  0  0  0
   -0.4333    0.5000    0.0000 C   0  0  0  0  0  0  0  0  0  0  0  0
   -0.4333   -0.5000    0.0000 C   0  0  0  0  0  0  0  0  0  0  0  0
    0.4292    1.0000    0.0000 C   0  0  0  0  0  0  0  0  0  0  0  0
    2.1625   -1.0000    0.0000 O   0  0  0  0  0  0  0  0  0  0  0  0
    2.1625    1.0000    0.0000 C   0  0  0  0  0  0  0  0  0  0  0  0
   -1.3000    1.0000    0.0000 C   0  0  0  0  0  0  0  0  0  0  0  0
   -1.3000   -1.0000    0.0000 C   0  0  0  0  0  0  0  0  0  0  0  0
   -2.1708    0.5000    0.0000 C   0  0  0  0  0  0  0  0  0  0  0  0
   -2.1708   -0.5000    0.0000 C   0  0  0  0  0  0  0  0  0  0  0  0
  2  1  1  0  0  0  0
  3  1  1  0  0  0  0
  4  6  1  0  0  0  0
  4  5  2  0  0  0  0
  5  2  1  0  0  0  0
  6  3  1  0  0  0  0
  7  1  2  0  0  0  0
  8  3  1  0  0  0  0
  9  4  1  0  0  0  0
 10  5  1  0  0  0  0
 11  9  2  0  0  0  0
 11 12  1  0  0  0  0
 12 10  2  0  0  0  0
M  END
>  <idnumber>
T5885951

>  <LogP>
1.033000000000000e+000

>  <rotating_bonds>
0.000000000000000e+000

>  <hb_acceptors>
1.000000000000000e+000

>  <hb_donors>
1.000000000000000e+000

>  <PSA>
3.234000000000000e+001

>  <clusterid>
-1508

>  <is_centroid>
@

>  <class1>
711

>  <population1>
671

>  <population>
671

>  <cansmi>
O=C1Nc2ccccc2CN1C

>  <HBA2>
3

>  <HBD>
1

>  <logP>
1.7398

>  <TPSA>
32.34

>  <MW>
162.188

$$$$

 OpenBabel02121609142D

 19 21  0  0  0  0  0  0  0  0999 V2000
    0.1542    0.5333    0.0000 N   0  0  0  0  0  0  0  0  0  0  0  0
   -0.0708   -0.4417    0.0000 C   0  0  0  0  0  0  0  0  0  0  0  0
   -0.6250    1.1583    0.0000 C   0  0  0  0  0  0  0  0  0  0  0  0
    0.6667   -1.1167    0.0000 C   0  0  0  0  0  0  0  0  0  0  0  0
   -0.6250    2.1583    0.0000 C   0  0  0  0  0  0  0  0  0  0  0  0
    0.1542    2.7833    0.0000 S   0  0  0  0  0  0  0  0  0  0  0  0
   -1.0208   -0.7375    0.0000 O   0  0  0  0  0  0  0  0  0  0  0  0
    1.6167   -0.8250    0.0000 N   0  0  0  0  0  0  0  0  0  0  0  0
    1.1292    0.7583    0.0000 C   0  0  0  0  0  0  0  0  0  0  0  0
    1.5625    1.6583    0.0000 C   0  0  0  0  0  0  0  0  0  0  0  0
   -1.4958    0.6583    0.0000 C   0  0  0  0  0  0  0  0  0  0  0  0
    1.1292    2.5583    0.0000 C   0  0  0  0  0  0  0  0  0  0  0  0
    2.3542   -1.5042    0.0000 C   0  0  0  0  0  0  0  0  0  0  0  0
   -1.4958    2.6583    0.0000 C   0  0  0  0  0  0  0  0  0  0  0  0
    0.4417   -2.0917    0.0000 C   0  0  0  0  0  0  0  0  0  0  0  0
   -2.3583    1.1583    0.0000 C   0  0  0  0  0  0  0  0  0  0  0  0
    2.1292   -2.4792    0.0000 C   0  0  0  0  0  0  0  0  0  0  0  0
   -2.3583    2.1583    0.0000 C   0  0  0  0  0  0  0  0  0  0  0  0
    1.1750   -2.7750    0.0000 C   0  0  0  0  0  0  0  0  0  0  0  0
  2  1  1  0  0  0  0
  3  1  1  0  0  0  0
  4  2  1  0  0  0  0
  5  3  2  0  0  0  0
  6  5  1  0  0  0  0
  7  2  2  0  0  0  0
  8  4  2  0  0  0  0
  9  1  1  0  0  0  0
 10  9  1  0  0  0  0
 11  3  1  0  0  0  0
 12 10  1  0  0  0  0
 12  6  1  0  0  0  0
 13  8  1  0  0  0  0
 13 17  2  0  0  0  0
 14  5  1  0  0  0  0
 14 18  2  0  0  0  0
 15  4  1  0  0  0  0
 16 11  2  0  0  0  0
 17 19  1  0  0  0  0
 18 16  1  0  0  0  0
 19 15  2  0  0  0  0
M  END
>  <idnumber>
T5886409

>  <LogP>
2.029000000000000e+000

>  <rotating_bonds>
1.000000000000000e+000

>  <hb_acceptors>
3.000000000000000e+000

>  <hb_donors>
0.000000000000000e+000

>  <PSA>
5.850000000000000e+001

>  <clusterid>
-1512

>  <is_centroid>
@

>  <class1>
866

>  <class2>
632

>  <population1>
828

>  <population2>
79489

>  <population>
40

>  <cansmi>
O=C(N1CCCSc2c1cccc2)c1ccccn1

>  <HBA2>
4

>  <HBD>
0

>  <logP>
3.2892

>  <TPSA>
58.5

>  <MW>
270.349

$$$$

 OpenBabel02121609142D

 19 21  0  0  0  0  0  0  0  0999 V2000
    0.0667    0.5083    0.0000 N   0  0  0  0  0  0  0  0  0  0  0  0
    0.0667   -0.5000    0.0000 C   0  0  0  0  0  0  0  0  0  0  0  0
   -0.7958    1.0000    0.0000 C   0  0  0  0  0  0  0  0  0  0  0  0
   -0.7958   -1.0000    0.0000 N   0  0  0  0  0  0  0  0  0  0  0  0
   -1.6583    0.5083    0.0000 C   0  0  0  0  0  0  0  0  0  0  0  0
   -1.6583   -0.5000    0.0000 C   0  0  0  0  0  0  0  0  0  0  0  0
    0.9375    1.0000    0.0000 C   0  0  0  0  0  0  0  0  0  0  0  0
    1.8042    0.5083    0.0000 C   0  0  0  0  0  0  0  0  0  0  0  0
    0.9375   -1.0000    0.0000 O   0  0  0  0  0  0  0  0  0  0  0  0
   -0.7958    2.0000    0.0000 O   0  0  0  0  0  0  0  0  0  0  0  0
    2.7167    0.9083    0.0000 O   0  0  0  0  0  0  0  0  0  0  0  0
    1.9042   -0.4917    0.0000 C   0  0  0  0  0  0  0  0  0  0  0  0
    3.3875    0.1708    0.0000 C   0  0  0  0  0  0  0  0  0  0  0  0
    2.8875   -0.7000    0.0000 C   0  0  0  0  0  0  0  0  0  0  0  0
   -0.7958   -2.0000    0.0000 C   0  0  0  0  0  0  0  0  0  0  0  0
   -2.5250    1.0000    0.0000 C   0  0  0  0  0  0  0  0  0  0  0  0
   -2.5250   -1.0000    0.0000 C   0  0  0  0  0  0  0  0  0  0  0  0
   -3.3958    0.5083    0.0000 C   0  0  0  0  0  0  0  0  0  0  0  0
   -3.3958   -0.5000    0.0000 C   0  0  0  0  0  0  0  0  0  0  0  0
  2  1  1  0  0  0  0
  3  1  1  0  0  0  0
  4  2  1  0  0  0  0
  4  6  1  0  0  0  0
  5  3  1  0  0  0  0
  6  5  2  0  0  0  0
  7  1  1  0  0  0  0
  8  7  1  0  0  0  0
  9  2  2  0  0  0  0
 10  3  2  0  0  0  0
 11  8  1  0  0  0  0
 12  8  2  0  0  0  0
 13 11  1  0  0  0  0
 14 12  1  0  0  0  0
 14 13  2  0  0  0  0
 15  4  1  0  0  0  0
 16  5  1  0  0  0  0
 17  6  1  0  0  0  0
 17 19  2  0  0  0  0
 18 16  2  0  0  0  0
 19 18  1  0  0  0  0
M  END
>  <idnumber>
T5887030

>  <LogP>
1.994000000000000e+000

>  <rotating_bonds>
2.000000000000000e+000

>  <hb_acceptors>
2.000000000000000e+000

>  <hb_donors>
0.000000000000000e+000

>  <PSA>
5.376000000000001e+001

>  <clusterid>
-1513

>  <is_centroid>
@

>  <class1>
704

>  <class2>
655

>  <population1>
51112

>  <population2>
569

>  <population>
13

>  <cansmi>
O=c1n(Cc2ccco2)c(=O)c2c(n1C)cccc2

>  <HBA2>
5

>  <HBD>
0

>  <logP>
1.3415

>  <TPSA>
57.14

>  <MW>
256.257

$$$$

 OpenBabel02121609142D

 21 24  0  0  0  0  0  0  0  0999 V2000
   -0.8833    1.1625    0.0000 N   0  0  0  0  0  0  0  0  0  0  0  0
    0.6792   -1.6667    0.0000 C   0  0  3  0  0  0  0  0  0  0  0  0
   -1.7083    1.6458    0.0000 C   0  0  0  0  0  0  0  0  0  0  0  0
   -0.0500   -0.2125    0.0000 C   0  0  0  0  0  0  0  0  0  0  0  0
   -0.1833   -1.1750    0.0000 N   0  0  0  0  0  0  0  0  0  0  0  0
   -0.9083    0.2125    0.0000 C   0  0  0  0  0  0  0  0  0  0  0  0
   -0.0583    1.6458    0.0000 C   0  0  0  0  0  0  0  0  0  0  0  0
    1.5542   -3.0667    0.0000 C   0  0  3  0  0  0  0  0  0  0  0  0
    2.5292   -1.7417    0.0000 C   0  0  3  0  0  0  0  0  0  0  0  0
    2.0500   -1.5125    0.0000 C   0  0  3  0  0  0  0  0  0  0  0  0
   -1.7083    2.5958    0.0000 C   0  0  0  0  0  0  0  0  0  0  0  0
    0.6292   -2.6125    0.0000 C   0  0  0  0  0  0  0  0  0  0  0  0
    1.2542   -2.5875    0.0000 C   0  0  0  0  0  0  0  0  0  0  0  0
    1.5417   -1.1042    0.0000 C   0  0  0  0  0  0  0  0  0  0  0  0
   -2.5333    1.1625    0.0000 O   0  0  0  0  0  0  0  0  0  0  0  0
    0.7917    0.2458    0.0000 O   0  0  0  0  0  0  0  0  0  0  0  0
   -0.0583    2.5958    0.0000 C   0  0  0  0  0  0  0  0  0  0  0  0
   -0.8833    3.0708    0.0000 C   0  0  0  0  0  0  0  0  0  0  0  0
    1.3500   -1.7542    0.0000 C   0  0  0  0  0  0  0  0  0  0  0  0
    1.9792   -2.4875    0.0000 C   0  0  0  0  0  0  0  0  0  0  0  0
    2.4917   -2.6375    0.0000 C   0  0  0  0  0  0  0  0  0  0  0  0
  2  5  1  0  0  0  0
  3  1  1  0  0  0  0
  4  6  1  0  0  0  0
  5  4  1  0  0  0  0
  6  1  1  0  0  0  0
  7  1  1  0  0  0  0
  8 12  1  0  0  0  0
  8 21  1  0  0  0  0
  8 19  1  0  0  0  0
  9 14  1  0  0  0  0
 10 13  1  0  0  0  0
 11  3  1  0  0  0  0
 11 18  2  0  0  0  0
 12  2  1  0  0  0  0
 13  2  1  0  0  0  0
 14  2  1  0  0  0  0
 15  3  2  0  0  0  0
 16  4  2  0  0  0  0
 17  7  2  0  0  0  0
 18 17  1  0  0  0  0
 19 10  1  0  0  0  0
 20  9  1  0  0  0  0
 20 10  1  0  0  0  0
 21  9  1  0  0  0  0
M  END
>  <idnumber>
T5887165

>  <LogP>
1.904000000000000e+000

>  <rotating_bonds>
3.000000000000000e+000

>  <hb_acceptors>
2.000000000000000e+000

>  <hb_donors>
1.000000000000000e+000

>  <PSA>
4.941000000000003e+001

>  <clusterid>
716

>  <is_centroid>
@

>  <class1>
809

>  <class2>
696

>  <population1>
8162

>  <population2>
4759

>  <population>
23

>  <cansmi>
O=C(NC12CC3CC(C2)CC(C1)C3)Cn1ccccc1=O

>  <HBA2>
4

>  <HBD>
1

>  <logP>
2.3242

>  <TPSA>
51.1

>  <MW>
286.369

$$$$

 OpenBabel02121609142D

 19 21  0  0  0  0  0  0  0  0999 V2000
   -2.6958   -0.2500    0.0000 C   0  0  0  0  0  0  0  0  0  0  0  0
   -0.9708   -0.2500    0.0000 N   0  0  0  0  0  0  0  0  0  0  0  0
   -2.6958    0.7500    0.0000 N   0  0  0  0  0  0  0  0  0  0  0  0
   -1.8333   -0.7500    0.0000 C   0  0  3  0  0  0  0  0  0  0  0  0
    4.2292    1.7500    0.0000 N   0  0  0  0  0  0  0  0  0  0  0  0
    3.3667    1.2583    0.0000 C   0  0  0  0  0  0  0  0  0  0  0  0
   -0.1000   -0.7500    0.0000 C   0  0  0  0  0  0  0  0  0  0  0  0
   -3.6458   -0.5542    0.0000 C   0  0  0  0  0  0  0  0  0  0  0  0
   -3.6458    1.0625    0.0000 C   0  0  0  0  0  0  0  0  0  0  0  0
   -0.9708    0.7500    0.0000 C   0  0  0  0  0  0  0  0  0  0  0  0
   -4.2375    0.2500    0.0000 C   0  0  0  0  0  0  0  0  0  0  0  0
   -1.8333    1.2583    0.0000 C   0  0  0  0  0  0  0  0  0  0  0  0
    2.5000    0.7500    0.0000 C   0  0  0  0  0  0  0  0  0  0  0  0
    0.7667   -0.2500    0.0000 C   0  0  0  0  0  0  0  0  0  0  0  0
    1.6292    1.2583    0.0000 C   0  0  0  0  0  0  0  0  0  0  0  0
    2.5000   -0.2500    0.0000 C   0  0  0  0  0  0  0  0  0  0  0  0
    0.7667    0.7500    0.0000 C   0  0  0  0  0  0  0  0  0  0  0  0
    1.6292   -0.7500    0.0000 C   0  0  0  0  0  0  0  0  0  0  0  0
   -1.8333   -1.7500    0.0000 C   0  0  0  0  0  0  0  0  0  0  0  0
  2  4  1  0  0  0  0
  3  1  1  0  0  0  0
  4  1  1  0  0  0  0
  5  6  3  0  0  0  0
  6 13  1  0  0  0  0
  7  2  1  0  0  0  0
  8  1  2  0  0  0  0
  9  3  1  0  0  0  0
  9 11  2  0  0  0  0
 10  2  1  0  0  0  0
 11  8  1  0  0  0  0
 12  3  1  0  0  0  0
 12 10  1  0  0  0  0
 13 16  1  0  0  0  0
 14  7  1  0  0  0  0
 15 17  1  0  0  0  0
 15 13  2  0  0  0  0
 16 18  2  0  0  0  0
 17 14  2  0  0  0  0
 18 14  1  0  0  0  0
 19  4  1  0  0  0  0
M  END
>  <idnumber>
T5887405

>  <LogP>
2.835000000000000e+000

>  <rotating_bonds>
3.000000000000000e+000

>  <hb_acceptors>
2.000000000000000e+000

>  <hb_donors>
0.000000000000000e+000

>  <PSA>
3.196000000000000e+001

>  <clusterid>
-1514

>  <is_centroid>
@

>  <class1>
625

>  <class2>
838

>  <population1>
877209

>  <population2>
232

>  <population>
197

>  <cansmi>
N#Cc1ccc(cc1)CN1CCn2c(C1C)ccc2

>  <HBA2>
3

>  <HBD>
0

>  <logP>
2.87448

>  <TPSA>
31.96

>  <MW>
251.326

$$$$

 OpenBabel02121609142D

 13 13  0  0  0  0  0  0  0  0999 V2000
   -0.8708    1.2500    0.0000 N   0  0  0  0  0  0  0  0  0  0  0  0
    0.0000    1.7500    0.0000 C   0  0  0  0  0  0  0  0  0  0  0  0
   -0.8708    0.2500    0.0000 C   0  0  0  0  0  0  0  0  0  0  0  0
    0.0000   -0.2500    0.0000 C   0  0  0  0  0  0  0  0  0  0  0  0
    0.8625    1.2500    0.0000 N   0  0  0  0  0  0  0  0  0  0  0  0
    0.8625    0.2500    0.0000 C   0  0  0  0  0  0  0  0  0  0  0  0
    0.0000    2.7500    0.0000 O   0  0  0  0  0  0  0  0  0  0  0  0
   -1.7333   -0.2500    0.0000 O   0  0  0  0  0  0  0  0  0  0  0  0
   -1.7333    1.7500    0.0000 C   0  0  0  0  0  0  0  0  0  0  0  0
    0.0000   -1.2500    0.0000 C   0  0  0  0  0  0  0  0  0  0  0  0
    1.7292    1.7500    0.0000 C   0  0  0  0  0  0  0  0  0  0  0  0
    0.8625   -1.7500    0.0000 N   0  0  0  0  0  0  0  0  0  0  0  0
    0.8625   -2.7500    0.0000 C   0  0  0  0  0  0  0  0  0  0  0  0
  2  1  1  0  0  0  0
  3  1  1  0  0  0  0
  4  3  1  0  0  0  0
  5  2  1  0  0  0  0
  6  4  2  0  0  0  0
  6  5  1  0  0  0  0
  7  2  2  0  0  0  0
  8  3  2  0  0  0  0
  9  1  1  0  0  0  0
 10  4  1  0  0  0  0
 11  5  1  0  0  0  0
 12 10  1  0  0  0  0
 13 12  1  0  0  0  0
M  END
>  <idnumber>
T5887664

>  <LogP>
-1.176000000000000e+000

>  <rotating_bonds>
2.000000000000000e+000

>  <hb_acceptors>
3.000000000000000e+000

>  <hb_donors>
1.000000000000000e+000

>  <PSA>
5.265000000000000e+001

>  <clusterid>
-1516

>  <is_centroid>
@

>  <class1>
886

>  <population1>
22353

>  <population>
22353

>  <cansmi>
CNCc1cn(C)c(=O)n(c1=O)C

>  <HBA2>
5

>  <HBD>
1

>  <logP>
-0.8057

>  <TPSA>
56.03

>  <MW>
183.208

$$$$

 OpenBabel02121609142D

 14 15  0  0  0  0  0  0  0  0999 V2000
   -0.2333   -0.1542    0.0000 N   0  0  0  0  0  0  0  0  0  0  0  0
    0.6375    0.3458    0.0000 C   0  0  0  0  0  0  0  0  0  0  0  0
    1.5042   -0.1542    0.0000 C   0  0  0  0  0  0  0  0  0  0  0  0
    1.5042   -1.1542    0.0000 N   0  0  0  0  0  0  0  0  0  0  0  0
   -1.0583    0.4083    0.0000 C   0  0  0  0  0  0  0  0  0  0  0  0
   -0.1583   -1.1542    0.0000 C   0  0  0  0  0  0  0  0  0  0  0  0
    0.6375    1.3458    0.0000 C   0  0  0  0  0  0  0  0  0  0  0  0
    2.3667    0.3458    0.0000 C   0  0  0  0  0  0  0  0  0  0  0  0
   -0.8875   -1.8375    0.0000 C   0  0  0  0  0  0  0  0  0  0  0  0
   -2.0083    0.1083    0.0000 C   0  0  0  0  0  0  0  0  0  0  0  0
    1.5042    1.8458    0.0000 C   0  0  0  0  0  0  0  0  0  0  0  0
    2.3667    1.3458    0.0000 C   0  0  0  0  0  0  0  0  0  0  0  0
   -2.3750   -0.8167    0.0000 C   0  0  0  0  0  0  0  0  0  0  0  0
   -1.8750   -1.6875    0.0000 C   0  0  0  0  0  0  0  0  0  0  0  0
  2  1  1  0  0  0  0
  3  2  2  0  0  0  0
  4  3  1  0  0  0  0
  5  1  1  0  0  0  0
  6  1  1  0  0  0  0
  7  2  1  0  0  0  0
  8  3  1  0  0  0  0
  8 12  2  0  0  0  0
  9  6  1  0  0  0  0
 10  5  1  0  0  0  0
 11  7  2  0  0  0  0
 12 11  1  0  0  0  0
 13 10  1  0  0  0  0
 13 14  1  0  0  0  0
 14  9  1  0  0  0  0
M  END
>  <idnumber>
T5887665

>  <LogP>
2.831999999999999e+000

>  <rotating_bonds>
1.000000000000000e+000

>  <hb_acceptors>
2.000000000000000e+000

>  <hb_donors>
1.000000000000000e+000

>  <PSA>
2.926000000000000e+001

>  <clusterid>
91

>  <is_centroid>
@

>  <class1>
702

>  <class2>
625

>  <population1>
14026

>  <population2>
877209

>  <population>
12779

>  <cansmi>
Nc1ccccc1N1CCCCCC1

>  <HBA2>
2

>  <HBD>
1

>  <logP>
3.2954

>  <TPSA>
29.26

>  <MW>
190.285

$$$$

 OpenBabel02121609142D

 13 14  0  0  0  0  0  0  0  0999 V2000
    0.2292    0.4583    0.0000 C   0  0  0  0  0  0  0  0  0  0  0  0
    0.2292   -0.5417    0.0000 C   0  0  0  0  0  0  0  0  0  0  0  0
   -0.5583    1.0750    0.0000 C   0  0  0  0  0  0  0  0  0  0  0  0
   -0.5583   -1.1667    0.0000 O   0  0  0  0  0  0  0  0  0  0  0  0
    1.0917   -1.0417    0.0000 C   0  0  0  0  0  0  0  0  0  0  0  0
   -0.3333    2.0500    0.0000 O   0  0  0  0  0  0  0  0  0  0  0  0
    1.0917    0.9583    0.0000 C   0  0  0  0  0  0  0  0  0  0  0  0
    1.9542    0.4583    0.0000 C   0  0  0  0  0  0  0  0  0  0  0  0
   -1.5333    0.8583    0.0000 C   0  0  0  0  0  0  0  0  0  0  0  0
    1.9542   -0.5417    0.0000 C   0  0  0  0  0  0  0  0  0  0  0  0
   -1.5333   -0.9500    0.0000 C   0  0  0  0  0  0  0  0  0  0  0  0
    1.0917   -2.0417    0.0000 C   0  0  0  0  0  0  0  0  0  0  0  0
   -1.9708   -0.0417    0.0000 C   0  0  0  0  0  0  0  0  0  0  0  0
  2  1  1  0  0  0  0
  3  1  1  0  0  0  0
  4  2  1  0  0  0  0
  5  2  2  0  0  0  0
  5 10  1  0  0  0  0
  6  3  2  0  0  0  0
  7  1  2  0  0  0  0
  8  7  1  0  0  0  0
  9  3  1  0  0  0  0
 10  8  2  0  0  0  0
 11  4  1  0  0  0  0
 12  5  1  0  0  0  0
 13  9  1  0  0  0  0
 13 11  1  0  0  0  0
M  END
>  <idnumber>
T5887691

>  <LogP>
2.375000000000000e+000

>  <rotating_bonds>
0.000000000000000e+000

>  <hb_acceptors>
2.000000000000000e+000

>  <hb_donors>
0.000000000000000e+000

>  <PSA>
2.630000000000000e+001

>  <clusterid>
767

>  <is_centroid>
@

>  <class1>
772

>  <population1>
38

>  <population>
38

>  <cansmi>
O=C1CCCOc2c1cccc2C

>  <HBA2>
2

>  <HBD>
0

>  <logP>
2.3503

>  <TPSA>
26.3

>  <MW>
176.212

$$$$

 OpenBabel02121609142D

 13 14  0  0  0  0  0  0  0  0999 V2000
   -0.4333   -1.0000    0.0000 N   0  0  0  0  0  0  0  0  0  0  0  0
   -0.4333    0.0000    0.0000 C   0  0  0  0  0  0  0  0  0  0  0  0
    0.4292    0.5000    0.0000 C   0  0  0  0  0  0  0  0  0  0  0  0
    1.2917    0.0000    0.0000 N   0  0  0  0  0  0  0  0  0  0  0  0
    0.4292   -1.4917    0.0000 C   0  0  0  0  0  0  0  0  0  0  0  0
   -1.3000    0.5000    0.0000 O   0  0  0  0  0  0  0  0  0  0  0  0
    1.2917   -1.0000    0.0000 C   0  0  0  0  0  0  0  0  0  0  0  0
    0.4292   -2.5000    0.0000 O   0  0  0  0  0  0  0  0  0  0  0  0
   -0.4333    1.0000    0.0000 C   0  0  0  0  0  0  0  0  0  0  0  0
    1.2917    1.0000    0.0000 C   0  0  0  0  0  0  0  0  0  0  0  0
    1.2917    2.0000    0.0000 C   0  0  0  0  0  0  0  0  0  0  0  0
   -0.4333    2.0000    0.0000 C   0  0  0  0  0  0  0  0  0  0  0  0
    0.4292    2.5000    0.0000 C   0  0  0  0  0  0  0  0  0  0  0  0
  2  1  1  0  0  0  0
  3  2  1  0  0  0  0
  4  7  1  0  0  0  0
  4  3  1  0  0  0  0
  5  1  1  0  0  0  0
  6  2  2  0  0  0  0
  7  5  1  0  0  0  0
  8  5  2  0  0  0  0
  9  3  1  0  0  0  0
 10  3  1  0  0  0  0
 11 10  1  0  0  0  0
 12  9  1  0  0  0  0
 12 13  1  0  0  0  0
 13 11  1  0  0  0  0
M  END
>  <idnumber>
T5889133

>  <LogP>
8.650000000000002e-001

>  <rotating_bonds>
0.000000000000000e+000

>  <hb_acceptors>
3.000000000000000e+000

>  <hb_donors>
2.000000000000000e+000

>  <PSA>
5.820000000000000e+001

>  <clusterid>
-1523

>  <is_centroid>
@

>  <class1>
728

>  <population1>
204

>  <population>
204

>  <cansmi>
O=C1CNC2(C(=O)N1)CCCCC2

>  <HBA2>
4

>  <HBD>
2

>  <logP>
0.5929

>  <TPSA>
58.2

>  <MW>
182.22

$$$$

 OpenBabel02121609142D

 20 22  0  0  0  0  0  0  0  0999 V2000
    1.2917    1.2500    0.0000 C   0  0  0  0  0  0  0  0  0  0  0  0
    0.4292    1.7500    0.0000 C   0  0  0  0  0  0  0  0  0  0  0  0
    1.2917    0.2500    0.0000 N   0  0  0  0  0  0  0  0  0  0  0  0
   -0.4333    1.2583    0.0000 C   0  0  0  0  0  0  0  0  0  0  0  0
   -1.3000    1.7583    0.0000 C   0  0  0  0  0  0  0  0  0  0  0  0
    2.1625    1.7500    0.0000 O   0  0  0  0  0  0  0  0  0  0  0  0
    2.1625   -3.2500    0.0000 N   0  0  0  0  0  0  0  0  0  0  0  0
    0.4292    2.7500    0.0000 C   0  0  0  0  0  0  0  0  0  0  0  0
   -1.3000    2.7583    0.0000 C   0  0  0  0  0  0  0  0  0  0  0  0
   -0.4333    3.2583    0.0000 C   0  0  0  0  0  0  0  0  0  0  0  0
    2.1625   -0.2500    0.0000 C   0  0  0  0  0  0  0  0  0  0  0  0
    2.1625   -1.2500    0.0000 C   0  0  0  0  0  0  0  0  0  0  0  0
    1.2917   -2.7500    0.0000 C   0  0  0  0  0  0  0  0  0  0  0  0
    3.0292   -2.7500    0.0000 C   0  0  0  0  0  0  0  0  0  0  0  0
   -2.1708    1.2583    0.0000 C   0  0  0  0  0  0  0  0  0  0  0  0
   -2.1708    3.2583    0.0000 C   0  0  0  0  0  0  0  0  0  0  0  0
    1.2917   -1.7500    0.0000 C   0  0  0  0  0  0  0  0  0  0  0  0
    3.0292   -1.7500    0.0000 C   0  0  0  0  0  0  0  0  0  0  0  0
   -3.0333    1.7583    0.0000 C   0  0  0  0  0  0  0  0  0  0  0  0
   -3.0333    2.7583    0.0000 C   0  0  0  0  0  0  0  0  0  0  0  0
  2  1  1  0  0  0  0
  3  1  1  0  0  0  0
  4  2  2  0  0  0  0
  5  4  1  0  0  0  0
  5  9  2  0  0  0  0
  6  1  2  0  0  0  0
  7 14  2  0  0  0  0
  8  2  1  0  0  0  0
  9 10  1  0  0  0  0
 10  8  2  0  0  0  0
 11  3  1  0  0  0  0
 12 11  1  0  0  0  0
 13 17  2  0  0  0  0
 13  7  1  0  0  0  0
 14 18  1  0  0  0  0
 15  5  1  0  0  0  0
 16  9  1  0  0  0  0
 17 12  1  0  0  0  0
 18 12  2  0  0  0  0
 19 15  2  0  0  0  0
 20 16  2  0  0  0  0
 20 19  1  0  0  0  0
M  END
>  <idnumber>
T5893278

>  <LogP>
2.506000000000000e+000

>  <rotating_bonds>
3.000000000000000e+000

>  <hb_acceptors>
2.000000000000000e+000

>  <hb_donors>
1.000000000000000e+000

>  <PSA>
4.199000000000000e+001

>  <clusterid>
397

>  <is_centroid>
@

>  <class1>
796

>  <class2>
632

>  <population1>
21922

>  <population2>
79489

>  <population>
1116

>  <cansmi>
O=C(c1ccc2c(c1)cccc2)NCc1ccncc1

>  <HBA2>
3

>  <HBD>
1

>  <logP>
3.5557

>  <TPSA>
41.99

>  <MW>
262.306

$$$$

 OpenBabel02121609142D

 16 17  0  0  0  0  0  0  0  0999 V2000
   -0.8500    0.7833    0.0000 C   0  0  0  0  0  0  0  0  0  0  0  0
   -0.1833    0.0458    0.0000 N   0  0  0  0  0  0  0  0  0  0  0  0
   -0.4958   -0.9125    0.0000 C   0  0  3  0  0  0  0  0  0  0  0  0
    1.1542   -1.4417    0.0000 N   0  0  0  0  0  0  0  0  0  0  0  0
   -1.8333    0.5750    0.0000 O   0  0  0  0  0  0  0  0  0  0  0  0
    0.1792   -1.6542    0.0000 C   0  0  0  0  0  0  0  0  0  0  0  0
   -0.5458    1.7333    0.0000 C   0  0  0  0  0  0  0  0  0  0  0  0
    1.8250   -2.1875    0.0000 C   0  0  0  0  0  0  0  0  0  0  0  0
   -1.4708   -1.1167    0.0000 C   0  0  0  0  0  0  0  0  0  0  0  0
   -0.1333   -2.6042    0.0000 C   0  0  0  0  0  0  0  0  0  0  0  0
    0.4042    2.0458    0.0000 C   0  0  0  0  0  0  0  0  0  0  0  0
   -1.1333    2.5458    0.0000 C   0  0  0  0  0  0  0  0  0  0  0  0
    1.5167   -3.1417    0.0000 C   0  0  0  0  0  0  0  0  0  0  0  0
    0.5375   -3.3500    0.0000 C   0  0  0  0  0  0  0  0  0  0  0  0
   -0.5458    3.3583    0.0000 C   0  0  0  0  0  0  0  0  0  0  0  0
    0.4042    3.0458    0.0000 C   0  0  0  0  0  0  0  0  0  0  0  0
  2  1  1  0  0  0  0
  3  2  1  0  0  0  0
  4  6  2  0  0  0  0
  5  1  2  0  0  0  0
  6  3  1  0  0  0  0
  7  1  1  0  0  0  0
  8  4  1  0  0  0  0
  8 13  2  0  0  0  0
  9  3  1  0  0  0  0
 10  6  1  0  0  0  0
 11  7  1  0  0  0  0
 12  7  1  0  0  0  0
 13 14  1  0  0  0  0
 14 10  2  0  0  0  0
 15 12  1  0  0  0  0
 16 11  1  0  0  0  0
 16 15  1  0  0  0  0
M  END
>  <idnumber>
T5894347

>  <LogP>
1.234000000000000e+000

>  <rotating_bonds>
3.000000000000000e+000

>  <hb_acceptors>
2.000000000000000e+000

>  <hb_donors>
1.000000000000000e+000

>  <PSA>
4.199000000000000e+001

>  <clusterid>
583

>  <is_centroid>
@

>  <class1>
674

>  <class2>
632

>  <population1>
16474

>  <population2>
79489

>  <population>
605

>  <cansmi>
O=C(C1CCCC1)NC(c1ccccn1)C

>  <HBA2>
3

>  <HBD>
1

>  <logP>
2.8399

>  <TPSA>
41.99

>  <MW>
218.295

$$$$

 OpenBabel02121609142D

 13 14  0  0  0  0  0  0  0  0999 V2000
    0.8792    0.3833    0.0000 C   0  0  0  0  0  0  0  0  0  0  0  0
    0.2917   -0.4250    0.0000 C   0  0  0  0  0  0  0  0  0  0  0  0
   -0.6583   -0.1167    0.0000 C   0  0  0  0  0  0  0  0  0  0  0  0
    0.2917    1.1958    0.0000 C   0  0  0  0  0  0  0  0  0  0  0  0
    1.8792    0.3833    0.0000 C   0  0  0  0  0  0  0  0  0  0  0  0
   -0.6583    0.8833    0.0000 C   0  0  0  0  0  0  0  0  0  0  0  0
    2.3792   -0.4792    0.0000 O   0  0  0  0  0  0  0  0  0  0  0  0
    2.3792    1.2500    0.0000 O   0  0  0  0  0  0  0  0  0  0  0  0
    0.6042   -1.3792    0.0000 C   0  0  0  0  0  0  0  0  0  0  0  0
   -1.5208   -0.6167    0.0000 C   0  0  0  0  0  0  0  0  0  0  0  0
   -1.5208    1.3833    0.0000 C   0  0  0  0  0  0  0  0  0  0  0  0
   -2.3875   -0.1167    0.0000 C   0  0  0  0  0  0  0  0  0  0  0  0
   -2.3875    0.8833    0.0000 C   0  0  0  0  0  0  0  0  0  0  0  0
  2  1  2  0  0  0  0
  3  2  1  0  0  0  0
  4  1  1  0  0  0  0
  5  1  1  0  0  0  0
  6  4  1  0  0  0  0
  6  3  2  0  0  0  0
  7  5  2  0  0  0  0
  8  5  1  0  0  0  0
  9  2  1  0  0  0  0
 10  3  1  0  0  0  0
 11  6  1  0  0  0  0
 12 10  2  0  0  0  0
 13 11  2  0  0  0  0
 13 12  1  0  0  0  0
M  END
>  <idnumber>
T5895649

>  <LogP>
2.643000000000000e+000

>  <rotating_bonds>
1.000000000000000e+000

>  <hb_acceptors>
2.000000000000000e+000

>  <hb_donors>
1.000000000000000e+000

>  <PSA>
3.730000000000000e+001

>  <clusterid>
-1537

>  <is_centroid>
@

>  <class1>
754

>  <population1>
79

>  <population>
79

>  <cansmi>
OC(=O)C1=C(C)c2c(C1)cccc2

>  <HBA2>
2

>  <HBD>
1

>  <logP>
2.1008

>  <TPSA>
37.3

>  <MW>
174.196

$$$$

 OpenBabel02121609142D

 21 23  0  0  0  0  0  0  0  0999 V2000
   -0.6458    0.3458    0.0000 N   0  0  0  0  0  0  0  0  0  0  0  0
   -1.5083   -0.1542    0.0000 C   0  0  0  0  0  0  0  0  0  0  0  0
   -0.6458    1.3458    0.0000 N   0  0  0  0  0  0  0  0  0  0  0  0
    0.2250   -0.1542    0.0000 C   0  0  0  0  0  0  0  0  0  0  0  0
    1.0875    0.3458    0.0000 C   0  0  0  0  0  0  0  0  0  0  0  0
   -2.3750    0.3458    0.0000 C   0  0  0  0  0  0  0  0  0  0  0  0
    1.9542   -0.1542    0.0000 N   0  0  0  0  0  0  0  0  0  0  0  0
   -1.5083    1.8458    0.0000 C   0  0  0  0  0  0  0  0  0  0  0  0
   -2.3750    1.3458    0.0000 C   0  0  0  0  0  0  0  0  0  0  0  0
   -1.5083   -1.1542    0.0000 O   0  0  0  0  0  0  0  0  0  0  0  0
    1.0875    1.3458    0.0000 O   0  0  0  0  0  0  0  0  0  0  0  0
    1.8792   -1.1542    0.0000 C   0  0  0  0  0  0  0  0  0  0  0  0
    2.7792    0.4083    0.0000 C   0  0  0  0  0  0  0  0  0  0  0  0
   -3.2458   -0.1542    0.0000 C   0  0  0  0  0  0  0  0  0  0  0  0
   -3.2458    1.8458    0.0000 C   0  0  0  0  0  0  0  0  0  0  0  0
    3.7375    0.1083    0.0000 C   0  0  0  0  0  0  0  0  0  0  0  0
    2.6125   -1.8375    0.0000 C   0  0  0  0  0  0  0  0  0  0  0  0
   -4.1083    0.3458    0.0000 C   0  0  0  0  0  0  0  0  0  0  0  0
   -4.1083    1.3458    0.0000 C   0  0  0  0  0  0  0  0  0  0  0  0
    3.6042   -1.6875    0.0000 C   0  0  0  0  0  0  0  0  0  0  0  0
    4.1042   -0.8167    0.0000 C   0  0  0  0  0  0  0  0  0  0  0  0
  2  1  1  0  0  0  0
  3  1  1  0  0  0  0
  4  1  1  0  0  0  0
  5  4  1  0  0  0  0
  6  2  1  0  0  0  0
  6  9  2  0  0  0  0
  7  5  1  0  0  0  0
  8  3  2  0  0  0  0
  9  8  1  0  0  0  0
 10  2  2  0  0  0  0
 11  5  2  0  0  0  0
 12  7  1  0  0  0  0
 13  7  1  0  0  0  0
 14  6  1  0  0  0  0
 15  9  1  0  0  0  0
 16 13  1  0  0  0  0
 17 12  1  0  0  0  0
 18 14  2  0  0  0  0
 19 15  2  0  0  0  0
 19 18  1  0  0  0  0
 20 17  1  0  0  0  0
 20 21  1  0  0  0  0
 21 16  1  0  0  0  0
M  END
>  <idnumber>
T5895824

>  <LogP>
-7.200000000000001e-002

>  <rotating_bonds>
2.000000000000000e+000

>  <hb_acceptors>
3.000000000000000e+000

>  <hb_donors>
0.000000000000000e+000

>  <PSA>
5.298000000000000e+001

>  <clusterid>
297

>  <is_centroid>
@

>  <class1>
702

>  <class2>
792

>  <population1>
14026

>  <population2>
7197

>  <population>
88

>  <cansmi>
O=C(N1CCCCCC1)Cn1ncc2c(c1=O)cccc2

>  <HBA2>
5

>  <HBD>
0

>  <logP>
1.737

>  <TPSA>
55.2

>  <MW>
285.341

$$$$

 OpenBabel02121609142D

 21 23  0  0  0  0  0  0  0  0999 V2000
    0.5542    0.2500    0.0000 N   0  0  0  0  0  0  0  0  0  0  0  0
   -0.0333    1.0583    0.0000 C   0  0  0  0  0  0  0  0  0  0  0  0
    1.5125    0.5583    0.0000 C   0  0  0  0  0  0  0  0  0  0  0  0
    0.5542    1.8708    0.0000 C   0  0  0  0  0  0  0  0  0  0  0  0
    0.2500   -0.7042    0.0000 C   0  0  0  0  0  0  0  0  0  0  0  0
    1.5125    1.5583    0.0000 C   0  0  0  0  0  0  0  0  0  0  0  0
   -0.7333   -0.9125    0.0000 C   0  0  3  0  0  0  0  0  0  0  0  0
   -1.0333    1.0583    0.0000 O   0  0  0  0  0  0  0  0  0  0  0  0
    2.3167   -0.0292    0.0000 O   0  0  0  0  0  0  0  0  0  0  0  0
   -1.0375   -1.8625    0.0000 C   0  0  0  0  0  0  0  0  0  0  0  0
   -1.3958   -0.1667    0.0000 O   0  0  0  0  0  0  0  0  0  0  0  0
   -0.4208    2.0833    0.0000 C   0  0  0  0  0  0  0  0  0  0  0  0
    1.2292    2.6083    0.0000 C   0  0  0  0  0  0  0  0  0  0  0  0
   -2.0208   -2.0667    0.0000 C   0  0  0  0  0  0  0  0  0  0  0  0
   -0.3708   -2.6042    0.0000 C   0  0  0  0  0  0  0  0  0  0  0  0
    0.9167    3.5583    0.0000 C   0  0  0  0  0  0  0  0  0  0  0  0
   -0.7333    3.0250    0.0000 C   0  0  0  0  0  0  0  0  0  0  0  0
   -0.6750   -3.5542    0.0000 C   0  0  0  0  0  0  0  0  0  0  0  0
   -2.3250   -3.0167    0.0000 C   0  0  0  0  0  0  0  0  0  0  0  0
   -0.0583    3.7708    0.0000 C   0  0  0  0  0  0  0  0  0  0  0  0
   -1.6583   -3.7625    0.0000 C   0  0  0  0  0  0  0  0  0  0  0  0
  2  1  1  0  0  0  0
  3  1  1  0  0  0  0
  4  2  1  0  0  0  0
  5  1  1  0  0  0  0
  6  3  1  0  0  0  0
  6  4  1  0  0  0  0
  7  5  1  0  0  0  0
  8  2  2  0  0  0  0
  9  3  2  0  0  0  0
 10  7  1  0  0  0  0
 11  7  1  0  0  0  0
 12  4  1  0  0  0  0
 13  4  1  0  0  0  0
 14 10  1  0  0  0  0
 15 10  2  0  0  0  0
 16 13  1  0  0  0  0
 17 12  1  0  0  0  0
 17 20  1  0  0  0  0
 18 15  1  0  0  0  0
 19 14  2  0  0  0  0
 19 21  1  0  0  0  0
 20 16  1  0  0  0  0
 21 18  2  0  0  0  0
M  END
>  <idnumber>
T5897924

>  <LogP>
2.199000000000000e+000

>  <rotating_bonds>
3.000000000000000e+000

>  <hb_acceptors>
3.000000000000000e+000

>  <hb_donors>
1.000000000000000e+000

>  <PSA>
5.761000000000000e+001

>  <clusterid>
-1538

>  <is_centroid>
@

>  <class1>
625

>  <class2>
703

>  <population1>
877209

>  <population2>
340

>  <population>
291

>  <cansmi>
OC(c1ccccc1)CN1C(=O)CC2(C1=O)CCCCC2

>  <HBA2>
4

>  <HBD>
1

>  <logP>
2.3673

>  <TPSA>
57.61

>  <MW>
287.354

$$$$

 OpenBabel02121609142D

 12 12  0  0  0  0  0  0  0  0999 V2000
    0.0000   -0.7500    0.0000 C   0  0  0  0  0  0  0  0  0  0  0  0
   -0.8708   -0.2417    0.0000 C   0  0  0  0  0  0  0  0  0  0  0  0
    0.8625   -0.2500    0.0000 C   0  0  0  0  0  0  0  0  0  0  0  0
   -0.8708    0.7583    0.0000 N   0  0  0  0  0  0  0  0  0  0  0  0
    0.8625    0.7500    0.0000 N   0  0  0  0  0  0  0  0  0  0  0  0
    0.0000    1.2500    0.0000 C   0  0  0  0  0  0  0  0  0  0  0  0
    0.0000   -1.7500    0.0000 C   0  0  0  0  0  0  0  0  0  0  0  0
   -1.7333   -0.7417    0.0000 O   0  0  0  0  0  0  0  0  0  0  0  0
   -0.8708   -2.2500    0.0000 O   0  0  0  0  0  0  0  0  0  0  0  0
    1.7292   -0.7417    0.0000 C   0  0  0  0  0  0  0  0  0  0  0  0
    0.0000    2.2500    0.0000 C   0  0  0  0  0  0  0  0  0  0  0  0
    0.8625   -2.2500    0.0000 C   0  0  0  0  0  0  0  0  0  0  0  0
  2  1  1  0  0  0  0
  3  1  2  0  0  0  0
  4  2  1  0  0  0  0
  4  6  1  0  0  0  0
  5  3  1  0  0  0  0
  6  5  2  0  0  0  0
  7  1  1  0  0  0  0
  8  2  2  0  0  0  0
  9  7  2  0  0  0  0
 10  3  1  0  0  0  0
 11  6  1  0  0  0  0
 12  7  1  0  0  0  0
M  END
>  <idnumber>
T5899234

>  <LogP>
-4.880000000000000e-001

>  <rotating_bonds>
1.000000000000000e+000

>  <hb_acceptors>
3.000000000000000e+000

>  <hb_donors>
1.000000000000000e+000

>  <PSA>
5.853000000000000e+001

>  <clusterid>
-1544

>  <is_centroid>
@

>  <class1>
898

>  <population1>
30990

>  <population>
30990

>  <cansmi>
CC(=O)c1c(C)nc([nH]c1=O)C

>  <HBA2>
3

>  <HBD>
1

>  <logP>
0.5893

>  <TPSA>
62.82

>  <MW>
166.177

$$$$

 OpenBabel02121609142D

 18 21  0  0  0  0  0  0  0  0999 V2000
    0.8000   -1.4875    0.0000 N   0  0  0  0  0  0  0  0  0  0  0  0
    0.2792   -0.6417    0.0000 C   0  0  0  0  0  0  0  0  0  0  0  0
   -0.9708    0.6583    0.0000 C   0  0  3  0  0  0  0  0  0  0  0  0
   -0.6500   -0.2917    0.0000 N   0  0  0  0  0  0  0  0  0  0  0  0
    1.9667   -2.5917    0.0000 N   0  0  0  0  0  0  0  0  0  0  0  0
    1.7792   -1.6167    0.0000 C   0  0  0  0  0  0  0  0  0  0  0  0
    0.3667   -2.3792    0.0000 C   0  0  0  0  0  0  0  0  0  0  0  0
   -1.2708    2.3083    0.0000 C   0  0  3  0  0  0  0  0  0  0  0  0
   -1.8958    2.2458    0.0000 C   0  0  3  0  0  0  0  0  0  0  0  0
    0.2167    1.9125    0.0000 C   0  0  3  0  0  0  0  0  0  0  0  0
    0.9375    0.1000    0.0000 O   0  0  0  0  0  0  0  0  0  0  0  0
    1.0917   -3.0667    0.0000 C   0  0  0  0  0  0  0  0  0  0  0  0
   -1.5458    1.1625    0.0000 C   0  0  0  0  0  0  0  0  0  0  0  0
    0.0167    0.9083    0.0000 C   0  0  0  0  0  0  0  0  0  0  0  0
   -1.9708    1.1125    0.0000 C   0  0  0  0  0  0  0  0  0  0  0  0
   -0.3375    2.5833    0.0000 C   0  0  0  0  0  0  0  0  0  0  0  0
   -0.7958    2.4583    0.0000 C   0  0  0  0  0  0  0  0  0  0  0  0
   -1.4750    3.0833    0.0000 C   0  0  0  0  0  0  0  0  0  0  0  0
  2  1  1  0  0  0  0
  3  4  1  0  0  0  0
  4  2  1  0  0  0  0
  5  6  2  0  0  0  0
  6  1  1  0  0  0  0
  7  1  1  0  0  0  0
  8 13  1  0  0  0  0
  8 18  1  0  0  0  0
  8 16  1  0  0  0  0
  9 15  1  0  0  0  0
 10 14  1  0  0  0  0
 10 17  1  0  0  0  0
 11  2  2  0  0  0  0
 12  7  2  0  0  0  0
 12  5  1  0  0  0  0
 13  3  1  0  0  0  0
 14  3  1  0  0  0  0
 15  3  1  0  0  0  0
 16 10  1  0  0  0  0
 17  9  1  0  0  0  0
 18  9  1  0  0  0  0
M  END
>  <idnumber>
T5900996

>  <LogP>
1.116000000000000e+000

>  <rotating_bonds>
1.000000000000000e+000

>  <hb_acceptors>
2.000000000000000e+000

>  <hb_donors>
1.000000000000000e+000

>  <PSA>
4.692000000000000e+001

>  <clusterid>
545

>  <is_centroid>
@

>  <class1>
809

>  <class2>
686

>  <population1>
8162

>  <population2>
31113

>  <population>
89

>  <cansmi>
O=C(n1cncc1)NC12CC3CC(C2)CC(C1)C3

>  <HBA2>
4

>  <HBD>
1

>  <logP>
2.8005

>  <TPSA>
46.92

>  <MW>
245.32

$$$$

 OpenBabel02121609142D

 19 21  0  0  0  0  0  0  0  0999 V2000
    2.5750    0.0000    0.0000 C   0  0  0  0  0  0  0  0  0  0  0  0
    1.7042   -0.5000    0.0000 C   0  0  0  0  0  0  0  0  0  0  0  0
    0.8417    0.0000    0.0000 N   0  0  0  0  0  0  0  0  0  0  0  0
   -2.6208    0.0000    0.0000 C   0  0  0  0  0  0  0  0  0  0  0  0
    2.6792    0.9958    0.0000 C   0  0  0  0  0  0  0  0  0  0  0  0
   -2.6208    1.0000    0.0000 C   0  0  0  0  0  0  0  0  0  0  0  0
   -3.5750   -0.3042    0.0000 O   0  0  0  0  0  0  0  0  0  0  0  0
    3.4875   -0.4042    0.0000 C   0  0  0  0  0  0  0  0  0  0  0  0
   -0.0250   -0.5000    0.0000 C   0  0  0  0  0  0  0  0  0  0  0  0
   -3.5750    1.3125    0.0000 O   0  0  0  0  0  0  0  0  0  0  0  0
    3.6542    1.2083    0.0000 O   0  0  0  0  0  0  0  0  0  0  0  0
    1.7042   -1.5000    0.0000 O   0  0  0  0  0  0  0  0  0  0  0  0
   -4.1625    0.5000    0.0000 C   0  0  0  0  0  0  0  0  0  0  0  0
   -1.7583   -0.5000    0.0000 C   0  0  0  0  0  0  0  0  0  0  0  0
   -0.8958    0.0000    0.0000 C   0  0  0  0  0  0  0  0  0  0  0  0
    4.1542    0.3375    0.0000 C   0  0  0  0  0  0  0  0  0  0  0  0
   -1.7583    1.5000    0.0000 C   0  0  0  0  0  0  0  0  0  0  0  0
   -0.8958    1.0000    0.0000 C   0  0  0  0  0  0  0  0  0  0  0  0
    0.8417    1.0000    0.0000 C   0  0  0  0  0  0  0  0  0  0  0  0
  2  1  1  0  0  0  0
  3  2  1  0  0  0  0
  4 14  1  0  0  0  0
  4  6  2  0  0  0  0
  5  1  2  0  0  0  0
  6 17  1  0  0  0  0
  7  4  1  0  0  0  0
  8  1  1  0  0  0  0
  9  3  1  0  0  0  0
 10  6  1  0  0  0  0
 10 13  1  0  0  0  0
 11  5  1  0  0  0  0
 12  2  2  0  0  0  0
 13  7  1  0  0  0  0
 14 15  2  0  0  0  0
 15  9  1  0  0  0  0
 16  8  2  0  0  0  0
 16 11  1  0  0  0  0
 17 18  2  0  0  0  0
 18 15  1  0  0  0  0
 19  3  1  0  0  0  0
M  END
>  <idnumber>
T5901164

>  <LogP>
1.536000000000000e+000

>  <rotating_bonds>
3.000000000000000e+000

>  <hb_acceptors>
3.000000000000000e+000

>  <hb_donors>
0.000000000000000e+000

>  <PSA>
5.191000000000000e+001

>  <clusterid>
-1547

>  <is_centroid>
@

>  <class1>
704

>  <class2>
811

>  <population1>
51112

>  <population2>
21222

>  <population>
716

>  <cansmi>
CN(C(=O)c1cocc1)Cc1ccc2c(c1)OCO2

>  <HBA2>
5

>  <HBD>
0

>  <logP>
2.2805

>  <TPSA>
51.91

>  <MW>
259.257

$$$$

 OpenBabel02121609142D

 18 19  0  0  0  0  0  0  0  0999 V2000
   -1.3000    2.0083    0.0000 C   0  0  0  0  0  0  0  0  0  0  0  0
   -0.4333    2.5000    0.0000 N   0  0  0  0  0  0  0  0  0  0  0  0
   -1.3000    1.0000    0.0000 N   0  0  0  0  0  0  0  0  0  0  0  0
   -0.4333    0.5000    0.0000 C   0  0  0  0  0  0  0  0  0  0  0  0
    0.4292    2.0083    0.0000 C   0  0  0  0  0  0  0  0  0  0  0  0
    0.4292    1.0000    0.0000 C   0  0  0  0  0  0  0  0  0  0  0  0
    0.4292   -1.0000    0.0000 N   0  0  0  0  0  0  0  0  0  0  0  0
   -0.4333   -0.5000    0.0000 C   0  0  0  0  0  0  0  0  0  0  0  0
   -2.1708    2.5000    0.0000 O   0  0  0  0  0  0  0  0  0  0  0  0
    1.2917    2.5000    0.0000 O   0  0  0  0  0  0  0  0  0  0  0  0
    0.4292   -1.9917    0.0000 C   0  0  0  0  0  0  0  0  0  0  0  0
   -0.4333    3.5000    0.0000 C   0  0  0  0  0  0  0  0  0  0  0  0
   -2.1708    0.5000    0.0000 C   0  0  0  0  0  0  0  0  0  0  0  0
    1.2917   -0.5000    0.0000 C   0  0  0  0  0  0  0  0  0  0  0  0
    1.2917   -2.5000    0.0000 C   0  0  3  0  0  0  0  0  0  0  0  0
    2.1625   -1.0000    0.0000 C   0  0  0  0  0  0  0  0  0  0  0  0
    2.1625   -1.9917    0.0000 C   0  0  0  0  0  0  0  0  0  0  0  0
    1.2917   -3.5000    0.0000 C   0  0  0  0  0  0  0  0  0  0  0  0
  2  1  1  0  0  0  0
  3  1  1  0  0  0  0
  4  3  1  0  0  0  0
  5  2  1  0  0  0  0
  6  4  2  0  0  0  0
  6  5  1  0  0  0  0
  7  8  1  0  0  0  0
  8  4  1  0  0  0  0
  9  1  2  0  0  0  0
 10  5  2  0  0  0  0
 11  7  1  0  0  0  0
 12  2  1  0  0  0  0
 13  3  1  0  0  0  0
 14  7  1  0  0  0  0
 15 11  1  0  0  0  0
 15 17  1  0  0  0  0
 16 14  1  0  0  0  0
 17 16  1  0  0  0  0
 18 15  1  0  0  0  0
M  END
>  <idnumber>
T5902759

>  <LogP>
1.002000000000000e+000

>  <rotating_bonds>
2.000000000000000e+000

>  <hb_acceptors>
3.000000000000000e+000

>  <hb_donors>
0.000000000000000e+000

>  <PSA>
4.386000000000000e+001

>  <clusterid>
721

>  <is_centroid>
@

>  <class1>
886

>  <class2>
639

>  <population1>
22353

>  <population2>
59855

>  <population>
1022

>  <cansmi>
CC1CCCN(C1)Cc1cc(=O)n(c(=O)n1C)C

>  <HBA2>
5

>  <HBD>
0

>  <logP>
0.2538

>  <TPSA>
47.24

>  <MW>
251.325

$$$$

 OpenBabel02121609142D

 20 22  0  0  0  0  0  0  0  0999 V2000
    0.3000    0.8583    0.0000 C   0  0  0  0  0  0  0  0  0  0  0  0
   -0.2875    1.6708    0.0000 N   0  0  0  0  0  0  0  0  0  0  0  0
   -0.0083   -0.0917    0.0000 C   0  0  0  0  0  0  0  0  0  0  0  0
    0.6542   -0.8292    0.0000 N   0  0  0  0  0  0  0  0  0  0  0  0
    1.2500    2.1708    0.0000 N   0  0  0  0  0  0  0  0  0  0  0  0
    0.3000    2.4750    0.0000 C   0  0  0  0  0  0  0  0  0  0  0  0
    1.2500    1.1708    0.0000 C   0  0  0  0  0  0  0  0  0  0  0  0
    1.6375   -0.6292    0.0000 C   0  0  0  0  0  0  0  0  0  0  0  0
   -1.2875    1.6708    0.0000 C   0  0  0  0  0  0  0  0  0  0  0  0
   -0.9875   -0.3000    0.0000 O   0  0  0  0  0  0  0  0  0  0  0  0
    1.9917   -2.3167    0.0000 O   0  0  0  0  0  0  0  0  0  0  0  0
    0.3500   -1.7875    0.0000 C   0  0  0  0  0  0  0  0  0  0  0  0
    2.3042   -1.3667    0.0000 C   0  0  3  0  0  0  0  0  0  0  0  0
    1.0167   -2.5292    0.0000 C   0  0  0  0  0  0  0  0  0  0  0  0
   -1.7875    2.5333    0.0000 C   0  0  0  0  0  0  0  0  0  0  0  0
   -1.7875    0.8000    0.0000 C   0  0  0  0  0  0  0  0  0  0  0  0
    3.2792   -1.1625    0.0000 C   0  0  0  0  0  0  0  0  0  0  0  0
   -2.7875    0.8000    0.0000 C   0  0  0  0  0  0  0  0  0  0  0  0
   -2.7875    2.5333    0.0000 C   0  0  0  0  0  0  0  0  0  0  0  0
   -3.2875    1.6708    0.0000 C   0  0  0  0  0  0  0  0  0  0  0  0
  2  1  1  0  0  0  0
  3  1  1  0  0  0  0
  4  3  1  0  0  0  0
  5  7  1  0  0  0  0
  5  6  2  0  0  0  0
  6  2  1  0  0  0  0
  7  1  2  0  0  0  0
  8  4  1  0  0  0  0
  9  2  1  0  0  0  0
 10  3  2  0  0  0  0
 11 14  1  0  0  0  0
 12  4  1  0  0  0  0
 13  8  1  0  0  0  0
 13 11  1  0  0  0  0
 14 12  1  0  0  0  0
 15  9  1  0  0  0  0
 16  9  2  0  0  0  0
 17 13  1  0  0  0  0
 18 16  1  0  0  0  0
 19 15  2  0  0  0  0
 19 20  1  0  0  0  0
 20 18  2  0  0  0  0
M  END
>  <idnumber>
T5903505

>  <LogP>
1.376000000000000e+000

>  <rotating_bonds>
2.000000000000000e+000

>  <hb_acceptors>
3.000000000000000e+000

>  <hb_donors>
0.000000000000000e+000

>  <PSA>
4.736000000000001e+001

>  <clusterid>
753

>  <is_centroid>
@

>  <class1>
686

>  <class2>
625

>  <class3>
786

>  <population1>
31113

>  <population2>
877209

>  <population3>
48067

>  <population>
835

>  <cansmi>
CC1OCCN(C1)C(=O)c1cncn1c1ccccc1

>  <HBA2>
5

>  <HBD>
0

>  <logP>
1.6711

>  <TPSA>
47.36

>  <MW>
271.314

$$$$

 OpenBabel02121609142D

 20 22  0  0  0  0  0  0  0  0999 V2000
    0.4292    0.5000    0.0000 C   0  0  0  0  0  0  0  0  0  0  0  0
   -0.4333    1.0000    0.0000 C   0  0  0  0  0  0  0  0  0  0  0  0
    0.4292   -0.5000    0.0000 N   0  0  0  0  0  0  0  0  0  0  0  0
   -1.3000    0.5000    0.0000 C   0  0  0  0  0  0  0  0  0  0  0  0
   -2.1708    1.0000    0.0000 C   0  0  0  0  0  0  0  0  0  0  0  0
    1.2917    1.0000    0.0000 O   0  0  0  0  0  0  0  0  0  0  0  0
   -0.4333    2.0000    0.0000 C   0  0  0  0  0  0  0  0  0  0  0  0
   -2.1708    2.0000    0.0000 C   0  0  0  0  0  0  0  0  0  0  0  0
   -1.3000    2.5000    0.0000 C   0  0  0  0  0  0  0  0  0  0  0  0
    1.2917   -1.0000    0.0000 C   0  0  3  0  0  0  0  0  0  0  0  0
    3.0292   -2.0000    0.0000 C   0  0  3  0  0  0  0  0  0  0  0  0
    1.2917   -2.0000    0.0000 C   0  0  0  0  0  0  0  0  0  0  0  0
    2.1625   -0.5000    0.0000 C   0  0  0  0  0  0  0  0  0  0  0  0
    2.1625   -2.5000    0.0000 C   0  0  0  0  0  0  0  0  0  0  0  0
    3.0292   -1.0000    0.0000 C   0  0  0  0  0  0  0  0  0  0  0  0
    3.8917   -2.5000    0.0000 O   0  0  0  0  0  0  0  0  0  0  0  0
   -3.0333    0.5000    0.0000 C   0  0  0  0  0  0  0  0  0  0  0  0
   -3.0333    2.5000    0.0000 C   0  0  0  0  0  0  0  0  0  0  0  0
   -3.9000    1.0000    0.0000 C   0  0  0  0  0  0  0  0  0  0  0  0
   -3.9000    2.0000    0.0000 C   0  0  0  0  0  0  0  0  0  0  0  0
  2  1  1  0  0  0  0
  3  1  1  0  0  0  0
  4  2  2  0  0  0  0
  5  4  1  0  0  0  0
  5  8  2  0  0  0  0
  6  1  2  0  0  0  0
  7  2  1  0  0  0  0
  8  9  1  0  0  0  0
  9  7  2  0  0  0  0
 10  3  1  0  0  0  0
 11 15  1  0  0  0  0
 12 10  1  0  0  0  0
 13 10  1  0  0  0  0
 14 12  1  0  0  0  0
 14 11  1  0  0  0  0
 15 13  1  0  0  0  0
 16 11  1  0  0  0  0
 17  5  1  0  0  0  0
 18  8  1  0  0  0  0
 19 17  2  0  0  0  0
 20 18  2  0  0  0  0
 20 19  1  0  0  0  0
M  END
>  <idnumber>
T5905880

>  <LogP>
1.979000000000000e+000

>  <rotating_bonds>
2.000000000000000e+000

>  <hb_acceptors>
2.000000000000000e+000

>  <hb_donors>
2.000000000000000e+000

>  <PSA>
4.933000000000001e+001

>  <clusterid>
-1551

>  <is_centroid>
@

>  <class1>
796

>  <class2>
797

>  <population1>
21922

>  <population2>
40410

>  <population>
553

>  <cansmi>
OC1CCC(CC1)NC(=O)c1ccc2c(c1)cccc2

>  <HBA2>
3

>  <HBD>
2

>  <logP>
3.264

>  <TPSA>
49.33

>  <MW>
269.338

$$$$

 OpenBabel02121609142D

 20 22  0  0  0  0  0  0  0  0999 V2000
    0.8625    0.5000    0.0000 C   0  0  0  0  0  0  0  0  0  0  0  0
    0.0000    1.0000    0.0000 C   0  0  3  0  0  0  0  0  0  0  0  0
    0.8625   -0.5000    0.0000 N   0  0  0  0  0  0  0  0  0  0  0  0
   -0.8708    2.5000    0.0000 O   0  0  0  0  0  0  0  0  0  0  0  0
   -0.8708    0.5000    0.0000 C   0  0  0  0  0  0  0  0  0  0  0  0
    1.7292   -1.0000    0.0000 C   0  0  0  0  0  0  0  0  0  0  0  0
   -1.7333    1.0000    0.0000 C   0  0  0  0  0  0  0  0  0  0  0  0
    0.0000    2.0000    0.0000 C   0  0  0  0  0  0  0  0  0  0  0  0
   -1.7333    2.0000    0.0000 C   0  0  0  0  0  0  0  0  0  0  0  0
    1.7292    1.0000    0.0000 O   0  0  0  0  0  0  0  0  0  0  0  0
    1.7292   -2.0000    0.0000 C   0  0  0  0  0  0  0  0  0  0  0  0
   -2.6000    0.5000    0.0000 C   0  0  0  0  0  0  0  0  0  0  0  0
    2.5917   -0.5000    0.0000 C   0  0  0  0  0  0  0  0  0  0  0  0
   -2.6000    2.5000    0.0000 C   0  0  0  0  0  0  0  0  0  0  0  0
    0.8625   -2.5000    0.0000 C   0  0  0  0  0  0  0  0  0  0  0  0
    2.5917   -2.5000    0.0000 C   0  0  0  0  0  0  0  0  0  0  0  0
   -3.4708    1.0000    0.0000 C   0  0  0  0  0  0  0  0  0  0  0  0
    3.4625   -1.0000    0.0000 C   0  0  0  0  0  0  0  0  0  0  0  0
   -3.4708    2.0000    0.0000 C   0  0  0  0  0  0  0  0  0  0  0  0
    3.4625   -2.0000    0.0000 C   0  0  0  0  0  0  0  0  0  0  0  0
  2  1  1  0  0  0  0
  3  1  1  0  0  0  0
  4  8  1  0  0  0  0
  5  2  1  0  0  0  0
  6  3  1  0  0  0  0
  7  5  1  0  0  0  0
  7  9  2  0  0  0  0
  8  2  1  0  0  0  0
  9  4  1  0  0  0  0
 10  1  2  0  0  0  0
 11  6  2  0  0  0  0
 12  7  1  0  0  0  0
 13  6  1  0  0  0  0
 14  9  1  0  0  0  0
 15 11  1  0  0  0  0
 16 11  1  0  0  0  0
 16 20  2  0  0  0  0
 17 12  2  0  0  0  0
 18 13  2  0  0  0  0
 19 14  2  0  0  0  0
 19 17  1  0  0  0  0
 20 18  1  0  0  0  0
M  END
>  <idnumber>
T5905975

>  <LogP>
2.930000000000000e+000

>  <rotating_bonds>
2.000000000000000e+000

>  <hb_acceptors>
2.000000000000000e+000

>  <hb_donors>
1.000000000000000e+000

>  <PSA>
3.833000000000000e+001

>  <clusterid>
771

>  <is_centroid>
@

>  <class1>
625

>  <class2>
766

>  <population1>
877209

>  <population2>
1661

>  <population>
1661

>  <cansmi>
O=C(C1COc2c(C1)cccc2)Nc1ccccc1C

>  <HBA2>
3

>  <HBD>
1

>  <logP>
3.2578

>  <TPSA>
38.33

>  <MW>
267.322

$$$$

 OpenBabel02121609142D

 19 21  0  0  0  0  0  0  0  0999 V2000
    2.2375   -0.3917    0.0000 N   0  0  0  0  0  0  0  0  0  0  0  0
    3.1500    0.0083    0.0000 C   0  0  0  0  0  0  0  0  0  0  0  0
    1.3667    0.1083    0.0000 C   0  0  0  0  0  0  0  0  0  0  0  0
   -0.3583    0.1083    0.0000 N   0  0  0  0  0  0  0  0  0  0  0  0
    3.8167   -0.7292    0.0000 N   0  0  0  0  0  0  0  0  0  0  0  0
    0.5042   -0.3917    0.0000 C   0  0  0  0  0  0  0  0  0  0  0  0
   -1.2250   -0.3917    0.0000 C   0  0  0  0  0  0  0  0  0  0  0  0
    3.3542    0.9875    0.0000 O   0  0  0  0  0  0  0  0  0  0  0  0
   -2.0958    0.1083    0.0000 C   0  0  3  0  0  0  0  0  0  0  0  0
    1.3667    1.1083    0.0000 O   0  0  0  0  0  0  0  0  0  0  0  0
   -2.0958    1.1083    0.0000 C   0  0  3  0  0  0  0  0  0  0  0  0
   -0.3583    1.1083    0.0000 C   0  0  0  0  0  0  0  0  0  0  0  0
    2.3417   -1.3917    0.0000 C   0  0  0  0  0  0  0  0  0  0  0  0
   -1.2250    1.6083    0.0000 C   0  0  0  0  0  0  0  0  0  0  0  0
    3.3167   -1.6000    0.0000 C   0  0  0  0  0  0  0  0  0  0  0  0
   -2.9583   -0.3917    0.0000 C   0  0  0  0  0  0  0  0  0  0  0  0
   -2.9583    1.6083    0.0000 C   0  0  0  0  0  0  0  0  0  0  0  0
   -3.8250    0.1083    0.0000 C   0  0  0  0  0  0  0  0  0  0  0  0
   -3.8250    1.1083    0.0000 C   0  0  0  0  0  0  0  0  0  0  0  0
  2  1  1  0  0  0  0
  3  1  1  0  0  0  0
  4  6  1  0  0  0  0
  5  2  1  0  0  0  0
  6  3  1  0  0  0  0
  7  4  1  0  0  0  0
  8  2  2  0  0  0  0
  9  7  1  0  0  0  0
  9 11  1  0  0  0  0
 10  3  2  0  0  0  0
 11 14  1  0  0  0  0
 12  4  1  0  0  0  0
 13  1  1  0  0  0  0
 14 12  1  0  0  0  0
 15 13  1  0  0  0  0
 15  5  1  0  0  0  0
 16  9  1  0  0  0  0
 17 11  1  0  0  0  0
 18 16  1  0  0  0  0
 19 17  1  0  0  0  0
 19 18  1  0  0  0  0
M  END
>  <idnumber>
T5907843

>  <LogP>
2.226000000000000e+000

>  <rotating_bonds>
2.000000000000000e+000

>  <hb_acceptors>
3.000000000000000e+000

>  <hb_donors>
1.000000000000000e+000

>  <PSA>
5.265000000000000e+001

>  <clusterid>
-1554

>  <is_centroid>
@

>  <class1>
841

>  <class2>
798

>  <population1>
289

>  <population2>
25583

>  <population>
13

>  <cansmi>
O=C(N1CCNC1=O)CN1CCC2C(C1)CCCC2

>  <HBA2>
5

>  <HBD>
1

>  <logP>
1.2549

>  <TPSA>
52.65

>  <MW>
265.351

$$$$

 OpenBabel02121609142D

 13 13  0  0  0  0  0  0  0  0999 V2000
   -0.2583    0.1958    0.0000 N   0  0  0  0  0  0  0  0  0  0  0  0
   -0.0333   -0.7792    0.0000 C   0  0  3  0  0  0  0  0  0  0  0  0
    0.9250   -1.0750    0.0000 C   0  0  0  0  0  0  0  0  0  0  0  0
   -0.5458   -2.4375    0.0000 N   0  0  0  0  0  0  0  0  0  0  0  0
    0.5292    0.8208    0.0000 C   0  0  0  0  0  0  0  0  0  0  0  0
   -1.2333    0.4208    0.0000 C   0  0  0  0  0  0  0  0  0  0  0  0
   -0.7625   -1.4625    0.0000 C   0  0  0  0  0  0  0  0  0  0  0  0
    1.6542   -0.3917    0.0000 C   0  0  0  0  0  0  0  0  0  0  0  0
    1.1417   -2.0500    0.0000 C   0  0  0  0  0  0  0  0  0  0  0  0
   -1.6625    1.3208    0.0000 C   0  0  0  0  0  0  0  0  0  0  0  0
    0.5292    1.8208    0.0000 C   0  0  0  0  0  0  0  0  0  0  0  0
   -0.2583    2.4458    0.0000 C   0  0  0  0  0  0  0  0  0  0  0  0
   -1.2333    2.2208    0.0000 C   0  0  0  0  0  0  0  0  0  0  0  0
  2  1  1  0  0  0  0
  3  2  1  0  0  0  0
  4  7  1  0  0  0  0
  5  1  1  0  0  0  0
  6  1  1  0  0  0  0
  7  2  1  0  0  0  0
  8  3  1  0  0  0  0
  9  3  1  0  0  0  0
 10  6  1  0  0  0  0
 11  5  1  0  0  0  0
 12 11  1  0  0  0  0
 12 13  1  0  0  0  0
 13 10  1  0  0  0  0
M  END
>  <idnumber>
T5908263

>  <LogP>
2.679000000000000e+000

>  <rotating_bonds>
3.000000000000000e+000

>  <hb_acceptors>
2.000000000000000e+000

>  <hb_donors>
1.000000000000000e+000

>  <PSA>
2.926000000000000e+001

>  <clusterid>
-1555

>  <is_centroid>
@

>  <class1>
702

>  <population1>
14026

>  <population>
14026

>  <cansmi>
NCC(N1CCCCCC1)C(C)C

>  <HBA2>
2

>  <HBD>
1

>  <logP>
2.4839

>  <TPSA>
29.26

>  <MW>
184.322

$$$$

 OpenBabel02121609142D

 11 11  0  0  0  0  0  0  0  0999 V2000
    0.5042    0.5000    0.0000 N   0  0  0  0  0  0  0  0  0  0  0  0
   -0.4583    0.2500    0.0000 C   0  0  3  0  0  0  0  0  0  0  0  0
   -0.7250   -0.7125    0.0000 C   0  0  0  0  0  0  0  0  0  0  0  0
   -2.1333    0.7125    0.0000 N   0  0  0  0  0  0  0  0  0  0  0  0
    1.2792   -0.1375    0.0000 C   0  0  0  0  0  0  0  0  0  0  0  0
    0.8750    1.4333    0.0000 C   0  0  0  0  0  0  0  0  0  0  0  0
   -1.1583    0.9625    0.0000 C   0  0  0  0  0  0  0  0  0  0  0  0
   -0.0250   -1.4250    0.0000 C   0  0  0  0  0  0  0  0  0  0  0  0
   -1.6958   -0.9625    0.0000 C   0  0  0  0  0  0  0  0  0  0  0  0
    1.8750    1.3708    0.0000 C   0  0  0  0  0  0  0  0  0  0  0  0
    2.1250    0.4000    0.0000 C   0  0  0  0  0  0  0  0  0  0  0  0
  2  1  1  0  0  0  0
  3  2  1  0  0  0  0
  4  7  1  0  0  0  0
  5  1  1  0  0  0  0
  6  1  1  0  0  0  0
  7  2  1  0  0  0  0
  8  3  1  0  0  0  0
  9  3  1  0  0  0  0
 10  6  1  0  0  0  0
 11  5  1  0  0  0  0
 11 10  1  0  0  0  0
M  END
>  <idnumber>
T5908310

>  <LogP>
1.561000000000000e+000

>  <rotating_bonds>
3.000000000000000e+000

>  <hb_acceptors>
2.000000000000000e+000

>  <hb_donors>
1.000000000000000e+000

>  <PSA>
2.926000000000000e+001

>  <clusterid>
-1558

>  <is_centroid>
@

>  <class1>
642

>  <population1>
51183

>  <population>
51183

>  <cansmi>
NCC(N1CCCC1)C(C)C

>  <HBA2>
2

>  <HBD>
1

>  <logP>
1.7037

>  <TPSA>
29.26

>  <MW>
156.269

$$$$

 OpenBabel02121609142D

 14 14  0  0  0  0  0  0  0  0999 V2000
    0.3292   -0.0625    0.0000 C   0  0  0  0  0  0  0  0  0  0  0  0
    0.6375    0.8875    0.0000 N   0  0  0  0  0  0  0  0  0  0  0  0
   -0.6500   -0.2667    0.0000 O   0  0  0  0  0  0  0  0  0  0  0  0
    2.3375   -2.2917    0.0000 N   0  0  0  0  0  0  0  0  0  0  0  0
    1.0000   -0.8042    0.0000 C   0  0  0  0  0  0  0  0  0  0  0  0
   -2.6500   -0.0875    0.0000 Cl  0  0  0  0  0  0  0  0  0  0  0  0
    1.5875    1.1958    0.0000 C   0  0  0  0  0  0  0  0  0  0  0  0
    0.0500    1.6958    0.0000 C   0  0  0  0  0  0  0  0  0  0  0  0
    2.6417   -1.3417    0.0000 C   0  0  0  0  0  0  0  0  0  0  0  0
    1.3542   -2.5000    0.0000 C   0  0  0  0  0  0  0  0  0  0  0  0
    1.9750   -0.6000    0.0000 C   0  0  0  0  0  0  0  0  0  0  0  0
    0.6875   -1.7542    0.0000 C   0  0  0  0  0  0  0  0  0  0  0  0
    0.6375    2.5083    0.0000 C   0  0  0  0  0  0  0  0  0  0  0  0
    1.5875    2.1958    0.0000 C   0  0  0  0  0  0  0  0  0  0  0  0
  2  1  1  0  0  0  0
  3  1  2  0  0  0  0
  4 10  1  0  0  0  0
  5  1  1  0  0  0  0
  7  2  1  0  0  0  0
  8  2  1  0  0  0  0
  9 11  1  0  0  0  0
  9  4  1  0  0  0  0
 10 12  1  0  0  0  0
 11  5  1  0  0  0  0
 12  5  1  0  0  0  0
 13  8  1  0  0  0  0
 14  7  1  0  0  0  0
 14 13  1  0  0  0  0
M  END
>  <idnumber>
T5908328

>  <LogP>
-9.660000000000000e-001

>  <rotating_bonds>
1.000000000000000e+000

>  <hb_acceptors>
2.000000000000000e+000

>  <hb_donors>
1.000000000000000e+000

>  <PSA>
3.234000000000000e+001

>  <clusterid>
-1560

>  <is_centroid>
@

>  <class1>
639

>  <class2>
642

>  <population1>
59855

>  <population2>
51183

>  <population>
1979

>  <cansmi>
O=C(N1CCCC1)C1CCNCC1.Cl

>  <HBA2>
3

>  <HBD>
2

>  <logP>
1.6771

>  <TPSA>
32.34

>  <MW>
218.724

$$$$

 OpenBabel02121609142D

 19 21  0  0  0  0  0  0  0  0999 V2000
   -1.5958   -3.1000    0.0000 N   0  0  0  0  0  0  0  0  0  0  0  0
   -0.5083   -1.8917    0.0000 N   0  0  0  0  0  0  0  0  0  0  0  0
    0.3542   -0.3917    0.0000 C   0  0  0  0  0  0  0  0  0  0  0  0
    1.2167    0.1083    0.0000 N   0  0  0  0  0  0  0  0  0  0  0  0
    1.2167    1.1083    0.0000 C   0  0  3  0  0  0  0  0  0  0  0  0
    0.3542    1.6083    0.0000 C   0  0  0  0  0  0  0  0  0  0  0  0
   -0.6125   -2.8917    0.0000 C   0  0  0  0  0  0  0  0  0  0  0  0
   -2.0958   -2.2292    0.0000 C   0  0  0  0  0  0  0  0  0  0  0  0
   -1.4250   -1.4917    0.0000 C   0  0  0  0  0  0  0  0  0  0  0  0
    0.3542   -1.3917    0.0000 C   0  0  0  0  0  0  0  0  0  0  0  0
   -0.5083    0.1083    0.0000 O   0  0  0  0  0  0  0  0  0  0  0  0
    0.3542    2.6083    0.0000 C   0  0  0  0  0  0  0  0  0  0  0  0
    2.0875    1.6083    0.0000 C   0  0  0  0  0  0  0  0  0  0  0  0
    2.0875    2.6083    0.0000 C   0  0  0  0  0  0  0  0  0  0  0  0
   -0.5083    1.1083    0.0000 C   0  0  0  0  0  0  0  0  0  0  0  0
    1.2167    3.1083    0.0000 C   0  0  0  0  0  0  0  0  0  0  0  0
   -0.5083    3.1083    0.0000 C   0  0  0  0  0  0  0  0  0  0  0  0
   -1.3750    1.6083    0.0000 C   0  0  0  0  0  0  0  0  0  0  0  0
   -1.3750    2.6083    0.0000 C   0  0  0  0  0  0  0  0  0  0  0  0
  2  7  1  0  0  0  0
  2  9  1  0  0  0  0
  3 10  1  0  0  0  0
  4  3  1  0  0  0  0
  5  4  1  0  0  0  0
  6  5  1  0  0  0  0
  7  1  2  0  0  0  0
  8  1  1  0  0  0  0
  9  8  2  0  0  0  0
 10  2  1  0  0  0  0
 11  3  2  0  0  0  0
 12  6  2  0  0  0  0
 12 16  1  0  0  0  0
 13  5  1  0  0  0  0
 14 13  1  0  0  0  0
 15  6  1  0  0  0  0
 16 14  1  0  0  0  0
 17 12  1  0  0  0  0
 17 19  2  0  0  0  0
 18 15  2  0  0  0  0
 19 18  1  0  0  0  0
M  END
>  <idnumber>
T5909937

>  <LogP>
1.756000000000000e+000

>  <rotating_bonds>
3.000000000000000e+000

>  <hb_acceptors>
2.000000000000000e+000

>  <hb_donors>
1.000000000000000e+000

>  <PSA>
4.692000000000000e+001

>  <clusterid>
-1563

>  <is_centroid>
@

>  <class1>
686

>  <class2>
807

>  <population1>
31113

>  <population2>
5384

>  <population>
82

>  <cansmi>
O=C(NC1CCCc2c1cccc2)Cn1cncc1

>  <HBA2>
4

>  <HBD>
1

>  <logP>
2.4678

>  <TPSA>
46.92

>  <MW>
255.315

$$$$

 OpenBabel02121609142D

 19 21  0  0  0  0  0  0  0  0999 V2000
    0.4292    0.5000    0.0000 N   0  0  0  0  0  0  0  0  0  0  0  0
    0.4292   -0.5000    0.0000 C   0  0  0  0  0  0  0  0  0  0  0  0
   -0.4333    1.0000    0.0000 C   0  0  0  0  0  0  0  0  0  0  0  0
    0.4292    2.5000    0.0000 N   0  0  0  0  0  0  0  0  0  0  0  0
    1.2917    2.0000    0.0000 C   0  0  0  0  0  0  0  0  0  0  0  0
   -0.4333    2.0000    0.0000 C   0  0  0  0  0  0  0  0  0  0  0  0
    1.2917    1.0000    0.0000 C   0  0  0  0  0  0  0  0  0  0  0  0
    1.2917   -1.0000    0.0000 O   0  0  0  0  0  0  0  0  0  0  0  0
   -0.4333   -1.0000    0.0000 C   0  0  3  0  0  0  0  0  0  0  0  0
    2.1625    2.5000    0.0000 O   0  0  0  0  0  0  0  0  0  0  0  0
   -1.3000   -2.5000    0.0000 C   0  0  0  0  0  0  0  0  0  0  0  0
   -2.1708   -2.0000    0.0000 C   0  0  0  0  0  0  0  0  0  0  0  0
   -1.3000    0.5000    0.0000 C   0  0  0  0  0  0  0  0  0  0  0  0
   -1.3000    2.5000    0.0000 C   0  0  0  0  0  0  0  0  0  0  0  0
   -0.4333   -2.0000    0.0000 C   0  0  0  0  0  0  0  0  0  0  0  0
   -2.1708   -1.0000    0.0000 C   0  0  0  0  0  0  0  0  0  0  0  0
   -1.3000   -0.5000    0.0000 C   0  0  0  0  0  0  0  0  0  0  0  0
   -2.1708    1.0000    0.0000 C   0  0  0  0  0  0  0  0  0  0  0  0
   -2.1708    2.0000    0.0000 C   0  0  0  0  0  0  0  0  0  0  0  0
  2  1  1  0  0  0  0
  3  1  1  0  0  0  0
  4  5  1  0  0  0  0
  5  7  1  0  0  0  0
  6  3  2  0  0  0  0
  6  4  1  0  0  0  0
  7  1  1  0  0  0  0
  8  2  2  0  0  0  0
  9  2  1  0  0  0  0
 10  5  2  0  0  0  0
 11 15  1  0  0  0  0
 11 12  2  0  0  0  0
 12 16  1  0  0  0  0
 13  3  1  0  0  0  0
 14  6  1  0  0  0  0
 14 19  2  0  0  0  0
 15  9  1  0  0  0  0
 16 17  1  0  0  0  0
 17  9  1  0  0  0  0
 18 13  2  0  0  0  0
 19 18  1  0  0  0  0
M  END
>  <idnumber>
T5910358

>  <LogP>
1.976000000000000e+000

>  <rotating_bonds>
1.000000000000000e+000

>  <hb_acceptors>
2.000000000000000e+000

>  <hb_donors>
1.000000000000000e+000

>  <PSA>
4.941000000000003e+001

>  <clusterid>
-1564

>  <is_centroid>
@

>  <class1>
810

>  <class2>
835

>  <population1>
20527

>  <population2>
2727

>  <population>
40

>  <cansmi>
O=C1Nc2ccccc2N(C1)C(=O)C1CCC=CC1

>  <HBA2>
4

>  <HBD>
1

>  <logP>
2.531

>  <TPSA>
49.41

>  <MW>
256.3

$$$$

 OpenBabel02121609142D

 20 22  0  0  0  0  0  0  0  0999 V2000
    0.4292    0.2500    0.0000 C   0  0  0  0  0  0  0  0  0  0  0  0
    0.4292    1.2500    0.0000 C   0  0  3  0  0  0  0  0  0  0  0  0
    0.4292    3.2500    0.0000 N   0  0  0  0  0  0  0  0  0  0  0  0
    1.2917    2.7500    0.0000 C   0  0  0  0  0  0  0  0  0  0  0  0
   -0.4333    1.7583    0.0000 C   0  0  0  0  0  0  0  0  0  0  0  0
   -0.4333    2.7500    0.0000 C   0  0  0  0  0  0  0  0  0  0  0  0
    1.2917   -0.2500    0.0000 N   0  0  0  0  0  0  0  0  0  0  0  0
    1.2917    1.7500    0.0000 C   0  0  0  0  0  0  0  0  0  0  0  0
   -0.4333   -0.2417    0.0000 O   0  0  0  0  0  0  0  0  0  0  0  0
    2.1625    3.2500    0.0000 O   0  0  0  0  0  0  0  0  0  0  0  0
    1.2917   -1.2500    0.0000 C   0  0  0  0  0  0  0  0  0  0  0  0
   -1.3000    1.2500    0.0000 C   0  0  0  0  0  0  0  0  0  0  0  0
   -1.3000    3.2500    0.0000 C   0  0  0  0  0  0  0  0  0  0  0  0
    2.1625   -1.7500    0.0000 C   0  0  0  0  0  0  0  0  0  0  0  0
    0.4292   -1.7500    0.0000 C   0  0  0  0  0  0  0  0  0  0  0  0
   -2.1708    1.7583    0.0000 C   0  0  0  0  0  0  0  0  0  0  0  0
   -2.1708    2.7500    0.0000 C   0  0  0  0  0  0  0  0  0  0  0  0
    0.4292   -2.7500    0.0000 C   0  0  0  0  0  0  0  0  0  0  0  0
    2.1625   -2.7500    0.0000 C   0  0  0  0  0  0  0  0  0  0  0  0
    1.2917   -3.2500    0.0000 C   0  0  0  0  0  0  0  0  0  0  0  0
  2  1  1  0  0  0  0
  3  4  1  0  0  0  0
  4  8  1  0  0  0  0
  5  2  1  0  0  0  0
  6  5  2  0  0  0  0
  6  3  1  0  0  0  0
  7  1  1  0  0  0  0
  8  2  1  0  0  0  0
  9  1  2  0  0  0  0
 10  4  2  0  0  0  0
 11  7  1  0  0  0  0
 12  5  1  0  0  0  0
 13  6  1  0  0  0  0
 13 17  2  0  0  0  0
 14 11  2  0  0  0  0
 15 11  1  0  0  0  0
 16 12  2  0  0  0  0
 17 16  1  0  0  0  0
 18 15  2  0  0  0  0
 19 14  1  0  0  0  0
 19 20  2  0  0  0  0
 20 18  1  0  0  0  0
M  END
>  <idnumber>
T5919434

>  <LogP>
1.805000000000000e+000

>  <rotating_bonds>
2.000000000000000e+000

>  <hb_acceptors>
2.000000000000000e+000

>  <hb_donors>
2.000000000000000e+000

>  <PSA>
5.820000000000000e+001

>  <clusterid>
734

>  <is_centroid>
@

>  <class1>
625

>  <class2>
735

>  <population1>
877209

>  <population2>
1171

>  <population>
1171

>  <cansmi>
O=C1Nc2ccccc2C(C1)C(=O)Nc1ccccc1

>  <HBA2>
4

>  <HBD>
2

>  <logP>
2.9621

>  <TPSA>
58.2

>  <MW>
266.295

$$$$

 OpenBabel02121609142D

 22 25  0  0  0  0  0  0  0  0999 V2000
   -1.0208    1.2750    0.0000 N   0  0  0  0  0  0  0  0  0  0  0  0
   -1.6083    0.4625    0.0000 N   0  0  0  0  0  0  0  0  0  0  0  0
   -1.6083    2.0833    0.0000 N   0  0  0  0  0  0  0  0  0  0  0  0
    2.6167   -1.3167    0.0000 C   0  0  0  0  0  0  0  0  0  0  0  0
   -2.5583    0.7750    0.0000 C   0  0  0  0  0  0  0  0  0  0  0  0
    3.2875   -0.5750    0.0000 N   0  0  0  0  0  0  0  0  0  0  0  0
   -2.5583    1.7750    0.0000 C   0  0  0  0  0  0  0  0  0  0  0  0
   -1.2958   -0.4875    0.0000 C   0  0  0  0  0  0  0  0  0  0  0  0
    1.6375   -1.1125    0.0000 C   0  0  0  0  0  0  0  0  0  0  0  0
    2.9250   -2.2667    0.0000 O   0  0  0  0  0  0  0  0  0  0  0  0
    1.3292   -0.1542    0.0000 C   0  0  0  0  0  0  0  0  0  0  0  0
    0.9667   -1.8542    0.0000 C   0  0  0  0  0  0  0  0  0  0  0  0
   -0.3208   -0.6917    0.0000 C   0  0  0  0  0  0  0  0  0  0  0  0
    4.2292    0.4750    0.0000 C   0  0  0  0  0  0  0  0  0  0  0  0
    4.2792   -0.5167    0.0000 C   0  0  0  0  0  0  0  0  0  0  0  0
    3.2292    0.4250    0.0000 C   0  0  0  0  0  0  0  0  0  0  0  0
   -0.0083   -1.6417    0.0000 C   0  0  0  0  0  0  0  0  0  0  0  0
    0.3500    0.0500    0.0000 C   0  0  0  0  0  0  0  0  0  0  0  0
   -3.4208    0.2750    0.0000 C   0  0  0  0  0  0  0  0  0  0  0  0
   -3.4208    2.2750    0.0000 C   0  0  0  0  0  0  0  0  0  0  0  0
   -4.2875    0.7750    0.0000 C   0  0  0  0  0  0  0  0  0  0  0  0
   -4.2875    1.7750    0.0000 C   0  0  0  0  0  0  0  0  0  0  0  0
  2  1  1  0  0  0  0
  3  1  2  0  0  0  0
  4  9  1  0  0  0  0
  5  2  1  0  0  0  0
  6  4  1  0  0  0  0
  7  3  1  0  0  0  0
  7  5  2  0  0  0  0
  8  2  1  0  0  0  0
  9 11  1  0  0  0  0
 10  4  2  0  0  0  0
 11 18  2  0  0  0  0
 12 17  1  0  0  0  0
 12  9  2  0  0  0  0
 13  8  1  0  0  0  0
 14 16  1  0  0  0  0
 15  6  1  0  0  0  0
 15 14  1  0  0  0  0
 16  6  1  0  0  0  0
 17 13  2  0  0  0  0
 18 13  1  0  0  0  0
 19  5  1  0  0  0  0
 20  7  1  0  0  0  0
 21 19  2  0  0  0  0
 22 20  2  0  0  0  0
 22 21  1  0  0  0  0
M  END
>  <idnumber>
T5924260

>  <LogP>
1.372000000000000e+000

>  <rotating_bonds>
3.000000000000000e+000

>  <hb_acceptors>
3.000000000000000e+000

>  <hb_donors>
0.000000000000000e+000

>  <PSA>
5.102000000000000e+001

>  <clusterid>
-1567

>  <is_centroid>
@

>  <class1>
625

>  <class2>
678

>  <population1>
877209

>  <population2>
327

>  <population>
299

>  <cansmi>
O=C(c1ccc(cc1)Cn1nnc2c1cccc2)N1CCC1

>  <HBA2>
5

>  <HBD>
0

>  <logP>
2.2634

>  <TPSA>
51.02

>  <MW>
292.335

$$$$

 OpenBabel02121609142D

 15 16  0  0  0  0  0  0  0  0999 V2000
   -1.3958   -0.3792    0.0000 C   0  0  0  0  0  0  0  0  0  0  0  0
   -1.3958    0.6208    0.0000 C   0  0  0  0  0  0  0  0  0  0  0  0
   -2.9375    0.1208    0.0000 N   0  0  0  0  0  0  0  0  0  0  0  0
   -2.3500    0.9333    0.0000 N   0  0  0  0  0  0  0  0  0  0  0  0
   -2.3500   -0.6875    0.0000 C   0  0  0  0  0  0  0  0  0  0  0  0
   -0.5333    1.1208    0.0000 N   0  0  0  0  0  0  0  0  0  0  0  0
    0.3292   -0.3792    0.0000 C   0  0  0  0  0  0  0  0  0  0  0  0
   -0.5333   -0.8792    0.0000 C   0  0  0  0  0  0  0  0  0  0  0  0
    1.2000   -0.8792    0.0000 C   0  0  0  0  0  0  0  0  0  0  0  0
    0.3292    0.6208    0.0000 C   0  0  0  0  0  0  0  0  0  0  0  0
    1.2000   -1.8792    0.0000 O   0  0  0  0  0  0  0  0  0  0  0  0
   -2.6583    1.8833    0.0000 C   0  0  0  0  0  0  0  0  0  0  0  0
    2.0667   -0.3792    0.0000 O   0  0  0  0  0  0  0  0  0  0  0  0
   -2.6583   -1.6375    0.0000 C   0  0  0  0  0  0  0  0  0  0  0  0
    2.9292   -0.8792    0.0000 C   0  0  0  0  0  0  0  0  0  0  0  0
  2  1  2  0  0  0  0
  3  5  2  0  0  0  0
  4  2  1  0  0  0  0
  4  3  1  0  0  0  0
  5  1  1  0  0  0  0
  6  2  1  0  0  0  0
  7  8  2  0  0  0  0
  8  1  1  0  0  0  0
  9  7  1  0  0  0  0
 10  7  1  0  0  0  0
 10  6  2  0  0  0  0
 11  9  2  0  0  0  0
 12  4  1  0  0  0  0
 13  9  1  0  0  0  0
 14  5  1  0  0  0  0
 15 13  1  0  0  0  0
M  END
>  <idnumber>
T5929392

>  <LogP>
1.105000000000000e+000

>  <rotating_bonds>
2.000000000000000e+000

>  <hb_acceptors>
3.000000000000000e+000

>  <hb_donors>
0.000000000000000e+000

>  <PSA>
5.701000000000001e+001

>  <clusterid>
-1573

>  <is_centroid>
@

>  <class1>
726

>  <population1>
3632

>  <population>
3632

>  <cansmi>
COC(=O)c1cnc2c(c1)c(C)nn2C

>  <HBA2>
5

>  <HBD>
0

>  <logP>
1.0633

>  <TPSA>
57.01

>  <MW>
205.213

$$$$

 OpenBabel02121609142D

 13 13  0  0  0  0  0  0  0  0999 V2000
   -1.1708   -1.2500    0.0000 N   0  0  0  0  0  0  0  0  0  0  0  0
    1.4292    0.2500    0.0000 C   0  0  0  0  0  0  0  0  0  0  0  0
    0.5667   -0.2500    0.0000 C   0  0  0  0  0  0  0  0  0  0  0  0
   -3.1708    0.0000    0.0000 Cl  0  0  0  0  0  0  0  0  0  0  0  0
   -0.3000   -1.7500    0.0000 C   0  0  0  0  0  0  0  0  0  0  0  0
   -1.1708   -0.2417    0.0000 C   0  0  0  0  0  0  0  0  0  0  0  0
    2.2917   -0.2500    0.0000 C   0  0  0  0  0  0  0  0  0  0  0  0
    1.4292    1.2500    0.0000 C   0  0  0  0  0  0  0  0  0  0  0  0
   -0.3000    0.2500    0.0000 C   0  0  0  0  0  0  0  0  0  0  0  0
    0.5667   -1.2500    0.0000 C   0  0  0  0  0  0  0  0  0  0  0  0
    2.2917    1.7500    0.0000 C   0  0  0  0  0  0  0  0  0  0  0  0
    3.1625    0.2500    0.0000 C   0  0  0  0  0  0  0  0  0  0  0  0
    3.1625    1.2500    0.0000 C   0  0  0  0  0  0  0  0  0  0  0  0
  2  3  1  0  0  0  0
  3  9  1  0  0  0  0
  5  1  1  0  0  0  0
  6  1  1  0  0  0  0
  7  2  1  0  0  0  0
  8  2  2  0  0  0  0
  9  6  1  0  0  0  0
 10  5  1  0  0  0  0
 10  3  1  0  0  0  0
 11  8  1  0  0  0  0
 12  7  2  0  0  0  0
 12 13  1  0  0  0  0
 13 11  2  0  0  0  0
M  END
>  <idnumber>
T5929413

>  <LogP>
2.343000000000000e+000

>  <rotating_bonds>
1.000000000000000e+000

>  <hb_acceptors>
1.000000000000000e+000

>  <hb_donors>
1.000000000000000e+000

>  <PSA>
1.203000000000000e+001

>  <clusterid>
-1574

>  <is_centroid>
@

>  <class1>
639

>  <class2>
625

>  <population1>
59855

>  <population2>
877209

>  <population>
54917

>  <cansmi>
N1CCC(CC1)c1ccccc1.Cl

>  <HBA2>
1

>  <HBD>
2

>  <logP>
3.2844

>  <TPSA>
12.03

>  <MW>
197.704

$$$$

 OpenBabel02121609142D

 21 23  0  0  0  0  0  0  0  0999 V2000
    0.0000   -0.2500    0.0000 N   0  0  0  0  0  0  0  0  0  0  0  0
   -0.8708   -0.7500    0.0000 C   0  0  0  0  0  0  0  0  0  0  0  0
    0.0000    0.7500    0.0000 N   0  0  0  0  0  0  0  0  0  0  0  0
    1.7292   -0.2500    0.0000 C   0  0  0  0  0  0  0  0  0  0  0  0
   -1.7333   -0.2500    0.0000 C   0  0  0  0  0  0  0  0  0  0  0  0
    0.8625   -0.7500    0.0000 C   0  0  0  0  0  0  0  0  0  0  0  0
   -0.8708    1.2500    0.0000 C   0  0  0  0  0  0  0  0  0  0  0  0
   -1.7333    0.7500    0.0000 C   0  0  0  0  0  0  0  0  0  0  0  0
    2.5917   -0.7500    0.0000 C   0  0  0  0  0  0  0  0  0  0  0  0
   -0.8708   -1.7500    0.0000 O   0  0  0  0  0  0  0  0  0  0  0  0
    1.7292    0.7500    0.0000 C   0  0  0  0  0  0  0  0  0  0  0  0
    3.4625   -0.2500    0.0000 C   0  0  0  0  0  0  0  0  0  0  0  0
    2.5917    1.2500    0.0000 C   0  0  0  0  0  0  0  0  0  0  0  0
    3.4625    0.7500    0.0000 C   0  0  0  0  0  0  0  0  0  0  0  0
    2.5917   -1.7500    0.0000 O   0  0  0  0  0  0  0  0  0  0  0  0
   -2.6000   -0.7500    0.0000 C   0  0  0  0  0  0  0  0  0  0  0  0
   -2.6000    1.2500    0.0000 C   0  0  0  0  0  0  0  0  0  0  0  0
    2.5917    2.2500    0.0000 C   0  0  0  0  0  0  0  0  0  0  0  0
    3.4625   -2.2500    0.0000 C   0  0  0  0  0  0  0  0  0  0  0  0
   -3.4708   -0.2500    0.0000 C   0  0  0  0  0  0  0  0  0  0  0  0
   -3.4708    0.7500    0.0000 C   0  0  0  0  0  0  0  0  0  0  0  0
  2  1  1  0  0  0  0
  3  1  1  0  0  0  0
  4  6  1  0  0  0  0
  5  2  1  0  0  0  0
  5  8  2  0  0  0  0
  6  1  1  0  0  0  0
  7  3  2  0  0  0  0
  8  7  1  0  0  0  0
  9  4  2  0  0  0  0
 10  2  2  0  0  0  0
 11  4  1  0  0  0  0
 12  9  1  0  0  0  0
 12 14  2  0  0  0  0
 13 11  2  0  0  0  0
 14 13  1  0  0  0  0
 15  9  1  0  0  0  0
 16  5  1  0  0  0  0
 17  8  1  0  0  0  0
 18 13  1  0  0  0  0
 19 15  1  0  0  0  0
 20 16  2  0  0  0  0
 21 17  2  0  0  0  0
 21 20  1  0  0  0  0
M  END
>  <idnumber>
T5930256

>  <LogP>
2.797000000000000e+000

>  <rotating_bonds>
3.000000000000000e+000

>  <hb_acceptors>
3.000000000000000e+000

>  <hb_donors>
0.000000000000000e+000

>  <PSA>
4.189999999999998e+001

>  <clusterid>
-1575

>  <is_centroid>
@

>  <class1>
625

>  <class2>
792

>  <population1>
877209

>  <population2>
7197

>  <population>
7197

>  <cansmi>
COc1ccc(cc1Cn1ncc2c(c1=O)cccc2)C

>  <HBA2>
4

>  <HBD>
0

>  <logP>
2.7618

>  <TPSA>
44.12

>  <MW>
280.321

$$$$

 OpenBabel02121609142D

 16 17  0  0  0  0  0  0  0  0999 V2000
   -0.0750    0.0000    0.0000 C   0  0  0  0  0  0  0  0  0  0  0  0
    0.7875   -0.5000    0.0000 N   0  0  0  0  0  0  0  0  0  0  0  0
    1.6542    0.0000    0.0000 C   0  0  0  0  0  0  0  0  0  0  0  0
   -0.0750    1.0000    0.0000 O   0  0  0  0  0  0  0  0  0  0  0  0
    2.5167   -0.5000    0.0000 C   0  0  0  0  0  0  0  0  0  0  0  0
   -2.7208   -0.4042    0.0000 C   0  0  0  0  0  0  0  0  0  0  0  0
   -0.9458   -0.5000    0.0000 C   0  0  0  0  0  0  0  0  0  0  0  0
   -3.3958    0.3375    0.0000 C   0  0  0  0  0  0  0  0  0  0  0  0
   -1.8083    0.0000    0.0000 C   0  0  3  0  0  0  0  0  0  0  0  0
    2.5167   -1.5000    0.0000 O   0  0  0  0  0  0  0  0  0  0  0  0
    1.6542    1.0000    0.0000 C   0  0  0  0  0  0  0  0  0  0  0  0
    3.3875    0.0000    0.0000 C   0  0  0  0  0  0  0  0  0  0  0  0
   -2.8958    1.2083    0.0000 C   0  0  0  0  0  0  0  0  0  0  0  0
   -1.9125    0.9958    0.0000 C   0  0  0  0  0  0  0  0  0  0  0  0
    2.5167    1.5000    0.0000 C   0  0  0  0  0  0  0  0  0  0  0  0
    3.3875    1.0000    0.0000 C   0  0  0  0  0  0  0  0  0  0  0  0
  2  1  1  0  0  0  0
  3  2  1  0  0  0  0
  4  1  2  0  0  0  0
  5  3  2  0  0  0  0
  6  9  1  0  0  0  0
  7  1  1  0  0  0  0
  8  6  2  0  0  0  0
  9  7  1  0  0  0  0
 10  5  1  0  0  0  0
 11  3  1  0  0  0  0
 12  5  1  0  0  0  0
 12 16  2  0  0  0  0
 13 14  1  0  0  0  0
 13  8  1  0  0  0  0
 14  9  1  0  0  0  0
 15 11  2  0  0  0  0
 16 15  1  0  0  0  0
M  END
>  <idnumber>
T5932535

>  <LogP>
2.331000000000000e+000

>  <rotating_bonds>
3.000000000000000e+000

>  <hb_acceptors>
2.000000000000000e+000

>  <hb_donors>
2.000000000000000e+000

>  <PSA>
4.933000000000001e+001

>  <clusterid>
779

>  <is_centroid>
@

>  <class1>
625

>  <class2>
729

>  <population1>
877209

>  <population2>
8613

>  <population>
6441

>  <cansmi>
O=C(Nc1ccccc1O)CC1C=CCC1

>  <HBA2>
3

>  <HBD>
2

>  <logP>
2.76

>  <TPSA>
49.33

>  <MW>
217.264

$$$$

 OpenBabel02121609142D

 15 16  0  0  0  0  0  0  0  0999 V2000
   -0.9500   -0.8917    0.0000 C   0  0  0  0  0  0  0  0  0  0  0  0
    0.0000   -0.5792    0.0000 S   0  0  0  0  0  0  0  0  0  0  0  0
   -0.9500    0.7333    0.0000 N   0  0  0  0  0  0  0  0  0  0  0  0
    0.0000    0.4208    0.0000 C   0  0  0  0  0  0  0  0  0  0  0  0
   -1.5375   -0.0792    0.0000 C   0  0  0  0  0  0  0  0  0  0  0  0
   -1.2583   -1.8417    0.0000 C   0  0  0  0  0  0  0  0  0  0  0  0
    0.8125    1.0083    0.0000 C   0  0  0  0  0  0  0  0  0  0  0  0
   -0.5875   -2.5792    0.0000 O   0  0  0  0  0  0  0  0  0  0  0  0
   -2.5375   -0.0792    0.0000 C   0  0  0  0  0  0  0  0  0  0  0  0
   -2.2375   -2.0500    0.0000 C   0  0  0  0  0  0  0  0  0  0  0  0
    1.7250    0.6000    0.0000 C   0  0  0  0  0  0  0  0  0  0  0  0
    0.7042    2.0000    0.0000 C   0  0  0  0  0  0  0  0  0  0  0  0
    1.5167    2.5875    0.0000 C   0  0  0  0  0  0  0  0  0  0  0  0
    2.5292    1.1875    0.0000 C   0  0  0  0  0  0  0  0  0  0  0  0
    2.4292    2.1833    0.0000 C   0  0  0  0  0  0  0  0  0  0  0  0
  2  1  1  0  0  0  0
  3  5  1  0  0  0  0
  4  2  1  0  0  0  0
  4  3  2  0  0  0  0
  5  1  2  0  0  0  0
  6  1  1  0  0  0  0
  7  4  1  0  0  0  0
  8  6  2  0  0  0  0
  9  5  1  0  0  0  0
 10  6  1  0  0  0  0
 11  7  1  0  0  0  0
 12  7  2  0  0  0  0
 13 12  1  0  0  0  0
 14 11  2  0  0  0  0
 14 15  1  0  0  0  0
 15 13  2  0  0  0  0
M  END
>  <idnumber>
T5933983

>  <LogP>
2.906000000000000e+000

>  <rotating_bonds>
2.000000000000000e+000

>  <hb_acceptors>
3.000000000000000e+000

>  <hb_donors>
0.000000000000000e+000

>  <PSA>
5.820000000000000e+001

>  <clusterid>
-1577

>  <is_centroid>
@

>  <class1>
733

>  <class2>
625

>  <population1>
49846

>  <population2>
877209

>  <population>
45632

>  <cansmi>
CC(=O)c1sc(nc1C)c1ccccc1

>  <HBA2>
3

>  <HBD>
0

>  <logP>
3.3211

>  <TPSA>
58.2

>  <MW>
217.287

$$$$

 OpenBabel02121609142D

 17 18  0  0  0  0  0  0  0  0999 V2000
   -0.7958    1.9000    0.0000 C   0  0  0  0  0  0  0  0  0  0  0  0
   -0.7958    0.9000    0.0000 N   0  0  0  0  0  0  0  0  0  0  0  0
   -0.7958   -2.1000    0.0000 C   0  0  0  0  0  0  0  0  0  0  0  0
    0.0667    2.4000    0.0000 C   0  0  3  0  0  0  0  0  0  0  0  0
    0.0667    0.4000    0.0000 C   0  0  0  0  0  0  0  0  0  0  0  0
   -1.6583    0.4000    0.0000 C   0  0  0  0  0  0  0  0  0  0  0  0
   -0.7958   -1.1000    0.0000 C   0  0  3  0  0  0  0  0  0  0  0  0
   -1.6583    2.4000    0.0000 O   0  0  0  0  0  0  0  0  0  0  0  0
   -1.6583   -2.6000    0.0000 O   0  0  0  0  0  0  0  0  0  0  0  0
    0.1792    3.3958    0.0000 O   0  0  0  0  0  0  0  0  0  0  0  0
    0.0667   -0.6000    0.0000 C   0  0  0  0  0  0  0  0  0  0  0  0
   -1.6583   -0.6000    0.0000 C   0  0  0  0  0  0  0  0  0  0  0  0
    0.0667   -2.6000    0.0000 O   0  0  0  0  0  0  0  0  0  0  0  0
    1.1542    3.6083    0.0000 C   0  0  0  0  0  0  0  0  0  0  0  0
    0.9875    1.9958    0.0000 C   0  0  0  0  0  0  0  0  0  0  0  0
    0.0667   -3.6000    0.0000 C   0  0  0  0  0  0  0  0  0  0  0  0
    1.6542    2.7375    0.0000 C   0  0  0  0  0  0  0  0  0  0  0  0
  2  1  1  0  0  0  0
  3  7  1  0  0  0  0
  4  1  1  0  0  0  0
  5  2  1  0  0  0  0
  6  2  1  0  0  0  0
  7 12  1  0  0  0  0
  7 11  1  0  0  0  0
  8  1  2  0  0  0  0
  9  3  2  0  0  0  0
 10  4  1  0  0  0  0
 11  5  1  0  0  0  0
 12  6  1  0  0  0  0
 13  3  1  0  0  0  0
 14 10  1  0  0  0  0
 15  4  1  0  0  0  0
 16 13  1  0  0  0  0
 17 15  1  0  0  0  0
 17 14  1  0  0  0  0
M  END
>  <idnumber>
T5947633

>  <LogP>
-2.450000000000000e-001

>  <rotating_bonds>
3.000000000000000e+000

>  <hb_acceptors>
3.000000000000000e+000

>  <hb_donors>
0.000000000000000e+000

>  <PSA>
5.584000000000000e+001

>  <clusterid>
-1579

>  <is_centroid>
@

>  <class1>
723

>  <class2>
639

>  <population1>
9592

>  <population2>
59855

>  <population>
281

>  <cansmi>
COC(=O)C1CCN(CC1)C(=O)C1CCCO1

>  <HBA2>
5

>  <HBD>
0

>  <logP>
0.5149

>  <TPSA>
55.84

>  <MW>
241.284

$$$$

 OpenBabel02121609142D

 12 13  0  0  0  0  0  0  0  0999 V2000
    0.8167    0.4333    0.0000 C   0  0  0  0  0  0  0  0  0  0  0  0
    1.8167    0.4333    0.0000 C   0  0  0  0  0  0  0  0  0  0  0  0
    2.6792   -0.0667    0.0000 C   0  0  0  0  0  0  0  0  0  0  0  0
    2.6792    0.9333    0.0000 C   0  0  0  0  0  0  0  0  0  0  0  0
    0.3167   -0.4292    0.0000 N   0  0  0  0  0  0  0  0  0  0  0  0
    0.3167    1.3000    0.0000 O   0  0  0  0  0  0  0  0  0  0  0  0
   -2.6833   -0.4292    0.0000 N   0  0  0  0  0  0  0  0  0  0  0  0
   -0.6833   -0.4292    0.0000 C   0  0  0  0  0  0  0  0  0  0  0  0
   -1.1833   -1.2917    0.0000 C   0  0  0  0  0  0  0  0  0  0  0  0
   -1.1833    0.4333    0.0000 C   0  0  0  0  0  0  0  0  0  0  0  0
   -2.1833    0.4333    0.0000 C   0  0  0  0  0  0  0  0  0  0  0  0
   -2.1833   -1.2917    0.0000 C   0  0  0  0  0  0  0  0  0  0  0  0
  2  1  1  0  0  0  0
  3  2  1  0  0  0  0
  3  4  1  0  0  0  0
  4  2  1  0  0  0  0
  5  1  1  0  0  0  0
  6  1  2  0  0  0  0
  7 11  1  0  0  0  0
  8  5  1  0  0  0  0
  9  8  1  0  0  0  0
 10  8  1  0  0  0  0
 11 10  1  0  0  0  0
 12  9  1  0  0  0  0
 12  7  1  0  0  0  0
M  END
>  <idnumber>
T5948487

>  <LogP>
-1.112000000000000e+000

>  <rotating_bonds>
2.000000000000000e+000

>  <hb_acceptors>
2.000000000000000e+000

>  <hb_donors>
2.000000000000000e+000

>  <PSA>
4.113000000000000e+001

>  <clusterid>
781

>  <is_centroid>
@

>  <class1>
675

>  <class2>
639

>  <population1>
33654

>  <population2>
59855

>  <population>
1428

>  <cansmi>
O=C(C1CC1)NC1CCNCC1

>  <HBA2>
3

>  <HBD>
2

>  <logP>
0.9843

>  <TPSA>
41.13

>  <MW>
168.236

$$$$

 OpenBabel02121609142D

 10 11  0  0  0  0  0  0  0  0999 V2000
   -0.1000    0.0000    0.0000 C   0  0  0  0  0  0  0  0  0  0  0  0
   -0.1000    1.0000    0.0000 C   0  0  0  0  0  0  0  0  0  0  0  0
   -1.0500    1.3125    0.0000 N   0  0  0  0  0  0  0  0  0  0  0  0
    0.7667    1.5000    0.0000 N   0  0  0  0  0  0  0  0  0  0  0  0
   -1.6375    0.5000    0.0000 C   0  0  0  0  0  0  0  0  0  0  0  0
   -1.0500   -0.3042    0.0000 C   0  0  0  0  0  0  0  0  0  0  0  0
    0.7667   -0.5000    0.0000 C   0  0  0  0  0  0  0  0  0  0  0  0
    1.6292    1.0000    0.0000 C   0  0  0  0  0  0  0  0  0  0  0  0
    1.6292    0.0000    0.0000 C   0  0  0  0  0  0  0  0  0  0  0  0
    0.7667   -1.5000    0.0000 Br  0  0  0  0  0  0  0  0  0  0  0  0
  2  1  1  0  0  0  0
  3  2  1  0  0  0  0
  3  5  1  0  0  0  0
  4  2  2  0  0  0  0
  4  8  1  0  0  0  0
  5  6  2  0  0  0  0
  6  1  1  0  0  0  0
  7  1  2  0  0  0  0
  8  9  2  0  0  0  0
  9  7  1  0  0  0  0
 10  7  1  0  0  0  0
M  END
>  <idnumber>
T5948511

>  <LogP>
2.122000000000000e+000

>  <rotating_bonds>
0.000000000000000e+000

>  <hb_acceptors>
1.000000000000000e+000

>  <hb_donors>
1.000000000000000e+000

>  <PSA>
2.868000000000000e+001

>  <clusterid>
-1580

>  <is_centroid>
@

>  <class1>
761

>  <population1>
39

>  <population>
39

>  <cansmi>
Brc1ccnc2c1cc[nH]2

>  <HBA2>
1

>  <HBD>
1

>  <logP>
2.3254

>  <TPSA>
28.68

>  <MW>
197.032

$$$$

 OpenBabel02121609142D

 14 15  0  0  0  0  0  0  0  0999 V2000
   -0.4083   -2.5167    0.0000 N   0  0  0  0  0  0  0  0  0  0  0  0
    0.4542    1.9833    0.0000 C   0  0  0  0  0  0  0  0  0  0  0  0
   -0.3500    2.5708    0.0000 O   0  0  0  0  0  0  0  0  0  0  0  0
    1.2667    2.5708    0.0000 C   0  0  0  0  0  0  0  0  0  0  0  0
   -0.0458    3.5208    0.0000 C   0  0  0  0  0  0  0  0  0  0  0  0
    0.9542    3.5208    0.0000 C   0  0  0  0  0  0  0  0  0  0  0  0
   -0.4083    0.4833    0.0000 N   0  0  0  0  0  0  0  0  0  0  0  0
    0.4542   -1.0167    0.0000 C   0  0  0  0  0  0  0  0  0  0  0  0
   -1.2708   -1.0167    0.0000 C   0  0  0  0  0  0  0  0  0  0  0  0
    0.4542   -2.0167    0.0000 C   0  0  0  0  0  0  0  0  0  0  0  0
   -1.2708   -2.0167    0.0000 C   0  0  0  0  0  0  0  0  0  0  0  0
   -0.4083   -0.5167    0.0000 C   0  0  0  0  0  0  0  0  0  0  0  0
    0.4542    0.9833    0.0000 C   0  0  0  0  0  0  0  0  0  0  0  0
   -0.4083   -3.5167    0.0000 C   0  0  0  0  0  0  0  0  0  0  0  0
  2 13  1  0  0  0  0
  3  2  1  0  0  0  0
  4  2  2  0  0  0  0
  5  3  1  0  0  0  0
  6  4  1  0  0  0  0
  6  5  2  0  0  0  0
  7 12  1  0  0  0  0
  8 10  1  0  0  0  0
  8 12  1  0  0  0  0
  9 11  1  0  0  0  0
 10  1  1  0  0  0  0
 11  1  1  0  0  0  0
 12  9  1  0  0  0  0
 13  7  1  0  0  0  0
 14  1  1  0  0  0  0
M  END
>  <idnumber>
T5948527

>  <LogP>
7.440000000000000e-001

>  <rotating_bonds>
3.000000000000000e+000

>  <hb_acceptors>
2.000000000000000e+000

>  <hb_donors>
1.000000000000000e+000

>  <PSA>
2.841000000000000e+001

>  <clusterid>
-1581

>  <is_centroid>
@

>  <class1>
704

>  <class2>
639

>  <population1>
51112

>  <population2>
59855

>  <population>
2157

>  <cansmi>
CN1CCC(CC1)NCc1ccco1

>  <HBA2>
3

>  <HBD>
1

>  <logP>
1.7922

>  <TPSA>
28.41

>  <MW>
194.273

$$$$

 OpenBabel02121609142D

 12 12  0  0  0  0  0  0  0  0999 V2000
   -0.4333    0.5000    0.0000 C   0  0  0  0  0  0  0  0  0  0  0  0
    0.4292    1.0000    0.0000 C   0  0  0  0  0  0  0  0  0  0  0  0
    1.2917   -0.5000    0.0000 N   0  0  0  0  0  0  0  0  0  0  0  0
    1.2917    0.5000    0.0000 N   0  0  0  0  0  0  0  0  0  0  0  0
   -0.4333   -0.5000    0.0000 C   0  0  0  0  0  0  0  0  0  0  0  0
    0.4292   -1.0000    0.0000 C   0  0  0  0  0  0  0  0  0  0  0  0
   -1.3000    1.0000    0.0000 C   0  0  0  0  0  0  0  0  0  0  0  0
   -2.1708    1.5000    0.0000 N   0  0  0  0  0  0  0  0  0  0  0  0
    0.4292    2.0000    0.0000 O   0  0  0  0  0  0  0  0  0  0  0  0
    2.1625    1.0000    0.0000 C   0  0  0  0  0  0  0  0  0  0  0  0
   -1.3000   -1.0000    0.0000 C   0  0  0  0  0  0  0  0  0  0  0  0
    0.4292   -2.0000    0.0000 C   0  0  0  0  0  0  0  0  0  0  0  0
  2  1  1  0  0  0  0
  3  6  2  0  0  0  0
  3  4  1  0  0  0  0
  4  2  1  0  0  0  0
  5  1  2  0  0  0  0
  6  5  1  0  0  0  0
  7  1  1  0  0  0  0
  8  7  3  0  0  0  0
  9  2  2  0  0  0  0
 10  4  1  0  0  0  0
 11  5  1  0  0  0  0
 12  6  1  0  0  0  0
M  END
>  <idnumber>
T5948533

>  <LogP>
-2.520000000000000e-001

>  <rotating_bonds>
1.000000000000000e+000

>  <hb_acceptors>
3.000000000000000e+000

>  <hb_donors>
0.000000000000000e+000

>  <PSA>
5.646000000000000e+001

>  <clusterid>
-1582

>  <is_centroid>
@

>  <class1>
826

>  <population1>
2794

>  <population>
2794

>  <cansmi>
N#Cc1c(C)c(C)nn(c1=O)C

>  <HBA2>
4

>  <HBD>
0

>  <logP>
0.26878

>  <TPSA>
58.68

>  <MW>
163.177

$$$$

 OpenBabel02121609142D

 20 22  0  0  0  0  0  0  0  0999 V2000
    0.8625    0.5083    0.0000 C   0  0  0  0  0  0  0  0  0  0  0  0
    0.0000    1.0000    0.0000 C   0  0  0  0  0  0  0  0  0  0  0  0
   -0.8708    2.5000    0.0000 N   0  0  0  0  0  0  0  0  0  0  0  0
    0.0000    2.0000    0.0000 C   0  0  0  0  0  0  0  0  0  0  0  0
   -1.7333    2.0000    0.0000 C   0  0  0  0  0  0  0  0  0  0  0  0
    0.0000   -1.0000    0.0000 N   0  0  0  0  0  0  0  0  0  0  0  0
    0.8625   -0.5000    0.0000 C   0  0  0  0  0  0  0  0  0  0  0  0
   -0.8708    0.5083    0.0000 C   0  0  0  0  0  0  0  0  0  0  0  0
    1.7292    1.0000    0.0000 C   0  0  0  0  0  0  0  0  0  0  0  0
    0.8625    2.5000    0.0000 C   0  0  0  0  0  0  0  0  0  0  0  0
   -2.6000    2.5000    0.0000 O   0  0  0  0  0  0  0  0  0  0  0  0
    1.7292    2.0000    0.0000 C   0  0  0  0  0  0  0  0  0  0  0  0
   -1.7333    1.0000    0.0000 C   0  0  0  0  0  0  0  0  0  0  0  0
    0.0000   -2.0000    0.0000 C   0  0  0  0  0  0  0  0  0  0  0  0
   -0.8708   -0.5000    0.0000 C   0  0  0  0  0  0  0  0  0  0  0  0
    2.5917    0.5083    0.0000 O   0  0  0  0  0  0  0  0  0  0  0  0
   -0.8708   -2.5000    0.0000 C   0  0  0  0  0  0  0  0  0  0  0  0
   -1.7333   -1.0000    0.0000 C   0  0  0  0  0  0  0  0  0  0  0  0
   -1.7333   -2.0000    0.0000 C   0  0  0  0  0  0  0  0  0  0  0  0
   -2.6000   -2.5000    0.0000 C   0  0  0  0  0  0  0  0  0  0  0  0
  2  1  2  0  0  0  0
  3  4  1  0  0  0  0
  3  5  1  0  0  0  0
  4  2  1  0  0  0  0
  4 10  2  0  0  0  0
  5 13  1  0  0  0  0
  6  7  1  0  0  0  0
  7  1  1  0  0  0  0
  8  2  1  0  0  0  0
  9  1  1  0  0  0  0
 10 12  1  0  0  0  0
 11  5  2  0  0  0  0
 12  9  2  0  0  0  0
 13  8  1  0  0  0  0
 14  6  1  0  0  0  0
 15  6  1  0  0  0  0
 16  9  1  0  0  0  0
 17 14  1  0  0  0  0
 18 15  1  0  0  0  0
 19 18  1  0  0  0  0
 19 17  1  0  0  0  0
 20 19  1  0  0  0  0
M  END
>  <idnumber>
T5949851

>  <LogP>
2.125000000000000e+000

>  <rotating_bonds>
2.000000000000000e+000

>  <hb_acceptors>
3.000000000000000e+000

>  <hb_donors>
2.000000000000000e+000

>  <PSA>
5.256999999999999e+001

>  <clusterid>
-1583

>  <is_centroid>
@

>  <class1>
639

>  <class2>
735

>  <population1>
59855

>  <population2>
1171

>  <population>
31

>  <cansmi>
CC1CCN(CC1)Cc1c(O)ccc2c1CCC(=O)N2

>  <HBA2>
4

>  <HBD>
2

>  <logP>
2.5847

>  <TPSA>
52.57

>  <MW>
274.358

$$$$

 OpenBabel02121609142D

 19 21  0  0  0  0  0  0  0  0999 V2000
    0.7417    0.7708    0.0000 N   0  0  0  0  0  0  0  0  0  0  0  0
   -0.2083   -0.5375    0.0000 C   0  0  0  0  0  0  0  0  0  0  0  0
   -0.2083    1.0833    0.0000 C   0  0  0  0  0  0  0  0  0  0  0  0
   -0.7958    0.2708    0.0000 O   0  0  0  0  0  0  0  0  0  0  0  0
    0.7417   -0.2292    0.0000 N   0  0  0  0  0  0  0  0  0  0  0  0
    0.1542   -2.2292    0.0000 N   0  0  0  0  0  0  0  0  0  0  0  0
   -0.1583   -3.1792    0.0000 C   0  0  0  0  0  0  0  0  0  0  0  0
   -0.5208   -1.4917    0.0000 C   0  0  0  0  0  0  0  0  0  0  0  0
    1.1292   -2.0250    0.0000 C   0  0  0  0  0  0  0  0  0  0  0  0
    0.5125   -3.9292    0.0000 C   0  0  0  0  0  0  0  0  0  0  0  0
   -0.5208    2.0333    0.0000 C   0  0  0  0  0  0  0  0  0  0  0  0
   -1.1333   -3.3917    0.0000 O   0  0  0  0  0  0  0  0  0  0  0  0
    1.8000   -2.7667    0.0000 C   0  0  0  0  0  0  0  0  0  0  0  0
    1.4917   -3.7167    0.0000 C   0  0  0  0  0  0  0  0  0  0  0  0
    0.1542    2.7708    0.0000 C   0  0  0  0  0  0  0  0  0  0  0  0
   -1.4958    2.2375    0.0000 C   0  0  0  0  0  0  0  0  0  0  0  0
   -1.8083    3.1875    0.0000 C   0  0  0  0  0  0  0  0  0  0  0  0
   -0.1583    3.7333    0.0000 C   0  0  0  0  0  0  0  0  0  0  0  0
   -1.1333    3.9333    0.0000 C   0  0  0  0  0  0  0  0  0  0  0  0
  2  5  2  0  0  0  0
  2  4  1  0  0  0  0
  3  1  2  0  0  0  0
  4  3  1  0  0  0  0
  5  1  1  0  0  0  0
  6  8  1  0  0  0  0
  7  6  1  0  0  0  0
  8  2  1  0  0  0  0
  9  6  1  0  0  0  0
 10  7  1  0  0  0  0
 10 14  2  0  0  0  0
 11  3  1  0  0  0  0
 12  7  2  0  0  0  0
 13  9  2  0  0  0  0
 14 13  1  0  0  0  0
 15 11  1  0  0  0  0
 16 11  2  0  0  0  0
 17 16  1  0  0  0  0
 18 15  2  0  0  0  0
 18 19  1  0  0  0  0
 19 17  2  0  0  0  0
M  END
>  <idnumber>
T5959642

>  <LogP>
8.199999999999999e-002

>  <rotating_bonds>
3.000000000000000e+000

>  <hb_acceptors>
3.000000000000000e+000

>  <hb_donors>
0.000000000000000e+000

>  <PSA>
5.923000000000000e+001

>  <clusterid>
-1589

>  <is_centroid>
@

>  <class1>
689

>  <class2>
625

>  <class3>
696

>  <population1>
17264

>  <population2>
877209

>  <population3>
4759

>  <population>
11

>  <cansmi>
O=c1ccccn1Cc1nnc(o1)c1ccccc1

>  <HBA2>
5

>  <HBD>
0

>  <logP>
1.9466

>  <TPSA>
60.92

>  <MW>
253.256

$$$$

 OpenBabel02121609142D

 21 24  0  0  0  0  0  0  0  0999 V2000
   -1.5833    0.4625    0.0000 C   0  0  0  0  0  0  0  0  0  0  0  0
    2.6417   -1.3167    0.0000 C   0  0  0  0  0  0  0  0  0  0  0  0
    1.6625   -1.1042    0.0000 N   0  0  0  0  0  0  0  0  0  0  0  0
   -1.5833    2.0833    0.0000 N   0  0  0  0  0  0  0  0  0  0  0  0
   -0.9958    1.2750    0.0000 C   0  0  0  0  0  0  0  0  0  0  0  0
    3.3042   -0.5750    0.0000 C   0  0  0  0  0  0  0  0  0  0  0  0
   -2.5333    0.7750    0.0000 C   0  0  0  0  0  0  0  0  0  0  0  0
   -0.2958   -0.6917    0.0000 N   0  0  0  0  0  0  0  0  0  0  0  0
    4.2542   -0.2667    0.0000 C   0  0  0  0  0  0  0  0  0  0  0  0
    3.5167    0.4083    0.0000 C   0  0  0  0  0  0  0  0  0  0  0  0
   -1.2708   -0.4875    0.0000 C   0  0  0  0  0  0  0  0  0  0  0  0
   -2.5333    1.7750    0.0000 C   0  0  0  0  0  0  0  0  0  0  0  0
    2.9500   -2.2667    0.0000 O   0  0  0  0  0  0  0  0  0  0  0  0
    1.3542   -0.1542    0.0000 C   0  0  0  0  0  0  0  0  0  0  0  0
    0.9917   -1.8542    0.0000 C   0  0  0  0  0  0  0  0  0  0  0  0
    0.0167   -1.6417    0.0000 C   0  0  0  0  0  0  0  0  0  0  0  0
    0.3750    0.0500    0.0000 C   0  0  0  0  0  0  0  0  0  0  0  0
   -3.4000    0.2750    0.0000 C   0  0  0  0  0  0  0  0  0  0  0  0
   -3.4000    2.2750    0.0000 C   0  0  0  0  0  0  0  0  0  0  0  0
   -4.2708    0.7750    0.0000 C   0  0  0  0  0  0  0  0  0  0  0  0
   -4.2708    1.7750    0.0000 C   0  0  0  0  0  0  0  0  0  0  0  0
  2  3  1  0  0  0  0
  3 14  1  0  0  0  0
  4  5  1  0  0  0  0
  4 12  1  0  0  0  0
  5  1  2  0  0  0  0
  6  2  1  0  0  0  0
  7  1  1  0  0  0  0
  8 11  1  0  0  0  0
  9  6  1  0  0  0  0
  9 10  1  0  0  0  0
 10  6  1  0  0  0  0
 11  1  1  0  0  0  0
 12  7  2  0  0  0  0
 13  2  2  0  0  0  0
 14 17  1  0  0  0  0
 15 16  1  0  0  0  0
 15  3  1  0  0  0  0
 16  8  1  0  0  0  0
 17  8  1  0  0  0  0
 18  7  1  0  0  0  0
 19 12  1  0  0  0  0
 19 21  2  0  0  0  0
 20 18  2  0  0  0  0
 21 20  1  0  0  0  0
M  END
>  <idnumber>
T5960490

>  <LogP>
1.814000000000000e+000

>  <rotating_bonds>
3.000000000000000e+000

>  <hb_acceptors>
2.000000000000000e+000

>  <hb_donors>
1.000000000000000e+000

>  <PSA>
3.934000000000000e+001

>  <clusterid>
-1590

>  <is_centroid>
@

>  <class1>
675

>  <class2>
717

>  <class3>
748

>  <population1>
33654

>  <population2>
74368

>  <population3>
15713

>  <population>
57

>  <cansmi>
O=C(N1CCN(CC1)Cc1c[nH]c2c1cccc2)C1CC1

>  <HBA2>
3

>  <HBD>
1

>  <logP>
2.0979

>  <TPSA>
39.34

>  <MW>
283.368

$$$$

 OpenBabel02121609142D

 22 25  0  0  0  0  0  0  0  0999 V2000
   -0.1625    1.6000    0.0000 C   0  0  0  0  0  0  0  0  0  0  0  0
    1.4250    0.7958    0.0000 N   0  0  0  0  0  0  0  0  0  0  0  0
   -0.7500    2.4083    0.0000 N   0  0  0  0  0  0  0  0  0  0  0  0
   -0.7500    0.7958    0.0000 N   0  0  0  0  0  0  0  0  0  0  0  0
    1.1167   -0.1542    0.0000 C   0  0  0  0  0  0  0  0  0  0  0  0
    0.8375    1.6000    0.0000 C   0  0  3  0  0  0  0  0  0  0  0  0
   -1.7083    2.1000    0.0000 C   0  0  0  0  0  0  0  0  0  0  0  0
   -1.7083    1.1000    0.0000 C   0  0  0  0  0  0  0  0  0  0  0  0
    0.1375   -0.3667    0.0000 O   0  0  0  0  0  0  0  0  0  0  0  0
    1.7792   -0.9042    0.0000 C   0  0  0  0  0  0  0  0  0  0  0  0
    2.3750    1.1000    0.0000 C   0  0  0  0  0  0  0  0  0  0  0  0
    1.4250    2.4083    0.0000 C   0  0  0  0  0  0  0  0  0  0  0  0
    2.3750    2.1000    0.0000 C   0  0  0  0  0  0  0  0  0  0  0  0
   -2.5708    2.6000    0.0000 C   0  0  0  0  0  0  0  0  0  0  0  0
   -2.5708    0.6000    0.0000 C   0  0  0  0  0  0  0  0  0  0  0  0
    1.4750   -1.8542    0.0000 C   0  0  0  0  0  0  0  0  0  0  0  0
    2.7625   -0.6917    0.0000 C   0  0  0  0  0  0  0  0  0  0  0  0
   -3.4333    2.1000    0.0000 C   0  0  0  0  0  0  0  0  0  0  0  0
   -3.4333    1.1000    0.0000 C   0  0  0  0  0  0  0  0  0  0  0  0
    3.4292   -1.4375    0.0000 C   0  0  0  0  0  0  0  0  0  0  0  0
    2.1417   -2.5917    0.0000 C   0  0  0  0  0  0  0  0  0  0  0  0
    3.1167   -2.3875    0.0000 C   0  0  0  0  0  0  0  0  0  0  0  0
  2  6  1  0  0  0  0
  3  1  2  0  0  0  0
  4  1  1  0  0  0  0
  5  2  1  0  0  0  0
  6  1  1  0  0  0  0
  7  3  1  0  0  0  0
  7  8  2  0  0  0  0
  8  4  1  0  0  0  0
  9  5  2  0  0  0  0
 10  5  1  0  0  0  0
 11  2  1  0  0  0  0
 11 13  1  0  0  0  0
 12  6  1  0  0  0  0
 13 12  1  0  0  0  0
 14  7  1  0  0  0  0
 15  8  1  0  0  0  0
 16 10  1  0  0  0  0
 17 10  2  0  0  0  0
 18 14  2  0  0  0  0
 18 19  1  0  0  0  0
 19 15  2  0  0  0  0
 20 17  1  0  0  0  0
 21 16  2  0  0  0  0
 21 22  1  0  0  0  0
 22 20  2  0  0  0  0
M  END
>  <idnumber>
T5961297

>  <LogP>
2.842000000000000e+000

>  <rotating_bonds>
2.000000000000000e+000

>  <hb_acceptors>
2.000000000000000e+000

>  <hb_donors>
1.000000000000000e+000

>  <PSA>
4.899000000000000e+001

>  <clusterid>
-1591

>  <is_centroid>
@

>  <class1>
625

>  <class2>
642

>  <class3>
685

>  <population1>
877209

>  <population2>
51183

>  <population3>
28767

>  <population>
2215

>  <cansmi>
O=C(N1CCCC1c1nc2c([nH]1)cccc2)c1ccccc1

>  <HBA2>
3

>  <HBD>
1

>  <logP>
3.4781

>  <TPSA>
48.99

>  <MW>
291.347

$$$$

 OpenBabel02121609142D

 19 21  0  0  0  0  0  0  0  0999 V2000
    1.1875   -1.0750    0.0000 C   0  0  0  0  0  0  0  0  0  0  0  0
    1.1875   -0.0750    0.0000 C   0  0  0  0  0  0  0  0  0  0  0  0
    0.6875   -2.6125    0.0000 N   0  0  0  0  0  0  0  0  0  0  0  0
    1.9917   -1.6625    0.0000 C   0  0  0  0  0  0  0  0  0  0  0  0
    0.3167    0.4250    0.0000 N   0  0  0  0  0  0  0  0  0  0  0  0
    1.6875   -2.6125    0.0000 N   0  0  0  0  0  0  0  0  0  0  0  0
    0.3750   -1.6625    0.0000 C   0  0  0  0  0  0  0  0  0  0  0  0
    0.3167    1.4250    0.0000 C   0  0  3  0  0  0  0  0  0  0  0  0
   -0.5458    1.9250    0.0000 C   0  0  0  0  0  0  0  0  0  0  0  0
   -0.5458    2.9250    0.0000 C   0  0  0  0  0  0  0  0  0  0  0  0
    2.0542    0.4250    0.0000 O   0  0  0  0  0  0  0  0  0  0  0  0
    0.3167    3.4250    0.0000 O   0  0  0  0  0  0  0  0  0  0  0  0
    1.1875    1.9250    0.0000 C   0  0  0  0  0  0  0  0  0  0  0  0
    1.1875    2.9250    0.0000 C   0  0  0  0  0  0  0  0  0  0  0  0
   -1.4125    1.4250    0.0000 C   0  0  0  0  0  0  0  0  0  0  0  0
    2.2750   -3.4167    0.0000 C   0  0  0  0  0  0  0  0  0  0  0  0
   -1.4125    3.4250    0.0000 C   0  0  0  0  0  0  0  0  0  0  0  0
   -2.2833    1.9250    0.0000 C   0  0  0  0  0  0  0  0  0  0  0  0
   -2.2833    2.9250    0.0000 C   0  0  0  0  0  0  0  0  0  0  0  0
  2  1  1  0  0  0  0
  3  7  2  0  0  0  0
  4  1  2  0  0  0  0
  5  2  1  0  0  0  0
  6  4  1  0  0  0  0
  6  3  1  0  0  0  0
  7  1  1  0  0  0  0
  8  5  1  0  0  0  0
  9  8  1  0  0  0  0
 10  9  2  0  0  0  0
 10 12  1  0  0  0  0
 11  2  2  0  0  0  0
 12 14  1  0  0  0  0
 13  8  1  0  0  0  0
 14 13  1  0  0  0  0
 15  9  1  0  0  0  0
 16  6  1  0  0  0  0
 17 10  1  0  0  0  0
 17 19  2  0  0  0  0
 18 15  2  0  0  0  0
 19 18  1  0  0  0  0
M  END
>  <idnumber>
T5962787

>  <LogP>
1.374000000000000e+000

>  <rotating_bonds>
2.000000000000000e+000

>  <hb_acceptors>
3.000000000000000e+000

>  <hb_donors>
1.000000000000000e+000

>  <PSA>
5.614999999999996e+001

>  <clusterid>
-1593

>  <is_centroid>
@

>  <class1>
631

>  <class2>
766

>  <population1>
41612

>  <population2>
1661

>  <population>
56

>  <cansmi>
Cn1ncc(c1)C(=O)NC1CCOc2c1cccc2

>  <HBA2>
5

>  <HBD>
1

>  <logP>
2.0646

>  <TPSA>
56.15

>  <MW>
257.288

$$$$

 OpenBabel02121609142D

 20 22  0  0  0  0  0  0  0  0999 V2000
    0.4292   -1.2750    0.0000 C   0  0  0  0  0  0  0  0  0  0  0  0
    0.4292   -2.8917    0.0000 N   0  0  0  0  0  0  0  0  0  0  0  0
    0.4792    1.3708    0.0000 N   0  0  0  0  0  0  0  0  0  0  0  0
    1.3792   -2.5875    0.0000 N   0  0  0  0  0  0  0  0  0  0  0  0
    1.3792   -1.5875    0.0000 C   0  0  0  0  0  0  0  0  0  0  0  0
    0.7917    0.4208    0.0000 C   0  0  0  0  0  0  0  0  0  0  0  0
   -0.1583   -2.0875    0.0000 C   0  0  0  0  0  0  0  0  0  0  0  0
    0.1250   -0.3250    0.0000 C   0  0  0  0  0  0  0  0  0  0  0  0
   -0.4708    1.6833    0.0000 C   0  0  0  0  0  0  0  0  0  0  0  0
    1.0750    2.1833    0.0000 C   0  0  0  0  0  0  0  0  0  0  0  0
   -0.4708    2.6833    0.0000 C   0  0  0  0  0  0  0  0  0  0  0  0
    1.7667    0.2083    0.0000 O   0  0  0  0  0  0  0  0  0  0  0  0
    0.4792    2.9875    0.0000 C   0  0  0  0  0  0  0  0  0  0  0  0
    2.1917   -3.1750    0.0000 C   0  0  0  0  0  0  0  0  0  0  0  0
    2.1917   -1.0000    0.0000 C   0  0  0  0  0  0  0  0  0  0  0  0
   -1.1583   -2.0875    0.0000 C   0  0  0  0  0  0  0  0  0  0  0  0
   -1.3333    1.1833    0.0000 C   0  0  0  0  0  0  0  0  0  0  0  0
   -1.3333    3.1833    0.0000 C   0  0  0  0  0  0  0  0  0  0  0  0
   -2.2000    1.6833    0.0000 C   0  0  0  0  0  0  0  0  0  0  0  0
   -2.2000    2.6833    0.0000 C   0  0  0  0  0  0  0  0  0  0  0  0
  2  7  2  0  0  0  0
  2  4  1  0  0  0  0
  3  6  1  0  0  0  0
  4  5  1  0  0  0  0
  5  1  2  0  0  0  0
  6  8  1  0  0  0  0
  7  1  1  0  0  0  0
  8  1  1  0  0  0  0
  9  3  1  0  0  0  0
 10  3  1  0  0  0  0
 11  9  2  0  0  0  0
 12  6  2  0  0  0  0
 13 10  1  0  0  0  0
 13 11  1  0  0  0  0
 14  4  1  0  0  0  0
 15  5  1  0  0  0  0
 16  7  1  0  0  0  0
 17  9  1  0  0  0  0
 18 11  1  0  0  0  0
 18 20  2  0  0  0  0
 19 17  2  0  0  0  0
 20 19  1  0  0  0  0
M  END
>  <idnumber>
T5963854

>  <LogP>
1.683000000000000e+000

>  <rotating_bonds>
2.000000000000000e+000

>  <hb_acceptors>
2.000000000000000e+000

>  <hb_donors>
0.000000000000000e+000

>  <PSA>
3.813000000000000e+001

>  <clusterid>
-1594

>  <is_centroid>
@

>  <class1>
631

>  <class2>
732

>  <population1>
41612

>  <population2>
13534

>  <population>
526

>  <cansmi>
O=C(N1CCc2c1cccc2)Cc1c(C)nn(c1C)C

>  <HBA2>
4

>  <HBD>
0

>  <logP>
2.2337

>  <TPSA>
38.13

>  <MW>
269.342

$$$$

 OpenBabel02121609142D

 20 22  0  0  0  0  0  0  0  0999 V2000
   -2.4625    1.7208    0.0000 N   0  0  0  0  0  0  0  0  0  0  0  0
   -1.5125    1.4083    0.0000 C   0  0  0  0  0  0  0  0  0  0  0  0
   -0.9250    2.2208    0.0000 N   0  0  0  0  0  0  0  0  0  0  0  0
   -1.5125    3.0250    0.0000 N   0  0  0  0  0  0  0  0  0  0  0  0
   -2.4625    2.7208    0.0000 C   0  0  0  0  0  0  0  0  0  0  0  0
    0.0792   -0.7042    0.0000 C   0  0  0  0  0  0  0  0  0  0  0  0
    1.0625   -0.9125    0.0000 C   0  0  0  0  0  0  0  0  0  0  0  0
   -0.2250    0.2500    0.0000 N   0  0  0  0  0  0  0  0  0  0  0  0
    1.3667   -1.8625    0.0000 C   0  0  0  0  0  0  0  0  0  0  0  0
    2.3500   -2.0667    0.0000 C   0  0  0  0  0  0  0  0  0  0  0  0
   -1.2083    0.4583    0.0000 C   0  0  0  0  0  0  0  0  0  0  0  0
    3.0167   -1.3250    0.0000 C   0  0  0  0  0  0  0  0  0  0  0  0
   -0.5833   -1.4417    0.0000 O   0  0  0  0  0  0  0  0  0  0  0  0
    1.7292   -0.1667    0.0000 C   0  0  0  0  0  0  0  0  0  0  0  0
    2.7042   -0.3750    0.0000 C   0  0  0  0  0  0  0  0  0  0  0  0
   -3.4125    1.4083    0.0000 C   0  0  0  0  0  0  0  0  0  0  0  0
   -3.4125    3.0250    0.0000 C   0  0  0  0  0  0  0  0  0  0  0  0
   -4.0000    2.2208    0.0000 C   0  0  0  0  0  0  0  0  0  0  0  0
    2.6542   -3.0167    0.0000 C   0  0  0  0  0  0  0  0  0  0  0  0
    3.9917   -1.5292    0.0000 C   0  0  0  0  0  0  0  0  0  0  0  0
  2  1  1  0  0  0  0
  3  2  2  0  0  0  0
  3  4  1  0  0  0  0
  4  5  2  0  0  0  0
  5  1  1  0  0  0  0
  6  8  1  0  0  0  0
  7  6  1  0  0  0  0
  8 11  1  0  0  0  0
  9  7  2  0  0  0  0
 10  9  1  0  0  0  0
 10 12  2  0  0  0  0
 11  2  1  0  0  0  0
 12 15  1  0  0  0  0
 13  6  2  0  0  0  0
 14  7  1  0  0  0  0
 15 14  2  0  0  0  0
 16  1  1  0  0  0  0
 17  5  1  0  0  0  0
 17 18  1  0  0  0  0
 18 16  1  0  0  0  0
 19 10  1  0  0  0  0
 20 12  1  0  0  0  0
M  END
>  <idnumber>
T5964572

>  <LogP>
6.879999999999999e-001

>  <rotating_bonds>
3.000000000000000e+000

>  <hb_acceptors>
3.000000000000000e+000

>  <hb_donors>
1.000000000000000e+000

>  <PSA>
5.981000000000002e+001

>  <clusterid>
780

>  <is_centroid>
@

>  <class1>
625

>  <class2>
784

>  <population1>
877209

>  <population2>
235

>  <population>
213

>  <cansmi>
O=C(c1ccc(c(c1)C)C)NCc1nnc2n1CCC2

>  <HBA2>
5

>  <HBD>
1

>  <logP>
2.162

>  <TPSA>
59.81

>  <MW>
270.33

$$$$

 OpenBabel02121609142D

 16 19  0  0  0  0  0  0  0  0999 V2000
    1.4844   -5.2166    0.0000 C   0  0  0  0  0  0  0  0  0  0  0  0
    2.1256   -4.5330    0.0000 C   0  0  3  0  0  0  0  0  0  0  0  0
    2.2847   -4.9916    0.0000 C   0  0  3  0  0  0  0  0  0  0  0  0
    2.8328   -4.7956    0.0000 C   0  0  0  0  0  0  0  0  0  0  0  0
    3.0415   -5.2943    0.0000 C   0  0  0  0  0  0  0  0  0  0  0  0
    2.2820   -4.1432    0.0000 C   0  0  0  0  0  0  0  0  0  0  0  0
    2.8386   -3.4812    0.0000 C   0  0  3  0  0  0  0  0  0  0  0  0
    2.1212   -3.7375    0.0000 C   0  0  0  0  0  0  0  0  0  0  0  0
    3.5907   -3.7912    0.0000 C   0  0  0  0  0  0  0  0  0  0  0  0
    3.5848   -4.6101    0.0000 C   0  0  3  0  0  0  0  0  0  0  0  0
    4.9637   -4.2407    0.0000 C   0  0  0  0  0  0  0  0  0  0  0  0
    5.7668   -4.4603    0.0000 C   0  0  0  0  0  0  0  0  0  0  0  0
    4.3792   -4.8208    0.0000 N   0  0  0  0  0  0  0  0  0  0  0  0
    6.3528   -5.0448    0.0000 C   0  0  0  0  0  0  0  0  0  0  0  0
    6.5606   -4.2475    0.0000 C   0  0  0  0  0  0  0  0  0  0  0  0
    4.7538   -3.4381    0.0000 O   0  0  0  0  0  0  0  0  0  0  0  0
  1  2  1  0  0  0  0
  1  3  1  0  0  0  0
  2  8  1  0  0  0  0
  2  4  1  0  0  0  0
  3  6  1  0  0  0  0
  3  5  1  0  0  0  0
  4 10  1  0  0  0  0
  5 10  1  0  0  0  0
  6  7  1  0  0  0  0
  7  8  1  0  0  0  0
  9  7  1  0  0  0  0
 10  9  1  0  0  0  0
 11 13  1  0  0  0  0
 12 11  1  0  0  0  0
 13 10  1  0  0  0  0
 14 12  1  0  0  0  0
 14 15  1  0  0  0  0
 15 12  1  0  0  0  0
 16 11  2  0  0  0  0
M  END
>  <idnumber>
T5965426

>  <LogP>
1.935000000000000e+000

>  <rotating_bonds>
2.000000000000000e+000

>  <hb_acceptors>
1.000000000000000e+000

>  <hb_donors>
1.000000000000000e+000

>  <PSA>
2.910000000000000e+001

>  <clusterid>
423

>  <is_centroid>
@

>  <class1>
675

>  <class2>
809

>  <population1>
33654

>  <population2>
8162

>  <population>
75

>  <cansmi>
O=C(C1CC1)NC12CC3CC(C2)CC(C1)C3

>  <HBA2>
2

>  <HBD>
1

>  <logP>
2.8723

>  <TPSA>
29.1

>  <MW>
219.323

$$$$

 OpenBabel02121609142D

 22 24  0  0  0  0  0  0  0  0999 V2000
   -1.7208    0.9833    0.0000 C   0  0  0  0  0  0  0  0  0  0  0  0
   -1.7208    1.9833    0.0000 C   0  0  0  0  0  0  0  0  0  0  0  0
   -0.8583    0.4833    0.0000 N   0  0  0  0  0  0  0  0  0  0  0  0
   -2.5333    2.5708    0.0000 N   0  0  0  0  0  0  0  0  0  0  0  0
    0.8792   -0.5167    0.0000 N   0  0  0  0  0  0  0  0  0  0  0  0
    1.7417   -1.0167    0.0000 C   0  0  0  0  0  0  0  0  0  0  0  0
    1.7417   -2.0167    0.0000 C   0  0  0  0  0  0  0  0  0  0  0  0
   -0.9125    2.5708    0.0000 C   0  0  0  0  0  0  0  0  0  0  0  0
   -2.2208    3.5208    0.0000 C   0  0  0  0  0  0  0  0  0  0  0  0
   -1.2208    3.5208    0.0000 C   0  0  0  0  0  0  0  0  0  0  0  0
   -2.5875    0.4833    0.0000 O   0  0  0  0  0  0  0  0  0  0  0  0
    0.0125    0.9833    0.0000 C   0  0  0  0  0  0  0  0  0  0  0  0
   -0.8583   -0.5167    0.0000 C   0  0  0  0  0  0  0  0  0  0  0  0
    0.8792    0.4833    0.0000 C   0  0  0  0  0  0  0  0  0  0  0  0
    0.0125   -1.0167    0.0000 C   0  0  0  0  0  0  0  0  0  0  0  0
    2.6042   -2.5167    0.0000 C   0  0  0  0  0  0  0  0  0  0  0  0
   -3.4833    2.2708    0.0000 C   0  0  0  0  0  0  0  0  0  0  0  0
    2.6042   -0.5167    0.0000 C   0  0  0  0  0  0  0  0  0  0  0  0
    0.8792   -2.5167    0.0000 C   0  0  0  0  0  0  0  0  0  0  0  0
    3.4750   -1.0167    0.0000 C   0  0  0  0  0  0  0  0  0  0  0  0
    3.4750   -2.0167    0.0000 C   0  0  0  0  0  0  0  0  0  0  0  0
    2.6042   -3.5167    0.0000 C   0  0  0  0  0  0  0  0  0  0  0  0
  2  1  1  0  0  0  0
  3  1  1  0  0  0  0
  4  2  1  0  0  0  0
  5 15  1  0  0  0  0
  5 14  1  0  0  0  0
  6  5  1  0  0  0  0
  7  6  1  0  0  0  0
  8  2  2  0  0  0  0
  9  4  1  0  0  0  0
 10  8  1  0  0  0  0
 10  9  2  0  0  0  0
 11  1  2  0  0  0  0
 12  3  1  0  0  0  0
 13  3  1  0  0  0  0
 14 12  1  0  0  0  0
 15 13  1  0  0  0  0
 16  7  2  0  0  0  0
 16 21  1  0  0  0  0
 17  4  1  0  0  0  0
 18  6  2  0  0  0  0
 19  7  1  0  0  0  0
 20 18  1  0  0  0  0
 21 20  2  0  0  0  0
 22 16  1  0  0  0  0
M  END
>  <idnumber>
T5966085

>  <LogP>
2.149000000000000e+000

>  <rotating_bonds>
2.000000000000000e+000

>  <hb_acceptors>
2.000000000000000e+000

>  <hb_donors>
0.000000000000000e+000

>  <PSA>
2.848000000000000e+001

>  <clusterid>
-1595

>  <is_centroid>
@

>  <class1>
717

>  <class2>
625

>  <class3>
635

>  <population1>
74368

>  <population2>
877209

>  <population3>
31512

>  <population>
1395

>  <cansmi>
Cc1c(C)cccc1N1CCN(CC1)C(=O)c1cccn1C

>  <HBA2>
4

>  <HBD>
0

>  <logP>
2.6072

>  <TPSA>
28.48

>  <MW>
297.395

$$$$

 OpenBabel02121609142D

 20 22  0  0  0  0  0  0  0  0999 V2000
    0.6917    0.0500    0.0000 S   0  0  0  0  0  0  0  0  0  0  0  0
   -0.2833    0.2583    0.0000 N   0  0  0  0  0  0  0  0  0  0  0  0
   -0.5958    1.2083    0.0000 C   0  0  3  0  0  0  0  0  0  0  0  0
   -1.5458    1.5208    0.0000 C   0  0  0  0  0  0  0  0  0  0  0  0
    0.4875   -0.9292    0.0000 O   0  0  0  0  0  0  0  0  0  0  0  0
    0.9042    1.0250    0.0000 O   0  0  0  0  0  0  0  0  0  0  0  0
    1.6750   -0.1542    0.0000 C   0  0  0  0  0  0  0  0  0  0  0  0
   -1.5458    2.5208    0.0000 C   0  0  0  0  0  0  0  0  0  0  0  0
   -0.0083    2.0208    0.0000 C   0  0  0  0  0  0  0  0  0  0  0  0
   -0.5958    2.8333    0.0000 C   0  0  0  0  0  0  0  0  0  0  0  0
    1.9792   -1.1042    0.0000 C   0  0  0  0  0  0  0  0  0  0  0  0
   -2.4083    1.0208    0.0000 C   0  0  0  0  0  0  0  0  0  0  0  0
   -2.4083    3.0208    0.0000 C   0  0  0  0  0  0  0  0  0  0  0  0
    1.3125   -1.8542    0.0000 C   0  0  0  0  0  0  0  0  0  0  0  0
    2.9625   -1.3167    0.0000 C   0  0  0  0  0  0  0  0  0  0  0  0
   -3.2750    1.5208    0.0000 C   0  0  0  0  0  0  0  0  0  0  0  0
   -3.2750    2.5208    0.0000 C   0  0  0  0  0  0  0  0  0  0  0  0
    3.2667   -2.2667    0.0000 C   0  0  0  0  0  0  0  0  0  0  0  0
    1.6250   -2.8042    0.0000 C   0  0  0  0  0  0  0  0  0  0  0  0
    2.6000   -3.0125    0.0000 C   0  0  0  0  0  0  0  0  0  0  0  0
  2  1  1  0  0  0  0
  3  2  1  0  0  0  0
  4  3  1  0  0  0  0
  5  1  2  0  0  0  0
  6  1  2  0  0  0  0
  7  1  1  0  0  0  0
  8  4  2  0  0  0  0
  9  3  1  0  0  0  0
 10  9  1  0  0  0  0
 10  8  1  0  0  0  0
 11  7  1  0  0  0  0
 12  4  1  0  0  0  0
 13  8  1  0  0  0  0
 13 17  2  0  0  0  0
 14 11  1  0  0  0  0
 15 11  2  0  0  0  0
 16 12  2  0  0  0  0
 17 16  1  0  0  0  0
 18 15  1  0  0  0  0
 19 14  2  0  0  0  0
 19 20  1  0  0  0  0
 20 18  2  0  0  0  0
M  END
>  <idnumber>
T5966740

>  <LogP>
2.912000000000000e+000

>  <rotating_bonds>
3.000000000000000e+000

>  <hb_acceptors>
3.000000000000000e+000

>  <hb_donors>
1.000000000000000e+000

>  <PSA>
5.455000000000000e+001

>  <clusterid>
-1596

>  <is_centroid>
@

>  <class1>
625

>  <class2>
644

>  <population1>
877209

>  <population2>
7036

>  <population>
7036

>  <cansmi>
O=S(=O)(NC1CCc2c1cccc2)Cc1ccccc1

>  <HBA2>
3

>  <HBD>
1

>  <logP>
4.2652

>  <TPSA>
54.55

>  <MW>
287.377

$$$$

 OpenBabel02121609142D

 18 20  0  0  0  0  0  0  0  0999 V2000
   -1.3958    0.6208    0.0000 C   0  0  0  0  0  0  0  0  0  0  0  0
   -1.3958    1.6208    0.0000 C   0  0  0  0  0  0  0  0  0  0  0  0
   -2.9375    1.1208    0.0000 N   0  0  0  0  0  0  0  0  0  0  0  0
   -0.5333    0.1208    0.0000 C   0  0  0  0  0  0  0  0  0  0  0  0
   -2.3500    1.9333    0.0000 N   0  0  0  0  0  0  0  0  0  0  0  0
   -2.3500    0.3125    0.0000 C   0  0  0  0  0  0  0  0  0  0  0  0
   -0.5333    2.1208    0.0000 N   0  0  0  0  0  0  0  0  0  0  0  0
    0.3292    0.6208    0.0000 N   0  0  0  0  0  0  0  0  0  0  0  0
   -0.5333   -0.8792    0.0000 O   0  0  0  0  0  0  0  0  0  0  0  0
    0.3292    1.6208    0.0000 C   0  0  0  0  0  0  0  0  0  0  0  0
    0.3292   -1.3792    0.0000 C   0  0  0  0  0  0  0  0  0  0  0  0
    2.0667   -2.3792    0.0000 C   0  0  0  0  0  0  0  0  0  0  0  0
   -2.6583    2.8833    0.0000 C   0  0  0  0  0  0  0  0  0  0  0  0
    1.2000   -0.8792    0.0000 C   0  0  0  0  0  0  0  0  0  0  0  0
    0.3292   -2.3792    0.0000 C   0  0  0  0  0  0  0  0  0  0  0  0
    2.0667   -1.3792    0.0000 C   0  0  0  0  0  0  0  0  0  0  0  0
    1.2000   -2.8792    0.0000 C   0  0  0  0  0  0  0  0  0  0  0  0
    2.9292   -2.8792    0.0000 C   0  0  0  0  0  0  0  0  0  0  0  0
  2  1  1  0  0  0  0
  3  6  2  0  0  0  0
  4  1  2  0  0  0  0
  5  2  1  0  0  0  0
  5  3  1  0  0  0  0
  6  1  1  0  0  0  0
  7  2  2  0  0  0  0
  7 10  1  0  0  0  0
  8  4  1  0  0  0  0
  9  4  1  0  0  0  0
 10  8  2  0  0  0  0
 11  9  1  0  0  0  0
 12 17  2  0  0  0  0
 12 16  1  0  0  0  0
 13  5  1  0  0  0  0
 14 11  1  0  0  0  0
 15 11  2  0  0  0  0
 16 14  2  0  0  0  0
 17 15  1  0  0  0  0
 18 12  1  0  0  0  0
M  END
>  <idnumber>
T5967592

>  <LogP>
2.542000000000000e+000

>  <rotating_bonds>
2.000000000000000e+000

>  <hb_acceptors>
3.000000000000000e+000

>  <hb_donors>
0.000000000000000e+000

>  <PSA>
5.283000000000001e+001

>  <clusterid>
782

>  <is_centroid>
@

>  <class1>
625

>  <class2>
768

>  <population1>
877209

>  <population2>
1508

>  <population>
1317

>  <cansmi>
Cc1ccc(cc1)Oc1ncnc2c1cnn2C

>  <HBA2>
5

>  <HBD>
0

>  <logP>
2.464

>  <TPSA>
52.83

>  <MW>
240.261

$$$$

 OpenBabel02121609142D

 21 23  0  0  0  0  0  0  0  0999 V2000
   -1.5208   -0.5917    0.0000 N   0  0  0  0  0  0  0  0  0  0  0  0
    0.4792    0.4083    0.0000 C   0  0  0  0  0  0  0  0  0  0  0  0
    1.4792    0.4083    0.0000 C   0  0  0  0  0  0  0  0  0  0  0  0
   -1.5208    0.4083    0.0000 C   0  0  0  0  0  0  0  0  0  0  0  0
   -0.0208    1.2708    0.0000 N   0  0  0  0  0  0  0  0  0  0  0  0
    2.0667   -0.4042    0.0000 N   0  0  0  0  0  0  0  0  0  0  0  0
   -0.7125   -1.1792    0.0000 C   0  0  0  0  0  0  0  0  0  0  0  0
   -1.0208    1.2708    0.0000 C   0  0  0  0  0  0  0  0  0  0  0  0
    2.0667    1.2125    0.0000 C   0  0  0  0  0  0  0  0  0  0  0  0
    3.0167   -0.0917    0.0000 C   0  0  0  0  0  0  0  0  0  0  0  0
    3.0167    0.9083    0.0000 C   0  0  0  0  0  0  0  0  0  0  0  0
   -0.0208   -0.4625    0.0000 O   0  0  0  0  0  0  0  0  0  0  0  0
    0.2375   -0.8750    0.0000 O   0  0  0  0  0  0  0  0  0  0  0  0
   -2.3333   -1.1792    0.0000 C   0  0  0  0  0  0  0  0  0  0  0  0
   -1.0208   -2.1292    0.0000 C   0  0  0  0  0  0  0  0  0  0  0  0
    1.7542   -1.3542    0.0000 C   0  0  0  0  0  0  0  0  0  0  0  0
   -2.5208    0.4083    0.0000 C   0  0  0  0  0  0  0  0  0  0  0  0
   -1.5208    2.1458    0.0000 C   0  0  0  0  0  0  0  0  0  0  0  0
   -2.0208   -2.1292    0.0000 C   0  0  0  0  0  0  0  0  0  0  0  0
   -3.0208    1.2708    0.0000 C   0  0  0  0  0  0  0  0  0  0  0  0
   -2.5208    2.1458    0.0000 C   0  0  0  0  0  0  0  0  0  0  0  0
  2  5  1  0  0  0  0
  3  2  1  0  0  0  0
  4  1  1  0  0  0  0
  5  8  1  0  0  0  0
  6  3  1  0  0  0  0
  7  1  1  0  0  0  0
  8  4  2  0  0  0  0
  9  3  2  0  0  0  0
 10  6  1  0  0  0  0
 10 11  2  0  0  0  0
 11  9  1  0  0  0  0
 12  2  2  0  0  0  0
 13  7  2  0  0  0  0
 14  1  1  0  0  0  0
 15  7  1  0  0  0  0
 16  6  1  0  0  0  0
 17  4  1  0  0  0  0
 18  8  1  0  0  0  0
 18 21  2  0  0  0  0
 19 14  1  0  0  0  0
 19 15  1  0  0  0  0
 20 17  2  0  0  0  0
 21 20  1  0  0  0  0
M  END
>  <idnumber>
T5969956

>  <LogP>
2.302000000000000e+000

>  <rotating_bonds>
3.000000000000000e+000

>  <hb_acceptors>
2.000000000000000e+000

>  <hb_donors>
1.000000000000000e+000

>  <PSA>
5.434000000000000e+001

>  <clusterid>
-1597

>  <is_centroid>
@

>  <class1>
673

>  <class2>
625

>  <class3>
635

>  <population1>
18691

>  <population2>
877209

>  <population3>
31512

>  <population>
156

>  <cansmi>
O=C1CCCN1c1ccccc1NC(=O)c1cccn1C

>  <HBA2>
5

>  <HBD>
1

>  <logP>
2.5422

>  <TPSA>
54.34

>  <MW>
283.325

$$$$

 OpenBabel02121609142D

 16 17  0  0  0  0  0  0  0  0999 V2000
    0.0000   -0.5000    0.0000 N   0  0  0  0  0  0  0  0  0  0  0  0
    0.0000    0.5000    0.0000 N   0  0  0  0  0  0  0  0  0  0  0  0
   -0.8708    1.0000    0.0000 C   0  0  0  0  0  0  0  0  0  0  0  0
   -1.7333    0.5000    0.0000 C   0  0  0  0  0  0  0  0  0  0  0  0
   -0.8708   -1.0000    0.0000 C   0  0  0  0  0  0  0  0  0  0  0  0
   -1.7333   -0.5000    0.0000 C   0  0  0  0  0  0  0  0  0  0  0  0
    3.4625    1.5000    0.0000 N   0  0  0  0  0  0  0  0  0  0  0  0
    2.5917    1.0000    0.0000 C   0  0  0  0  0  0  0  0  0  0  0  0
   -0.8708    2.0000    0.0000 O   0  0  0  0  0  0  0  0  0  0  0  0
    0.8625    1.0000    0.0000 C   0  0  0  0  0  0  0  0  0  0  0  0
    1.7292    0.5000    0.0000 C   0  0  0  0  0  0  0  0  0  0  0  0
   -2.6000    1.0000    0.0000 C   0  0  0  0  0  0  0  0  0  0  0  0
   -0.8708   -2.0000    0.0000 C   0  0  0  0  0  0  0  0  0  0  0  0
   -2.6000   -0.9917    0.0000 C   0  0  0  0  0  0  0  0  0  0  0  0
   -3.4708    0.5000    0.0000 C   0  0  0  0  0  0  0  0  0  0  0  0
   -3.4708   -0.5000    0.0000 C   0  0  0  0  0  0  0  0  0  0  0  0
  2  1  1  0  0  0  0
  3  2  1  0  0  0  0
  3  4  1  0  0  0  0
  4  6  2  0  0  0  0
  5  1  2  0  0  0  0
  6  5  1  0  0  0  0
  7  8  3  0  0  0  0
  8 11  1  0  0  0  0
  9  3  2  0  0  0  0
 10  2  1  0  0  0  0
 11 10  1  0  0  0  0
 12  4  1  0  0  0  0
 13  5  1  0  0  0  0
 14  6  1  0  0  0  0
 15 16  1  0  0  0  0
 15 12  2  0  0  0  0
 16 14  2  0  0  0  0
M  END
>  <idnumber>
T5970016

>  <LogP>
1.720000000000000e-001

>  <rotating_bonds>
3.000000000000000e+000

>  <hb_acceptors>
3.000000000000000e+000

>  <hb_donors>
0.000000000000000e+000

>  <PSA>
5.646000000000000e+001

>  <clusterid>
-1598

>  <is_centroid>
@

>  <class1>
792

>  <population1>
7197

>  <population>
7197

>  <cansmi>
N#CCCn1nc(C)c2c(c1=O)cccc2

>  <HBA2>
4

>  <HBD>
0

>  <logP>
1.61858

>  <TPSA>
58.68

>  <MW>
213.235

$$$$

 OpenBabel02121609142D

 11 10  0  0  0  0  0  0  0  0999 V2000
    0.5250    0.2000    0.0000 C   0  0  0  0  0  0  0  0  0  0  0  0
    1.5042    0.0208    0.0000 C   0  0  0  0  0  0  0  0  0  0  0  0
    0.1917    1.1458    0.0000 O   0  0  0  0  0  0  0  0  0  0  0  0
    0.8000    0.7250    0.0000 N   0  0  0  0  0  0  0  0  0  0  0  0
   -0.1250   -0.5542    0.0000 O   0  0  0  0  0  0  0  0  0  0  0  0
   -3.1083   -0.0750    0.0000 Cl  0  0  0  0  0  0  0  0  0  0  0  0
    1.6542   -0.9667    0.0000 C   0  0  0  0  0  0  0  0  0  0  0  0
    2.4042    0.4625    0.0000 C   0  0  0  0  0  0  0  0  0  0  0  0
   -1.1083   -0.3750    0.0000 C   0  0  0  0  0  0  0  0  0  0  0  0
    3.1042   -0.2542    0.0000 C   0  0  0  0  0  0  0  0  0  0  0  0
    2.6375   -1.1375    0.0000 C   0  0  0  0  0  0  0  0  0  0  0  0
  2  1  1  0  0  0  0
  3  1  2  0  0  0  0
  4  2  1  0  0  0  0
  5  1  1  0  0  0  0
  7  2  1  0  0  0  0
  8  2  1  0  0  0  0
  9  5  1  0  0  0  0
 10  8  1  0  0  0  0
 11  7  1  0  0  0  0
 11 10  1  0  0  0  0
M  END
>  <idnumber>
T5978496

>  <LogP>
6.240000000000000e-001

>  <rotating_bonds>
2.000000000000000e+000

>  <hb_acceptors>
2.000000000000000e+000

>  <hb_donors>
1.000000000000000e+000

>  <PSA>
5.232000000000000e+001

>  <clusterid>
-1609

>  <is_centroid>
@

>  <class1>
674

>  <population1>
16474

>  <population>
16474

>  <cansmi>
COC(=O)C1(N)CCCC1.Cl

>  <HBA2>
3

>  <HBD>
2

>  <logP>
1.9332

>  <TPSA>
52.32

>  <MW>
179.645

$$$$

 OpenBabel02121609142D

 16 17  0  0  0  0  0  0  0  0999 V2000
   -3.3958    0.3375    0.0000 N   0  0  0  0  0  0  0  0  0  0  0  0
   -1.8083    0.0000    0.0000 N   0  0  0  0  0  0  0  0  0  0  0  0
   -0.0750    0.0000    0.0000 C   0  0  0  0  0  0  0  0  0  0  0  0
    0.7875   -0.5000    0.0000 N   0  0  0  0  0  0  0  0  0  0  0  0
   -2.7208   -0.4042    0.0000 C   0  0  0  0  0  0  0  0  0  0  0  0
    1.6542    0.0000    0.0000 C   0  0  3  0  0  0  0  0  0  0  0  0
   -2.8958    1.2083    0.0000 C   0  0  0  0  0  0  0  0  0  0  0  0
   -1.9125    0.9958    0.0000 C   0  0  0  0  0  0  0  0  0  0  0  0
   -0.9458   -0.5000    0.0000 C   0  0  0  0  0  0  0  0  0  0  0  0
   -0.0750    1.0000    0.0000 O   0  0  0  0  0  0  0  0  0  0  0  0
    2.5167   -0.5000    0.0000 C   0  0  3  0  0  0  0  0  0  0  0  0
    1.6542    1.0000    0.0000 C   0  0  0  0  0  0  0  0  0  0  0  0
    2.5167   -1.5000    0.0000 C   0  0  0  0  0  0  0  0  0  0  0  0
    3.3875    0.0000    0.0000 C   0  0  0  0  0  0  0  0  0  0  0  0
    2.5167    1.5000    0.0000 C   0  0  0  0  0  0  0  0  0  0  0  0
    3.3875    1.0000    0.0000 C   0  0  0  0  0  0  0  0  0  0  0  0
  2  5  1  0  0  0  0
  2  8  1  0  0  0  0
  3  9  1  0  0  0  0
  4  3  1  0  0  0  0
  5  1  2  0  0  0  0
  6  4  1  0  0  0  0
  7  1  1  0  0  0  0
  8  7  2  0  0  0  0
  9  2  1  0  0  0  0
 10  3  2  0  0  0  0
 11  6  1  0  0  0  0
 12  6  1  0  0  0  0
 13 11  1  0  0  0  0
 14 11  1  0  0  0  0
 14 16  1  0  0  0  0
 15 12  1  0  0  0  0
 16 15  1  0  0  0  0
M  END
>  <idnumber>
T5980815

>  <LogP>
1.452000000000000e+000

>  <rotating_bonds>
3.000000000000000e+000

>  <hb_acceptors>
2.000000000000000e+000

>  <hb_donors>
1.000000000000000e+000

>  <PSA>
4.692000000000000e+001

>  <clusterid>
-1611

>  <is_centroid>
@

>  <class1>
686

>  <class2>
797

>  <population1>
31113

>  <population2>
40410

>  <population>
637

>  <cansmi>
O=C(Cn1cncc1)NC1CCCCC1C

>  <HBA2>
4

>  <HBD>
1

>  <logP>
1.9689

>  <TPSA>
46.92

>  <MW>
221.299

$$$$

 OpenBabel02121609142D

 21 23  0  0  0  0  0  0  0  0999 V2000
    0.4792    0.9875    0.0000 C   0  0  0  0  0  0  0  0  0  0  0  0
    0.4292   -1.6542    0.0000 C   0  0  0  0  0  0  0  0  0  0  0  0
    0.4292   -3.2750    0.0000 N   0  0  0  0  0  0  0  0  0  0  0  0
    1.3792   -1.9667    0.0000 C   0  0  0  0  0  0  0  0  0  0  0  0
    1.3792   -2.9667    0.0000 N   0  0  0  0  0  0  0  0  0  0  0  0
    1.0667    1.7958    0.0000 C   0  0  0  0  0  0  0  0  0  0  0  0
    0.7917    0.0375    0.0000 C   0  0  0  0  0  0  0  0  0  0  0  0
   -0.1583   -2.4667    0.0000 C   0  0  0  0  0  0  0  0  0  0  0  0
    0.4792    2.6083    0.0000 N   0  0  0  0  0  0  0  0  0  0  0  0
    0.1250   -0.7042    0.0000 N   0  0  0  0  0  0  0  0  0  0  0  0
   -0.4708    1.2958    0.0000 C   0  0  0  0  0  0  0  0  0  0  0  0
   -0.4708    2.2958    0.0000 C   0  0  0  0  0  0  0  0  0  0  0  0
    1.7667   -0.1667    0.0000 O   0  0  0  0  0  0  0  0  0  0  0  0
    2.1917   -1.3792    0.0000 C   0  0  0  0  0  0  0  0  0  0  0  0
    2.1917   -3.5542    0.0000 C   0  0  0  0  0  0  0  0  0  0  0  0
    0.7917    3.5583    0.0000 C   0  0  0  0  0  0  0  0  0  0  0  0
   -1.1583   -2.4667    0.0000 C   0  0  0  0  0  0  0  0  0  0  0  0
   -1.3333    0.7958    0.0000 C   0  0  0  0  0  0  0  0  0  0  0  0
   -1.3333    2.7958    0.0000 C   0  0  0  0  0  0  0  0  0  0  0  0
   -2.2000    1.2958    0.0000 C   0  0  0  0  0  0  0  0  0  0  0  0
   -2.2000    2.2958    0.0000 C   0  0  0  0  0  0  0  0  0  0  0  0
  2 10  1  0  0  0  0
  3  8  2  0  0  0  0
  3  5  1  0  0  0  0
  4  2  2  0  0  0  0
  5  4  1  0  0  0  0
  6  1  2  0  0  0  0
  7  1  1  0  0  0  0
  8  2  1  0  0  0  0
  9  6  1  0  0  0  0
  9 12  1  0  0  0  0
 10  7  1  0  0  0  0
 11  1  1  0  0  0  0
 12 11  2  0  0  0  0
 13  7  2  0  0  0  0
 14  4  1  0  0  0  0
 15  5  1  0  0  0  0
 16  9  1  0  0  0  0
 17  8  1  0  0  0  0
 18 11  1  0  0  0  0
 19 12  1  0  0  0  0
 19 21  2  0  0  0  0
 20 18  2  0  0  0  0
 21 20  1  0  0  0  0
M  END
>  <idnumber>
T5986075

>  <LogP>
9.560000000000002e-001

>  <rotating_bonds>
2.000000000000000e+000

>  <hb_acceptors>
2.000000000000000e+000

>  <hb_donors>
1.000000000000000e+000

>  <PSA>
5.184999999999996e+001

>  <clusterid>
-1614

>  <is_centroid>
@

>  <class1>
631

>  <class2>
748

>  <population1>
41612

>  <population2>
15713

>  <population>
273

>  <cansmi>
Cc1nn(c(c1NC(=O)c1cn(c2c1cccc2)C)C)C

>  <HBA2>
5

>  <HBD>
1

>  <logP>
2.8539

>  <TPSA>
51.85

>  <MW>
282.34

$$$$

 OpenBabel02121609142D

 10 11  0  0  0  0  0  0  0  0999 V2000
    0.1542   -0.4750    0.0000 C   0  0  0  0  0  0  0  0  0  0  0  0
   -0.1583    0.4833    0.0000 C   0  0  0  0  0  0  0  0  0  0  0  0
    1.1042   -0.7792    0.0000 N   0  0  0  0  0  0  0  0  0  0  0  0
   -1.1083    0.7875    0.0000 S   0  0  0  0  0  0  0  0  0  0  0  0
   -0.4333   -1.2792    0.0000 N   0  0  0  0  0  0  0  0  0  0  0  0
    0.4292    1.2875    0.0000 C   0  0  0  0  0  0  0  0  0  0  0  0
   -1.1083    1.7875    0.0000 C   0  0  0  0  0  0  0  0  0  0  0  0
   -0.1583    2.0958    0.0000 C   0  0  0  0  0  0  0  0  0  0  0  0
    1.1042   -1.7792    0.0000 C   0  0  0  0  0  0  0  0  0  0  0  0
    0.1542   -2.0917    0.0000 C   0  0  0  0  0  0  0  0  0  0  0  0
  2  1  1  0  0  0  0
  3  1  2  0  0  0  0
  4  2  1  0  0  0  0
  5  1  1  0  0  0  0
  6  2  2  0  0  0  0
  7  4  1  0  0  0  0
  8  6  1  0  0  0  0
  8  7  2  0  0  0  0
  9  3  1  0  0  0  0
 10  5  1  0  0  0  0
 10  9  1  0  0  0  0
M  END
>  <idnumber>
T5988954

>  <LogP>
2.289000000000000e+000

>  <rotating_bonds>
1.000000000000000e+000

>  <hb_acceptors>
3.000000000000000e+000

>  <hb_donors>
1.000000000000000e+000

>  <PSA>
5.263000000000000e+001

>  <clusterid>
-1615

>  <is_centroid>
@

>  <class1>
787

>  <class2>
645

>  <population1>
1009

>  <population2>
105961

>  <population>
99

>  <cansmi>
C1CN=C(N1)c1cccs1

>  <HBA2>
3

>  <HBD>
1

>  <logP>
0.8623

>  <TPSA>
52.63

>  <MW>
152.217

$$$$

 OpenBabel02121609142D

 17 19  0  0  0  0  0  0  0  0999 V2000
    1.2292   -0.5000    0.0000 C   0  0  0  0  0  0  0  0  0  0  0  0
    2.9625   -0.5000    0.0000 C   0  0  0  0  0  0  0  0  0  0  0  0
    2.0917   -1.0000    0.0000 N   0  0  0  0  0  0  0  0  0  0  0  0
    3.9625   -0.5000    0.0000 C   0  0  0  0  0  0  0  0  0  0  0  0
    3.4625    0.3708    0.0000 C   0  0  0  0  0  0  0  0  0  0  0  0
   -2.2333   -0.5000    0.0000 C   0  0  0  0  0  0  0  0  0  0  0  0
   -1.3708   -1.0000    0.0000 C   0  0  0  0  0  0  0  0  0  0  0  0
    1.2292    0.5000    0.0000 O   0  0  0  0  0  0  0  0  0  0  0  0
   -0.5000   -0.5000    0.0000 C   0  0  0  0  0  0  0  0  0  0  0  0
    0.3625   -1.0000    0.0000 C   0  0  0  0  0  0  0  0  0  0  0  0
   -2.2333    0.5000    0.0000 C   0  0  0  0  0  0  0  0  0  0  0  0
   -1.3708    1.0000    0.0000 C   0  0  0  0  0  0  0  0  0  0  0  0
   -0.5000    0.5000    0.0000 C   0  0  0  0  0  0  0  0  0  0  0  0
   -3.1000   -1.0000    0.0000 C   0  0  0  0  0  0  0  0  0  0  0  0
   -3.1000    1.0000    0.0000 C   0  0  0  0  0  0  0  0  0  0  0  0
   -3.9708   -0.5000    0.0000 C   0  0  0  0  0  0  0  0  0  0  0  0
   -3.9708    0.5000    0.0000 C   0  0  0  0  0  0  0  0  0  0  0  0
  2  3  1  0  0  0  0
  3  1  1  0  0  0  0
  4  2  1  0  0  0  0
  4  5  1  0  0  0  0
  5  2  1  0  0  0  0
  6  7  1  0  0  0  0
  6 11  2  0  0  0  0
  7  9  2  0  0  0  0
  8  1  2  0  0  0  0
  9 10  1  0  0  0  0
 10  1  1  0  0  0  0
 11 12  1  0  0  0  0
 12 13  2  0  0  0  0
 13  9  1  0  0  0  0
 14  6  1  0  0  0  0
 15 11  1  0  0  0  0
 16 14  2  0  0  0  0
 17 15  2  0  0  0  0
 17 16  1  0  0  0  0
M  END
>  <idnumber>
T5989755

>  <LogP>
2.218000000000000e+000

>  <rotating_bonds>
3.000000000000000e+000

>  <hb_acceptors>
1.000000000000000e+000

>  <hb_donors>
1.000000000000000e+000

>  <PSA>
2.910000000000000e+001

>  <clusterid>
-1619

>  <is_centroid>
@

>  <class1>
675

>  <class2>
796

>  <population1>
33654

>  <population2>
21922

>  <population>
392

>  <cansmi>
O=C(Cc1ccc2c(c1)cccc2)NC1CC1

>  <HBA2>
2

>  <HBD>
1

>  <logP>
3.0518

>  <TPSA>
29.1

>  <MW>
225.286

$$$$

 OpenBabel02121609142D

 19 21  0  0  0  0  0  0  0  0999 V2000
    0.7875    0.8583    0.0000 N   0  0  0  0  0  0  0  0  0  0  0  0
    0.4792   -0.0917    0.0000 C   0  0  0  0  0  0  0  0  0  0  0  0
    1.1500   -0.8375    0.0000 C   0  0  0  0  0  0  0  0  0  0  0  0
    0.2000    1.6708    0.0000 C   0  0  3  0  0  0  0  0  0  0  0  0
    2.1250   -0.6292    0.0000 N   0  0  0  0  0  0  0  0  0  0  0  0
   -0.5000   -0.3000    0.0000 O   0  0  0  0  0  0  0  0  0  0  0  0
    1.5042   -2.5292    0.0000 N   0  0  0  0  0  0  0  0  0  0  0  0
   -0.8000    1.6708    0.0000 C   0  0  0  0  0  0  0  0  0  0  0  0
    1.7375    1.1708    0.0000 C   0  0  0  0  0  0  0  0  0  0  0  0
    0.8375   -1.7875    0.0000 C   0  0  0  0  0  0  0  0  0  0  0  0
    0.7875    2.4750    0.0000 C   0  0  0  0  0  0  0  0  0  0  0  0
    1.7375    2.1708    0.0000 C   0  0  0  0  0  0  0  0  0  0  0  0
    2.7917   -1.3667    0.0000 C   0  0  0  0  0  0  0  0  0  0  0  0
    2.4875   -2.3167    0.0000 C   0  0  0  0  0  0  0  0  0  0  0  0
   -1.3000    2.5333    0.0000 C   0  0  0  0  0  0  0  0  0  0  0  0
   -1.3000    0.8000    0.0000 C   0  0  0  0  0  0  0  0  0  0  0  0
   -2.3000    0.8000    0.0000 C   0  0  0  0  0  0  0  0  0  0  0  0
   -2.3000    2.5333    0.0000 C   0  0  0  0  0  0  0  0  0  0  0  0
   -2.8000    1.6708    0.0000 C   0  0  0  0  0  0  0  0  0  0  0  0
  2  1  1  0  0  0  0
  3  2  1  0  0  0  0
  4  1  1  0  0  0  0
  5  3  2  0  0  0  0
  6  2  2  0  0  0  0
  7 10  2  0  0  0  0
  8  4  1  0  0  0  0
  9  1  1  0  0  0  0
 10  3  1  0  0  0  0
 11  4  1  0  0  0  0
 12  9  1  0  0  0  0
 12 11  1  0  0  0  0
 13  5  1  0  0  0  0
 13 14  2  0  0  0  0
 14  7  1  0  0  0  0
 15  8  1  0  0  0  0
 16  8  2  0  0  0  0
 17 16  1  0  0  0  0
 18 15  2  0  0  0  0
 18 19  1  0  0  0  0
 19 17  2  0  0  0  0
M  END
>  <idnumber>
T5992856

>  <LogP>
1.363000000000000e+000

>  <rotating_bonds>
2.000000000000000e+000

>  <hb_acceptors>
3.000000000000000e+000

>  <hb_donors>
0.000000000000000e+000

>  <PSA>
4.609000000000000e+001

>  <clusterid>
264

>  <is_centroid>
@

>  <class1>
815

>  <class2>
642

>  <class3>
625

>  <population1>
7310

>  <population2>
51183

>  <population3>
877209

>  <population>
186

>  <cansmi>
O=C(N1CCCC1c1ccccc1)c1cnccn1

>  <HBA2>
4

>  <HBD>
0

>  <logP>
2.3918

>  <TPSA>
46.09

>  <MW>
253.299

$$$$

 OpenBabel02121609142D

 21 23  0  0  0  0  0  0  0  0999 V2000
   -2.6000   -0.7667    0.0000 N   0  0  0  0  0  0  0  0  0  0  0  0
   -1.7333   -0.2667    0.0000 C   0  0  0  0  0  0  0  0  0  0  0  0
   -2.7083   -1.7625    0.0000 C   0  0  0  0  0  0  0  0  0  0  0  0
    1.7292    0.7333    0.0000 C   0  0  0  0  0  0  0  0  0  0  0  0
   -0.8708   -0.7667    0.0000 C   0  0  0  0  0  0  0  0  0  0  0  0
    0.8625    1.2333    0.0000 N   0  0  0  0  0  0  0  0  0  0  0  0
   -1.7333    0.7333    0.0000 C   0  0  0  0  0  0  0  0  0  0  0  0
    0.0000    0.7333    0.0000 C   0  0  0  0  0  0  0  0  0  0  0  0
    0.0000   -0.2667    0.0000 C   0  0  0  0  0  0  0  0  0  0  0  0
    2.5917    1.2333    0.0000 C   0  0  3  0  0  0  0  0  0  0  0  0
    1.7292   -0.2667    0.0000 O   0  0  0  0  0  0  0  0  0  0  0  0
   -1.9708   -2.4292    0.0000 O   0  0  0  0  0  0  0  0  0  0  0  0
    2.7000    2.2333    0.0000 O   0  0  0  0  0  0  0  0  0  0  0  0
   -0.8708    1.2333    0.0000 C   0  0  0  0  0  0  0  0  0  0  0  0
   -3.5125   -0.3625    0.0000 C   0  0  0  0  0  0  0  0  0  0  0  0
   -3.6833   -1.9667    0.0000 C   0  0  0  0  0  0  0  0  0  0  0  0
   -0.8708   -1.7667    0.0000 C   0  0  0  0  0  0  0  0  0  0  0  0
   -4.1833   -1.1042    0.0000 C   0  0  0  0  0  0  0  0  0  0  0  0
    3.6792    2.4333    0.0000 C   0  0  0  0  0  0  0  0  0  0  0  0
    3.5042    0.8250    0.0000 C   0  0  0  0  0  0  0  0  0  0  0  0
    4.1792    1.5708    0.0000 C   0  0  0  0  0  0  0  0  0  0  0  0
  2  1  1  0  0  0  0
  3  1  1  0  0  0  0
  4  6  1  0  0  0  0
  5  2  2  0  0  0  0
  6  8  1  0  0  0  0
  7  2  1  0  0  0  0
  8 14  1  0  0  0  0
  9  5  1  0  0  0  0
  9  8  2  0  0  0  0
 10  4  1  0  0  0  0
 11  4  2  0  0  0  0
 12  3  2  0  0  0  0
 13 10  1  0  0  0  0
 14  7  2  0  0  0  0
 15  1  1  0  0  0  0
 16  3  1  0  0  0  0
 17  5  1  0  0  0  0
 18 15  1  0  0  0  0
 18 16  1  0  0  0  0
 19 13  1  0  0  0  0
 20 10  1  0  0  0  0
 21 20  1  0  0  0  0
 21 19  1  0  0  0  0
M  END
>  <idnumber>
T5995756

>  <LogP>
1.466000000000000e+000

>  <rotating_bonds>
3.000000000000000e+000

>  <hb_acceptors>
3.000000000000000e+000

>  <hb_donors>
1.000000000000000e+000

>  <PSA>
5.863999999999997e+001

>  <clusterid>
-1625

>  <is_centroid>
@

>  <class1>
673

>  <class2>
625

>  <class3>
723

>  <population1>
18691

>  <population2>
877209

>  <population3>
9592

>  <population>
122

>  <cansmi>
O=C(C1CCCO1)Nc1ccc(c(c1)C)N1CCCC1=O

>  <HBA2>
5

>  <HBD>
1

>  <logP>
2.3773

>  <TPSA>
58.64

>  <MW>
288.342

$$$$

 OpenBabel02121609142D

 17 19  0  0  0  0  0  0  0  0999 V2000
   -1.6583    0.0083    0.0000 N   0  0  0  0  0  0  0  0  0  0  0  0
   -1.6583    1.0000    0.0000 C   0  0  0  0  0  0  0  0  0  0  0  0
   -0.7958   -0.5000    0.0000 C   0  0  0  0  0  0  0  0  0  0  0  0
   -0.7958    1.5000    0.0000 N   0  0  0  0  0  0  0  0  0  0  0  0
    0.0667    0.0083    0.0000 C   0  0  0  0  0  0  0  0  0  0  0  0
    0.0667    1.0000    0.0000 C   0  0  0  0  0  0  0  0  0  0  0  0
    3.3875    0.6708    0.0000 N   0  0  0  0  0  0  0  0  0  0  0  0
    1.8042    1.0000    0.0000 N   0  0  0  0  0  0  0  0  0  0  0  0
    2.7167    1.4083    0.0000 C   0  0  0  0  0  0  0  0  0  0  0  0
   -2.5250   -0.5000    0.0000 C   0  0  0  0  0  0  0  0  0  0  0  0
   -2.5250    1.5000    0.0000 C   0  0  0  0  0  0  0  0  0  0  0  0
   -0.7958   -1.5000    0.0000 O   0  0  0  0  0  0  0  0  0  0  0  0
    0.9375    1.5000    0.0000 C   0  0  0  0  0  0  0  0  0  0  0  0
    2.8875   -0.2000    0.0000 C   0  0  0  0  0  0  0  0  0  0  0  0
    1.9042    0.0083    0.0000 C   0  0  0  0  0  0  0  0  0  0  0  0
   -3.3958    0.0083    0.0000 C   0  0  0  0  0  0  0  0  0  0  0  0
   -3.3958    1.0000    0.0000 C   0  0  0  0  0  0  0  0  0  0  0  0
  2  1  1  0  0  0  0
  3  1  1  0  0  0  0
  4  2  2  0  0  0  0
  4  6  1  0  0  0  0
  5  3  1  0  0  0  0
  6  5  2  0  0  0  0
  7  9  2  0  0  0  0
  8 13  1  0  0  0  0
  9  8  1  0  0  0  0
 10  1  1  0  0  0  0
 11  2  1  0  0  0  0
 11 17  2  0  0  0  0
 12  3  2  0  0  0  0
 13  6  1  0  0  0  0
 14 15  2  0  0  0  0
 14  7  1  0  0  0  0
 15  8  1  0  0  0  0
 16 10  2  0  0  0  0
 17 16  1  0  0  0  0
M  END
>  <idnumber>
T5999959

>  <LogP>
-6.789999999999999e-001

>  <rotating_bonds>
2.000000000000000e+000

>  <hb_acceptors>
3.000000000000000e+000

>  <hb_donors>
0.000000000000000e+000

>  <PSA>
5.049000000000000e+001

>  <clusterid>
-1630

>  <is_centroid>
@

>  <class1>
686

>  <class2>
806

>  <population1>
31113

>  <population2>
5354

>  <population>
69

>  <cansmi>
O=c1cc(Cn2cncc2)nc2n1cccc2

>  <HBA2>
5

>  <HBD>
0

>  <logP>
0.9393

>  <TPSA>
52.19

>  <MW>
226.234

$$$$

 OpenBabel02121609142D

 15 17  0  0  0  0  0  0  0  0999 V2000
    0.1792    0.2500    0.0000 N   0  0  0  0  0  0  0  0  0  0  0  0
    1.7167    0.7500    0.0000 N   0  0  0  0  0  0  0  0  0  0  0  0
    1.1292   -0.0542    0.0000 C   0  0  0  0  0  0  0  0  0  0  0  0
    1.1292    1.5625    0.0000 N   0  0  0  0  0  0  0  0  0  0  0  0
    0.1792    1.2500    0.0000 C   0  0  0  0  0  0  0  0  0  0  0  0
   -0.6875   -0.2500    0.0000 C   0  0  0  0  0  0  0  0  0  0  0  0
   -1.5583    0.2500    0.0000 C   0  0  0  0  0  0  0  0  0  0  0  0
   -0.6875    1.7500    0.0000 C   0  0  0  0  0  0  0  0  0  0  0  0
   -1.5583    1.2500    0.0000 C   0  0  0  0  0  0  0  0  0  0  0  0
    1.4375   -1.0042    0.0000 C   0  0  0  0  0  0  0  0  0  0  0  0
    2.4167   -1.2167    0.0000 N   0  0  0  0  0  0  0  0  0  0  0  0
   -0.6875   -1.2500    0.0000 C   0  0  0  0  0  0  0  0  0  0  0  0
   -2.4208   -0.2500    0.0000 C   0  0  0  0  0  0  0  0  0  0  0  0
   -1.5583   -1.7500    0.0000 C   0  0  0  0  0  0  0  0  0  0  0  0
   -2.4208   -1.2500    0.0000 C   0  0  0  0  0  0  0  0  0  0  0  0
  2  3  2  0  0  0  0
  2  4  1  0  0  0  0
  3  1  1  0  0  0  0
  4  5  2  0  0  0  0
  5  1  1  0  0  0  0
  6  1  1  0  0  0  0
  7  6  2  0  0  0  0
  8  5  1  0  0  0  0
  8  9  1  0  0  0  0
  9  7  1  0  0  0  0
 10  3  1  0  0  0  0
 11 10  1  0  0  0  0
 12  6  1  0  0  0  0
 13  7  1  0  0  0  0
 13 15  2  0  0  0  0
 14 12  2  0  0  0  0
 15 14  1  0  0  0  0
M  END
>  <idnumber>
T6000173

>  <LogP>
-1.760000000000000e-001

>  <rotating_bonds>
1.000000000000000e+000

>  <hb_acceptors>
3.000000000000000e+000

>  <hb_donors>
1.000000000000000e+000

>  <PSA>
5.673000000000000e+001

>  <clusterid>
-1634

>  <is_centroid>
@

>  <class1>
788

>  <population1>
16

>  <population>
16

>  <cansmi>
NCc1nnc2n1c1ccccc1CC2

>  <HBA2>
4

>  <HBD>
1

>  <logP>
1.5249

>  <TPSA>
56.73

>  <MW>
200.24

$$$$

 OpenBabel02121609142D

 13 14  0  0  0  0  0  0  0  0999 V2000
   -0.8500   -1.0417    0.0000 N   0  0  0  0  0  0  0  0  0  0  0  0
   -0.8500   -0.0417    0.0000 C   0  0  0  0  0  0  0  0  0  0  0  0
   -1.8000   -1.3542    0.0000 C   0  0  0  0  0  0  0  0  0  0  0  0
   -1.8000    0.2708    0.0000 C   0  0  0  0  0  0  0  0  0  0  0  0
   -2.3875   -0.5417    0.0000 O   0  0  0  0  0  0  0  0  0  0  0  0
   -0.0458    0.5458    0.0000 C   0  0  0  0  0  0  0  0  0  0  0  0
    0.8667    0.1375    0.0000 C   0  0  0  0  0  0  0  0  0  0  0  0
   -0.1458    1.5375    0.0000 C   0  0  0  0  0  0  0  0  0  0  0  0
    1.5750    1.7208    0.0000 C   0  0  0  0  0  0  0  0  0  0  0  0
    2.3792    2.3083    0.0000 N   0  0  0  0  0  0  0  0  0  0  0  0
    0.6625    2.1250    0.0000 C   0  0  0  0  0  0  0  0  0  0  0  0
    1.6792    0.7250    0.0000 C   0  0  0  0  0  0  0  0  0  0  0  0
   -2.1125   -2.3042    0.0000 C   0  0  0  0  0  0  0  0  0  0  0  0
  2  1  1  0  0  0  0
  3  1  2  0  0  0  0
  4  2  2  0  0  0  0
  4  5  1  0  0  0  0
  5  3  1  0  0  0  0
  6  2  1  0  0  0  0
  7  6  1  0  0  0  0
  8  6  2  0  0  0  0
  9 11  2  0  0  0  0
 10  9  1  0  0  0  0
 11  8  1  0  0  0  0
 12  7  2  0  0  0  0
 12  9  1  0  0  0  0
 13  3  1  0  0  0  0
M  END
>  <idnumber>
T6000184

>  <LogP>
1.141000000000000e+000

>  <rotating_bonds>
1.000000000000000e+000

>  <hb_acceptors>
2.000000000000000e+000

>  <hb_donors>
1.000000000000000e+000

>  <PSA>
5.205000000000000e+001

>  <clusterid>
-1635

>  <is_centroid>
@

>  <class1>
789

>  <class2>
625

>  <population1>
4296

>  <population2>
877209

>  <population>
4081

>  <cansmi>
Nc1ccc(cc1)c1coc(n1)C

>  <HBA2>
3

>  <HBD>
1

>  <logP>
2.8134

>  <TPSA>
52.05

>  <MW>
174.199

$$$$

 OpenBabel02121609142D

 19 21  0  0  0  0  0  0  0  0999 V2000
   -0.4333    0.5000    0.0000 N   0  0  0  0  0  0  0  0  0  0  0  0
   -0.4333   -0.5000    0.0000 C   0  0  0  0  0  0  0  0  0  0  0  0
   -1.3000    1.0000    0.0000 C   0  0  0  0  0  0  0  0  0  0  0  0
    0.4292   -1.0000    0.0000 C   0  0  0  0  0  0  0  0  0  0  0  0
   -1.3000    2.0000    0.0000 C   0  0  0  0  0  0  0  0  0  0  0  0
   -1.3000   -1.0000    0.0000 O   0  0  0  0  0  0  0  0  0  0  0  0
   -2.1708    2.5000    0.0000 N   0  0  0  0  0  0  0  0  0  0  0  0
    1.2917   -0.5000    0.0000 C   0  0  0  0  0  0  0  0  0  0  0  0
    0.4292   -2.0000    0.0000 C   0  0  0  0  0  0  0  0  0  0  0  0
    0.4292    1.0000    0.0000 C   0  0  0  0  0  0  0  0  0  0  0  0
    2.1625   -2.0000    0.0000 C   0  0  0  0  0  0  0  0  0  0  0  0
    1.2917   -2.5000    0.0000 C   0  0  0  0  0  0  0  0  0  0  0  0
    2.1625   -1.0000    0.0000 C   0  0  0  0  0  0  0  0  0  0  0  0
    3.0292   -2.5000    0.0000 F   0  0  0  0  0  0  0  0  0  0  0  0
   -2.1708    0.5000    0.0000 C   0  0  0  0  0  0  0  0  0  0  0  0
    0.4292    2.0000    0.0000 C   0  0  0  0  0  0  0  0  0  0  0  0
   -0.4333    2.5000    0.0000 C   0  0  0  0  0  0  0  0  0  0  0  0
   -3.0333    2.0000    0.0000 C   0  0  0  0  0  0  0  0  0  0  0  0
   -3.0333    1.0000    0.0000 C   0  0  0  0  0  0  0  0  0  0  0  0
  2  1  1  0  0  0  0
  3  1  1  0  0  0  0
  4  2  1  0  0  0  0
  5  3  2  0  0  0  0
  5 17  1  0  0  0  0
  6  2  2  0  0  0  0
  7  5  1  0  0  0  0
  7 18  2  0  0  0  0
  8  4  1  0  0  0  0
  9  4  2  0  0  0  0
 10  1  1  0  0  0  0
 11 12  2  0  0  0  0
 11 13  1  0  0  0  0
 12  9  1  0  0  0  0
 13  8  2  0  0  0  0
 14 11  1  0  0  0  0
 15  3  1  0  0  0  0
 16 10  1  0  0  0  0
 17 16  1  0  0  0  0
 18 19  1  0  0  0  0
 19 15  2  0  0  0  0
M  END
>  <idnumber>
T6000628

>  <LogP>
2.162000000000000e+000

>  <rotating_bonds>
1.000000000000000e+000

>  <hb_acceptors>
3.000000000000000e+000

>  <hb_donors>
0.000000000000000e+000

>  <PSA>
3.320000000000000e+001

>  <clusterid>
-1637

>  <is_centroid>
@

>  <class1>
625

>  <class2>
778

>  <population1>
877209

>  <population2>
19

>  <population>
18

>  <cansmi>
Fc1ccc(cc1)C(=O)N1CCCc2c1cccn2

>  <HBA2>
3

>  <HBD>
0

>  <logP>
2.8787

>  <TPSA>
33.2

>  <MW>
256.275

$$$$

 OpenBabel02121609142D

 22 24  0  0  0  0  0  0  0  0999 V2000
    1.0917   -0.5542    0.0000 N   0  0  0  0  0  0  0  0  0  0  0  0
    1.0917    0.4458    0.0000 C   0  0  0  0  0  0  0  0  0  0  0  0
    1.9542   -1.0542    0.0000 C   0  0  0  0  0  0  0  0  0  0  0  0
    0.2292    0.9458    0.0000 C   0  0  0  0  0  0  0  0  0  0  0  0
   -1.5083    0.9458    0.0000 C   0  0  0  0  0  0  0  0  0  0  0  0
   -0.6375    0.4458    0.0000 C   0  0  0  0  0  0  0  0  0  0  0  0
   -1.5083    1.9458    0.0000 C   0  0  0  0  0  0  0  0  0  0  0  0
   -2.2875    0.3208    0.0000 O   0  0  0  0  0  0  0  0  0  0  0  0
    1.9542    0.9458    0.0000 O   0  0  0  0  0  0  0  0  0  0  0  0
   -2.2875    2.5625    0.0000 O   0  0  0  0  0  0  0  0  0  0  0  0
    1.9542   -2.0542    0.0000 C   0  0  0  0  0  0  0  0  0  0  0  0
    2.8250   -0.5542    0.0000 C   0  0  0  0  0  0  0  0  0  0  0  0
    0.2292    1.9458    0.0000 C   0  0  0  0  0  0  0  0  0  0  0  0
   -0.6375    2.4458    0.0000 C   0  0  0  0  0  0  0  0  0  0  0  0
   -3.6958    1.4458    0.0000 C   0  0  0  0  0  0  0  0  0  0  0  0
   -3.2625    0.5375    0.0000 C   0  0  0  0  0  0  0  0  0  0  0  0
   -3.2625    2.3458    0.0000 C   0  0  0  0  0  0  0  0  0  0  0  0
    3.6917   -2.0542    0.0000 C   0  0  0  0  0  0  0  0  0  0  0  0
    2.8250   -2.5542    0.0000 C   0  0  0  0  0  0  0  0  0  0  0  0
    3.6917   -1.0542    0.0000 C   0  0  0  0  0  0  0  0  0  0  0  0
    2.8250    0.4458    0.0000 C   0  0  0  0  0  0  0  0  0  0  0  0
    1.0917   -2.5542    0.0000 C   0  0  0  0  0  0  0  0  0  0  0  0
  2  1  1  0  0  0  0
  3  1  1  0  0  0  0
  4  2  1  0  0  0  0
  5  6  1  0  0  0  0
  5  7  2  0  0  0  0
  6  4  2  0  0  0  0
  7 14  1  0  0  0  0
  8  5  1  0  0  0  0
  9  2  2  0  0  0  0
 10  7  1  0  0  0  0
 11  3  2  0  0  0  0
 12  3  1  0  0  0  0
 13  4  1  0  0  0  0
 14 13  2  0  0  0  0
 15 16  1  0  0  0  0
 16  8  1  0  0  0  0
 17 10  1  0  0  0  0
 17 15  1  0  0  0  0
 18 20  1  0  0  0  0
 19 11  1  0  0  0  0
 19 18  2  0  0  0  0
 20 12  2  0  0  0  0
 21 12  1  0  0  0  0
 22 11  1  0  0  0  0
M  END
>  <idnumber>
T6000669

>  <LogP>
2.652000000000000e+000

>  <rotating_bonds>
2.000000000000000e+000

>  <hb_acceptors>
3.000000000000000e+000

>  <hb_donors>
1.000000000000000e+000

>  <PSA>
4.756000000000000e+001

>  <clusterid>
787

>  <is_centroid>
@

>  <class1>
625

>  <class2>
820

>  <population1>
877209

>  <population2>
6542

>  <population>
6542

>  <cansmi>
O=C(c1ccc2c(c1)OCCCO2)Nc1c(C)cccc1C

>  <HBA2>
4

>  <HBD>
1

>  <logP>
3.79

>  <TPSA>
47.56

>  <MW>
297.348

$$$$

 OpenBabel02121609142D

 15 17  0  0  0  0  0  0  0  0999 V2000
   -0.5083    1.4083    0.0000 N   0  0  0  0  0  0  0  0  0  0  0  0
    0.4417    1.0958    0.0000 C   0  0  0  0  0  0  0  0  0  0  0  0
    1.0292    1.9083    0.0000 N   0  0  0  0  0  0  0  0  0  0  0  0
    0.4417    2.7125    0.0000 N   0  0  0  0  0  0  0  0  0  0  0  0
   -0.5083    2.4083    0.0000 C   0  0  0  0  0  0  0  0  0  0  0  0
    0.7542    0.1458    0.0000 C   0  0  0  0  0  0  0  0  0  0  0  0
    0.0792   -0.6000    0.0000 C   0  0  0  0  0  0  0  0  0  0  0  0
    1.7292   -0.0625    0.0000 C   0  0  0  0  0  0  0  0  0  0  0  0
   -1.4583    1.0958    0.0000 C   0  0  0  0  0  0  0  0  0  0  0  0
    1.3667   -1.7542    0.0000 C   0  0  0  0  0  0  0  0  0  0  0  0
    1.6792   -2.7042    0.0000 N   0  0  0  0  0  0  0  0  0  0  0  0
    2.0417   -1.0167    0.0000 C   0  0  0  0  0  0  0  0  0  0  0  0
    0.3917   -1.5500    0.0000 C   0  0  0  0  0  0  0  0  0  0  0  0
   -1.4583    2.7125    0.0000 C   0  0  0  0  0  0  0  0  0  0  0  0
   -2.0458    1.9083    0.0000 C   0  0  0  0  0  0  0  0  0  0  0  0
  2  1  1  0  0  0  0
  3  2  2  0  0  0  0
  3  4  1  0  0  0  0
  4  5  2  0  0  0  0
  5  1  1  0  0  0  0
  6  2  1  0  0  0  0
  7  6  2  0  0  0  0
  8  6  1  0  0  0  0
  9  1  1  0  0  0  0
 10 12  1  0  0  0  0
 11 10  1  0  0  0  0
 12  8  2  0  0  0  0
 13  7  1  0  0  0  0
 13 10  2  0  0  0  0
 14  5  1  0  0  0  0
 14 15  1  0  0  0  0
 15  9  1  0  0  0  0
M  END
>  <idnumber>
T6000691

>  <LogP>
1.950000000000000e-001

>  <rotating_bonds>
1.000000000000000e+000

>  <hb_acceptors>
3.000000000000000e+000

>  <hb_donors>
1.000000000000000e+000

>  <PSA>
5.673000000000000e+001

>  <clusterid>
788

>  <is_centroid>
@

>  <class1>
784

>  <class2>
625

>  <population1>
235

>  <population2>
877209

>  <population>
213

>  <cansmi>
Nc1ccc(cc1)c1nnc2n1CCC2

>  <HBA2>
4

>  <HBD>
1

>  <logP>
2.0547

>  <TPSA>
56.73

>  <MW>
200.24

$$$$

 OpenBabel02121609142D

 15 16  0  0  0  0  0  0  0  0999 V2000
    0.0000   -0.5792    0.0000 N   0  0  0  0  0  0  0  0  0  0  0  0
   -0.9500   -0.8917    0.0000 C   0  0  0  0  0  0  0  0  0  0  0  0
    0.0000    0.4208    0.0000 C   0  0  0  0  0  0  0  0  0  0  0  0
   -0.9500    0.7333    0.0000 O   0  0  0  0  0  0  0  0  0  0  0  0
   -1.5375   -0.0792    0.0000 C   0  0  0  0  0  0  0  0  0  0  0  0
   -1.2583   -1.8417    0.0000 C   0  0  0  0  0  0  0  0  0  0  0  0
   -2.5375   -0.0792    0.0000 O   0  0  0  0  0  0  0  0  0  0  0  0
    0.8125    1.0083    0.0000 C   0  0  0  0  0  0  0  0  0  0  0  0
   -2.2375   -2.0500    0.0000 C   0  0  0  0  0  0  0  0  0  0  0  0
   -0.5875   -2.5792    0.0000 C   0  0  0  0  0  0  0  0  0  0  0  0
    0.7042    2.0000    0.0000 C   0  0  0  0  0  0  0  0  0  0  0  0
    1.7250    0.6000    0.0000 C   0  0  0  0  0  0  0  0  0  0  0  0
    2.5292    1.1875    0.0000 C   0  0  0  0  0  0  0  0  0  0  0  0
    1.5167    2.5875    0.0000 C   0  0  0  0  0  0  0  0  0  0  0  0
    2.4292    2.1833    0.0000 C   0  0  0  0  0  0  0  0  0  0  0  0
  2  1  1  0  0  0  0
  3  1  2  0  0  0  0
  4  3  1  0  0  0  0
  4  5  1  0  0  0  0
  5  2  1  0  0  0  0
  6  2  2  0  0  0  0
  7  5  2  0  0  0  0
  8  3  1  0  0  0  0
  9  6  1  0  0  0  0
 10  6  1  0  0  0  0
 11  8  2  0  0  0  0
 12  8  1  0  0  0  0
 13 12  2  0  0  0  0
 14 11  1  0  0  0  0
 14 15  2  0  0  0  0
 15 13  1  0  0  0  0
M  END
>  <idnumber>
T6000707

>  <LogP>
2.827000000000000e+000

>  <rotating_bonds>
1.000000000000000e+000

>  <hb_acceptors>
2.000000000000000e+000

>  <hb_donors>
0.000000000000000e+000

>  <PSA>
3.866000000000000e+001

>  <clusterid>
-1638

>  <is_centroid>
@

>  <class1>
667

>  <class2>
625

>  <population1>
1879

>  <population2>
877209

>  <population>
1841

>  <cansmi>
CC(=C1N=C(OC1=O)c1ccccc1)C

>  <HBA2>
3

>  <HBD>
0

>  <logP>
1.7195

>  <TPSA>
38.66

>  <MW>
201.221

$$$$

 OpenBabel02121609142D

 22 24  0  0  0  0  0  0  0  0999 V2000
    1.2167   -0.1292    0.0000 N   0  0  0  0  0  0  0  0  0  0  0  0
    1.0000   -1.1042    0.0000 C   0  0  0  0  0  0  0  0  0  0  0  0
    2.1917    0.0958    0.0000 C   0  0  3  0  0  0  0  0  0  0  0  0
    1.2167    2.1208    0.0000 N   0  0  0  0  0  0  0  0  0  0  0  0
    0.4375    0.4958    0.0000 C   0  0  0  0  0  0  0  0  0  0  0  0
    2.1917    1.8958    0.0000 C   0  0  0  0  0  0  0  0  0  0  0  0
    2.6292    0.9958    0.0000 C   0  0  0  0  0  0  0  0  0  0  0  0
    0.4375    1.4958    0.0000 C   0  0  0  0  0  0  0  0  0  0  0  0
    0.0417   -1.4000    0.0000 C   0  0  0  0  0  0  0  0  0  0  0  0
    1.7292   -1.7875    0.0000 O   0  0  0  0  0  0  0  0  0  0  0  0
    2.8167    2.6750    0.0000 O   0  0  0  0  0  0  0  0  0  0  0  0
   -0.6958   -0.7167    0.0000 C   0  0  0  0  0  0  0  0  0  0  0  0
   -0.1833   -2.3750    0.0000 C   0  0  0  0  0  0  0  0  0  0  0  0
   -1.1333   -2.6667    0.0000 C   0  0  0  0  0  0  0  0  0  0  0  0
   -1.6458   -1.0167    0.0000 C   0  0  0  0  0  0  0  0  0  0  0  0
   -1.8708   -1.9917    0.0000 C   0  0  0  0  0  0  0  0  0  0  0  0
    2.8167   -0.6917    0.0000 C   0  0  0  0  0  0  0  0  0  0  0  0
   -0.4250   -0.0042    0.0000 C   0  0  0  0  0  0  0  0  0  0  0  0
   -0.4250    1.9958    0.0000 C   0  0  0  0  0  0  0  0  0  0  0  0
   -2.8250   -2.2792    0.0000 C   0  0  0  0  0  0  0  0  0  0  0  0
   -1.2958    0.4958    0.0000 C   0  0  0  0  0  0  0  0  0  0  0  0
   -1.2958    1.4958    0.0000 C   0  0  0  0  0  0  0  0  0  0  0  0
  2  1  1  0  0  0  0
  3  1  1  0  0  0  0
  4  8  1  0  0  0  0
  5  1  1  0  0  0  0
  6  7  1  0  0  0  0
  6  4  1  0  0  0  0
  7  3  1  0  0  0  0
  8  5  2  0  0  0  0
  9  2  1  0  0  0  0
 10  2  2  0  0  0  0
 11  6  2  0  0  0  0
 12  9  1  0  0  0  0
 13  9  2  0  0  0  0
 14 13  1  0  0  0  0
 15 12  2  0  0  0  0
 15 16  1  0  0  0  0
 16 14  2  0  0  0  0
 17  3  1  0  0  0  0
 18  5  1  0  0  0  0
 19  8  1  0  0  0  0
 19 22  2  0  0  0  0
 20 16  1  0  0  0  0
 21 18  2  0  0  0  0
 22 21  1  0  0  0  0
M  END
>  <idnumber>
T6005751

>  <LogP>
2.589000000000000e+000

>  <rotating_bonds>
1.000000000000000e+000

>  <hb_acceptors>
2.000000000000000e+000

>  <hb_donors>
1.000000000000000e+000

>  <PSA>
4.941000000000003e+001

>  <clusterid>
-1640

>  <is_centroid>
@

>  <class1>
625

>  <class2>
654

>  <population1>
877209

>  <population2>
887

>  <population>
887

>  <cansmi>
O=C1CC(C)N(c2c(N1)cccc2)C(=O)c1ccc(cc1)C

>  <HBA2>
4

>  <HBD>
1

>  <logP>
3.5755

>  <TPSA>
49.41

>  <MW>
294.348

$$$$

 OpenBabel02121609142D

 22 24  0  0  0  0  0  0  0  0999 V2000
   -2.0750    1.4083    0.0000 C   0  0  0  0  0  0  0  0  0  0  0  0
   -3.0250    1.0958    0.0000 C   0  0  0  0  0  0  0  0  0  0  0  0
   -1.2625    0.8208    0.0000 C   0  0  0  0  0  0  0  0  0  0  0  0
   -3.0250    2.7125    0.0000 N   0  0  0  0  0  0  0  0  0  0  0  0
   -3.6125    1.9083    0.0000 N   0  0  0  0  0  0  0  0  0  0  0  0
   -2.0750    2.4083    0.0000 C   0  0  0  0  0  0  0  0  0  0  0  0
    2.8875   -1.1292    0.0000 N   0  0  0  0  0  0  0  0  0  0  0  0
   -0.3500    1.2250    0.0000 N   0  0  0  0  0  0  0  0  0  0  0  0
    2.0667   -0.5417    0.0000 C   0  0  0  0  0  0  0  0  0  0  0  0
   -1.3708   -0.1792    0.0000 O   0  0  0  0  0  0  0  0  0  0  0  0
    0.4542    0.6375    0.0000 C   0  0  0  0  0  0  0  0  0  0  0  0
    2.1792    0.4583    0.0000 C   0  0  0  0  0  0  0  0  0  0  0  0
    1.1625   -0.9417    0.0000 C   0  0  0  0  0  0  0  0  0  0  0  0
    1.3667    1.0458    0.0000 C   0  0  0  0  0  0  0  0  0  0  0  0
    0.3542   -0.3542    0.0000 C   0  0  0  0  0  0  0  0  0  0  0  0
   -3.3333    0.1458    0.0000 C   0  0  0  0  0  0  0  0  0  0  0  0
   -4.6125    1.9083    0.0000 C   0  0  0  0  0  0  0  0  0  0  0  0
    2.7792   -2.1167    0.0000 C   0  0  0  0  0  0  0  0  0  0  0  0
    3.8000   -0.7167    0.0000 C   0  0  0  0  0  0  0  0  0  0  0  0
    4.6042   -1.3042    0.0000 C   0  0  0  0  0  0  0  0  0  0  0  0
    3.5917   -2.7042    0.0000 C   0  0  0  0  0  0  0  0  0  0  0  0
    4.5042   -2.3042    0.0000 C   0  0  0  0  0  0  0  0  0  0  0  0
  2  1  2  0  0  0  0
  3  1  1  0  0  0  0
  4  6  2  0  0  0  0
  4  5  1  0  0  0  0
  5  2  1  0  0  0  0
  6  1  1  0  0  0  0
  7  9  1  0  0  0  0
  8  3  1  0  0  0  0
  9 13  1  0  0  0  0
 10  3  2  0  0  0  0
 11  8  1  0  0  0  0
 12 14  1  0  0  0  0
 12  9  2  0  0  0  0
 13 15  2  0  0  0  0
 14 11  2  0  0  0  0
 15 11  1  0  0  0  0
 16  2  1  0  0  0  0
 17  5  1  0  0  0  0
 18  7  1  0  0  0  0
 19  7  1  0  0  0  0
 20 19  1  0  0  0  0
 21 18  1  0  0  0  0
 21 22  1  0  0  0  0
 22 20  1  0  0  0  0
M  END
>  <idnumber>
T6010353

>  <LogP>
2.618000000000000e+000

>  <rotating_bonds>
3.000000000000000e+000

>  <hb_acceptors>
3.000000000000000e+000

>  <hb_donors>
1.000000000000000e+000

>  <PSA>
5.016000000000000e+001

>  <clusterid>
-1641

>  <is_centroid>
@

>  <class1>
631

>  <class2>
639

>  <class3>
625

>  <population1>
41612

>  <population2>
59855

>  <population3>
877209

>  <population>
1579

>  <cansmi>
O=C(c1cnn(c1C)C)Nc1ccc(cc1)N1CCCCC1

>  <HBA2>
5

>  <HBD>
1

>  <logP>
3.1091

>  <TPSA>
50.16

>  <MW>
298.383

$$$$

 OpenBabel02121609142D

 18 20  0  0  0  0  0  0  0  0999 V2000
   -1.2083   -1.1750    0.0000 O   0  0  0  0  0  0  0  0  0  0  0  0
    0.3792   -0.3625    0.0000 C   0  0  0  0  0  0  0  0  0  0  0  0
   -0.6208   -0.3625    0.0000 C   0  0  3  0  0  0  0  0  0  0  0  0
   -2.1583   -0.8625    0.0000 C   0  0  0  0  0  0  0  0  0  0  0  0
    0.8792    0.5000    0.0000 N   0  0  0  0  0  0  0  0  0  0  0  0
   -1.2083    0.4458    0.0000 C   0  0  0  0  0  0  0  0  0  0  0  0
   -2.1583    0.1375    0.0000 C   0  0  0  0  0  0  0  0  0  0  0  0
    0.8792   -1.2292    0.0000 O   0  0  0  0  0  0  0  0  0  0  0  0
    3.3792    1.3708    0.0000 N   0  0  0  0  0  0  0  0  0  0  0  0
    1.8792    0.5000    0.0000 C   0  0  0  0  0  0  0  0  0  0  0  0
    2.3792    1.3708    0.0000 C   0  0  0  0  0  0  0  0  0  0  0  0
   -3.0208   -1.3625    0.0000 C   0  0  0  0  0  0  0  0  0  0  0  0
   -3.0208    0.6375    0.0000 C   0  0  0  0  0  0  0  0  0  0  0  0
    3.8792    0.5000    0.0000 C   0  0  0  0  0  0  0  0  0  0  0  0
    2.3792   -0.3625    0.0000 C   0  0  0  0  0  0  0  0  0  0  0  0
    3.3792   -0.3625    0.0000 C   0  0  0  0  0  0  0  0  0  0  0  0
   -3.8958   -0.8625    0.0000 C   0  0  0  0  0  0  0  0  0  0  0  0
   -3.8958    0.1375    0.0000 C   0  0  0  0  0  0  0  0  0  0  0  0
  2  3  1  0  0  0  0
  3  1  1  0  0  0  0
  4  1  1  0  0  0  0
  5  2  1  0  0  0  0
  6  3  1  0  0  0  0
  6  7  1  0  0  0  0
  7  4  2  0  0  0  0
  8  2  2  0  0  0  0
  9 11  1  0  0  0  0
  9 14  2  0  0  0  0
 10  5  1  0  0  0  0
 11 10  2  0  0  0  0
 12  4  1  0  0  0  0
 13  7  1  0  0  0  0
 13 18  2  0  0  0  0
 14 16  1  0  0  0  0
 15 10  1  0  0  0  0
 16 15  2  0  0  0  0
 17 12  2  0  0  0  0
 18 17  1  0  0  0  0
M  END
>  <idnumber>
T6010427

>  <LogP>
1.893000000000000e+000

>  <rotating_bonds>
2.000000000000000e+000

>  <hb_acceptors>
3.000000000000000e+000

>  <hb_donors>
1.000000000000000e+000

>  <PSA>
5.121999999999999e+001

>  <clusterid>
-1642

>  <is_centroid>
@

>  <class1>
632

>  <class2>
803

>  <population1>
79489

>  <population2>
2603

>  <population>
98

>  <cansmi>
O=C(C1Cc2c(O1)cccc2)Nc1cccnc1

>  <HBA2>
4

>  <HBD>
1

>  <logP>
2.0968

>  <TPSA>
51.22

>  <MW>
240.257

$$$$

 OpenBabel02121609142D

 20 22  0  0  0  0  0  0  0  0999 V2000
    0.0000    0.5000    0.0000 C   0  0  0  0  0  0  0  0  0  0  0  0
   -0.8708    2.0000    0.0000 C   0  0  0  0  0  0  0  0  0  0  0  0
    0.0000    2.5000    0.0000 O   0  0  0  0  0  0  0  0  0  0  0  0
   -0.8708    1.0000    0.0000 C   0  0  0  0  0  0  0  0  0  0  0  0
    0.8625    2.0000    0.0000 C   0  0  0  0  0  0  0  0  0  0  0  0
    0.8625    1.0000    0.0000 C   0  0  0  0  0  0  0  0  0  0  0  0
    0.8625   -0.9917    0.0000 N   0  0  0  0  0  0  0  0  0  0  0  0
    0.0000   -0.5000    0.0000 C   0  0  0  0  0  0  0  0  0  0  0  0
   -1.7333    0.5000    0.0000 C   0  0  0  0  0  0  0  0  0  0  0  0
   -1.7333    2.5000    0.0000 C   0  0  0  0  0  0  0  0  0  0  0  0
    1.7292    2.5000    0.0000 O   0  0  0  0  0  0  0  0  0  0  0  0
    2.5917   -2.0000    0.0000 O   0  0  0  0  0  0  0  0  0  0  0  0
    1.7292   -0.5000    0.0000 C   0  0  0  0  0  0  0  0  0  0  0  0
   -2.6000    2.0000    0.0000 C   0  0  0  0  0  0  0  0  0  0  0  0
   -2.6000    1.0000    0.0000 C   0  0  0  0  0  0  0  0  0  0  0  0
    2.5917   -0.9917    0.0000 C   0  0  3  0  0  0  0  0  0  0  0  0
    1.7292   -2.5000    0.0000 C   0  0  0  0  0  0  0  0  0  0  0  0
    0.8625   -2.0000    0.0000 C   0  0  0  0  0  0  0  0  0  0  0  0
   -3.4708    2.5000    0.0000 C   0  0  0  0  0  0  0  0  0  0  0  0
    3.4625   -0.5000    0.0000 C   0  0  0  0  0  0  0  0  0  0  0  0
  2  4  2  0  0  0  0
  2  3  1  0  0  0  0
  3  5  1  0  0  0  0
  4  1  1  0  0  0  0
  5  6  1  0  0  0  0
  6  1  2  0  0  0  0
  7  8  1  0  0  0  0
  8  1  1  0  0  0  0
  9  4  1  0  0  0  0
 10  2  1  0  0  0  0
 10 14  2  0  0  0  0
 11  5  2  0  0  0  0
 12 17  1  0  0  0  0
 13  7  1  0  0  0  0
 14 15  1  0  0  0  0
 15  9  2  0  0  0  0
 16 13  1  0  0  0  0
 16 12  1  0  0  0  0
 17 18  1  0  0  0  0
 18  7  1  0  0  0  0
 19 14  1  0  0  0  0
 20 16  1  0  0  0  0
M  END
>  <idnumber>
T6011036

>  <LogP>
2.177000000000000e+000

>  <rotating_bonds>
2.000000000000000e+000

>  <hb_acceptors>
3.000000000000000e+000

>  <hb_donors>
0.000000000000000e+000

>  <PSA>
3.877000000000000e+001

>  <clusterid>
260

>  <is_centroid>
@

>  <class1>
799

>  <class2>
786

>  <population1>
7929

>  <population2>
48067

>  <population>
212

>  <cansmi>
CC1OCCN(C1)Cc1cc(=O)oc2c1ccc(c2)C

>  <HBA2>
4

>  <HBD>
0

>  <logP>
2.26

>  <TPSA>
42.68

>  <MW>
273.327

$$$$

 OpenBabel02121609142D

 21 23  0  0  0  0  0  0  0  0999 V2000
    2.2375    0.3250    0.0000 C   0  0  0  0  0  0  0  0  0  0  0  0
    2.3417   -0.6667    0.0000 N   0  0  0  0  0  0  0  0  0  0  0  0
    1.3667    0.8250    0.0000 N   0  0  0  0  0  0  0  0  0  0  0  0
    0.5042    0.3250    0.0000 C   0  0  0  0  0  0  0  0  0  0  0  0
   -1.2250    0.3250    0.0000 N   0  0  0  0  0  0  0  0  0  0  0  0
    3.3167   -0.8792    0.0000 N   0  0  0  0  0  0  0  0  0  0  0  0
    3.1500    0.7333    0.0000 C   0  0  0  0  0  0  0  0  0  0  0  0
   -0.3583    0.8250    0.0000 C   0  0  0  0  0  0  0  0  0  0  0  0
   -2.0958    0.8250    0.0000 C   0  0  0  0  0  0  0  0  0  0  0  0
    3.8167   -0.0125    0.0000 C   0  0  0  0  0  0  0  0  0  0  0  0
    0.5042   -0.6792    0.0000 O   0  0  0  0  0  0  0  0  0  0  0  0
   -0.3583    1.8250    0.0000 C   0  0  0  0  0  0  0  0  0  0  0  0
    1.6000   -1.3417    0.0000 C   0  0  0  0  0  0  0  0  0  0  0  0
   -2.0958    1.8250    0.0000 C   0  0  0  0  0  0  0  0  0  0  0  0
   -1.2250    2.3333    0.0000 C   0  0  0  0  0  0  0  0  0  0  0  0
   -2.9583    0.3250    0.0000 C   0  0  0  0  0  0  0  0  0  0  0  0
   -2.9583    2.3333    0.0000 C   0  0  0  0  0  0  0  0  0  0  0  0
    0.6500   -1.0292    0.0000 C   0  0  0  0  0  0  0  0  0  0  0  0
    1.8042   -2.3167    0.0000 C   0  0  0  0  0  0  0  0  0  0  0  0
   -3.8250    0.8250    0.0000 C   0  0  0  0  0  0  0  0  0  0  0  0
   -3.8250    1.8250    0.0000 C   0  0  0  0  0  0  0  0  0  0  0  0
  2  1  1  0  0  0  0
  3  1  1  0  0  0  0
  4  3  1  0  0  0  0
  5  8  2  0  0  0  0
  6  2  1  0  0  0  0
  6 10  2  0  0  0  0
  7  1  2  0  0  0  0
  8  4  1  0  0  0  0
  9  5  1  0  0  0  0
  9 14  2  0  0  0  0
 10  7  1  0  0  0  0
 11  4  2  0  0  0  0
 12  8  1  0  0  0  0
 13  2  1  0  0  0  0
 14 15  1  0  0  0  0
 15 12  2  0  0  0  0
 16  9  1  0  0  0  0
 17 14  1  0  0  0  0
 18 13  1  0  0  0  0
 19 13  1  0  0  0  0
 20 16  2  0  0  0  0
 21 17  2  0  0  0  0
 21 20  1  0  0  0  0
M  END
>  <idnumber>
T6012932

>  <LogP>
2.726000000000000e+000

>  <rotating_bonds>
3.000000000000000e+000

>  <hb_acceptors>
3.000000000000000e+000

>  <hb_donors>
1.000000000000000e+000

>  <PSA>
5.981000000000002e+001

>  <clusterid>
-1644

>  <is_centroid>
@

>  <class1>
631

>  <class2>
682

>  <population1>
41612

>  <population2>
20351

>  <population>
326

>  <cansmi>
O=C(c1ccc2c(n1)cccc2)Nc1ccnn1C(C)C

>  <HBA2>
5

>  <HBD>
1

>  <logP>
3.3375

>  <TPSA>
59.81

>  <MW>
280.324

$$$$

 OpenBabel02121609142D

 12 13  0  0  0  0  0  0  0  0999 V2000
    0.8625   -2.0000    0.0000 N   0  0  0  0  0  0  0  0  0  0  0  0
    0.8625   -1.0000    0.0000 C   0  0  0  0  0  0  0  0  0  0  0  0
    0.0000    0.5083    0.0000 C   0  0  0  0  0  0  0  0  0  0  0  0
    0.8625    0.0000    0.0000 C   0  0  3  0  0  0  0  0  0  0  0  0
    0.0000    1.5000    0.0000 C   0  0  0  0  0  0  0  0  0  0  0  0
    1.7292    1.5000    0.0000 C   0  0  0  0  0  0  0  0  0  0  0  0
   -0.8708    0.0000    0.0000 C   0  0  0  0  0  0  0  0  0  0  0  0
    0.8625    2.0000    0.0000 C   0  0  0  0  0  0  0  0  0  0  0  0
    1.7292    0.5000    0.0000 C   0  0  0  0  0  0  0  0  0  0  0  0
   -0.8708    2.0083    0.0000 C   0  0  0  0  0  0  0  0  0  0  0  0
   -1.7333    0.5083    0.0000 C   0  0  0  0  0  0  0  0  0  0  0  0
   -1.7333    1.5000    0.0000 C   0  0  0  0  0  0  0  0  0  0  0  0
  2  1  3  0  0  0  0
  3  4  1  0  0  0  0
  4  2  1  0  0  0  0
  5  3  2  0  0  0  0
  5  8  1  0  0  0  0
  6  9  1  0  0  0  0
  7  3  1  0  0  0  0
  8  6  1  0  0  0  0
  9  4  1  0  0  0  0
 10  5  1  0  0  0  0
 10 12  2  0  0  0  0
 11  7  2  0  0  0  0
 12 11  1  0  0  0  0
M  END
>  <idnumber>
T6014793

>  <LogP>
2.537000000000000e+000

>  <rotating_bonds>
1.000000000000000e+000

>  <hb_acceptors>
1.000000000000000e+000

>  <hb_donors>
0.000000000000000e+000

>  <PSA>
2.379000000000000e+001

>  <clusterid>
-1646

>  <is_centroid>
@

>  <class1>
807

>  <population1>
5384

>  <population>
5384

>  <cansmi>
N#CC1CCCc2c1cccc2

>  <HBA2>
1

>  <HBD>
0

>  <logP>
2.63008

>  <TPSA>
23.79

>  <MW>
157.212

$$$$

 OpenBabel02121609142D

 14 15  0  0  0  0  0  0  0  0999 V2000
    6.0750   -5.1125    0.0000 C   0  0  0  0  0  0  0  0  0  0  0  0
    6.0750   -5.9375    0.0000 C   0  0  0  0  0  0  0  0  0  0  0  0
    6.7875   -6.3625    0.0000 C   0  0  0  0  0  0  0  0  0  0  0  0
    6.7875   -4.6958    0.0000 N   0  0  0  0  0  0  0  0  0  0  0  0
    5.3542   -4.6958    0.0000 N   0  0  0  0  0  0  0  0  0  0  0  0
    6.7875   -7.1875    0.0000 C   0  0  0  0  0  0  0  0  0  0  0  0
    6.0750   -3.4542    0.0000 C   0  0  0  0  0  0  0  0  0  0  0  0
    6.7875   -3.8667    0.0000 C   0  0  0  0  0  0  0  0  0  0  0  0
    5.3542   -3.8667    0.0000 C   0  0  0  0  0  0  0  0  0  0  0  0
    6.0750   -7.6042    0.0000 C   0  0  0  0  0  0  0  0  0  0  0  0
    7.5042   -7.6042    0.0000 C   0  0  0  0  0  0  0  0  0  0  0  0
    7.5042   -8.4333    0.0000 C   0  0  0  0  0  0  0  0  0  0  0  0
    6.0750   -8.4333    0.0000 C   0  0  0  0  0  0  0  0  0  0  0  0
    6.7875   -8.8458    0.0000 C   0  0  0  0  0  0  0  0  0  0  0  0
  2  1  1  0  0  0  0
  3  2  2  0  0  0  0
  3  6  1  0  0  0  0
  4  1  1  0  0  0  0
  5  1  2  0  0  0  0
  7  9  2  0  0  0  0
  8  4  2  0  0  0  0
  8  7  1  0  0  0  0
  9  5  1  0  0  0  0
 10  6  1  0  0  0  0
 11  6  2  0  0  0  0
 12 11  1  0  0  0  0
 13 10  2  0  0  0  0
 13 14  1  0  0  0  0
 14 12  2  0  0  0  0
M  END
>  <idnumber>
T6016072

>  <LogP>
1.980000000000000e+000

>  <rotating_bonds>
2.000000000000000e+000

>  <hb_acceptors>
2.000000000000000e+000

>  <hb_donors>
0.000000000000000e+000

>  <PSA>
2.578000000000000e+001

>  <clusterid>
-1651

>  <is_centroid>
@

>  <class1>
737

>  <class2>
625

>  <population1>
30296

>  <population2>
877209

>  <population>
23887

>  <cansmi>
c1ccc(cc1)/C=C/c1ncccn1

>  <HBA2>
2

>  <HBD>
0

>  <logP>
2.647

>  <TPSA>
25.78

>  <MW>
182.221

$$$$

 OpenBabel02121609142D

 20 22  0  0  0  0  0  0  0  0999 V2000
    1.2917    0.5000    0.0000 N   0  0  0  0  0  0  0  0  0  0  0  0
    1.2917   -0.5000    0.0000 C   0  0  0  0  0  0  0  0  0  0  0  0
    0.4292    1.0000    0.0000 C   0  0  0  0  0  0  0  0  0  0  0  0
    0.4292   -1.0000    0.0000 N   0  0  0  0  0  0  0  0  0  0  0  0
   -0.4333    0.5000    0.0000 C   0  0  0  0  0  0  0  0  0  0  0  0
   -0.4333   -0.5000    0.0000 C   0  0  0  0  0  0  0  0  0  0  0  0
   -2.1708   -0.5000    0.0000 N   0  0  0  0  0  0  0  0  0  0  0  0
    2.1625    1.0000    0.0000 C   0  0  0  0  0  0  0  0  0  0  0  0
   -3.0333   -1.0000    0.0000 C   0  0  0  0  0  0  0  0  0  0  0  0
    2.1625   -1.0000    0.0000 C   0  0  0  0  0  0  0  0  0  0  0  0
   -1.3000   -1.0000    0.0000 C   0  0  0  0  0  0  0  0  0  0  0  0
    3.0292    0.5000    0.0000 C   0  0  0  0  0  0  0  0  0  0  0  0
    3.0292   -0.5000    0.0000 C   0  0  0  0  0  0  0  0  0  0  0  0
   -2.1708    0.5000    0.0000 C   0  0  0  0  0  0  0  0  0  0  0  0
    0.4292    2.0000    0.0000 O   0  0  0  0  0  0  0  0  0  0  0  0
   -3.9000   -0.5000    0.0000 C   0  0  0  0  0  0  0  0  0  0  0  0
   -3.0333   -2.0000    0.0000 O   0  0  0  0  0  0  0  0  0  0  0  0
   -3.0333    1.0000    0.0000 C   0  0  0  0  0  0  0  0  0  0  0  0
   -3.9000    0.5000    0.0000 C   0  0  0  0  0  0  0  0  0  0  0  0
    3.8917   -1.0000    0.0000 C   0  0  0  0  0  0  0  0  0  0  0  0
  2  1  1  0  0  0  0
  3  1  1  0  0  0  0
  4  2  2  0  0  0  0
  4  6  1  0  0  0  0
  5  3  1  0  0  0  0
  6  5  2  0  0  0  0
  7 11  1  0  0  0  0
  8  1  1  0  0  0  0
  9  7  1  0  0  0  0
 10  2  1  0  0  0  0
 10 13  2  0  0  0  0
 11  6  1  0  0  0  0
 12  8  2  0  0  0  0
 13 12  1  0  0  0  0
 14  7  1  0  0  0  0
 15  3  2  0  0  0  0
 16  9  1  0  0  0  0
 16 19  2  0  0  0  0
 17  9  2  0  0  0  0
 18 14  2  0  0  0  0
 19 18  1  0  0  0  0
 20 13  1  0  0  0  0
M  END
>  <idnumber>
T6016612

>  <LogP>
-2.530000000000000e-001

>  <rotating_bonds>
2.000000000000000e+000

>  <hb_acceptors>
3.000000000000000e+000

>  <hb_donors>
0.000000000000000e+000

>  <PSA>
5.298000000000000e+001

>  <clusterid>
-1652

>  <is_centroid>
@

>  <class1>
696

>  <class2>
806

>  <population1>
4759

>  <population2>
5354

>  <population>
15

>  <cansmi>
Cc1ccn2c(c1)nc(cc2=O)Cn1ccccc1=O

>  <HBA2>
5

>  <HBD>
0

>  <logP>
1.2129

>  <TPSA>
56.37

>  <MW>
267.283

$$$$

 OpenBabel02121609142D

 21 23  0  0  0  0  0  0  0  0999 V2000
    1.1667    0.2958    0.0000 C   0  0  0  0  0  0  0  0  0  0  0  0
    1.1667   -0.7042    0.0000 N   0  0  0  0  0  0  0  0  0  0  0  0
    0.3042    0.7958    0.0000 N   0  0  0  0  0  0  0  0  0  0  0  0
    0.3042    1.7958    0.0000 C   0  0  0  0  0  0  0  0  0  0  0  0
    0.6667   -2.8917    0.0000 N   0  0  0  0  0  0  0  0  0  0  0  0
   -0.5625    2.2958    0.0000 C   0  0  0  0  0  0  0  0  0  0  0  0
    2.0292    0.7958    0.0000 O   0  0  0  0  0  0  0  0  0  0  0  0
    0.2667   -1.1375    0.0000 C   0  0  0  0  0  0  0  0  0  0  0  0
    0.0417   -2.1125    0.0000 C   0  0  0  0  0  0  0  0  0  0  0  0
   -0.5625    3.3000    0.0000 C   0  0  0  0  0  0  0  0  0  0  0  0
    2.2917   -2.1125    0.0000 C   0  0  0  0  0  0  0  0  0  0  0  0
    2.0667   -1.1375    0.0000 C   0  0  0  0  0  0  0  0  0  0  0  0
    1.6667   -2.8917    0.0000 C   0  0  0  0  0  0  0  0  0  0  0  0
    1.1667    2.2958    0.0000 C   0  0  0  0  0  0  0  0  0  0  0  0
    0.2292   -3.7917    0.0000 C   0  0  0  0  0  0  0  0  0  0  0  0
    1.1667    3.3000    0.0000 C   0  0  0  0  0  0  0  0  0  0  0  0
   -1.4333    1.7958    0.0000 C   0  0  0  0  0  0  0  0  0  0  0  0
    0.3042    3.8000    0.0000 C   0  0  0  0  0  0  0  0  0  0  0  0
   -1.4333    3.8000    0.0000 C   0  0  0  0  0  0  0  0  0  0  0  0
   -2.2958    2.2958    0.0000 C   0  0  0  0  0  0  0  0  0  0  0  0
   -2.2958    3.3000    0.0000 C   0  0  0  0  0  0  0  0  0  0  0  0
  2  1  1  0  0  0  0
  3  1  1  0  0  0  0
  4  3  1  0  0  0  0
  5  9  1  0  0  0  0
  5 13  1  0  0  0  0
  6  4  2  0  0  0  0
  7  1  2  0  0  0  0
  8  2  1  0  0  0  0
  9  8  1  0  0  0  0
 10  6  1  0  0  0  0
 10 18  2  0  0  0  0
 11 12  1  0  0  0  0
 12  2  1  0  0  0  0
 13 11  1  0  0  0  0
 14  4  1  0  0  0  0
 15  5  1  0  0  0  0
 16 14  2  0  0  0  0
 17  6  1  0  0  0  0
 18 16  1  0  0  0  0
 19 10  1  0  0  0  0
 19 21  2  0  0  0  0
 20 17  2  0  0  0  0
 21 20  1  0  0  0  0
M  END
>  <idnumber>
T6017376

>  <LogP>
2.355000000000000e+000

>  <rotating_bonds>
1.000000000000000e+000

>  <hb_acceptors>
2.000000000000000e+000

>  <hb_donors>
1.000000000000000e+000

>  <PSA>
3.558000000000000e+001

>  <clusterid>
-1653

>  <is_centroid>
@

>  <class1>
834

>  <class2>
796

>  <population1>
2002

>  <population2>
21922

>  <population>
41

>  <cansmi>
CN1CCCN(CC1)C(=O)Nc1cccc2c1cccc2

>  <HBA2>
4

>  <HBD>
1

>  <logP>
2.958

>  <TPSA>
35.58

>  <MW>
283.368

$$$$

 OpenBabel02121609142D

 22 24  0  0  0  0  0  0  0  0999 V2000
    0.8750   -1.6667    0.0000 C   0  0  0  0  0  0  0  0  0  0  0  0
    1.9542   -2.8667    0.0000 N   0  0  0  0  0  0  0  0  0  0  0  0
    2.4542   -2.0042    0.0000 N   0  0  0  0  0  0  0  0  0  0  0  0
    1.7875   -1.2542    0.0000 C   0  0  0  0  0  0  0  0  0  0  0  0
    0.9792   -2.6625    0.0000 C   0  0  0  0  0  0  0  0  0  0  0  0
   -1.7250    1.8333    0.0000 C   0  0  0  0  0  0  0  0  0  0  0  0
    0.0042   -0.1667    0.0000 C   0  0  0  0  0  0  0  0  0  0  0  0
   -0.8583    1.3333    0.0000 C   0  0  3  0  0  0  0  0  0  0  0  0
   -0.8583    0.3333    0.0000 N   0  0  0  0  0  0  0  0  0  0  0  0
    0.0042   -1.1667    0.0000 C   0  0  0  0  0  0  0  0  0  0  0  0
   -1.7250    2.8333    0.0000 C   0  0  0  0  0  0  0  0  0  0  0  0
   -0.8583    3.3333    0.0000 O   0  0  0  0  0  0  0  0  0  0  0  0
    0.8750    0.3333    0.0000 O   0  0  0  0  0  0  0  0  0  0  0  0
    0.0042    1.8333    0.0000 C   0  0  0  0  0  0  0  0  0  0  0  0
    3.4500   -1.9000    0.0000 C   0  0  0  0  0  0  0  0  0  0  0  0
    0.0042    2.8333    0.0000 C   0  0  0  0  0  0  0  0  0  0  0  0
    1.9917   -0.2792    0.0000 C   0  0  0  0  0  0  0  0  0  0  0  0
    0.2375   -3.3292    0.0000 C   0  0  0  0  0  0  0  0  0  0  0  0
   -2.5958    1.3333    0.0000 C   0  0  0  0  0  0  0  0  0  0  0  0
   -2.5958    3.3333    0.0000 C   0  0  0  0  0  0  0  0  0  0  0  0
   -3.4583    1.8333    0.0000 C   0  0  0  0  0  0  0  0  0  0  0  0
   -3.4583    2.8333    0.0000 C   0  0  0  0  0  0  0  0  0  0  0  0
  2  5  2  0  0  0  0
  2  3  1  0  0  0  0
  3  4  1  0  0  0  0
  4  1  2  0  0  0  0
  5  1  1  0  0  0  0
  6  8  1  0  0  0  0
  7 10  1  0  0  0  0
  8  9  1  0  0  0  0
  9  7  1  0  0  0  0
 10  1  1  0  0  0  0
 11  6  2  0  0  0  0
 11 12  1  0  0  0  0
 12 16  1  0  0  0  0
 13  7  2  0  0  0  0
 14  8  1  0  0  0  0
 15  3  1  0  0  0  0
 16 14  1  0  0  0  0
 17  4  1  0  0  0  0
 18  5  1  0  0  0  0
 19  6  1  0  0  0  0
 20 11  1  0  0  0  0
 20 22  2  0  0  0  0
 21 19  2  0  0  0  0
 22 21  1  0  0  0  0
M  END
>  <idnumber>
T6018355

>  <LogP>
1.135000000000000e+000

>  <rotating_bonds>
3.000000000000000e+000

>  <hb_acceptors>
3.000000000000000e+000

>  <hb_donors>
1.000000000000000e+000

>  <PSA>
5.614999999999996e+001

>  <clusterid>
-1654

>  <is_centroid>
@

>  <class1>
631

>  <class2>
766

>  <population1>
41612

>  <population2>
1661

>  <population>
56

>  <cansmi>
O=C(Cc1c(C)nn(c1C)C)NC1CCOc2c1cccc2

>  <HBA2>
5

>  <HBD>
1

>  <logP>
2.6103

>  <TPSA>
56.15

>  <MW>
299.368

$$$$

 OpenBabel02121609142D

 21 23  0  0  0  0  0  0  0  0999 V2000
    2.1625   -1.5000    0.0000 C   0  0  0  0  0  0  0  0  0  0  0  0
    1.2917   -2.0000    0.0000 N   0  0  0  0  0  0  0  0  0  0  0  0
    2.1625   -0.5000    0.0000 N   0  0  0  0  0  0  0  0  0  0  0  0
    1.2917    0.0000    0.0000 C   0  0  0  0  0  0  0  0  0  0  0  0
    0.4292   -1.5000    0.0000 C   0  0  0  0  0  0  0  0  0  0  0  0
    0.4292   -0.5000    0.0000 C   0  0  0  0  0  0  0  0  0  0  0  0
    0.4292    1.5000    0.0000 N   0  0  0  0  0  0  0  0  0  0  0  0
    1.2917    1.0000    0.0000 C   0  0  0  0  0  0  0  0  0  0  0  0
    3.0292   -2.0000    0.0000 O   0  0  0  0  0  0  0  0  0  0  0  0
   -0.4333    1.0000    0.0000 C   0  0  0  0  0  0  0  0  0  0  0  0
   -1.3000    1.5000    0.0000 C   0  0  0  0  0  0  0  0  0  0  0  0
   -0.4333   -2.0000    0.0000 O   0  0  0  0  0  0  0  0  0  0  0  0
   -1.3000    2.5000    0.0000 C   0  0  0  0  0  0  0  0  0  0  0  0
    0.4292    2.5000    0.0000 C   0  0  0  0  0  0  0  0  0  0  0  0
    1.2917   -3.0000    0.0000 C   0  0  0  0  0  0  0  0  0  0  0  0
   -0.4333    3.0000    0.0000 C   0  0  0  0  0  0  0  0  0  0  0  0
    3.0292    0.0000    0.0000 C   0  0  0  0  0  0  0  0  0  0  0  0
   -2.1708    1.0000    0.0000 C   0  0  0  0  0  0  0  0  0  0  0  0
   -2.1708    3.0000    0.0000 C   0  0  0  0  0  0  0  0  0  0  0  0
   -3.0333    1.5000    0.0000 C   0  0  0  0  0  0  0  0  0  0  0  0
   -3.0333    2.5000    0.0000 C   0  0  0  0  0  0  0  0  0  0  0  0
  2  1  1  0  0  0  0
  3  1  1  0  0  0  0
  4  3  1  0  0  0  0
  5  2  1  0  0  0  0
  6  4  2  0  0  0  0
  6  5  1  0  0  0  0
  7  8  1  0  0  0  0
  8  4  1  0  0  0  0
  9  1  2  0  0  0  0
 10  7  1  0  0  0  0
 11 10  1  0  0  0  0
 11 13  2  0  0  0  0
 12  5  2  0  0  0  0
 13 16  1  0  0  0  0
 14  7  1  0  0  0  0
 15  2  1  0  0  0  0
 16 14  1  0  0  0  0
 17  3  1  0  0  0  0
 18 11  1  0  0  0  0
 19 13  1  0  0  0  0
 20 18  2  0  0  0  0
 21 19  2  0  0  0  0
 21 20  1  0  0  0  0
M  END
>  <idnumber>
T6018981

>  <LogP>
1.343000000000000e+000

>  <rotating_bonds>
2.000000000000000e+000

>  <hb_acceptors>
3.000000000000000e+000

>  <hb_donors>
0.000000000000000e+000

>  <PSA>
4.386000000000000e+001

>  <clusterid>
-1656

>  <is_centroid>
@

>  <class1>
750

>  <class2>
886

>  <population1>
7929

>  <population2>
22353

>  <population>
99

>  <cansmi>
O=c1cc(CN2CCc3c(C2)cccc3)n(c(=O)n1C)C

>  <HBA2>
5

>  <HBD>
0

>  <logP>
0.5802

>  <TPSA>
47.24

>  <MW>
285.341

$$$$

 OpenBabel02121609142D

 20 22  0  0  0  0  0  0  0  0999 V2000
    1.0042    0.4875    0.0000 C   0  0  0  0  0  0  0  0  0  0  0  0
    1.3167    1.4375    0.0000 N   0  0  0  0  0  0  0  0  0  0  0  0
    0.7292    2.2458    0.0000 C   0  0  3  0  0  0  0  0  0  0  0  0
    1.6750   -0.2542    0.0000 N   0  0  0  0  0  0  0  0  0  0  0  0
   -0.2708    2.2458    0.0000 C   0  0  0  0  0  0  0  0  0  0  0  0
    0.0292    0.2833    0.0000 O   0  0  0  0  0  0  0  0  0  0  0  0
   -1.7708    1.3833    0.0000 N   0  0  0  0  0  0  0  0  0  0  0  0
    2.2667    1.7458    0.0000 C   0  0  0  0  0  0  0  0  0  0  0  0
    1.3667   -1.2042    0.0000 C   0  0  0  0  0  0  0  0  0  0  0  0
   -0.7708    1.3833    0.0000 C   0  0  0  0  0  0  0  0  0  0  0  0
    1.3167    3.0583    0.0000 C   0  0  0  0  0  0  0  0  0  0  0  0
    2.2667    2.7458    0.0000 C   0  0  0  0  0  0  0  0  0  0  0  0
   -0.7708    3.1125    0.0000 C   0  0  0  0  0  0  0  0  0  0  0  0
   -2.2708    2.2458    0.0000 C   0  0  0  0  0  0  0  0  0  0  0  0
    0.3875   -1.4167    0.0000 C   0  0  0  0  0  0  0  0  0  0  0  0
    2.0375   -1.9500    0.0000 C   0  0  0  0  0  0  0  0  0  0  0  0
   -1.7708    3.1125    0.0000 C   0  0  0  0  0  0  0  0  0  0  0  0
    0.0792   -2.3667    0.0000 C   0  0  0  0  0  0  0  0  0  0  0  0
    1.7292   -2.9000    0.0000 C   0  0  0  0  0  0  0  0  0  0  0  0
    0.7500   -3.1042    0.0000 C   0  0  0  0  0  0  0  0  0  0  0  0
  2  1  1  0  0  0  0
  3  2  1  0  0  0  0
  4  1  1  0  0  0  0
  5  3  1  0  0  0  0
  6  1  2  0  0  0  0
  7 10  1  0  0  0  0
  7 14  2  0  0  0  0
  8  2  1  0  0  0  0
  9  4  1  0  0  0  0
 10  5  2  0  0  0  0
 11  3  1  0  0  0  0
 12  8  1  0  0  0  0
 12 11  1  0  0  0  0
 13  5  1  0  0  0  0
 14 17  1  0  0  0  0
 15  9  1  0  0  0  0
 16  9  2  0  0  0  0
 17 13  2  0  0  0  0
 18 15  2  0  0  0  0
 18 20  1  0  0  0  0
 19 16  1  0  0  0  0
 20 19  2  0  0  0  0
M  END
>  <idnumber>
T6021568

>  <LogP>
1.352000000000000e+000

>  <rotating_bonds>
2.000000000000000e+000

>  <hb_acceptors>
2.000000000000000e+000

>  <hb_donors>
1.000000000000000e+000

>  <PSA>
4.523000000000000e+001

>  <clusterid>
794

>  <is_centroid>
@

>  <class1>
625

>  <class2>
642

>  <class3>
632

>  <population1>
877209

>  <population2>
51183

>  <population3>
79489

>  <population>
2488

>  <cansmi>
O=C(N1CCCC1c1cccnc1)Nc1ccccc1

>  <HBA2>
4

>  <HBD>
1

>  <logP>
3.4615

>  <TPSA>
45.23

>  <MW>
267.326

$$$$

 OpenBabel02121609142D

 20 22  0  0  0  0  0  0  0  0999 V2000
    0.4292   -0.2417    0.0000 C   0  0  0  0  0  0  0  0  0  0  0  0
   -0.4333    0.2500    0.0000 N   0  0  0  0  0  0  0  0  0  0  0  0
   -0.4333    1.2500    0.0000 C   0  0  3  0  0  0  0  0  0  0  0  0
   -1.3000    1.7583    0.0000 C   0  0  0  0  0  0  0  0  0  0  0  0
    1.2917   -1.7500    0.0000 N   0  0  0  0  0  0  0  0  0  0  0  0
    0.4292   -1.2417    0.0000 C   0  0  0  0  0  0  0  0  0  0  0  0
    1.2917    0.2500    0.0000 O   0  0  0  0  0  0  0  0  0  0  0  0
   -1.3000    2.7583    0.0000 C   0  0  0  0  0  0  0  0  0  0  0  0
    3.0292   -2.7500    0.0000 O   0  0  0  0  0  0  0  0  0  0  0  0
    0.4292    1.7583    0.0000 C   0  0  0  0  0  0  0  0  0  0  0  0
    2.1625   -1.2500    0.0000 C   0  0  0  0  0  0  0  0  0  0  0  0
    1.2917   -2.7500    0.0000 C   0  0  0  0  0  0  0  0  0  0  0  0
    0.4292    2.7583    0.0000 C   0  0  0  0  0  0  0  0  0  0  0  0
   -2.1708    1.2500    0.0000 C   0  0  0  0  0  0  0  0  0  0  0  0
   -0.4333    3.2500    0.0000 C   0  0  0  0  0  0  0  0  0  0  0  0
    3.0292   -1.7500    0.0000 C   0  0  0  0  0  0  0  0  0  0  0  0
    2.1625   -3.2500    0.0000 C   0  0  0  0  0  0  0  0  0  0  0  0
   -2.1708    3.2500    0.0000 C   0  0  0  0  0  0  0  0  0  0  0  0
   -3.0333    1.7583    0.0000 C   0  0  0  0  0  0  0  0  0  0  0  0
   -3.0333    2.7583    0.0000 C   0  0  0  0  0  0  0  0  0  0  0  0
  2  1  1  0  0  0  0
  3  2  1  0  0  0  0
  4  3  1  0  0  0  0
  5  6  1  0  0  0  0
  6  1  1  0  0  0  0
  7  1  2  0  0  0  0
  8  4  2  0  0  0  0
  8 15  1  0  0  0  0
  9 17  1  0  0  0  0
 10  3  1  0  0  0  0
 11  5  1  0  0  0  0
 12  5  1  0  0  0  0
 13 10  1  0  0  0  0
 14  4  1  0  0  0  0
 15 13  1  0  0  0  0
 16 11  1  0  0  0  0
 16  9  1  0  0  0  0
 17 12  1  0  0  0  0
 18  8  1  0  0  0  0
 18 20  2  0  0  0  0
 19 14  2  0  0  0  0
 20 19  1  0  0  0  0
M  END
>  <idnumber>
T6023304

>  <LogP>
2.291000000000000e+000

>  <rotating_bonds>
3.000000000000000e+000

>  <hb_acceptors>
3.000000000000000e+000

>  <hb_donors>
1.000000000000000e+000

>  <PSA>
4.156999999999997e+001

>  <clusterid>
-1659

>  <is_centroid>
@

>  <class1>
786

>  <class2>
807

>  <population1>
48067

>  <population2>
5384

>  <population>
159

>  <cansmi>
O=C(NC1CCCc2c1cccc2)CN1CCOCC1

>  <HBA2>
4

>  <HBD>
1

>  <logP>
1.8412

>  <TPSA>
41.57

>  <MW>
274.358

$$$$

 OpenBabel02121609142D

 21 23  0  0  0  0  0  0  0  0999 V2000
   -0.4333    1.2500    0.0000 N   0  0  0  0  0  0  0  0  0  0  0  0
   -1.3000    1.7500    0.0000 C   0  0  0  0  0  0  0  0  0  0  0  0
   -0.4333    0.2500    0.0000 C   0  0  0  0  0  0  0  0  0  0  0  0
   -1.3000    2.7500    0.0000 C   0  0  0  0  0  0  0  0  0  0  0  0
   -2.1708    3.2500    0.0000 N   0  0  0  0  0  0  0  0  0  0  0  0
    0.4292   -1.2500    0.0000 O   0  0  0  0  0  0  0  0  0  0  0  0
    0.4292   -0.2500    0.0000 C   0  0  0  0  0  0  0  0  0  0  0  0
   -1.3000   -0.2500    0.0000 O   0  0  0  0  0  0  0  0  0  0  0  0
    1.2917   -1.7500    0.0000 C   0  0  0  0  0  0  0  0  0  0  0  0
    1.2917   -2.7500    0.0000 C   0  0  0  0  0  0  0  0  0  0  0  0
    0.4292    1.7500    0.0000 C   0  0  0  0  0  0  0  0  0  0  0  0
   -2.1708    1.2500    0.0000 C   0  0  0  0  0  0  0  0  0  0  0  0
    0.4292    2.7500    0.0000 C   0  0  0  0  0  0  0  0  0  0  0  0
   -0.4333    3.2500    0.0000 C   0  0  0  0  0  0  0  0  0  0  0  0
   -3.0333    2.7500    0.0000 C   0  0  0  0  0  0  0  0  0  0  0  0
    2.1625   -1.2500    0.0000 C   0  0  0  0  0  0  0  0  0  0  0  0
    0.4292   -3.2500    0.0000 C   0  0  0  0  0  0  0  0  0  0  0  0
    2.1625   -3.2500    0.0000 C   0  0  0  0  0  0  0  0  0  0  0  0
   -3.0333    1.7500    0.0000 C   0  0  0  0  0  0  0  0  0  0  0  0
    3.0292   -2.7500    0.0000 C   0  0  0  0  0  0  0  0  0  0  0  0
    3.0292   -1.7500    0.0000 C   0  0  0  0  0  0  0  0  0  0  0  0
  2  1  1  0  0  0  0
  3  1  1  0  0  0  0
  4  2  2  0  0  0  0
  4 14  1  0  0  0  0
  5  4  1  0  0  0  0
  5 15  2  0  0  0  0
  6  7  1  0  0  0  0
  7  3  1  0  0  0  0
  8  3  2  0  0  0  0
  9  6  1  0  0  0  0
 10  9  2  0  0  0  0
 11  1  1  0  0  0  0
 12  2  1  0  0  0  0
 13 11  1  0  0  0  0
 14 13  1  0  0  0  0
 15 19  1  0  0  0  0
 16  9  1  0  0  0  0
 17 10  1  0  0  0  0
 18 10  1  0  0  0  0
 18 20  2  0  0  0  0
 19 12  2  0  0  0  0
 20 21  1  0  0  0  0
 21 16  2  0  0  0  0
M  END
>  <idnumber>
T6023318

>  <LogP>
2.999000000000000e+000

>  <rotating_bonds>
3.000000000000000e+000

>  <hb_acceptors>
3.000000000000000e+000

>  <hb_donors>
0.000000000000000e+000

>  <PSA>
4.243000000000001e+001

>  <clusterid>
-1660

>  <is_centroid>
@

>  <class1>
625

>  <class2>
778

>  <population1>
877209

>  <population2>
19

>  <population>
18

>  <cansmi>
O=C(N1CCCc2c1cccn2)COc1ccccc1C

>  <HBA2>
4

>  <HBD>
0

>  <logP>
2.8132

>  <TPSA>
42.43

>  <MW>
282.337

$$$$

 OpenBabel02121609142D

 17 19  0  0  0  0  0  0  0  0999 V2000
   -0.6208   -0.3625    0.0000 C   0  0  0  0  0  0  0  0  0  0  0  0
   -1.2083    0.4458    0.0000 N   0  0  0  0  0  0  0  0  0  0  0  0
   -1.2083   -1.1750    0.0000 O   0  0  0  0  0  0  0  0  0  0  0  0
   -2.1583    0.1375    0.0000 C   0  0  0  0  0  0  0  0  0  0  0  0
   -2.1583   -0.8625    0.0000 C   0  0  0  0  0  0  0  0  0  0  0  0
    0.3792   -0.3625    0.0000 N   0  0  0  0  0  0  0  0  0  0  0  0
    2.3792    1.3708    0.0000 N   0  0  0  0  0  0  0  0  0  0  0  0
    1.8792    0.5083    0.0000 C   0  0  0  0  0  0  0  0  0  0  0  0
    0.8792    0.5083    0.0000 C   0  0  0  0  0  0  0  0  0  0  0  0
   -3.0208    0.6375    0.0000 C   0  0  0  0  0  0  0  0  0  0  0  0
   -3.0208   -1.3625    0.0000 C   0  0  0  0  0  0  0  0  0  0  0  0
    3.3792    1.3708    0.0000 C   0  0  0  0  0  0  0  0  0  0  0  0
    2.3792   -0.3625    0.0000 C   0  0  0  0  0  0  0  0  0  0  0  0
    3.8792    0.5083    0.0000 C   0  0  0  0  0  0  0  0  0  0  0  0
   -3.8958    0.1375    0.0000 C   0  0  0  0  0  0  0  0  0  0  0  0
   -3.8958   -0.8625    0.0000 C   0  0  0  0  0  0  0  0  0  0  0  0
    3.3792   -0.3625    0.0000 C   0  0  0  0  0  0  0  0  0  0  0  0
  2  1  2  0  0  0  0
  3  1  1  0  0  0  0
  4  2  1  0  0  0  0
  4  5  2  0  0  0  0
  5  3  1  0  0  0  0
  6  1  1  0  0  0  0
  7  8  2  0  0  0  0
  8  9  1  0  0  0  0
  9  6  1  0  0  0  0
 10  4  1  0  0  0  0
 11  5  1  0  0  0  0
 12  7  1  0  0  0  0
 12 14  2  0  0  0  0
 13  8  1  0  0  0  0
 14 17  1  0  0  0  0
 15 10  2  0  0  0  0
 15 16  1  0  0  0  0
 16 11  2  0  0  0  0
 17 13  2  0  0  0  0
M  END
>  <idnumber>
T6026523

>  <LogP>
1.837000000000000e+000

>  <rotating_bonds>
3.000000000000000e+000

>  <hb_acceptors>
3.000000000000000e+000

>  <hb_donors>
1.000000000000000e+000

>  <PSA>
5.095000000000000e+001

>  <clusterid>
-1661

>  <is_centroid>
@

>  <class1>
752

>  <class2>
632

>  <population1>
4005

>  <population2>
79489

>  <population>
130

>  <cansmi>
c1ccc(nc1)CNc1nc2c(o1)cccc2

>  <HBA2>
4

>  <HBD>
1

>  <logP>
2.9079

>  <TPSA>
50.95

>  <MW>
225.246

$$$$

 OpenBabel02121609142D

 20 21  0  0  0  0  0  0  0  0999 V2000
   -1.3000    2.0000    0.0000 C   0  0  0  0  0  0  0  0  0  0  0  0
   -0.4333    0.5000    0.0000 N   0  0  0  0  0  0  0  0  0  0  0  0
   -1.3000    1.0000    0.0000 C   0  0  0  0  0  0  0  0  0  0  0  0
    0.4292    1.0000    0.0000 N   0  0  0  0  0  0  0  0  0  0  0  0
   -0.4333    2.5000    0.0000 C   0  0  0  0  0  0  0  0  0  0  0  0
    0.4292    2.0000    0.0000 C   0  0  0  0  0  0  0  0  0  0  0  0
   -2.1708    2.5000    0.0000 C   0  0  0  0  0  0  0  0  0  0  0  0
   -3.0333    3.0000    0.0000 N   0  0  0  0  0  0  0  0  0  0  0  0
   -0.4333   -0.5000    0.0000 C   0  0  0  0  0  0  0  0  0  0  0  0
    0.4292   -1.0000    0.0000 C   0  0  0  0  0  0  0  0  0  0  0  0
   -2.1708    0.5000    0.0000 O   0  0  0  0  0  0  0  0  0  0  0  0
    2.1625   -1.0000    0.0000 C   0  0  0  0  0  0  0  0  0  0  0  0
    1.2917   -2.5000    0.0000 C   0  0  0  0  0  0  0  0  0  0  0  0
    1.2917   -0.5000    0.0000 C   0  0  0  0  0  0  0  0  0  0  0  0
    0.4292   -2.0000    0.0000 C   0  0  0  0  0  0  0  0  0  0  0  0
    2.1625   -2.0000    0.0000 C   0  0  0  0  0  0  0  0  0  0  0  0
   -0.4333    3.5000    0.0000 C   0  0  0  0  0  0  0  0  0  0  0  0
    1.2917    2.5000    0.0000 C   0  0  0  0  0  0  0  0  0  0  0  0
    3.0292   -0.5000    0.0000 C   0  0  0  0  0  0  0  0  0  0  0  0
    1.2917   -3.5000    0.0000 C   0  0  0  0  0  0  0  0  0  0  0  0
  2  3  1  0  0  0  0
  2  4  1  0  0  0  0
  3  1  1  0  0  0  0
  4  6  2  0  0  0  0
  5  1  2  0  0  0  0
  6  5  1  0  0  0  0
  7  1  1  0  0  0  0
  8  7  3  0  0  0  0
  9  2  1  0  0  0  0
 10  9  1  0  0  0  0
 11  3  2  0  0  0  0
 12 14  1  0  0  0  0
 13 15  2  0  0  0  0
 14 10  2  0  0  0  0
 15 10  1  0  0  0  0
 16 13  1  0  0  0  0
 16 12  2  0  0  0  0
 17  5  1  0  0  0  0
 18  6  1  0  0  0  0
 19 12  1  0  0  0  0
 20 13  1  0  0  0  0
M  END
>  <idnumber>
T6029162

>  <LogP>
2.514000000000000e+000

>  <rotating_bonds>
3.000000000000000e+000

>  <hb_acceptors>
3.000000000000000e+000

>  <hb_donors>
0.000000000000000e+000

>  <PSA>
5.646000000000000e+001

>  <clusterid>
504

>  <is_centroid>
@

>  <class1>
625

>  <class2>
826

>  <population1>
877209

>  <population2>
2794

>  <population>
2442

>  <cansmi>
N#Cc1c(C)c(C)nn(c1=O)Cc1cc(C)cc(c1)C

>  <HBA2>
4

>  <HBD>
0

>  <logP>
2.39688

>  <TPSA>
58.68

>  <MW>
267.326

$$$$

 OpenBabel02121609142D

 17 19  0  0  0  0  0  0  0  0999 V2000
    0.1292   -1.2292    0.0000 C   0  0  0  0  0  0  0  0  0  0  0  0
   -0.4583   -0.4167    0.0000 N   0  0  0  0  0  0  0  0  0  0  0  0
   -0.4583   -2.0375    0.0000 O   0  0  0  0  0  0  0  0  0  0  0  0
   -1.4083   -0.7292    0.0000 C   0  0  0  0  0  0  0  0  0  0  0  0
   -1.4083   -1.7292    0.0000 C   0  0  0  0  0  0  0  0  0  0  0  0
    1.1292   -1.2292    0.0000 N   0  0  0  0  0  0  0  0  0  0  0  0
    1.6292   -0.3625    0.0000 C   0  0  3  0  0  0  0  0  0  0  0  0
    2.6292    1.3708    0.0000 C   0  0  3  0  0  0  0  0  0  0  0  0
    1.1292    0.5000    0.0000 C   0  0  0  0  0  0  0  0  0  0  0  0
    2.6292   -0.3625    0.0000 C   0  0  0  0  0  0  0  0  0  0  0  0
    1.6292    1.3708    0.0000 C   0  0  0  0  0  0  0  0  0  0  0  0
    3.1292    0.5000    0.0000 C   0  0  0  0  0  0  0  0  0  0  0  0
    3.1292    2.2333    0.0000 O   0  0  0  0  0  0  0  0  0  0  0  0
   -2.2708   -0.2292    0.0000 C   0  0  0  0  0  0  0  0  0  0  0  0
   -2.2708   -2.2292    0.0000 C   0  0  0  0  0  0  0  0  0  0  0  0
   -3.1375   -1.7292    0.0000 C   0  0  0  0  0  0  0  0  0  0  0  0
   -3.1375   -0.7292    0.0000 C   0  0  0  0  0  0  0  0  0  0  0  0
  2  1  2  0  0  0  0
  3  1  1  0  0  0  0
  4  2  1  0  0  0  0
  4  5  2  0  0  0  0
  5  3  1  0  0  0  0
  6  1  1  0  0  0  0
  7  6  1  0  0  0  0
  8 12  1  0  0  0  0
  8 11  1  0  0  0  0
  9  7  1  0  0  0  0
 10  7  1  0  0  0  0
 11  9  1  0  0  0  0
 12 10  1  0  0  0  0
 13  8  1  0  0  0  0
 14  4  1  0  0  0  0
 15  5  1  0  0  0  0
 16 15  2  0  0  0  0
 17 14  2  0  0  0  0
 17 16  1  0  0  0  0
M  END
>  <idnumber>
T6029466

>  <LogP>
1.830000000000000e+000

>  <rotating_bonds>
2.000000000000000e+000

>  <hb_acceptors>
3.000000000000000e+000

>  <hb_donors>
2.000000000000000e+000

>  <PSA>
5.829000000000001e+001

>  <clusterid>
796

>  <is_centroid>
@

>  <class1>
752

>  <class2>
797

>  <population1>
4005

>  <population2>
40410

>  <population>
96

>  <cansmi>
OC1CCC(CC1)Nc1nc2c(o1)cccc2

>  <HBA2>
4

>  <HBD>
2

>  <logP>
2.6162

>  <TPSA>
58.29

>  <MW>
232.278

$$$$

 OpenBabel02121609142D

 19 20  0  0  0  0  0  0  0  0999 V2000
    1.0000    0.0000    0.0000 N   0  0  0  0  0  0  0  0  0  0  0  0
    1.8625   -0.5000    0.0000 C   0  0  0  0  0  0  0  0  0  0  0  0
    0.1292   -0.5000    0.0000 C   0  0  0  0  0  0  0  0  0  0  0  0
   -0.7333    0.0000    0.0000 C   0  0  0  0  0  0  0  0  0  0  0  0
    1.0000    1.0000    0.0000 C   0  0  0  0  0  0  0  0  0  0  0  0
    1.8625   -1.5000    0.0000 O   0  0  0  0  0  0  0  0  0  0  0  0
   -0.7333    1.0000    0.0000 C   0  0  0  0  0  0  0  0  0  0  0  0
    4.4625    1.0000    0.0000 N   0  0  0  0  0  0  0  0  0  0  0  0
    2.7292    0.0000    0.0000 C   0  0  0  0  0  0  0  0  0  0  0  0
    0.1292    1.5000    0.0000 C   0  0  0  0  0  0  0  0  0  0  0  0
   -4.4708    0.3375    0.0000 Cl  0  0  0  0  0  0  0  0  0  0  0  0
    4.4625    0.0000    0.0000 C   0  0  0  0  0  0  0  0  0  0  0  0
    3.5917    1.5000    0.0000 C   0  0  0  0  0  0  0  0  0  0  0  0
   -1.6000   -0.5000    0.0000 C   0  0  0  0  0  0  0  0  0  0  0  0
   -1.6000    1.5000    0.0000 C   0  0  0  0  0  0  0  0  0  0  0  0
    3.5917   -0.5000    0.0000 C   0  0  0  0  0  0  0  0  0  0  0  0
    2.7292    1.0000    0.0000 C   0  0  0  0  0  0  0  0  0  0  0  0
   -2.4708    0.0000    0.0000 C   0  0  0  0  0  0  0  0  0  0  0  0
   -2.4708    1.0000    0.0000 C   0  0  0  0  0  0  0  0  0  0  0  0
  2  1  1  0  0  0  0
  3  1  1  0  0  0  0
  4  3  1  0  0  0  0
  4  7  2  0  0  0  0
  5  1  1  0  0  0  0
  6  2  2  0  0  0  0
  7 10  1  0  0  0  0
  8 13  1  0  0  0  0
  9  2  1  0  0  0  0
 10  5  1  0  0  0  0
 12 16  1  0  0  0  0
 12  8  1  0  0  0  0
 13 17  1  0  0  0  0
 14  4  1  0  0  0  0
 15  7  1  0  0  0  0
 16  9  1  0  0  0  0
 17  9  1  0  0  0  0
 18 14  2  0  0  0  0
 19 15  2  0  0  0  0
 19 18  1  0  0  0  0
M  END
>  <idnumber>
T6029571

>  <LogP>
2.530000000000000e-001

>  <rotating_bonds>
1.000000000000000e+000

>  <hb_acceptors>
2.000000000000000e+000

>  <hb_donors>
1.000000000000000e+000

>  <PSA>
3.234000000000000e+001

>  <clusterid>
-1667

>  <is_centroid>
@

>  <class1>
750

>  <class2>
639

>  <population1>
7929

>  <population2>
59855

>  <population>
182

>  <cansmi>
O=C(N1CCc2c(C1)cccc2)C1CCNCC1.Cl

>  <HBA2>
3

>  <HBD>
2

>  <logP>
2.6396

>  <TPSA>
32.34

>  <MW>
280.793

$$$$

 OpenBabel02121609142D

 14 15  0  0  0  0  0  0  0  0999 V2000
    0.4292    0.0000    0.0000 N   0  0  0  0  0  0  0  0  0  0  0  0
    0.4292    2.0000    0.0000 N   0  0  0  0  0  0  0  0  0  0  0  0
    1.2917    0.5083    0.0000 C   0  0  0  0  0  0  0  0  0  0  0  0
    1.2917    1.5083    0.0000 C   0  0  0  0  0  0  0  0  0  0  0  0
    2.1625   -2.0000    0.0000 N   0  0  0  0  0  0  0  0  0  0  0  0
   -0.4333    0.5083    0.0000 C   0  0  0  0  0  0  0  0  0  0  0  0
   -0.4333    1.5083    0.0000 C   0  0  0  0  0  0  0  0  0  0  0  0
    2.1625   -1.0000    0.0000 C   0  0  0  0  0  0  0  0  0  0  0  0
    2.1625    0.0000    0.0000 C   0  0  0  0  0  0  0  0  0  0  0  0
    2.1625    2.0000    0.0000 C   0  0  0  0  0  0  0  0  0  0  0  0
   -1.3000    2.0000    0.0000 C   0  0  0  0  0  0  0  0  0  0  0  0
   -1.3000    0.0000    0.0000 C   0  0  0  0  0  0  0  0  0  0  0  0
   -2.1708    0.5083    0.0000 C   0  0  0  0  0  0  0  0  0  0  0  0
   -2.1708    1.5083    0.0000 C   0  0  0  0  0  0  0  0  0  0  0  0
  2  7  2  0  0  0  0
  3  1  1  0  0  0  0
  4  3  2  0  0  0  0
  4  2  1  0  0  0  0
  5  8  3  0  0  0  0
  6  1  2  0  0  0  0
  7  6  1  0  0  0  0
  8  9  1  0  0  0  0
  9  3  1  0  0  0  0
 10  4  1  0  0  0  0
 11  7  1  0  0  0  0
 11 14  2  0  0  0  0
 12  6  1  0  0  0  0
 13 12  2  0  0  0  0
 14 13  1  0  0  0  0
M  END
>  <idnumber>
T6029609

>  <LogP>
1.153000000000000e+000

>  <rotating_bonds>
2.000000000000000e+000

>  <hb_acceptors>
3.000000000000000e+000

>  <hb_donors>
0.000000000000000e+000

>  <PSA>
4.957000000000000e+001

>  <clusterid>
-1669

>  <is_centroid>
@

>  <class1>
821

>  <population1>
4380

>  <population>
4380

>  <cansmi>
N#CCc1nc2ccccc2nc1C

>  <HBA2>
3

>  <HBD>
0

>  <logP>
2.00428

>  <TPSA>
49.57

>  <MW>
183.209

$$$$

 OpenBabel02121609142D

 19 21  0  0  0  0  0  0  0  0999 V2000
   -1.2083   -2.0375    0.0000 O   0  0  0  0  0  0  0  0  0  0  0  0
   -0.6208   -1.2292    0.0000 C   0  0  3  0  0  0  0  0  0  0  0  0
    0.3792   -1.2292    0.0000 C   0  0  0  0  0  0  0  0  0  0  0  0
   -2.1583   -1.7292    0.0000 C   0  0  0  0  0  0  0  0  0  0  0  0
   -1.2083   -0.4167    0.0000 C   0  0  0  0  0  0  0  0  0  0  0  0
   -2.1583   -0.7292    0.0000 C   0  0  0  0  0  0  0  0  0  0  0  0
    0.8792   -0.3625    0.0000 N   0  0  0  0  0  0  0  0  0  0  0  0
    0.8792   -2.0917    0.0000 O   0  0  0  0  0  0  0  0  0  0  0  0
    1.8792   -0.3625    0.0000 C   0  0  0  0  0  0  0  0  0  0  0  0
    2.3792    0.5083    0.0000 C   0  0  0  0  0  0  0  0  0  0  0  0
   -3.0208   -2.2292    0.0000 C   0  0  0  0  0  0  0  0  0  0  0  0
   -3.0208   -0.2292    0.0000 C   0  0  0  0  0  0  0  0  0  0  0  0
    1.8792    1.3708    0.0000 C   0  0  0  0  0  0  0  0  0  0  0  0
    3.3792    0.5083    0.0000 C   0  0  0  0  0  0  0  0  0  0  0  0
   -3.8958   -1.7292    0.0000 C   0  0  0  0  0  0  0  0  0  0  0  0
   -3.8958   -0.7292    0.0000 C   0  0  0  0  0  0  0  0  0  0  0  0
    3.8792    1.3708    0.0000 C   0  0  0  0  0  0  0  0  0  0  0  0
    2.3792    2.2333    0.0000 C   0  0  0  0  0  0  0  0  0  0  0  0
    3.3792    2.2333    0.0000 C   0  0  0  0  0  0  0  0  0  0  0  0
  2  1  1  0  0  0  0
  3  2  1  0  0  0  0
  4  1  1  0  0  0  0
  5  2  1  0  0  0  0
  5  6  1  0  0  0  0
  6  4  2  0  0  0  0
  7  3  1  0  0  0  0
  8  3  2  0  0  0  0
  9  7  1  0  0  0  0
 10  9  1  0  0  0  0
 11  4  1  0  0  0  0
 12  6  1  0  0  0  0
 12 16  2  0  0  0  0
 13 10  2  0  0  0  0
 14 10  1  0  0  0  0
 15 11  2  0  0  0  0
 16 15  1  0  0  0  0
 17 14  2  0  0  0  0
 18 13  1  0  0  0  0
 18 19  2  0  0  0  0
 19 17  1  0  0  0  0
M  END
>  <idnumber>
T6030107

>  <LogP>
2.588000000000000e+000

>  <rotating_bonds>
3.000000000000000e+000

>  <hb_acceptors>
2.000000000000000e+000

>  <hb_donors>
1.000000000000000e+000

>  <PSA>
3.833000000000000e+001

>  <clusterid>
797

>  <is_centroid>
@

>  <class1>
625

>  <class2>
803

>  <population1>
877209

>  <population2>
2603

>  <population>
2603

>  <cansmi>
O=C(C1Cc2c(O1)cccc2)NCc1ccccc1

>  <HBA2>
3

>  <HBD>
1

>  <logP>
2.6974

>  <TPSA>
38.33

>  <MW>
253.296

$$$$

 OpenBabel02121609142D

 15 16  0  0  0  0  0  0  0  0999 V2000
   -0.0583   -0.9875    0.0000 C   0  0  0  0  0  0  0  0  0  0  0  0
   -0.6458   -1.7917    0.0000 N   0  0  0  0  0  0  0  0  0  0  0  0
   -0.3625   -0.0292    0.0000 N   0  0  0  0  0  0  0  0  0  0  0  0
    0.8917   -1.2917    0.0000 C   0  0  0  0  0  0  0  0  0  0  0  0
    0.3042    0.7083    0.0000 C   0  0  0  0  0  0  0  0  0  0  0  0
   -0.0583   -2.6042    0.0000 N   0  0  0  0  0  0  0  0  0  0  0  0
    0.8917   -2.2917    0.0000 C   0  0  0  0  0  0  0  0  0  0  0  0
    1.2792    0.5000    0.0000 O   0  0  0  0  0  0  0  0  0  0  0  0
    0.0000    1.6583    0.0000 C   0  0  3  0  0  0  0  0  0  0  0  0
   -1.2875    2.8208    0.0000 C   0  0  0  0  0  0  0  0  0  0  0  0
   -0.6208    3.5583    0.0000 C   0  0  0  0  0  0  0  0  0  0  0  0
   -0.3625   -3.5542    0.0000 C   0  0  0  0  0  0  0  0  0  0  0  0
   -0.9833    1.8708    0.0000 C   0  0  0  0  0  0  0  0  0  0  0  0
    0.3542    3.3583    0.0000 C   0  0  0  0  0  0  0  0  0  0  0  0
    0.6667    2.4000    0.0000 C   0  0  0  0  0  0  0  0  0  0  0  0
  2  1  2  0  0  0  0
  3  1  1  0  0  0  0
  4  1  1  0  0  0  0
  5  3  1  0  0  0  0
  6  2  1  0  0  0  0
  6  7  1  0  0  0  0
  7  4  2  0  0  0  0
  8  5  2  0  0  0  0
  9  5  1  0  0  0  0
 10 13  1  0  0  0  0
 10 11  2  0  0  0  0
 11 14  1  0  0  0  0
 12  6  1  0  0  0  0
 13  9  1  0  0  0  0
 14 15  1  0  0  0  0
 15  9  1  0  0  0  0
M  END
>  <idnumber>
T6031292

>  <LogP>
1.230000000000000e+000

>  <rotating_bonds>
2.000000000000000e+000

>  <hb_acceptors>
2.000000000000000e+000

>  <hb_donors>
1.000000000000000e+000

>  <PSA>
4.692000000000000e+001

>  <clusterid>
798

>  <is_centroid>
@

>  <class1>
810

>  <class2>
631

>  <population1>
20527

>  <population2>
41612

>  <population>
700

>  <cansmi>
O=C(C1CCC=CC1)Nc1ccn(n1)C

>  <HBA2>
4

>  <HBD>
1

>  <logP>
1.7879

>  <TPSA>
46.92

>  <MW>
205.256

$$$$

 OpenBabel02121609142D

 19 21  0  0  0  0  0  0  0  0999 V2000
   -0.3708   -1.6625    0.0000 C   0  0  0  0  0  0  0  0  0  0  0  0
   -0.9583   -0.8542    0.0000 N   0  0  0  0  0  0  0  0  0  0  0  0
   -0.9583   -2.4667    0.0000 O   0  0  0  0  0  0  0  0  0  0  0  0
    2.1292    0.9333    0.0000 N   0  0  0  0  0  0  0  0  0  0  0  0
   -1.9083   -1.1625    0.0000 C   0  0  0  0  0  0  0  0  0  0  0  0
   -1.9083   -2.1625    0.0000 C   0  0  0  0  0  0  0  0  0  0  0  0
    0.6292   -1.6625    0.0000 N   0  0  0  0  0  0  0  0  0  0  0  0
    1.1292    0.9333    0.0000 C   0  0  0  0  0  0  0  0  0  0  0  0
    2.6292    0.0708    0.0000 C   0  0  0  0  0  0  0  0  0  0  0  0
    2.1292   -0.7917    0.0000 C   0  0  0  0  0  0  0  0  0  0  0  0
    0.6292    0.0708    0.0000 C   0  0  0  0  0  0  0  0  0  0  0  0
    1.1292   -0.7917    0.0000 C   0  0  0  0  0  0  0  0  0  0  0  0
    2.6292    1.8000    0.0000 C   0  0  0  0  0  0  0  0  0  0  0  0
   -2.7708   -0.6625    0.0000 C   0  0  0  0  0  0  0  0  0  0  0  0
   -2.7708   -2.6625    0.0000 C   0  0  0  0  0  0  0  0  0  0  0  0
    3.6292    1.8000    0.0000 C   0  0  0  0  0  0  0  0  0  0  0  0
    2.1292    2.6708    0.0000 C   0  0  0  0  0  0  0  0  0  0  0  0
   -3.6375   -2.1625    0.0000 C   0  0  0  0  0  0  0  0  0  0  0  0
   -3.6375   -1.1625    0.0000 C   0  0  0  0  0  0  0  0  0  0  0  0
  2  1  2  0  0  0  0
  3  1  1  0  0  0  0
  4  8  1  0  0  0  0
  5  2  1  0  0  0  0
  5  6  2  0  0  0  0
  6  3  1  0  0  0  0
  7  1  1  0  0  0  0
  8 11  1  0  0  0  0
  9 10  1  0  0  0  0
  9  4  1  0  0  0  0
 10 12  1  0  0  0  0
 11 12  1  0  0  0  0
 12  7  1  0  0  0  0
 13  4  1  0  0  0  0
 14  5  1  0  0  0  0
 15  6  1  0  0  0  0
 16 13  1  0  0  0  0
 17 13  1  0  0  0  0
 18 15  2  0  0  0  0
 19 14  2  0  0  0  0
 19 18  1  0  0  0  0
M  END
>  <idnumber>
T6031346

>  <LogP>
2.782000000000000e+000

>  <rotating_bonds>
3.000000000000000e+000

>  <hb_acceptors>
3.000000000000000e+000

>  <hb_donors>
1.000000000000000e+000

>  <PSA>
4.130000000000000e+001

>  <clusterid>
-1671

>  <is_centroid>
@

>  <class1>
752

>  <class2>
639

>  <population1>
4005

>  <population2>
59855

>  <population>
741

>  <cansmi>
CC(N1CCC(CC1)Nc1nc2c(o1)cccc2)C

>  <HBA2>
4

>  <HBD>
1

>  <logP>
3.1234

>  <TPSA>
41.3

>  <MW>
259.347

$$$$

 OpenBabel02121609142D

 19 21  0  0  0  0  0  0  0  0999 V2000
    7.0625   -6.0875    0.0000 C   0  0  0  0  0  0  0  0  0  0  0  0
    5.6208   -6.0875    0.0000 C   0  0  0  0  0  0  0  0  0  0  0  0
    6.3417   -6.5042    0.0000 C   0  0  0  0  0  0  0  0  0  0  0  0
    4.9083   -6.5042    0.0000 C   0  0  0  0  0  0  0  0  0  0  0  0
    4.1917   -6.0875    0.0000 C   0  0  0  0  0  0  0  0  0  0  0  0
    7.7750   -6.5042    0.0000 C   0  0  0  0  0  0  0  0  0  0  0  0
    4.1917   -5.2625    0.0000 C   0  0  0  0  0  0  0  0  0  0  0  0
    3.4042   -5.0000    0.0000 O   0  0  0  0  0  0  0  0  0  0  0  0
    9.2167   -4.8458    0.0000 N   0  0  0  0  0  0  0  0  0  0  0  0
    5.6208   -5.2625    0.0000 C   0  0  0  0  0  0  0  0  0  0  0  0
    6.3417   -7.3333    0.0000 O   0  0  0  0  0  0  0  0  0  0  0  0
    4.9083   -4.8458    0.0000 C   0  0  0  0  0  0  0  0  0  0  0  0
    8.4958   -6.0875    0.0000 C   0  0  0  0  0  0  0  0  0  0  0  0
    2.9167   -5.6750    0.0000 C   0  0  0  0  0  0  0  0  0  0  0  0
    3.4042   -6.3417    0.0000 C   0  0  0  0  0  0  0  0  0  0  0  0
    8.4958   -5.2625    0.0000 C   0  0  0  0  0  0  0  0  0  0  0  0
    9.9292   -5.2625    0.0000 C   0  0  0  0  0  0  0  0  0  0  0  0
    9.2167   -6.5042    0.0000 C   0  0  0  0  0  0  0  0  0  0  0  0
    9.9292   -6.0875    0.0000 C   0  0  0  0  0  0  0  0  0  0  0  0
  1  3  1  0  0  0  0
  2  3  1  0  0  0  0
  4  2  2  0  0  0  0
  5  4  1  0  0  0  0
  5  7  2  0  0  0  0
  6  1  2  0  0  0  0
  7 12  1  0  0  0  0
  8  7  1  0  0  0  0
  8 14  1  0  0  0  0
  9 16  1  0  0  0  0
  9 17  2  0  0  0  0
 10  2  1  0  0  0  0
 11  3  2  0  0  0  0
 12 10  2  0  0  0  0
 13  6  1  0  0  0  0
 14 15  1  0  0  0  0
 15  5  1  0  0  0  0
 16 13  2  0  0  0  0
 17 19  1  0  0  0  0
 18 13  1  0  0  0  0
 19 18  2  0  0  0  0
M  END
>  <idnumber>
T6033489

>  <LogP>
2.722000000000000e+000

>  <rotating_bonds>
3.000000000000000e+000

>  <hb_acceptors>
3.000000000000000e+000

>  <hb_donors>
0.000000000000000e+000

>  <PSA>
3.919000000000001e+001

>  <clusterid>
-1674

>  <is_centroid>
@

>  <class1>
632

>  <class2>
803

>  <population1>
79489

>  <population2>
2603

>  <population>
98

>  <cansmi>
O=C(c1ccc2c(c1)CCO2)/C=C/c1cccnc1

>  <HBA2>
3

>  <HBD>
0

>  <logP>
2.9126

>  <TPSA>
39.19

>  <MW>
251.28

$$$$

 OpenBabel02121609142D

 20 22  0  0  0  0  0  0  0  0999 V2000
    0.8792    0.0708    0.0000 N   0  0  0  0  0  0  0  0  0  0  0  0
   -1.2083   -1.6042    0.0000 S   0  0  0  0  0  0  0  0  0  0  0  0
    0.3792   -0.7917    0.0000 C   0  0  0  0  0  0  0  0  0  0  0  0
   -0.6208   -0.7917    0.0000 C   0  0  3  0  0  0  0  0  0  0  0  0
    1.8792    0.0708    0.0000 C   0  0  0  0  0  0  0  0  0  0  0  0
   -2.1583   -1.2917    0.0000 C   0  0  0  0  0  0  0  0  0  0  0  0
   -1.2083    0.0125    0.0000 C   0  0  0  0  0  0  0  0  0  0  0  0
   -2.1583   -0.2917    0.0000 C   0  0  0  0  0  0  0  0  0  0  0  0
    0.8792   -1.6625    0.0000 O   0  0  0  0  0  0  0  0  0  0  0  0
    2.3792    0.9333    0.0000 C   0  0  0  0  0  0  0  0  0  0  0  0
    2.3792   -0.7917    0.0000 C   0  0  0  0  0  0  0  0  0  0  0  0
    3.8792    0.0708    0.0000 C   0  0  0  0  0  0  0  0  0  0  0  0
   -3.0208   -1.7917    0.0000 C   0  0  0  0  0  0  0  0  0  0  0  0
   -3.0208    0.2083    0.0000 C   0  0  0  0  0  0  0  0  0  0  0  0
    3.3792   -0.7917    0.0000 C   0  0  0  0  0  0  0  0  0  0  0  0
    3.3792    0.9333    0.0000 C   0  0  0  0  0  0  0  0  0  0  0  0
    1.8792    1.8000    0.0000 C   0  0  0  0  0  0  0  0  0  0  0  0
    1.8792   -1.6625    0.0000 C   0  0  0  0  0  0  0  0  0  0  0  0
   -3.8958   -1.2917    0.0000 C   0  0  0  0  0  0  0  0  0  0  0  0
   -3.8958   -0.2917    0.0000 C   0  0  0  0  0  0  0  0  0  0  0  0
  2  4  1  0  0  0  0
  3  1  1  0  0  0  0
  4  3  1  0  0  0  0
  5  1  1  0  0  0  0
  6  2  1  0  0  0  0
  7  4  1  0  0  0  0
  8  7  1  0  0  0  0
  8  6  2  0  0  0  0
  9  3  2  0  0  0  0
 10  5  1  0  0  0  0
 11  5  2  0  0  0  0
 12 15  2  0  0  0  0
 12 16  1  0  0  0  0
 13  6  1  0  0  0  0
 14  8  1  0  0  0  0
 15 11  1  0  0  0  0
 16 10  2  0  0  0  0
 17 10  1  0  0  0  0
 18 11  1  0  0  0  0
 19 13  2  0  0  0  0
 20 14  2  0  0  0  0
 20 19  1  0  0  0  0
M  END
>  <idnumber>
T6034702

>  <LogP>
2.822000000000000e+000

>  <rotating_bonds>
2.000000000000000e+000

>  <hb_acceptors>
2.000000000000000e+000

>  <hb_donors>
1.000000000000000e+000

>  <PSA>
5.440000000000001e+001

>  <clusterid>
-1676

>  <is_centroid>
@

>  <class1>
625

>  <class2>
762

>  <population1>
877209

>  <population2>
254

>  <population>
254

>  <cansmi>
O=C(C1Cc2c(S1)cccc2)Nc1c(C)cccc1C

>  <HBA2>
3

>  <HBD>
1

>  <logP>
4.0319

>  <TPSA>
54.4

>  <MW>
283.388

$$$$

 OpenBabel02121609142D

 19 21  0  0  0  0  0  0  0  0999 V2000
    0.0667    1.0583    0.0000 C   0  0  0  0  0  0  0  0  0  0  0  0
    0.6542    1.8708    0.0000 C   0  0  0  0  0  0  0  0  0  0  0  0
    0.3750    0.1083    0.0000 C   0  0  0  0  0  0  0  0  0  0  0  0
    0.0667    2.6750    0.0000 N   0  0  0  0  0  0  0  0  0  0  0  0
   -0.8833    1.3708    0.0000 C   0  0  0  0  0  0  0  0  0  0  0  0
    1.6625   -1.0542    0.0000 C   0  0  0  0  0  0  0  0  0  0  0  0
    1.0750   -1.8625    0.0000 N   0  0  0  0  0  0  0  0  0  0  0  0
    1.3542   -0.0917    0.0000 N   0  0  0  0  0  0  0  0  0  0  0  0
   -0.8833    2.3708    0.0000 C   0  0  0  0  0  0  0  0  0  0  0  0
    2.6125   -1.3625    0.0000 C   0  0  0  0  0  0  0  0  0  0  0  0
    1.6625   -2.6667    0.0000 N   0  0  0  0  0  0  0  0  0  0  0  0
    2.6125   -2.3625    0.0000 C   0  0  0  0  0  0  0  0  0  0  0  0
   -0.2958   -0.6375    0.0000 O   0  0  0  0  0  0  0  0  0  0  0  0
    0.3750    3.6250    0.0000 C   0  0  0  0  0  0  0  0  0  0  0  0
   -1.7500    0.8708    0.0000 C   0  0  0  0  0  0  0  0  0  0  0  0
   -1.7500    2.8708    0.0000 C   0  0  0  0  0  0  0  0  0  0  0  0
    1.3542   -3.6167    0.0000 C   0  0  0  0  0  0  0  0  0  0  0  0
   -2.6208    1.3708    0.0000 C   0  0  0  0  0  0  0  0  0  0  0  0
   -2.6208    2.3708    0.0000 C   0  0  0  0  0  0  0  0  0  0  0  0
  2  1  2  0  0  0  0
  3  1  1  0  0  0  0
  4  2  1  0  0  0  0
  4  9  1  0  0  0  0
  5  1  1  0  0  0  0
  6  8  1  0  0  0  0
  7  6  2  0  0  0  0
  8  3  1  0  0  0  0
  9  5  2  0  0  0  0
 10  6  1  0  0  0  0
 11  7  1  0  0  0  0
 11 12  1  0  0  0  0
 12 10  2  0  0  0  0
 13  3  2  0  0  0  0
 14  4  1  0  0  0  0
 15  5  1  0  0  0  0
 16  9  1  0  0  0  0
 16 19  2  0  0  0  0
 17 11  1  0  0  0  0
 18 15  2  0  0  0  0
 19 18  1  0  0  0  0
M  END
>  <idnumber>
T6035831

>  <LogP>
1.718000000000000e+000

>  <rotating_bonds>
2.000000000000000e+000

>  <hb_acceptors>
2.000000000000000e+000

>  <hb_donors>
1.000000000000000e+000

>  <PSA>
5.184999999999996e+001

>  <clusterid>
-1677

>  <is_centroid>
@

>  <class1>
631

>  <class2>
748

>  <population1>
41612

>  <population2>
15713

>  <population>
273

>  <cansmi>
Cn1ccc(n1)NC(=O)c1cn(c2c1cccc2)C

>  <HBA2>
5

>  <HBD>
1

>  <logP>
2.2371

>  <TPSA>
51.85

>  <MW>
254.287

$$$$

 OpenBabel02121609142D

 13 14  0  0  0  0  0  0  0  0999 V2000
    0.5042    0.2000    0.0000 C   0  0  0  0  0  0  0  0  0  0  0  0
    1.0917   -0.6042    0.0000 N   0  0  0  0  0  0  0  0  0  0  0  0
   -0.4958    0.2000    0.0000 C   0  0  0  0  0  0  0  0  0  0  0  0
    1.0917    1.0083    0.0000 C   0  0  0  0  0  0  0  0  0  0  0  0
    2.0417   -0.3000    0.0000 C   0  0  0  0  0  0  0  0  0  0  0  0
    2.0417    0.7000    0.0000 C   0  0  0  0  0  0  0  0  0  0  0  0
   -0.9958    1.0708    0.0000 N   0  0  0  0  0  0  0  0  0  0  0  0
   -1.9958    1.0708    0.0000 C   0  0  0  0  0  0  0  0  0  0  0  0
   -2.8583    1.5708    0.0000 C   0  0  0  0  0  0  0  0  0  0  0  0
   -2.8583    0.5708    0.0000 C   0  0  0  0  0  0  0  0  0  0  0  0
   -0.9958   -0.6667    0.0000 O   0  0  0  0  0  0  0  0  0  0  0  0
    2.8542    1.2875    0.0000 Br  0  0  0  0  0  0  0  0  0  0  0  0
    0.7875   -1.5625    0.0000 C   0  0  0  0  0  0  0  0  0  0  0  0
  2  1  1  0  0  0  0
  3  1  1  0  0  0  0
  4  1  2  0  0  0  0
  5  2  1  0  0  0  0
  5  6  2  0  0  0  0
  6  4  1  0  0  0  0
  7  3  1  0  0  0  0
  8  7  1  0  0  0  0
  9  8  1  0  0  0  0
  9 10  1  0  0  0  0
 10  8  1  0  0  0  0
 11  3  2  0  0  0  0
 12  6  1  0  0  0  0
 13  2  1  0  0  0  0
M  END
>  <idnumber>
T6038710

>  <LogP>
1.846000000000000e+000

>  <rotating_bonds>
2.000000000000000e+000

>  <hb_acceptors>
1.000000000000000e+000

>  <hb_donors>
1.000000000000000e+000

>  <PSA>
3.403000000000000e+001

>  <clusterid>
-1678

>  <is_centroid>
@

>  <class1>
675

>  <class2>
635

>  <population1>
33654

>  <population2>
31512

>  <population>
1809

>  <cansmi>
O=C(c1cc(cn1C)Br)NC1CC1

>  <HBA2>
3

>  <HBD>
1

>  <logP>
2.0707

>  <TPSA>
34.03

>  <MW>
243.1

$$$$

 OpenBabel02121609142D

 20 22  0  0  0  0  0  0  0  0999 V2000
   -1.3000   -0.5000    0.0000 N   0  0  0  0  0  0  0  0  0  0  0  0
   -1.3000    0.5000    0.0000 C   0  0  0  0  0  0  0  0  0  0  0  0
   -0.4333   -1.0000    0.0000 C   0  0  0  0  0  0  0  0  0  0  0  0
   -0.4333    1.0000    0.0000 C   0  0  0  0  0  0  0  0  0  0  0  0
   -0.4333   -2.0000    0.0000 C   0  0  0  0  0  0  0  0  0  0  0  0
    0.4292    2.5000    0.0000 N   0  0  0  0  0  0  0  0  0  0  0  0
    0.4292   -0.5000    0.0000 C   0  0  0  0  0  0  0  0  0  0  0  0
   -0.4333    2.0000    0.0000 C   0  0  0  0  0  0  0  0  0  0  0  0
    1.2917    2.0000    0.0000 C   0  0  0  0  0  0  0  0  0  0  0  0
   -2.1708    1.0000    0.0000 O   0  0  0  0  0  0  0  0  0  0  0  0
    0.4292   -2.5000    0.0000 C   0  0  0  0  0  0  0  0  0  0  0  0
    0.4292    0.5000    0.0000 C   0  0  0  0  0  0  0  0  0  0  0  0
   -2.1708   -1.0000    0.0000 C   0  0  0  0  0  0  0  0  0  0  0  0
    1.2917    1.0000    0.0000 C   0  0  0  0  0  0  0  0  0  0  0  0
    1.2917   -1.0000    0.0000 C   0  0  0  0  0  0  0  0  0  0  0  0
    1.2917   -2.0000    0.0000 C   0  0  0  0  0  0  0  0  0  0  0  0
    2.1625    2.5000    0.0000 O   0  0  0  0  0  0  0  0  0  0  0  0
   -1.3000   -2.5000    0.0000 C   0  0  0  0  0  0  0  0  0  0  0  0
   -2.1708   -2.0000    0.0000 C   0  0  0  0  0  0  0  0  0  0  0  0
    2.1625   -2.5000    0.0000 C   0  0  0  0  0  0  0  0  0  0  0  0
  2  1  1  0  0  0  0
  3  1  1  0  0  0  0
  4  2  1  0  0  0  0
  5  3  2  0  0  0  0
  6  8  1  0  0  0  0
  6  9  2  0  0  0  0
  7  3  1  0  0  0  0
  8  4  2  0  0  0  0
  9 14  1  0  0  0  0
 10  2  2  0  0  0  0
 11  5  1  0  0  0  0
 11 16  2  0  0  0  0
 12  4  1  0  0  0  0
 13  1  1  0  0  0  0
 14 12  2  0  0  0  0
 15  7  2  0  0  0  0
 16 15  1  0  0  0  0
 17  9  1  0  0  0  0
 18 19  1  0  0  0  0
 18  5  1  0  0  0  0
 19 13  1  0  0  0  0
 20 16  1  0  0  0  0
M  END
>  <idnumber>
T6038976

>  <LogP>
2.807000000000000e+000

>  <rotating_bonds>
1.000000000000000e+000

>  <hb_acceptors>
3.000000000000000e+000

>  <hb_donors>
1.000000000000000e+000

>  <PSA>
5.343000000000000e+001

>  <clusterid>
-1679

>  <is_centroid>
@

>  <class1>
814

>  <class2>
632

>  <population1>
5317

>  <population2>
79489

>  <population>
195

>  <cansmi>
Oc1ccc(cn1)C(=O)N1CCCc2c1ccc(c2)C

>  <HBA2>
4

>  <HBD>
1

>  <logP>
2.7536

>  <TPSA>
53.43

>  <MW>
268.31

$$$$

 OpenBabel02121609142D

 10  9  0  0  0  0  0  0  0  0999 V2000
    0.5417    0.6458    0.0000 N   0  0  0  0  0  0  0  0  0  0  0  0
   -3.1333    0.0750    0.0000 Cl  0  0  0  0  0  0  0  0  0  0  0  0
    1.5042    0.3958    0.0000 C   0  0  0  0  0  0  0  0  0  0  0  0
   -0.1583   -0.0667    0.0000 C   0  0  0  0  0  0  0  0  0  0  0  0
    1.8750   -0.5292    0.0000 C   0  0  0  0  0  0  0  0  0  0  0  0
    2.2792    1.0333    0.0000 C   0  0  0  0  0  0  0  0  0  0  0  0
    0.1042   -1.0292    0.0000 C   0  0  0  0  0  0  0  0  0  0  0  0
   -1.1333    0.1833    0.0000 C   0  0  0  0  0  0  0  0  0  0  0  0
    3.1250    0.4958    0.0000 C   0  0  0  0  0  0  0  0  0  0  0  0
    2.8750   -0.4667    0.0000 C   0  0  0  0  0  0  0  0  0  0  0  0
  3  1  1  0  0  0  0
  4  1  1  0  0  0  0
  5  3  1  0  0  0  0
  6  3  1  0  0  0  0
  7  4  1  0  0  0  0
  8  4  1  0  0  0  0
  9  6  1  0  0  0  0
 10  5  1  0  0  0  0
 10  9  1  0  0  0  0
M  END
>  <idnumber>
T6039404

>  <LogP>
1.792000000000000e+000

>  <rotating_bonds>
2.000000000000000e+000

>  <hb_acceptors>
1.000000000000000e+000

>  <hb_donors>
1.000000000000000e+000

>  <PSA>
1.203000000000000e+001

>  <clusterid>
-1681

>  <is_centroid>
@

>  <class1>
674

>  <population1>
16474

>  <population>
16474

>  <cansmi>
CC(NC1CCCC1)C.Cl

>  <HBA2>
1

>  <HBD>
2

>  <logP>
3.1199

>  <TPSA>
12.03

>  <MW>
163.688

$$$$

 OpenBabel02121609142D

 12 13  0  0  0  0  0  0  0  0999 V2000
    0.2042   -0.2167    0.0000 N   0  0  0  0  0  0  0  0  0  0  0  0
   -0.7458    0.0958    0.0000 C   0  0  0  0  0  0  0  0  0  0  0  0
    2.4667   -1.5875    0.0000 N   0  0  0  0  0  0  0  0  0  0  0  0
    1.4917   -1.3792    0.0000 C   0  0  0  0  0  0  0  0  0  0  0  0
    0.7917    0.5958    0.0000 C   0  0  0  0  0  0  0  0  0  0  0  0
   -0.7458    1.0958    0.0000 C   0  0  0  0  0  0  0  0  0  0  0  0
    0.2042    1.4000    0.0000 C   0  0  0  0  0  0  0  0  0  0  0  0
    0.5167   -1.1667    0.0000 C   0  0  0  0  0  0  0  0  0  0  0  0
   -1.6083   -0.4042    0.0000 C   0  0  0  0  0  0  0  0  0  0  0  0
   -1.6083    1.5958    0.0000 C   0  0  0  0  0  0  0  0  0  0  0  0
   -2.4750    0.0958    0.0000 C   0  0  0  0  0  0  0  0  0  0  0  0
   -2.4750    1.0958    0.0000 C   0  0  0  0  0  0  0  0  0  0  0  0
  2  1  1  0  0  0  0
  3  4  3  0  0  0  0
  4  8  1  0  0  0  0
  5  1  1  0  0  0  0
  6  2  2  0  0  0  0
  7  5  1  0  0  0  0
  7  6  1  0  0  0  0
  8  1  1  0  0  0  0
  9  2  1  0  0  0  0
 10  6  1  0  0  0  0
 10 12  2  0  0  0  0
 11  9  2  0  0  0  0
 12 11  1  0  0  0  0
M  END
>  <idnumber>
T6039410

>  <LogP>
1.710000000000000e+000

>  <rotating_bonds>
2.000000000000000e+000

>  <hb_acceptors>
2.000000000000000e+000

>  <hb_donors>
0.000000000000000e+000

>  <PSA>
2.703000000000000e+001

>  <clusterid>
-1683

>  <is_centroid>
@

>  <class1>
732

>  <population1>
13534

>  <population>
13534

>  <cansmi>
N#CCN1CCc2c1cccc2

>  <HBA2>
2

>  <HBD>
0

>  <logP>
1.63768

>  <TPSA>
27.03

>  <MW>
158.2

$$$$

 OpenBabel02121609142D

 16 17  0  0  0  0  0  0  0  0999 V2000
   -0.1083    0.7333    0.0000 C   0  0  0  0  0  0  0  0  0  0  0  0
    0.4875    1.5458    0.0000 N   0  0  0  0  0  0  0  0  0  0  0  0
    0.2042   -0.2167    0.0000 C   0  0  0  0  0  0  0  0  0  0  0  0
   -1.0583    1.0458    0.0000 C   0  0  0  0  0  0  0  0  0  0  0  0
   -0.1083    2.3500    0.0000 N   0  0  0  0  0  0  0  0  0  0  0  0
    1.1792   -0.4250    0.0000 N   0  0  0  0  0  0  0  0  0  0  0  0
   -1.0583    2.0458    0.0000 C   0  0  0  0  0  0  0  0  0  0  0  0
   -0.4625   -0.9625    0.0000 O   0  0  0  0  0  0  0  0  0  0  0  0
   -1.9208    0.5458    0.0000 C   0  0  0  0  0  0  0  0  0  0  0  0
    1.4917   -1.3792    0.0000 C   0  0  3  0  0  0  0  0  0  0  0  0
   -1.9208    2.5458    0.0000 C   0  0  0  0  0  0  0  0  0  0  0  0
    2.4667   -1.5875    0.0000 C   0  0  0  0  0  0  0  0  0  0  0  0
    0.8250   -2.1167    0.0000 C   0  0  0  0  0  0  0  0  0  0  0  0
   -2.7833    1.0458    0.0000 C   0  0  0  0  0  0  0  0  0  0  0  0
    2.7792   -2.5375    0.0000 C   0  0  0  0  0  0  0  0  0  0  0  0
   -2.7833    2.0458    0.0000 C   0  0  0  0  0  0  0  0  0  0  0  0
  2  1  2  0  0  0  0
  3  1  1  0  0  0  0
  4  1  1  0  0  0  0
  5  2  1  0  0  0  0
  5  7  1  0  0  0  0
  6  3  1  0  0  0  0
  7  4  2  0  0  0  0
  8  3  2  0  0  0  0
  9  4  1  0  0  0  0
 10  6  1  0  0  0  0
 11  7  1  0  0  0  0
 11 16  2  0  0  0  0
 12 10  1  0  0  0  0
 13 10  1  0  0  0  0
 14  9  2  0  0  0  0
 15 12  1  0  0  0  0
 16 14  1  0  0  0  0
M  END
>  <idnumber>
T6039646

>  <LogP>
2.579000000000000e+000

>  <rotating_bonds>
3.000000000000000e+000

>  <hb_acceptors>
2.000000000000000e+000

>  <hb_donors>
2.000000000000000e+000

>  <PSA>
5.778000000000000e+001

>  <clusterid>
364

>  <is_centroid>
@

>  <class1>
829

>  <population1>
1541

>  <population>
1541

>  <cansmi>
CCC(NC(=O)c1n[nH]c2c1cccc2)C

>  <HBA2>
3

>  <HBD>
2

>  <logP>
2.4821

>  <TPSA>
57.78

>  <MW>
217.267

$$$$

 OpenBabel02121609142D

 19 21  0  0  0  0  0  0  0  0999 V2000
   -1.1208    0.0083    0.0000 C   0  0  0  0  0  0  0  0  0  0  0  0
   -1.7083    0.8125    0.0000 N   0  0  0  0  0  0  0  0  0  0  0  0
   -1.7083   -0.8042    0.0000 O   0  0  0  0  0  0  0  0  0  0  0  0
   -0.1208    0.0083    0.0000 N   0  0  0  0  0  0  0  0  0  0  0  0
   -2.6583    0.5000    0.0000 C   0  0  0  0  0  0  0  0  0  0  0  0
   -2.6583   -0.5000    0.0000 C   0  0  0  0  0  0  0  0  0  0  0  0
    2.8792    0.0083    0.0000 C   0  0  0  0  0  0  0  0  0  0  0  0
    0.3792   -0.8625    0.0000 C   0  0  0  0  0  0  0  0  0  0  0  0
    0.3792    0.8708    0.0000 C   0  0  0  0  0  0  0  0  0  0  0  0
    1.8792    0.0083    0.0000 C   0  0  0  0  0  0  0  0  0  0  0  0
    3.3792   -0.8625    0.0000 O   0  0  0  0  0  0  0  0  0  0  0  0
    1.3792   -0.8625    0.0000 C   0  0  0  0  0  0  0  0  0  0  0  0
    1.3792    0.8708    0.0000 C   0  0  0  0  0  0  0  0  0  0  0  0
    3.3792    0.8708    0.0000 N   0  0  0  0  0  0  0  0  0  0  0  0
   -3.5208    1.0000    0.0000 C   0  0  0  0  0  0  0  0  0  0  0  0
   -3.5208   -1.0000    0.0000 C   0  0  0  0  0  0  0  0  0  0  0  0
    4.3792    0.8708    0.0000 C   0  0  0  0  0  0  0  0  0  0  0  0
   -4.3958   -0.5000    0.0000 C   0  0  0  0  0  0  0  0  0  0  0  0
   -4.3958    0.5000    0.0000 C   0  0  0  0  0  0  0  0  0  0  0  0
  2  1  2  0  0  0  0
  3  1  1  0  0  0  0
  4  1  1  0  0  0  0
  5  2  1  0  0  0  0
  5  6  2  0  0  0  0
  6  3  1  0  0  0  0
  7 10  1  0  0  0  0
  8  4  1  0  0  0  0
  9  4  1  0  0  0  0
 10 13  1  0  0  0  0
 11  7  2  0  0  0  0
 12  8  1  0  0  0  0
 12 10  1  0  0  0  0
 13  9  1  0  0  0  0
 14  7  1  0  0  0  0
 15  5  1  0  0  0  0
 16  6  1  0  0  0  0
 17 14  1  0  0  0  0
 18 16  2  0  0  0  0
 19 15  2  0  0  0  0
 19 18  1  0  0  0  0
M  END
>  <idnumber>
T6039668

>  <LogP>
9.209999999999999e-001

>  <rotating_bonds>
2.000000000000000e+000

>  <hb_acceptors>
3.000000000000000e+000

>  <hb_donors>
1.000000000000000e+000

>  <PSA>
5.837000000000000e+001

>  <clusterid>
806

>  <is_centroid>
@

>  <class1>
639

>  <class2>
752

>  <population1>
59855

>  <population2>
4005

>  <population>
741

>  <cansmi>
CNC(=O)C1CCN(CC1)c1nc2c(o1)cccc2

>  <HBA2>
5

>  <HBD>
1

>  <logP>
2.2461

>  <TPSA>
58.37

>  <MW>
259.304

$$$$

 OpenBabel02121609142D

 22 24  0  0  0  0  0  0  0  0999 V2000
    0.4292   -0.5000    0.0000 C   0  0  0  0  0  0  0  0  0  0  0  0
   -3.0333    1.5000    0.0000 N   0  0  0  0  0  0  0  0  0  0  0  0
    1.2917    0.0000    0.0000 N   0  0  0  0  0  0  0  0  0  0  0  0
   -0.4333    0.0000    0.0000 C   0  0  0  0  0  0  0  0  0  0  0  0
   -2.1708    0.0000    0.0000 C   0  0  0  0  0  0  0  0  0  0  0  0
   -2.1708    1.0000    0.0000 C   0  0  0  0  0  0  0  0  0  0  0  0
   -3.9000    1.0000    0.0000 C   0  0  0  0  0  0  0  0  0  0  0  0
   -3.0333   -0.5000    0.0000 O   0  0  0  0  0  0  0  0  0  0  0  0
   -1.3000   -0.5000    0.0000 C   0  0  0  0  0  0  0  0  0  0  0  0
    2.1625   -0.5000    0.0000 C   0  0  0  0  0  0  0  0  0  0  0  0
    0.4292   -1.5000    0.0000 O   0  0  0  0  0  0  0  0  0  0  0  0
   -0.4333    1.0000    0.0000 C   0  0  0  0  0  0  0  0  0  0  0  0
   -1.3000    1.5000    0.0000 C   0  0  0  0  0  0  0  0  0  0  0  0
   -4.7708    1.5000    0.0000 O   0  0  0  0  0  0  0  0  0  0  0  0
   -3.9000    0.0000    0.0000 C   0  0  0  0  0  0  0  0  0  0  0  0
    3.0292    0.0000    0.0000 C   0  0  0  0  0  0  0  0  0  0  0  0
    1.2917    1.0000    0.0000 C   0  0  0  0  0  0  0  0  0  0  0  0
    3.0292    1.0000    0.0000 C   0  0  0  0  0  0  0  0  0  0  0  0
    3.8917   -0.5000    0.0000 C   0  0  0  0  0  0  0  0  0  0  0  0
    4.7625    0.0000    0.0000 C   0  0  0  0  0  0  0  0  0  0  0  0
    3.8917    1.5000    0.0000 C   0  0  0  0  0  0  0  0  0  0  0  0
    4.7625    1.0000    0.0000 C   0  0  0  0  0  0  0  0  0  0  0  0
  2  6  1  0  0  0  0
  3  1  1  0  0  0  0
  4  1  1  0  0  0  0
  5  9  1  0  0  0  0
  5  6  2  0  0  0  0
  6 13  1  0  0  0  0
  7  2  1  0  0  0  0
  7 15  1  0  0  0  0
  8  5  1  0  0  0  0
  9  4  2  0  0  0  0
 10  3  1  0  0  0  0
 11  1  2  0  0  0  0
 12  4  1  0  0  0  0
 13 12  2  0  0  0  0
 14  7  2  0  0  0  0
 15  8  1  0  0  0  0
 16 10  1  0  0  0  0
 17  3  1  0  0  0  0
 18 16  2  0  0  0  0
 19 16  1  0  0  0  0
 20 19  2  0  0  0  0
 21 18  1  0  0  0  0
 21 22  2  0  0  0  0
 22 20  1  0  0  0  0
M  END
>  <idnumber>
T6039800

>  <LogP>
1.983000000000000e+000

>  <rotating_bonds>
3.000000000000000e+000

>  <hb_acceptors>
3.000000000000000e+000

>  <hb_donors>
1.000000000000000e+000

>  <PSA>
5.863999999999997e+001

>  <clusterid>
807

>  <is_centroid>
@

>  <class1>
625

>  <class2>
822

>  <population1>
877209

>  <population2>
2937

>  <population>
2937

>  <cansmi>
O=C1COc2c(N1)ccc(c2)C(=O)N(Cc1ccccc1)C

>  <HBA2>
5

>  <HBD>
1

>  <logP>
2.4277

>  <TPSA>
58.64

>  <MW>
296.321

$$$$

 OpenBabel02121609142D

 16 17  0  0  0  0  0  0  0  0999 V2000
    0.4292    0.5000    0.0000 N   0  0  0  0  0  0  0  0  0  0  0  0
   -0.4333    1.0083    0.0000 C   0  0  0  0  0  0  0  0  0  0  0  0
   -1.3000   -1.5000    0.0000 N   0  0  0  0  0  0  0  0  0  0  0  0
   -1.3000   -0.5000    0.0000 C   0  0  0  0  0  0  0  0  0  0  0  0
   -1.3000    0.5000    0.0000 C   0  0  0  0  0  0  0  0  0  0  0  0
    0.4292   -0.5000    0.0000 C   0  0  0  0  0  0  0  0  0  0  0  0
    1.2917   -1.0000    0.0000 C   0  0  3  0  0  0  0  0  0  0  0  0
    1.2917    1.0083    0.0000 C   0  0  0  0  0  0  0  0  0  0  0  0
    2.1625   -2.5000    0.0000 O   0  0  0  0  0  0  0  0  0  0  0  0
    2.1625    0.5000    0.0000 C   0  0  0  0  0  0  0  0  0  0  0  0
   -0.4333    2.0083    0.0000 C   0  0  0  0  0  0  0  0  0  0  0  0
   -2.1708    1.0083    0.0000 C   0  0  0  0  0  0  0  0  0  0  0  0
    1.2917   -2.0000    0.0000 C   0  0  0  0  0  0  0  0  0  0  0  0
    2.1625   -0.5000    0.0000 C   0  0  0  0  0  0  0  0  0  0  0  0
   -1.3000    2.5000    0.0000 C   0  0  0  0  0  0  0  0  0  0  0  0
   -2.1708    2.0083    0.0000 C   0  0  0  0  0  0  0  0  0  0  0  0
  2  1  1  0  0  0  0
  3  4  3  0  0  0  0
  4  5  1  0  0  0  0
  5  2  2  0  0  0  0
  6  1  1  0  0  0  0
  7  6  1  0  0  0  0
  7 14  1  0  0  0  0
  8  1  1  0  0  0  0
  9 13  1  0  0  0  0
 10  8  1  0  0  0  0
 11  2  1  0  0  0  0
 12  5  1  0  0  0  0
 12 16  2  0  0  0  0
 13  7  1  0  0  0  0
 14 10  1  0  0  0  0
 15 11  2  0  0  0  0
 16 15  1  0  0  0  0
M  END
>  <idnumber>
T6040310

>  <LogP>
1.862000000000000e+000

>  <rotating_bonds>
3.000000000000000e+000

>  <hb_acceptors>
3.000000000000000e+000

>  <hb_donors>
1.000000000000000e+000

>  <PSA>
4.726000000000001e+001

>  <clusterid>
810

>  <is_centroid>
@

>  <class1>
639

>  <class2>
625

>  <population1>
59855

>  <population2>
877209

>  <population>
54917

>  <cansmi>
OCC1CCCN(C1)c1ccccc1C#N

>  <HBA2>
3

>  <HBD>
1

>  <logP>
1.83198

>  <TPSA>
47.26

>  <MW>
216.279

$$$$

 OpenBabel02121609142D

 18 20  0  0  0  0  0  0  0  0999 V2000
    0.2167    2.1833    0.0000 N   0  0  0  0  0  0  0  0  0  0  0  0
   -0.7375    2.4875    0.0000 C   0  0  0  0  0  0  0  0  0  0  0  0
   -0.7375    0.8708    0.0000 C   0  0  3  0  0  0  0  0  0  0  0  0
   -1.0458   -0.0792    0.0000 C   0  0  0  0  0  0  0  0  0  0  0  0
    0.2167    1.1833    0.0000 C   0  0  0  0  0  0  0  0  0  0  0  0
    1.0250    2.7708    0.0000 C   0  0  0  0  0  0  0  0  0  0  0  0
   -1.3250    1.6833    0.0000 C   0  0  0  0  0  0  0  0  0  0  0  0
    2.0167    2.8708    0.0000 C   0  0  0  0  0  0  0  0  0  0  0  0
    1.4292    3.6833    0.0000 C   0  0  0  0  0  0  0  0  0  0  0  0
   -0.3750   -0.8250    0.0000 N   0  0  0  0  0  0  0  0  0  0  0  0
   -1.0458    3.4458    0.0000 O   0  0  0  0  0  0  0  0  0  0  0  0
   -2.0208   -0.2875    0.0000 O   0  0  0  0  0  0  0  0  0  0  0  0
   -0.6833   -1.7750    0.0000 C   0  0  0  0  0  0  0  0  0  0  0  0
   -0.0208   -2.5167    0.0000 C   0  0  0  0  0  0  0  0  0  0  0  0
   -1.6625   -1.9792    0.0000 C   0  0  0  0  0  0  0  0  0  0  0  0
   -1.9708   -2.9292    0.0000 C   0  0  0  0  0  0  0  0  0  0  0  0
   -0.3250   -3.4667    0.0000 C   0  0  0  0  0  0  0  0  0  0  0  0
   -1.3083   -3.6750    0.0000 C   0  0  0  0  0  0  0  0  0  0  0  0
  2  1  1  0  0  0  0
  3  5  1  0  0  0  0
  3  7  1  0  0  0  0
  4  3  1  0  0  0  0
  5  1  1  0  0  0  0
  6  1  1  0  0  0  0
  7  2  1  0  0  0  0
  8  6  1  0  0  0  0
  8  9  1  0  0  0  0
  9  6  1  0  0  0  0
 10  4  1  0  0  0  0
 11  2  2  0  0  0  0
 12  4  2  0  0  0  0
 13 10  1  0  0  0  0
 14 13  2  0  0  0  0
 15 13  1  0  0  0  0
 16 15  2  0  0  0  0
 17 14  1  0  0  0  0
 17 18  2  0  0  0  0
 18 16  1  0  0  0  0
M  END
>  <idnumber>
T6040556

>  <LogP>
1.537000000000000e+000

>  <rotating_bonds>
3.000000000000000e+000

>  <hb_acceptors>
2.000000000000000e+000

>  <hb_donors>
1.000000000000000e+000

>  <PSA>
4.941000000000003e+001

>  <clusterid>
793

>  <is_centroid>
@

>  <class1>
625

>  <class2>
673

>  <class3>
675

>  <population1>
877209

>  <population2>
18691

>  <population3>
33654

>  <population>
369

>  <cansmi>
O=C(C1CC(=O)N(C1)C1CC1)Nc1ccccc1

>  <HBA2>
4

>  <HBD>
1

>  <logP>
1.6469

>  <TPSA>
49.41

>  <MW>
244.289

$$$$

 OpenBabel02121609142D

 22 24  0  0  0  0  0  0  0  0999 V2000
   -0.9625   -0.2417    0.0000 C   0  0  0  0  0  0  0  0  0  0  0  0
   -1.8333    0.2583    0.0000 C   0  0  0  0  0  0  0  0  0  0  0  0
   -0.1000    0.2583    0.0000 N   0  0  0  0  0  0  0  0  0  0  0  0
   -2.6958   -0.2417    0.0000 C   0  0  0  0  0  0  0  0  0  0  0  0
   -3.5625    0.2583    0.0000 C   0  0  0  0  0  0  0  0  0  0  0  0
    4.2292   -1.2500    0.0000 C   0  0  0  0  0  0  0  0  0  0  0  0
    3.3667   -1.7500    0.0000 N   0  0  0  0  0  0  0  0  0  0  0  0
   -0.9625   -1.2500    0.0000 O   0  0  0  0  0  0  0  0  0  0  0  0
   -3.5625    1.2500    0.0000 C   0  0  0  0  0  0  0  0  0  0  0  0
   -1.8333    1.2500    0.0000 C   0  0  0  0  0  0  0  0  0  0  0  0
    5.0917   -1.7500    0.0000 O   0  0  0  0  0  0  0  0  0  0  0  0
   -2.6958    1.7583    0.0000 C   0  0  0  0  0  0  0  0  0  0  0  0
    0.7667   -0.2500    0.0000 C   0  0  0  0  0  0  0  0  0  0  0  0
    2.5000   -1.2500    0.0000 C   0  0  0  0  0  0  0  0  0  0  0  0
    1.6292    0.2500    0.0000 C   0  0  0  0  0  0  0  0  0  0  0  0
    0.7667   -1.2500    0.0000 C   0  0  0  0  0  0  0  0  0  0  0  0
    2.5000   -0.2500    0.0000 C   0  0  0  0  0  0  0  0  0  0  0  0
    1.6292   -1.7500    0.0000 C   0  0  0  0  0  0  0  0  0  0  0  0
   -4.5208   -0.0542    0.0000 C   0  0  0  0  0  0  0  0  0  0  0  0
   -5.1000    0.7500    0.0000 C   0  0  0  0  0  0  0  0  0  0  0  0
   -4.5208    1.5625    0.0000 C   0  0  0  0  0  0  0  0  0  0  0  0
    4.2292   -0.2500    0.0000 C   0  0  0  0  0  0  0  0  0  0  0  0
  2  1  1  0  0  0  0
  3  1  1  0  0  0  0
  4  2  2  0  0  0  0
  5  4  1  0  0  0  0
  5  9  2  0  0  0  0
  6  7  1  0  0  0  0
  7 14  1  0  0  0  0
  8  1  2  0  0  0  0
  9 12  1  0  0  0  0
 10  2  1  0  0  0  0
 11  6  2  0  0  0  0
 12 10  2  0  0  0  0
 13  3  1  0  0  0  0
 14 18  2  0  0  0  0
 14 17  1  0  0  0  0
 15 13  1  0  0  0  0
 16 13  2  0  0  0  0
 17 15  2  0  0  0  0
 18 16  1  0  0  0  0
 19  5  1  0  0  0  0
 20 19  1  0  0  0  0
 21  9  1  0  0  0  0
 21 20  1  0  0  0  0
 22  6  1  0  0  0  0
M  END
>  <idnumber>
T6040621

>  <LogP>
2.682000000000000e+000

>  <rotating_bonds>
3.000000000000000e+000

>  <hb_acceptors>
2.000000000000000e+000

>  <hb_donors>
2.000000000000000e+000

>  <PSA>
5.820000000000000e+001

>  <clusterid>
761

>  <is_centroid>
@

>  <class1>
625

>  <class2>
644

>  <population1>
877209

>  <population2>
7036

>  <population>
7036

>  <cansmi>
CC(=O)Nc1ccc(cc1)NC(=O)c1ccc2c(c1)CCC2

>  <HBA2>
4

>  <HBD>
2

>  <logP>
3.532

>  <TPSA>
58.2

>  <MW>
294.348

$$$$

 OpenBabel02121609142D

 22 24  0  0  0  0  0  0  0  0999 V2000
    7.9250   -7.0917    0.0000 N   0  0  0  0  0  0  0  0  0  0  0  0
    7.2083   -5.8542    0.0000 C   0  0  0  0  0  0  0  0  0  0  0  0
    7.2542   -8.4125    0.0000 C   0  0  0  0  0  0  0  0  0  0  0  0
    7.2083   -6.6792    0.0000 C   0  0  0  0  0  0  0  0  0  0  0  0
    7.9250   -7.9208    0.0000 C   0  0  3  0  0  0  0  0  0  0  0  0
    6.4958   -5.4417    0.0000 C   0  0  0  0  0  0  0  0  0  0  0  0
    7.9250   -5.4417    0.0000 C   0  0  0  0  0  0  0  0  0  0  0  0
    7.3458   -9.2333    0.0000 N   0  0  0  0  0  0  0  0  0  0  0  0
    6.4958   -8.0792    0.0000 O   0  0  0  0  0  0  0  0  0  0  0  0
    6.4958   -4.6167    0.0000 C   0  0  0  0  0  0  0  0  0  0  0  0
    7.9250   -4.6167    0.0000 C   0  0  0  0  0  0  0  0  0  0  0  0
    7.2083   -4.2042    0.0000 C   0  0  0  0  0  0  0  0  0  0  0  0
    8.7083   -6.8375    0.0000 C   0  0  0  0  0  0  0  0  0  0  0  0
    8.6458   -5.8542    0.0000 O   0  0  0  0  0  0  0  0  0  0  0  0
    8.7083   -8.1750    0.0000 C   0  0  0  0  0  0  0  0  0  0  0  0
    5.7833   -5.8542    0.0000 C   0  0  0  0  0  0  0  0  0  0  0  0
    9.1917   -7.5083    0.0000 C   0  0  0  0  0  0  0  0  0  0  0  0
    8.1042   -9.5625    0.0000 C   0  0  0  0  0  0  0  0  0  0  0  0
    6.6833   -9.7208    0.0000 C   0  0  0  0  0  0  0  0  0  0  0  0
    5.7833   -4.2042    0.0000 C   0  0  0  0  0  0  0  0  0  0  0  0
    5.0667   -5.4417    0.0000 C   0  0  0  0  0  0  0  0  0  0  0  0
    5.0667   -4.6167    0.0000 C   0  0  0  0  0  0  0  0  0  0  0  0
  2  4  1  0  0  0  0
  3  5  1  0  0  0  0
  4  1  1  0  0  0  0
  5  1  1  0  0  0  0
  6  2  2  0  0  0  0
  7  2  1  0  0  0  0
  8  3  1  0  0  0  0
  9  3  2  0  0  0  0
 10  6  1  0  0  0  0
 10 12  2  0  0  0  0
 11  7  2  0  0  0  0
 12 11  1  0  0  0  0
 13  1  1  0  0  0  0
 14  7  1  0  0  0  0
 15  5  1  0  0  0  0
 15 17  1  0  0  0  0
 16  6  1  0  0  0  0
 17 13  1  0  0  0  0
 18  8  1  0  0  0  0
 19  8  1  0  0  0  0
 20 10  1  0  0  0  0
 20 22  2  0  0  0  0
 21 16  2  0  0  0  0
 22 21  1  0  0  0  0
M  END
>  <idnumber>
T6041039

>  <LogP>
2.596000000000000e+000

>  <rotating_bonds>
3.000000000000000e+000

>  <hb_acceptors>
3.000000000000000e+000

>  <hb_donors>
1.000000000000000e+000

>  <PSA>
4.378000000000000e+001

>  <clusterid>
-1695

>  <is_centroid>
@

>  <class1>
796

>  <class2>
642

>  <population1>
21922

>  <population2>
51183

>  <population>
768

>  <cansmi>
O=C(C1CCCN1Cc1c(O)ccc2c1cccc2)N(C)C

>  <HBA2>
4

>  <HBD>
1

>  <logP>
2.5359

>  <TPSA>
43.78

>  <MW>
298.379

$$$$

 OpenBabel02121609142D

 19 21  0  0  0  0  0  0  0  0999 V2000
   -0.3583    0.1083    0.0000 C   0  0  0  0  0  0  0  0  0  0  0  0
   -0.3583    1.1083    0.0000 C   0  0  0  0  0  0  0  0  0  0  0  0
   -1.2250    1.6083    0.0000 C   0  0  0  0  0  0  0  0  0  0  0  0
    0.5042   -0.3917    0.0000 N   0  0  0  0  0  0  0  0  0  0  0  0
   -1.2250   -0.3917    0.0000 O   0  0  0  0  0  0  0  0  0  0  0  0
    2.2792   -1.4917    0.0000 O   0  0  0  0  0  0  0  0  0  0  0  0
   -1.2250    2.6083    0.0000 C   0  0  0  0  0  0  0  0  0  0  0  0
    0.5042   -1.3917    0.0000 C   0  0  0  0  0  0  0  0  0  0  0  0
    1.3667   -1.8917    0.0000 C   0  0  3  0  0  0  0  0  0  0  0  0
    0.5042    1.6083    0.0000 C   0  0  0  0  0  0  0  0  0  0  0  0
   -2.0958    1.1083    0.0000 C   0  0  0  0  0  0  0  0  0  0  0  0
    0.5042    2.6083    0.0000 C   0  0  0  0  0  0  0  0  0  0  0  0
    2.9542   -2.2292    0.0000 C   0  0  0  0  0  0  0  0  0  0  0  0
   -0.3583    3.1083    0.0000 C   0  0  0  0  0  0  0  0  0  0  0  0
   -2.0958    3.1083    0.0000 C   0  0  0  0  0  0  0  0  0  0  0  0
    1.4750   -2.8917    0.0000 C   0  0  0  0  0  0  0  0  0  0  0  0
   -2.9583    1.6083    0.0000 C   0  0  0  0  0  0  0  0  0  0  0  0
    2.4542   -3.1000    0.0000 C   0  0  0  0  0  0  0  0  0  0  0  0
   -2.9583    2.6083    0.0000 C   0  0  0  0  0  0  0  0  0  0  0  0
  2  1  1  0  0  0  0
  3  2  2  0  0  0  0
  4  1  1  0  0  0  0
  5  1  2  0  0  0  0
  6  9  1  0  0  0  0
  7  3  1  0  0  0  0
  7 14  2  0  0  0  0
  8  4  1  0  0  0  0
  9  8  1  0  0  0  0
 10  2  1  0  0  0  0
 11  3  1  0  0  0  0
 12 10  2  0  0  0  0
 13  6  1  0  0  0  0
 14 12  1  0  0  0  0
 15  7  1  0  0  0  0
 15 19  2  0  0  0  0
 16  9  1  0  0  0  0
 17 11  2  0  0  0  0
 18 16  1  0  0  0  0
 18 13  1  0  0  0  0
 19 17  1  0  0  0  0
M  END
>  <idnumber>
T6041057

>  <LogP>
2.676000000000000e+000

>  <rotating_bonds>
3.000000000000000e+000

>  <hb_acceptors>
2.000000000000000e+000

>  <hb_donors>
1.000000000000000e+000

>  <PSA>
3.833000000000000e+001

>  <clusterid>
524

>  <is_centroid>
@

>  <class1>
723

>  <class2>
796

>  <population1>
9592

>  <population2>
21922

>  <population>
158

>  <cansmi>
O=C(c1cccc2c1cccc2)NCC1CCCO1

>  <HBA2>
3

>  <HBD>
1

>  <logP>
3.1395

>  <TPSA>
38.33

>  <MW>
255.312

$$$$

 OpenBabel02121609142D

 20 21  0  0  0  0  0  0  0  0999 V2000
   -0.8708    1.0000    0.0000 N   0  0  0  0  0  0  0  0  0  0  0  0
   -0.8708    0.0000    0.0000 N   0  0  0  0  0  0  0  0  0  0  0  0
   -1.7333   -0.5000    0.0000 C   0  0  0  0  0  0  0  0  0  0  0  0
    0.0000    1.5000    0.0000 C   0  0  0  0  0  0  0  0  0  0  0  0
   -1.7333   -1.5000    0.0000 C   0  0  0  0  0  0  0  0  0  0  0  0
   -1.7333    1.5000    0.0000 C   0  0  0  0  0  0  0  0  0  0  0  0
   -2.6000    0.0000    0.0000 C   0  0  0  0  0  0  0  0  0  0  0  0
   -0.8708   -2.0000    0.0000 N   0  0  0  0  0  0  0  0  0  0  0  0
    0.0000    2.5000    0.0000 C   0  0  0  0  0  0  0  0  0  0  0  0
    0.8625    1.0000    0.0000 C   0  0  0  0  0  0  0  0  0  0  0  0
   -2.6000   -2.0000    0.0000 O   0  0  0  0  0  0  0  0  0  0  0  0
   -2.6000    1.0000    0.0000 C   0  0  0  0  0  0  0  0  0  0  0  0
   -1.7333    2.5000    0.0000 O   0  0  0  0  0  0  0  0  0  0  0  0
    0.8625    3.0000    0.0000 C   0  0  0  0  0  0  0  0  0  0  0  0
    1.7292    1.5000    0.0000 C   0  0  0  0  0  0  0  0  0  0  0  0
    1.7292    2.5000    0.0000 C   0  0  0  0  0  0  0  0  0  0  0  0
   -0.8708   -3.0000    0.0000 C   0  0  0  0  0  0  0  0  0  0  0  0
    0.0000   -1.5000    0.0000 C   0  0  0  0  0  0  0  0  0  0  0  0
   -0.8708    3.0000    0.0000 C   0  0  0  0  0  0  0  0  0  0  0  0
    2.5917    1.0000    0.0000 C   0  0  0  0  0  0  0  0  0  0  0  0
  2  1  1  0  0  0  0
  3  2  2  0  0  0  0
  3  7  1  0  0  0  0
  4  1  1  0  0  0  0
  5  3  1  0  0  0  0
  6  1  1  0  0  0  0
  7 12  1  0  0  0  0
  8  5  1  0  0  0  0
  9  4  2  0  0  0  0
 10  4  1  0  0  0  0
 11  5  2  0  0  0  0
 12  6  1  0  0  0  0
 13  6  2  0  0  0  0
 14  9  1  0  0  0  0
 14 16  2  0  0  0  0
 15 10  2  0  0  0  0
 16 15  1  0  0  0  0
 17  8  1  0  0  0  0
 18  8  1  0  0  0  0
 19  9  1  0  0  0  0
 20 15  1  0  0  0  0
M  END
>  <idnumber>
T6041335

>  <LogP>
2.867000000000000e+000

>  <rotating_bonds>
2.000000000000000e+000

>  <hb_acceptors>
3.000000000000000e+000

>  <hb_donors>
0.000000000000000e+000

>  <PSA>
5.298000000000000e+001

>  <clusterid>
-1696

>  <is_centroid>
@

>  <class1>
817

>  <class2>
625

>  <population1>
1687

>  <population2>
877209

>  <population>
1518

>  <cansmi>
Cc1ccc(c(c1)N1N=C(CCC1=O)C(=O)N(C)C)C

>  <HBA2>
5

>  <HBD>
0

>  <logP>
1.375

>  <TPSA>
52.98

>  <MW>
273.33

$$$$

 OpenBabel02121609142D

 18 20  0  0  0  0  0  0  0  0999 V2000
    1.2875   -0.0167    0.0000 C   0  0  0  0  0  0  0  0  0  0  0  0
    0.5292    0.6333    0.0000 N   0  0  0  0  0  0  0  0  0  0  0  0
    0.7125    1.6125    0.0000 C   0  0  0  0  0  0  0  0  0  0  0  0
    1.1042   -1.0042    0.0000 C   0  0  0  0  0  0  0  0  0  0  0  0
    1.7917   -1.7292    0.0000 O   0  0  0  0  0  0  0  0  0  0  0  0
    2.2292    0.3125    0.0000 O   0  0  0  0  0  0  0  0  0  0  0  0
    0.2000   -1.4292    0.0000 C   0  0  0  0  0  0  0  0  0  0  0  0
   -0.2708    1.4333    0.0000 C   0  0  0  0  0  0  0  0  0  0  0  0
    1.3125   -2.6042    0.0000 C   0  0  0  0  0  0  0  0  0  0  0  0
    0.3292   -2.4250    0.0000 C   0  0  0  0  0  0  0  0  0  0  0  0
    1.7125    1.6125    0.0000 C   0  0  0  0  0  0  0  0  0  0  0  0
    0.7125    2.6125    0.0000 C   0  0  0  0  0  0  0  0  0  0  0  0
    1.7125    2.6125    0.0000 C   0  0  0  0  0  0  0  0  0  0  0  0
   -0.6000    0.4833    0.0000 C   0  0  0  0  0  0  0  0  0  0  0  0
   -0.9208    2.1875    0.0000 C   0  0  0  0  0  0  0  0  0  0  0  0
   -1.9083    2.0083    0.0000 C   0  0  0  0  0  0  0  0  0  0  0  0
   -1.5833    0.3000    0.0000 C   0  0  0  0  0  0  0  0  0  0  0  0
   -2.2333    1.0583    0.0000 C   0  0  0  0  0  0  0  0  0  0  0  0
  2  1  1  0  0  0  0
  3  2  1  0  0  0  0
  4  1  1  0  0  0  0
  5  4  1  0  0  0  0
  6  1  2  0  0  0  0
  7  4  2  0  0  0  0
  8  3  1  0  0  0  0
  9  5  1  0  0  0  0
 10  7  1  0  0  0  0
 10  9  2  0  0  0  0
 11  3  1  0  0  0  0
 11 13  1  0  0  0  0
 12  3  1  0  0  0  0
 13 12  1  0  0  0  0
 14  8  2  0  0  0  0
 15  8  1  0  0  0  0
 16 15  2  0  0  0  0
 17 14  1  0  0  0  0
 17 18  2  0  0  0  0
 18 16  1  0  0  0  0
M  END
>  <idnumber>
T6042253

>  <LogP>
2.908000000000000e+000

>  <rotating_bonds>
3.000000000000000e+000

>  <hb_acceptors>
1.000000000000000e+000

>  <hb_donors>
1.000000000000000e+000

>  <PSA>
4.224000000000000e+001

>  <clusterid>
-1698

>  <is_centroid>
@

>  <class1>
704

>  <class2>
722

>  <class3>
625

>  <population1>
51112

>  <population2>
1463

>  <population3>
877209

>  <population>
17

>  <cansmi>
O=C(c1ccco1)NC1(CCC1)c1ccccc1

>  <HBA2>
3

>  <HBD>
1

>  <logP>
3.4797

>  <TPSA>
42.24

>  <MW>
241.285

$$$$

 OpenBabel02121609142D

 20 22  0  0  0  0  0  0  0  0999 V2000
    1.2917   -0.2500    0.0000 C   0  0  0  0  0  0  0  0  0  0  0  0
    1.2917   -1.2500    0.0000 C   0  0  0  0  0  0  0  0  0  0  0  0
    0.4292    0.2500    0.0000 N   0  0  0  0  0  0  0  0  0  0  0  0
    0.4292    1.2500    0.0000 C   0  0  3  0  0  0  0  0  0  0  0  0
   -0.4333    1.7583    0.0000 C   0  0  0  0  0  0  0  0  0  0  0  0
   -0.4333    2.7583    0.0000 C   0  0  0  0  0  0  0  0  0  0  0  0
    0.4292   -1.7417    0.0000 C   0  0  0  0  0  0  0  0  0  0  0  0
    2.1625    0.2500    0.0000 O   0  0  0  0  0  0  0  0  0  0  0  0
    0.4292    3.2583    0.0000 O   0  0  0  0  0  0  0  0  0  0  0  0
    1.2917    1.7583    0.0000 C   0  0  0  0  0  0  0  0  0  0  0  0
   -0.4333   -1.2417    0.0000 Cl  0  0  0  0  0  0  0  0  0  0  0  0
    1.2917    2.7583    0.0000 C   0  0  0  0  0  0  0  0  0  0  0  0
    2.1625   -1.7500    0.0000 C   0  0  0  0  0  0  0  0  0  0  0  0
   -1.3000    1.2500    0.0000 C   0  0  0  0  0  0  0  0  0  0  0  0
   -1.3000    3.2583    0.0000 C   0  0  0  0  0  0  0  0  0  0  0  0
    0.4292   -2.7417    0.0000 C   0  0  0  0  0  0  0  0  0  0  0  0
    2.1625   -2.7500    0.0000 C   0  0  0  0  0  0  0  0  0  0  0  0
   -2.1708    1.7583    0.0000 C   0  0  0  0  0  0  0  0  0  0  0  0
   -2.1708    2.7583    0.0000 C   0  0  0  0  0  0  0  0  0  0  0  0
    1.2917   -3.2500    0.0000 C   0  0  0  0  0  0  0  0  0  0  0  0
  2  1  1  0  0  0  0
  3  1  1  0  0  0  0
  4  3  1  0  0  0  0
  5  4  1  0  0  0  0
  6  5  2  0  0  0  0
  6  9  1  0  0  0  0
  7  2  2  0  0  0  0
  8  1  2  0  0  0  0
  9 12  1  0  0  0  0
 10  4  1  0  0  0  0
 11  7  1  0  0  0  0
 12 10  1  0  0  0  0
 13  2  1  0  0  0  0
 14  5  1  0  0  0  0
 15  6  1  0  0  0  0
 15 19  2  0  0  0  0
 16  7  1  0  0  0  0
 16 20  2  0  0  0  0
 17 13  2  0  0  0  0
 18 14  2  0  0  0  0
 19 18  1  0  0  0  0
 20 17  1  0  0  0  0
M  END
>  <idnumber>
T6042437

>  <LogP>
2.778000000000000e+000

>  <rotating_bonds>
2.000000000000000e+000

>  <hb_acceptors>
3.000000000000000e+000

>  <hb_donors>
1.000000000000000e+000

>  <PSA>
3.833000000000000e+001

>  <clusterid>
-1700

>  <is_centroid>
@

>  <class1>
625

>  <class2>
766

>  <population1>
877209

>  <population2>
1661

>  <population>
1661

>  <cansmi>
O=C(c1ccccc1Cl)NC1CCOc2c1cccc2

>  <HBA2>
3

>  <HBD>
1

>  <logP>
3.9845

>  <TPSA>
38.33

>  <MW>
287.741

$$$$

 OpenBabel02121609142D

 20 22  0  0  0  0  0  0  0  0999 V2000
   -0.8708    0.0083    0.0000 N   0  0  0  0  0  0  0  0  0  0  0  0
    0.0000   -0.5000    0.0000 C   0  0  0  0  0  0  0  0  0  0  0  0
   -1.7333   -0.5000    0.0000 C   0  0  0  0  0  0  0  0  0  0  0  0
    0.8625    0.0083    0.0000 N   0  0  0  0  0  0  0  0  0  0  0  0
   -2.6000    0.0083    0.0000 C   0  0  0  0  0  0  0  0  0  0  0  0
   -0.8708    1.0083    0.0000 C   0  0  0  0  0  0  0  0  0  0  0  0
    0.0000   -1.5000    0.0000 O   0  0  0  0  0  0  0  0  0  0  0  0
   -2.6000    1.0083    0.0000 C   0  0  0  0  0  0  0  0  0  0  0  0
    3.4625    1.5000    0.0000 N   0  0  0  0  0  0  0  0  0  0  0  0
   -1.7333    1.5000    0.0000 C   0  0  0  0  0  0  0  0  0  0  0  0
    2.5917    0.0083    0.0000 C   0  0  0  0  0  0  0  0  0  0  0  0
    1.7292   -0.5000    0.0000 C   0  0  0  0  0  0  0  0  0  0  0  0
    2.5917    1.0083    0.0000 C   0  0  0  0  0  0  0  0  0  0  0  0
   -3.4708   -0.5000    0.0000 C   0  0  0  0  0  0  0  0  0  0  0  0
    4.3292    1.0083    0.0000 C   0  0  0  0  0  0  0  0  0  0  0  0
   -3.4708    1.5000    0.0000 C   0  0  0  0  0  0  0  0  0  0  0  0
    3.4625   -0.5000    0.0000 C   0  0  0  0  0  0  0  0  0  0  0  0
    4.3292    0.0083    0.0000 C   0  0  0  0  0  0  0  0  0  0  0  0
   -4.3333    0.0083    0.0000 C   0  0  0  0  0  0  0  0  0  0  0  0
   -4.3333    1.0083    0.0000 C   0  0  0  0  0  0  0  0  0  0  0  0
  2  1  1  0  0  0  0
  3  1  1  0  0  0  0
  4  2  1  0  0  0  0
  5  3  1  0  0  0  0
  5  8  2  0  0  0  0
  6  1  1  0  0  0  0
  7  2  2  0  0  0  0
  8 10  1  0  0  0  0
  9 13  1  0  0  0  0
  9 15  2  0  0  0  0
 10  6  1  0  0  0  0
 11 12  1  0  0  0  0
 12  4  1  0  0  0  0
 13 11  2  0  0  0  0
 14  5  1  0  0  0  0
 15 18  1  0  0  0  0
 16  8  1  0  0  0  0
 17 11  1  0  0  0  0
 18 17  2  0  0  0  0
 19 14  2  0  0  0  0
 20 16  2  0  0  0  0
 20 19  1  0  0  0  0
M  END
>  <idnumber>
T6042580

>  <LogP>
1.732000000000000e+000

>  <rotating_bonds>
2.000000000000000e+000

>  <hb_acceptors>
2.000000000000000e+000

>  <hb_donors>
1.000000000000000e+000

>  <PSA>
4.523000000000000e+001

>  <clusterid>
-1701

>  <is_centroid>
@

>  <class1>
750

>  <class2>
632

>  <population1>
7929

>  <population2>
79489

>  <population>
464

>  <cansmi>
O=C(N1CCc2c(C1)cccc2)NCc1cccnc1

>  <HBA2>
4

>  <HBD>
1

>  <logP>
2.6783

>  <TPSA>
45.23

>  <MW>
267.326

$$$$

 OpenBabel02121609142D

 20 22  0  0  0  0  0  0  0  0999 V2000
    1.2125   -0.9167    0.0000 C   0  0  0  0  0  0  0  0  0  0  0  0
    2.2917   -2.1167    0.0000 N   0  0  0  0  0  0  0  0  0  0  0  0
    2.1250   -0.5042    0.0000 C   0  0  0  0  0  0  0  0  0  0  0  0
    2.7917   -1.2542    0.0000 N   0  0  0  0  0  0  0  0  0  0  0  0
    1.3167   -1.9125    0.0000 C   0  0  0  0  0  0  0  0  0  0  0  0
    0.3417   -0.4167    0.0000 N   0  0  0  0  0  0  0  0  0  0  0  0
    0.3417    0.5833    0.0000 C   0  0  0  0  0  0  0  0  0  0  0  0
   -0.5208    1.0833    0.0000 C   0  0  0  0  0  0  0  0  0  0  0  0
   -1.3875    0.5833    0.0000 C   0  0  0  0  0  0  0  0  0  0  0  0
   -2.2583    1.0833    0.0000 C   0  0  0  0  0  0  0  0  0  0  0  0
    1.2125    1.0833    0.0000 O   0  0  0  0  0  0  0  0  0  0  0  0
   -2.2583    2.0833    0.0000 C   0  0  0  0  0  0  0  0  0  0  0  0
   -0.5208    2.0833    0.0000 C   0  0  0  0  0  0  0  0  0  0  0  0
   -1.3875    2.5833    0.0000 C   0  0  0  0  0  0  0  0  0  0  0  0
    2.3292    0.4708    0.0000 C   0  0  0  0  0  0  0  0  0  0  0  0
    3.7875   -1.1500    0.0000 C   0  0  0  0  0  0  0  0  0  0  0  0
    0.5667   -2.5792    0.0000 C   0  0  0  0  0  0  0  0  0  0  0  0
   -3.2083    0.7750    0.0000 C   0  0  0  0  0  0  0  0  0  0  0  0
   -3.7958    1.5833    0.0000 C   0  0  0  0  0  0  0  0  0  0  0  0
   -3.2083    2.3958    0.0000 C   0  0  0  0  0  0  0  0  0  0  0  0
  2  5  2  0  0  0  0
  2  4  1  0  0  0  0
  3  1  2  0  0  0  0
  4  3  1  0  0  0  0
  5  1  1  0  0  0  0
  6  1  1  0  0  0  0
  7  6  1  0  0  0  0
  8  7  1  0  0  0  0
  9  8  2  0  0  0  0
 10  9  1  0  0  0  0
 10 12  2  0  0  0  0
 11  7  2  0  0  0  0
 12 14  1  0  0  0  0
 13  8  1  0  0  0  0
 14 13  2  0  0  0  0
 15  3  1  0  0  0  0
 16  4  1  0  0  0  0
 17  5  1  0  0  0  0
 18 10  1  0  0  0  0
 19 18  1  0  0  0  0
 20 12  1  0  0  0  0
 20 19  1  0  0  0  0
M  END
>  <idnumber>
T6043479

>  <LogP>
1.423000000000000e+000

>  <rotating_bonds>
2.000000000000000e+000

>  <hb_acceptors>
2.000000000000000e+000

>  <hb_donors>
1.000000000000000e+000

>  <PSA>
4.692000000000000e+001

>  <clusterid>
-1702

>  <is_centroid>
@

>  <class1>
631

>  <class2>
644

>  <population1>
41612

>  <population2>
7036

>  <population>
149

>  <cansmi>
O=C(c1ccc2c(c1)CCC2)Nc1c(C)nn(c1C)C

>  <HBA2>
4

>  <HBD>
1

>  <logP>
2.8509

>  <TPSA>
46.92

>  <MW>
269.342

$$$$

 OpenBabel02121609142D

 20 22  0  0  0  0  0  0  0  0999 V2000
    1.2917    0.2500    0.0000 N   0  0  0  0  0  0  0  0  0  0  0  0
    0.4292   -0.2417    0.0000 C   0  0  0  0  0  0  0  0  0  0  0  0
   -0.4333    0.2500    0.0000 C   0  0  3  0  0  0  0  0  0  0  0  0
    2.1625   -0.2500    0.0000 C   0  0  0  0  0  0  0  0  0  0  0  0
   -1.3000    1.7583    0.0000 O   0  0  0  0  0  0  0  0  0  0  0  0
   -1.3000   -0.2417    0.0000 C   0  0  0  0  0  0  0  0  0  0  0  0
   -2.1708    0.2500    0.0000 C   0  0  0  0  0  0  0  0  0  0  0  0
    3.0292    0.2500    0.0000 N   0  0  0  0  0  0  0  0  0  0  0  0
   -0.4333    1.2583    0.0000 C   0  0  0  0  0  0  0  0  0  0  0  0
   -2.1708    1.2583    0.0000 C   0  0  0  0  0  0  0  0  0  0  0  0
    0.4292   -1.2500    0.0000 O   0  0  0  0  0  0  0  0  0  0  0  0
    2.1625   -1.2500    0.0000 C   0  0  0  0  0  0  0  0  0  0  0  0
    3.8917   -0.2500    0.0000 C   0  0  0  0  0  0  0  0  0  0  0  0
   -3.0333   -0.2417    0.0000 C   0  0  0  0  0  0  0  0  0  0  0  0
   -3.0333    1.7583    0.0000 C   0  0  0  0  0  0  0  0  0  0  0  0
    1.2917   -1.7500    0.0000 C   0  0  0  0  0  0  0  0  0  0  0  0
    3.0292   -1.7500    0.0000 C   0  0  0  0  0  0  0  0  0  0  0  0
    3.8917   -1.2500    0.0000 C   0  0  0  0  0  0  0  0  0  0  0  0
   -3.9000    0.2500    0.0000 C   0  0  0  0  0  0  0  0  0  0  0  0
   -3.9000    1.2583    0.0000 C   0  0  0  0  0  0  0  0  0  0  0  0
  2  1  1  0  0  0  0
  3  2  1  0  0  0  0
  4  1  1  0  0  0  0
  5  9  1  0  0  0  0
  6  3  1  0  0  0  0
  7  6  1  0  0  0  0
  7 10  2  0  0  0  0
  8  4  1  0  0  0  0
  9  3  1  0  0  0  0
 10  5  1  0  0  0  0
 11  2  2  0  0  0  0
 12  4  2  0  0  0  0
 13  8  2  0  0  0  0
 14  7  1  0  0  0  0
 15 10  1  0  0  0  0
 16 12  1  0  0  0  0
 17 12  1  0  0  0  0
 18 17  2  0  0  0  0
 18 13  1  0  0  0  0
 19 14  2  0  0  0  0
 20 15  2  0  0  0  0
 20 19  1  0  0  0  0
M  END
>  <idnumber>
T6043580

>  <LogP>
2.261000000000000e+000

>  <rotating_bonds>
2.000000000000000e+000

>  <hb_acceptors>
3.000000000000000e+000

>  <hb_donors>
1.000000000000000e+000

>  <PSA>
5.121999999999999e+001

>  <clusterid>
812

>  <is_centroid>
@

>  <class1>
766

>  <class2>
632

>  <population1>
1661

>  <population2>
79489

>  <population>
79

>  <cansmi>
O=C(C1COc2c(C1)cccc2)Nc1ncccc1C

>  <HBA2>
4

>  <HBD>
1

>  <logP>
2.6528

>  <TPSA>
51.22

>  <MW>
268.31

$$$$

 OpenBabel02121609142D

 22 24  0  0  0  0  0  0  0  0999 V2000
    0.2125   -0.4542    0.0000 C   0  0  0  0  0  0  0  0  0  0  0  0
    1.7500    0.0458    0.0000 N   0  0  0  0  0  0  0  0  0  0  0  0
    1.7500   -0.9542    0.0000 N   0  0  0  0  0  0  0  0  0  0  0  0
    0.8000    0.3583    0.0000 C   0  0  0  0  0  0  0  0  0  0  0  0
    0.8000   -1.2625    0.0000 C   0  0  0  0  0  0  0  0  0  0  0  0
   -0.7875   -0.4542    0.0000 N   0  0  0  0  0  0  0  0  0  0  0  0
   -1.2875    0.4125    0.0000 C   0  0  0  0  0  0  0  0  0  0  0  0
    2.5625    0.6333    0.0000 C   0  0  0  0  0  0  0  0  0  0  0  0
   -0.7875    1.2833    0.0000 O   0  0  0  0  0  0  0  0  0  0  0  0
   -2.2875    0.4125    0.0000 C   0  0  0  0  0  0  0  0  0  0  0  0
    0.4917    1.3083    0.0000 C   0  0  0  0  0  0  0  0  0  0  0  0
    0.4917   -2.2125    0.0000 C   0  0  0  0  0  0  0  0  0  0  0  0
    3.4750    0.2333    0.0000 C   0  0  0  0  0  0  0  0  0  0  0  0
    2.4542    1.6333    0.0000 C   0  0  0  0  0  0  0  0  0  0  0  0
   -2.7875   -0.4542    0.0000 C   0  0  0  0  0  0  0  0  0  0  0  0
   -2.7875    1.2833    0.0000 C   0  0  0  0  0  0  0  0  0  0  0  0
    3.2667    2.2208    0.0000 C   0  0  0  0  0  0  0  0  0  0  0  0
    4.2792    0.8208    0.0000 C   0  0  0  0  0  0  0  0  0  0  0  0
   -3.7875    1.2833    0.0000 C   0  0  0  0  0  0  0  0  0  0  0  0
   -3.7875   -0.4542    0.0000 C   0  0  0  0  0  0  0  0  0  0  0  0
   -4.2875    0.4125    0.0000 C   0  0  0  0  0  0  0  0  0  0  0  0
    4.1792    1.8125    0.0000 C   0  0  0  0  0  0  0  0  0  0  0  0
  2  4  1  0  0  0  0
  3  5  2  0  0  0  0
  3  2  1  0  0  0  0
  4  1  2  0  0  0  0
  5  1  1  0  0  0  0
  6  1  1  0  0  0  0
  7  6  1  0  0  0  0
  8  2  1  0  0  0  0
  9  7  2  0  0  0  0
 10  7  1  0  0  0  0
 11  4  1  0  0  0  0
 12  5  1  0  0  0  0
 13  8  1  0  0  0  0
 14  8  2  0  0  0  0
 15 10  1  0  0  0  0
 16 10  1  0  0  0  0
 17 14  1  0  0  0  0
 18 13  2  0  0  0  0
 18 22  1  0  0  0  0
 19 16  1  0  0  0  0
 20 15  1  0  0  0  0
 20 21  1  0  0  0  0
 21 19  1  0  0  0  0
 22 17  2  0  0  0  0
M  END
>  <idnumber>
T6044106

>  <LogP>
2.891000000000000e+000

>  <rotating_bonds>
3.000000000000000e+000

>  <hb_acceptors>
2.000000000000000e+000

>  <hb_donors>
1.000000000000000e+000

>  <PSA>
4.692000000000000e+001

>  <clusterid>
776

>  <is_centroid>
@

>  <class1>
631

>  <class2>
625

>  <class3>
797

>  <population1>
41612

>  <population2>
877209

>  <population3>
40410

>  <population>
674

>  <cansmi>
O=C(C1CCCCC1)Nc1c(C)nn(c1C)c1ccccc1

>  <HBA2>
4

>  <HBD>
1

>  <logP>
4.0809

>  <TPSA>
46.92

>  <MW>
297.395

$$$$

 OpenBabel02121609142D

 19 21  0  0  0  0  0  0  0  0999 V2000
   -0.2833    1.1083    0.0000 N   0  0  0  0  0  0  0  0  0  0  0  0
    0.0250    0.1583    0.0000 C   0  0  0  0  0  0  0  0  0  0  0  0
    1.3125   -1.0042    0.0000 N   0  0  0  0  0  0  0  0  0  0  0  0
    2.2917   -1.2125    0.0000 C   0  0  0  0  0  0  0  0  0  0  0  0
   -1.2333    1.4125    0.0000 C   0  0  0  0  0  0  0  0  0  0  0  0
    1.0042   -0.0542    0.0000 C   0  0  0  0  0  0  0  0  0  0  0  0
    0.3042    1.9125    0.0000 C   0  0  0  0  0  0  0  0  0  0  0  0
    0.6417   -1.7500    0.0000 C   0  0  0  0  0  0  0  0  0  0  0  0
   -1.2333    2.4125    0.0000 C   0  0  0  0  0  0  0  0  0  0  0  0
   -0.6458   -0.5917    0.0000 O   0  0  0  0  0  0  0  0  0  0  0  0
    2.6000   -2.1667    0.0000 C   0  0  0  0  0  0  0  0  0  0  0  0
    2.9625   -0.4667    0.0000 O   0  0  0  0  0  0  0  0  0  0  0  0
   -0.2833    2.7208    0.0000 C   0  0  0  0  0  0  0  0  0  0  0  0
    0.9542   -2.7000    0.0000 C   0  0  0  0  0  0  0  0  0  0  0  0
    1.9292   -2.9042    0.0000 C   0  0  0  0  0  0  0  0  0  0  0  0
   -2.1000    0.9125    0.0000 C   0  0  0  0  0  0  0  0  0  0  0  0
   -2.1000    2.9125    0.0000 C   0  0  0  0  0  0  0  0  0  0  0  0
   -2.9708    1.4125    0.0000 C   0  0  0  0  0  0  0  0  0  0  0  0
   -2.9708    2.4125    0.0000 C   0  0  0  0  0  0  0  0  0  0  0  0
  2  1  1  0  0  0  0
  3  6  1  0  0  0  0
  4  3  1  0  0  0  0
  5  1  1  0  0  0  0
  6  2  1  0  0  0  0
  7  1  1  0  0  0  0
  8  3  1  0  0  0  0
  9  5  2  0  0  0  0
 10  2  2  0  0  0  0
 11  4  1  0  0  0  0
 11 15  2  0  0  0  0
 12  4  2  0  0  0  0
 13  7  1  0  0  0  0
 13  9  1  0  0  0  0
 14  8  2  0  0  0  0
 15 14  1  0  0  0  0
 16  5  1  0  0  0  0
 17  9  1  0  0  0  0
 17 19  2  0  0  0  0
 18 16  2  0  0  0  0
 19 18  1  0  0  0  0
M  END
>  <idnumber>
T6045924

>  <LogP>
1.560000000000000e+000

>  <rotating_bonds>
2.000000000000000e+000

>  <hb_acceptors>
2.000000000000000e+000

>  <hb_donors>
0.000000000000000e+000

>  <PSA>
4.062000000000001e+001

>  <clusterid>
-1709

>  <is_centroid>
@

>  <class1>
732

>  <class2>
696

>  <population1>
13534

>  <population2>
4759

>  <population>
26

>  <cansmi>
O=C(N1CCc2c1cccc2)Cn1ccccc1=O

>  <HBA2>
4

>  <HBD>
0

>  <logP>
1.5026

>  <TPSA>
42.31

>  <MW>
254.284

$$$$

 OpenBabel02121609142D

 21 23  0  0  0  0  0  0  0  0999 V2000
    2.9292   -0.7417    0.0000 N   0  0  0  0  0  0  0  0  0  0  0  0
    0.3292    0.7500    0.0000 C   0  0  0  0  0  0  0  0  0  0  0  0
    3.8000   -1.2500    0.0000 C   0  0  0  0  0  0  0  0  0  0  0  0
   -0.5333    0.2583    0.0000 N   0  0  0  0  0  0  0  0  0  0  0  0
   -3.1333    0.7500    0.0000 C   0  0  0  0  0  0  0  0  0  0  0  0
    1.2000    0.2583    0.0000 C   0  0  0  0  0  0  0  0  0  0  0  0
   -1.3958    0.7500    0.0000 C   0  0  0  0  0  0  0  0  0  0  0  0
    2.9292    0.2583    0.0000 C   0  0  0  0  0  0  0  0  0  0  0  0
    2.0667   -1.2500    0.0000 C   0  0  0  0  0  0  0  0  0  0  0  0
   -2.2625    0.2583    0.0000 C   0  0  0  0  0  0  0  0  0  0  0  0
    0.3292    1.7583    0.0000 O   0  0  0  0  0  0  0  0  0  0  0  0
   -3.1333    1.7583    0.0000 C   0  0  0  0  0  0  0  0  0  0  0  0
    4.6625   -0.7417    0.0000 O   0  0  0  0  0  0  0  0  0  0  0  0
    2.0667    0.7500    0.0000 C   0  0  0  0  0  0  0  0  0  0  0  0
    1.2000   -0.7417    0.0000 C   0  0  0  0  0  0  0  0  0  0  0  0
   -2.2625    2.2500    0.0000 C   0  0  0  0  0  0  0  0  0  0  0  0
   -1.3958    1.7583    0.0000 C   0  0  0  0  0  0  0  0  0  0  0  0
    3.8000   -2.2500    0.0000 C   0  0  0  0  0  0  0  0  0  0  0  0
   -4.0833    0.4458    0.0000 C   0  0  0  0  0  0  0  0  0  0  0  0
   -4.6708    1.2500    0.0000 C   0  0  0  0  0  0  0  0  0  0  0  0
   -4.0833    2.0625    0.0000 C   0  0  0  0  0  0  0  0  0  0  0  0
  2  6  1  0  0  0  0
  3  1  1  0  0  0  0
  4  2  1  0  0  0  0
  5 10  1  0  0  0  0
  5 12  2  0  0  0  0
  6 15  1  0  0  0  0
  7  4  1  0  0  0  0
  8  1  1  0  0  0  0
  9  1  1  0  0  0  0
 10  7  2  0  0  0  0
 11  2  2  0  0  0  0
 12 16  1  0  0  0  0
 13  3  2  0  0  0  0
 14  8  1  0  0  0  0
 14  6  1  0  0  0  0
 15  9  1  0  0  0  0
 16 17  2  0  0  0  0
 17  7  1  0  0  0  0
 18  3  1  0  0  0  0
 19  5  1  0  0  0  0
 20 19  1  0  0  0  0
 21 12  1  0  0  0  0
 21 20  1  0  0  0  0
M  END
>  <idnumber>
T6046119

>  <LogP>
8.320000000000002e-001

>  <rotating_bonds>
2.000000000000000e+000

>  <hb_acceptors>
2.000000000000000e+000

>  <hb_donors>
1.000000000000000e+000

>  <PSA>
4.941000000000003e+001

>  <clusterid>
-1710

>  <is_centroid>
@

>  <class1>
644

>  <class2>
639

>  <population1>
7036

>  <population2>
59855

>  <population>
420

>  <cansmi>
O=C(C1CCN(CC1)C(=O)C)Nc1ccc2c(c1)CCC2

>  <HBA2>
4

>  <HBD>
1

>  <logP>
2.3832

>  <TPSA>
49.41

>  <MW>
286.369

$$$$

 OpenBabel02121609142D

 17 19  0  0  0  0  0  0  0  0999 V2000
    2.5292   -0.0667    0.0000 C   0  0  3  0  0  0  0  0  0  0  0  0
    1.6625    0.4333    0.0000 C   0  0  0  0  0  0  0  0  0  0  0  0
    3.5292   -0.0667    0.0000 C   0  0  0  0  0  0  0  0  0  0  0  0
    3.0292   -0.9292    0.0000 C   0  0  3  0  0  0  0  0  0  0  0  0
    0.7917   -0.0667    0.0000 N   0  0  0  0  0  0  0  0  0  0  0  0
   -0.9333   -0.0667    0.0000 N   0  0  0  0  0  0  0  0  0  0  0  0
   -0.0708    0.4333    0.0000 C   0  0  0  0  0  0  0  0  0  0  0  0
   -1.8000    0.4333    0.0000 C   0  0  0  0  0  0  0  0  0  0  0  0
    1.6625    1.4333    0.0000 O   0  0  0  0  0  0  0  0  0  0  0  0
   -1.8000    1.4333    0.0000 C   0  0  0  0  0  0  0  0  0  0  0  0
   -0.9333    1.9333    0.0000 C   0  0  0  0  0  0  0  0  0  0  0  0
   -0.0708    1.4333    0.0000 C   0  0  0  0  0  0  0  0  0  0  0  0
    3.0292   -1.9292    0.0000 C   0  0  0  0  0  0  0  0  0  0  0  0
   -2.6708   -0.0667    0.0000 C   0  0  0  0  0  0  0  0  0  0  0  0
   -2.6708    1.9333    0.0000 C   0  0  0  0  0  0  0  0  0  0  0  0
   -3.5333    0.4333    0.0000 C   0  0  0  0  0  0  0  0  0  0  0  0
   -3.5333    1.4333    0.0000 C   0  0  0  0  0  0  0  0  0  0  0  0
  2  1  1  0  0  0  0
  3  1  1  0  0  0  0
  4  1  1  0  0  0  0
  4  3  1  0  0  0  0
  5  2  1  0  0  0  0
  6  7  2  0  0  0  0
  7  5  1  0  0  0  0
  8  6  1  0  0  0  0
  8 10  2  0  0  0  0
  9  2  2  0  0  0  0
 10 11  1  0  0  0  0
 11 12  2  0  0  0  0
 12  7  1  0  0  0  0
 13  4  1  0  0  0  0
 14  8  1  0  0  0  0
 15 10  1  0  0  0  0
 16 14  2  0  0  0  0
 17 15  2  0  0  0  0
 17 16  1  0  0  0  0
M  END
>  <idnumber>
T6046126

>  <LogP>
2.749000000000000e+000

>  <rotating_bonds>
2.000000000000000e+000

>  <hb_acceptors>
2.000000000000000e+000

>  <hb_donors>
1.000000000000000e+000

>  <PSA>
4.199000000000000e+001

>  <clusterid>
-1711

>  <is_centroid>
@

>  <class1>
675

>  <class2>
682

>  <population1>
33654

>  <population2>
20351

>  <population>
612

>  <cansmi>
CC1CC1C(=O)Nc1ccc2c(n1)cccc2

>  <HBA2>
3

>  <HBD>
1

>  <logP>
2.9023

>  <TPSA>
41.99

>  <MW>
226.274

$$$$

 OpenBabel02121609142D

 21 23  0  0  0  0  0  0  0  0999 V2000
   -1.6083    1.1333    0.0000 C   0  0  0  0  0  0  0  0  0  0  0  0
   -2.1958    1.9458    0.0000 N   0  0  0  0  0  0  0  0  0  0  0  0
   -1.6083    2.7500    0.0000 N   0  0  0  0  0  0  0  0  0  0  0  0
   -1.9208    0.1833    0.0000 C   0  0  0  0  0  0  0  0  0  0  0  0
   -1.2500   -0.5625    0.0000 N   0  0  0  0  0  0  0  0  0  0  0  0
   -0.6583    1.4458    0.0000 C   0  0  0  0  0  0  0  0  0  0  0  0
   -0.6583    2.4458    0.0000 N   0  0  0  0  0  0  0  0  0  0  0  0
   -1.5583   -1.5125    0.0000 C   0  0  0  0  0  0  0  0  0  0  0  0
   -2.8958   -0.0250    0.0000 O   0  0  0  0  0  0  0  0  0  0  0  0
    0.1500    3.0333    0.0000 C   0  0  0  0  0  0  0  0  0  0  0  0
   -0.2708   -0.3542    0.0000 C   0  0  0  0  0  0  0  0  0  0  0  0
    1.0667    2.6250    0.0000 C   0  0  0  0  0  0  0  0  0  0  0  0
   -0.8875   -2.2542    0.0000 C   0  0  3  0  0  0  0  0  0  0  0  0
    0.4000   -1.0917    0.0000 C   0  0  0  0  0  0  0  0  0  0  0  0
    0.0917   -2.0417    0.0000 C   0  0  0  0  0  0  0  0  0  0  0  0
    1.1667    1.6333    0.0000 C   0  0  0  0  0  0  0  0  0  0  0  0
    1.8750    3.2125    0.0000 C   0  0  0  0  0  0  0  0  0  0  0  0
   -1.1958   -3.2042    0.0000 C   0  0  0  0  0  0  0  0  0  0  0  0
    2.7875    2.8083    0.0000 C   0  0  0  0  0  0  0  0  0  0  0  0
    2.0792    1.2208    0.0000 C   0  0  0  0  0  0  0  0  0  0  0  0
    2.8917    1.8083    0.0000 C   0  0  0  0  0  0  0  0  0  0  0  0
  2  1  1  0  0  0  0
  3  2  2  0  0  0  0
  4  1  1  0  0  0  0
  5  4  1  0  0  0  0
  6  1  2  0  0  0  0
  7  6  1  0  0  0  0
  7  3  1  0  0  0  0
  8  5  1  0  0  0  0
  9  4  2  0  0  0  0
 10  7  1  0  0  0  0
 11  5  1  0  0  0  0
 12 10  1  0  0  0  0
 13  8  1  0  0  0  0
 13 15  1  0  0  0  0
 14 11  1  0  0  0  0
 15 14  1  0  0  0  0
 16 12  1  0  0  0  0
 17 12  2  0  0  0  0
 18 13  1  0  0  0  0
 19 17  1  0  0  0  0
 20 16  2  0  0  0  0
 20 21  1  0  0  0  0
 21 19  2  0  0  0  0
M  END
>  <idnumber>
T6048587

>  <LogP>
1.872000000000000e+000

>  <rotating_bonds>
3.000000000000000e+000

>  <hb_acceptors>
3.000000000000000e+000

>  <hb_donors>
0.000000000000000e+000

>  <PSA>
5.102000000000000e+001

>  <clusterid>
-1716

>  <is_centroid>
@

>  <class1>
625

>  <class2>
639

>  <class3>
777

>  <population1>
877209

>  <population2>
59855

>  <population3>
500

>  <population>
15

>  <cansmi>
CC1CCCN(C1)C(=O)c1nnn(c1)Cc1ccccc1

>  <HBA2>
5

>  <HBD>
0

>  <logP>
2.1364

>  <TPSA>
51.02

>  <MW>
284.356

$$$$

 OpenBabel02121609142D

 18 20  0  0  0  0  0  0  0  0999 V2000
    1.2167    0.7833    0.0000 C   0  0  0  0  0  0  0  0  0  0  0  0
    0.3917    0.2208    0.0000 C   0  0  0  0  0  0  0  0  0  0  0  0
    2.0792    0.2833    0.0000 C   0  0  0  0  0  0  0  0  0  0  0  0
    2.0792    1.2833    0.0000 C   0  0  0  0  0  0  0  0  0  0  0  0
    0.4667   -0.7792    0.0000 N   0  0  0  0  0  0  0  0  0  0  0  0
    0.3917    1.3458    0.0000 C   0  0  0  0  0  0  0  0  0  0  0  0
   -0.5125    0.6500    0.0000 O   0  0  0  0  0  0  0  0  0  0  0  0
   -1.1083   -2.9042    0.0000 N   0  0  0  0  0  0  0  0  0  0  0  0
   -0.3583   -1.3417    0.0000 C   0  0  0  0  0  0  0  0  0  0  0  0
   -0.2833   -2.3417    0.0000 C   0  0  0  0  0  0  0  0  0  0  0  0
   -2.0083   -2.4667    0.0000 C   0  0  0  0  0  0  0  0  0  0  0  0
    0.4667    2.3458    0.0000 C   0  0  0  0  0  0  0  0  0  0  0  0
   -0.5125    0.9208    0.0000 C   0  0  0  0  0  0  0  0  0  0  0  0
   -1.2583   -0.9125    0.0000 C   0  0  0  0  0  0  0  0  0  0  0  0
   -2.0875   -1.4750    0.0000 C   0  0  0  0  0  0  0  0  0  0  0  0
   -1.3375    1.4833    0.0000 C   0  0  0  0  0  0  0  0  0  0  0  0
   -0.3583    2.9083    0.0000 C   0  0  0  0  0  0  0  0  0  0  0  0
   -1.2583    2.4750    0.0000 C   0  0  0  0  0  0  0  0  0  0  0  0
  2  1  1  0  0  0  0
  3  1  1  0  0  0  0
  3  4  1  0  0  0  0
  4  1  1  0  0  0  0
  5  2  1  0  0  0  0
  6  1  1  0  0  0  0
  7  2  2  0  0  0  0
  8 10  1  0  0  0  0
  8 11  2  0  0  0  0
  9  5  1  0  0  0  0
 10  9  2  0  0  0  0
 11 15  1  0  0  0  0
 12  6  1  0  0  0  0
 13  6  2  0  0  0  0
 14  9  1  0  0  0  0
 15 14  2  0  0  0  0
 16 13  1  0  0  0  0
 17 12  2  0  0  0  0
 17 18  1  0  0  0  0
 18 16  2  0  0  0  0
M  END
>  <idnumber>
T6048703

>  <LogP>
2.374000000000000e+000

>  <rotating_bonds>
3.000000000000000e+000

>  <hb_acceptors>
2.000000000000000e+000

>  <hb_donors>
1.000000000000000e+000

>  <PSA>
4.199000000000000e+001

>  <clusterid>
-1718

>  <is_centroid>
@

>  <class1>
675

>  <class2>
625

>  <class3>
632

>  <population1>
33654

>  <population2>
877209

>  <population3>
79489

>  <population>
2337

>  <cansmi>
O=C(C1(CC1)c1ccccc1)Nc1cccnc1

>  <HBA2>
3

>  <HBD>
1

>  <logP>
2.8249

>  <TPSA>
41.99

>  <MW>
238.284

$$$$

 OpenBabel02121609142D

 21 23  0  0  0  0  0  0  0  0999 V2000
   -0.5833    1.5458    0.0000 N   0  0  0  0  0  0  0  0  0  0  0  0
   -0.2708    0.5958    0.0000 C   0  0  0  0  0  0  0  0  0  0  0  0
    1.9917   -0.7750    0.0000 C   0  0  0  0  0  0  0  0  0  0  0  0
   -1.5333    1.8500    0.0000 C   0  0  0  0  0  0  0  0  0  0  0  0
    1.0167   -0.5667    0.0000 N   0  0  0  0  0  0  0  0  0  0  0  0
    2.3042   -1.7292    0.0000 C   0  0  0  0  0  0  0  0  0  0  0  0
    0.7042    0.3833    0.0000 C   0  0  0  0  0  0  0  0  0  0  0  0
    0.0042    2.3500    0.0000 C   0  0  0  0  0  0  0  0  0  0  0  0
    3.2542   -2.0375    0.0000 O   0  0  0  0  0  0  0  0  0  0  0  0
   -1.5333    2.8500    0.0000 C   0  0  0  0  0  0  0  0  0  0  0  0
   -0.9375   -0.1542    0.0000 O   0  0  0  0  0  0  0  0  0  0  0  0
    2.6667   -0.0292    0.0000 O   0  0  0  0  0  0  0  0  0  0  0  0
    1.7167   -2.5375    0.0000 C   0  0  0  0  0  0  0  0  0  0  0  0
   -0.5833    3.1583    0.0000 C   0  0  0  0  0  0  0  0  0  0  0  0
    3.2542   -3.0375    0.0000 C   0  0  0  0  0  0  0  0  0  0  0  0
    2.3042   -3.3417    0.0000 C   0  0  0  0  0  0  0  0  0  0  0  0
    0.3500   -1.3125    0.0000 C   0  0  0  0  0  0  0  0  0  0  0  0
   -2.3958    1.3500    0.0000 C   0  0  0  0  0  0  0  0  0  0  0  0
   -2.3958    3.3583    0.0000 C   0  0  0  0  0  0  0  0  0  0  0  0
   -3.2625    1.8500    0.0000 C   0  0  0  0  0  0  0  0  0  0  0  0
   -3.2625    2.8500    0.0000 C   0  0  0  0  0  0  0  0  0  0  0  0
  2  1  1  0  0  0  0
  3  5  1  0  0  0  0
  4  1  1  0  0  0  0
  5  7  1  0  0  0  0
  6  3  1  0  0  0  0
  7  2  1  0  0  0  0
  8  1  1  0  0  0  0
  9  6  1  0  0  0  0
 10  4  2  0  0  0  0
 11  2  2  0  0  0  0
 12  3  2  0  0  0  0
 13  6  2  0  0  0  0
 14  8  1  0  0  0  0
 14 10  1  0  0  0  0
 15  9  1  0  0  0  0
 16 13  1  0  0  0  0
 16 15  2  0  0  0  0
 17  5  1  0  0  0  0
 18  4  1  0  0  0  0
 19 10  1  0  0  0  0
 19 21  2  0  0  0  0
 20 18  2  0  0  0  0
 21 20  1  0  0  0  0
M  END
>  <idnumber>
T6049327

>  <LogP>
1.567000000000000e+000

>  <rotating_bonds>
3.000000000000000e+000

>  <hb_acceptors>
2.000000000000000e+000

>  <hb_donors>
0.000000000000000e+000

>  <PSA>
5.376000000000001e+001

>  <clusterid>
-1719

>  <is_centroid>
@

>  <class1>
704

>  <class2>
732

>  <population1>
51112

>  <population2>
13534

>  <population>
413

>  <cansmi>
O=C(c1ccco1)N(CC(=O)N1CCc2c1cccc2)C

>  <HBA2>
5

>  <HBD>
0

>  <logP>
2.0059

>  <TPSA>
53.76

>  <MW>
284.31

$$$$

 OpenBabel02121609142D

 20 22  0  0  0  0  0  0  0  0999 V2000
    0.8917    0.7708    0.0000 N   0  0  0  0  0  0  0  0  0  0  0  0
    0.8917    1.7708    0.0000 C   0  0  0  0  0  0  0  0  0  0  0  0
    0.0250    0.2708    0.0000 C   0  0  0  0  0  0  0  0  0  0  0  0
   -0.8458    0.7708    0.0000 C   0  0  0  0  0  0  0  0  0  0  0  0
    0.0250    2.2708    0.0000 N   0  0  0  0  0  0  0  0  0  0  0  0
    1.7542    0.2708    0.0000 C   0  0  0  0  0  0  0  0  0  0  0  0
   -0.8458    1.7708    0.0000 C   0  0  0  0  0  0  0  0  0  0  0  0
    0.9500   -1.3167    0.0000 N   0  0  0  0  0  0  0  0  0  0  0  0
    1.7542   -0.7292    0.0000 C   0  0  3  0  0  0  0  0  0  0  0  0
    1.7542    2.2708    0.0000 O   0  0  0  0  0  0  0  0  0  0  0  0
    0.0250   -0.7292    0.0000 O   0  0  0  0  0  0  0  0  0  0  0  0
   -1.7083    0.2708    0.0000 C   0  0  0  0  0  0  0  0  0  0  0  0
    1.2542   -2.2667    0.0000 C   0  0  0  0  0  0  0  0  0  0  0  0
    0.0000   -1.0042    0.0000 C   0  0  0  0  0  0  0  0  0  0  0  0
   -1.7083    2.2708    0.0000 C   0  0  0  0  0  0  0  0  0  0  0  0
    2.5667   -1.3167    0.0000 C   0  0  0  0  0  0  0  0  0  0  0  0
    2.2542   -2.2667    0.0000 C   0  0  0  0  0  0  0  0  0  0  0  0
   -0.7458   -1.6750    0.0000 C   0  0  0  0  0  0  0  0  0  0  0  0
   -2.5708    0.7708    0.0000 C   0  0  0  0  0  0  0  0  0  0  0  0
   -2.5708    1.7708    0.0000 C   0  0  0  0  0  0  0  0  0  0  0  0
  2  1  1  0  0  0  0
  3  1  1  0  0  0  0
  4  3  1  0  0  0  0
  5  2  1  0  0  0  0
  5  7  1  0  0  0  0
  6  1  1  0  0  0  0
  7  4  2  0  0  0  0
  8  9  1  0  0  0  0
  9  6  1  0  0  0  0
 10  2  2  0  0  0  0
 11  3  2  0  0  0  0
 12  4  1  0  0  0  0
 13  8  1  0  0  0  0
 13 17  1  0  0  0  0
 14  8  1  0  0  0  0
 15  7  1  0  0  0  0
 15 20  2  0  0  0  0
 16  9  1  0  0  0  0
 17 16  1  0  0  0  0
 18 14  1  0  0  0  0
 19 12  2  0  0  0  0
 20 19  1  0  0  0  0
M  END
>  <idnumber>
T6049864

>  <LogP>
2.631000000000000e+000

>  <rotating_bonds>
3.000000000000000e+000

>  <hb_acceptors>
3.000000000000000e+000

>  <hb_donors>
1.000000000000000e+000

>  <PSA>
5.265000000000000e+001

>  <clusterid>
-1722

>  <is_centroid>
@

>  <class1>
642

>  <class2>
655

>  <population1>
51183

>  <population2>
569

>  <population>
18

>  <cansmi>
CCN1CCCC1Cn1c(=O)[nH]c2c(c1=O)cccc2

>  <HBA2>
4

>  <HBD>
1

>  <logP>
1.112

>  <TPSA>
58.1

>  <MW>
273.33

$$$$

 OpenBabel02121609142D

 22 24  0  0  0  0  0  0  0  0999 V2000
   -2.1375    1.5583    0.0000 N   0  0  0  0  0  0  0  0  0  0  0  0
   -1.1875    1.2500    0.0000 C   0  0  0  0  0  0  0  0  0  0  0  0
   -0.5958    2.0583    0.0000 N   0  0  0  0  0  0  0  0  0  0  0  0
   -1.1875    2.8708    0.0000 N   0  0  0  0  0  0  0  0  0  0  0  0
   -2.1375    2.5583    0.0000 C   0  0  0  0  0  0  0  0  0  0  0  0
    0.4125   -0.8542    0.0000 C   0  0  0  0  0  0  0  0  0  0  0  0
    1.3875   -1.0667    0.0000 C   0  0  0  0  0  0  0  0  0  0  0  0
    0.1000    0.0958    0.0000 N   0  0  0  0  0  0  0  0  0  0  0  0
    1.6917   -2.0167    0.0000 C   0  0  0  0  0  0  0  0  0  0  0  0
    2.6750   -2.2250    0.0000 C   0  0  0  0  0  0  0  0  0  0  0  0
   -0.8750    0.3000    0.0000 C   0  0  0  0  0  0  0  0  0  0  0  0
    3.3417   -1.4792    0.0000 C   0  0  0  0  0  0  0  0  0  0  0  0
   -0.2583   -1.6042    0.0000 O   0  0  0  0  0  0  0  0  0  0  0  0
    2.0542   -0.3250    0.0000 C   0  0  0  0  0  0  0  0  0  0  0  0
    3.0375   -0.5292    0.0000 C   0  0  0  0  0  0  0  0  0  0  0  0
   -2.9208    0.9333    0.0000 C   0  0  0  0  0  0  0  0  0  0  0  0
   -2.9208    3.1833    0.0000 C   0  0  0  0  0  0  0  0  0  0  0  0
    2.9792   -3.1792    0.0000 C   0  0  0  0  0  0  0  0  0  0  0  0
    4.3250   -1.6917    0.0000 C   0  0  0  0  0  0  0  0  0  0  0  0
   -3.8958    1.1583    0.0000 C   0  0  0  0  0  0  0  0  0  0  0  0
   -3.8958    2.9583    0.0000 C   0  0  0  0  0  0  0  0  0  0  0  0
   -4.3333    2.0583    0.0000 C   0  0  0  0  0  0  0  0  0  0  0  0
  2  1  1  0  0  0  0
  3  2  2  0  0  0  0
  3  4  1  0  0  0  0
  4  5  2  0  0  0  0
  5  1  1  0  0  0  0
  6  8  1  0  0  0  0
  7  6  1  0  0  0  0
  8 11  1  0  0  0  0
  9  7  2  0  0  0  0
 10  9  1  0  0  0  0
 10 12  2  0  0  0  0
 11  2  1  0  0  0  0
 12 15  1  0  0  0  0
 13  6  2  0  0  0  0
 14  7  1  0  0  0  0
 15 14  2  0  0  0  0
 16  1  1  0  0  0  0
 17  5  1  0  0  0  0
 18 10  1  0  0  0  0
 19 12  1  0  0  0  0
 20 16  1  0  0  0  0
 21 17  1  0  0  0  0
 21 22  1  0  0  0  0
 22 20  1  0  0  0  0
M  END
>  <idnumber>
T6049947

>  <LogP>
1.806000000000000e+000

>  <rotating_bonds>
3.000000000000000e+000

>  <hb_acceptors>
3.000000000000000e+000

>  <hb_donors>
1.000000000000000e+000

>  <PSA>
5.981000000000002e+001

>  <clusterid>
819

>  <is_centroid>
@

>  <class1>
757

>  <class2>
625

>  <population1>
2963

>  <population2>
877209

>  <population>
2685

>  <cansmi>
O=C(c1ccc(c(c1)C)C)NCc1nnc2n1CCCCC2

>  <HBA2>
5

>  <HBD>
1

>  <logP>
2.9422

>  <TPSA>
59.81

>  <MW>
298.383

$$$$

 OpenBabel02121609142D

 22 24  0  0  0  0  0  0  0  0999 V2000
    0.8625    3.4833    0.0000 N   0  0  0  0  0  0  0  0  0  0  0  0
    0.8625   -0.5167    0.0000 C   0  0  0  0  0  0  0  0  0  0  0  0
    0.8625    2.4833    0.0000 C   0  0  0  0  0  0  0  0  0  0  0  0
    0.8625    0.4833    0.0000 C   0  0  0  0  0  0  0  0  0  0  0  0
    0.0000    1.9833    0.0000 N   0  0  0  0  0  0  0  0  0  0  0  0
    0.3625    5.0167    0.0000 N   0  0  0  0  0  0  0  0  0  0  0  0
    0.0000   -1.0167    0.0000 N   0  0  0  0  0  0  0  0  0  0  0  0
    0.0542    4.0667    0.0000 C   0  0  0  0  0  0  0  0  0  0  0  0
    0.0000    0.9833    0.0000 C   0  0  0  0  0  0  0  0  0  0  0  0
    1.6750    4.0667    0.0000 C   0  0  0  0  0  0  0  0  0  0  0  0
   -0.8708   -3.5167    0.0000 C   0  0  0  0  0  0  0  0  0  0  0  0
    0.0000   -2.0167    0.0000 C   0  0  0  0  0  0  0  0  0  0  0  0
    1.3625    5.0167    0.0000 C   0  0  0  0  0  0  0  0  0  0  0  0
    1.7292   -1.0167    0.0000 O   0  0  0  0  0  0  0  0  0  0  0  0
   -0.8708   -2.5167    0.0000 C   0  0  0  0  0  0  0  0  0  0  0  0
    1.7292    0.9833    0.0000 C   0  0  0  0  0  0  0  0  0  0  0  0
    0.0000   -4.0167    0.0000 C   0  0  0  0  0  0  0  0  0  0  0  0
    1.7292    1.9833    0.0000 C   0  0  0  0  0  0  0  0  0  0  0  0
    0.8625   -3.5167    0.0000 C   0  0  0  0  0  0  0  0  0  0  0  0
    0.8625   -2.5167    0.0000 C   0  0  0  0  0  0  0  0  0  0  0  0
   -1.7333   -4.0167    0.0000 C   0  0  0  0  0  0  0  0  0  0  0  0
    0.0000   -5.0167    0.0000 C   0  0  0  0  0  0  0  0  0  0  0  0
  2  4  1  0  0  0  0
  3  1  1  0  0  0  0
  4 16  1  0  0  0  0
  5  3  2  0  0  0  0
  6  8  2  0  0  0  0
  7  2  1  0  0  0  0
  8  1  1  0  0  0  0
  9  5  1  0  0  0  0
  9  4  2  0  0  0  0
 10  1  1  0  0  0  0
 11 15  1  0  0  0  0
 11 17  2  0  0  0  0
 12  7  1  0  0  0  0
 13 10  2  0  0  0  0
 13  6  1  0  0  0  0
 14  2  2  0  0  0  0
 15 12  2  0  0  0  0
 16 18  2  0  0  0  0
 17 19  1  0  0  0  0
 18  3  1  0  0  0  0
 19 20  2  0  0  0  0
 20 12  1  0  0  0  0
 21 11  1  0  0  0  0
 22 17  1  0  0  0  0
M  END
>  <idnumber>
T6050610

>  <LogP>
2.694000000000000e+000

>  <rotating_bonds>
3.000000000000000e+000

>  <hb_acceptors>
3.000000000000000e+000

>  <hb_donors>
1.000000000000000e+000

>  <PSA>
5.981000000000002e+001

>  <clusterid>
820

>  <is_centroid>
@

>  <class1>
625

>  <class2>
686

>  <class3>
632

>  <population1>
877209

>  <population2>
31113

>  <population3>
79489

>  <population>
603

>  <cansmi>
O=C(c1ccc(nc1)n1cncc1)Nc1ccc(c(c1)C)C

>  <HBA2>
5

>  <HBD>
1

>  <logP>
3.2094

>  <TPSA>
59.81

>  <MW>
292.335

$$$$

 OpenBabel02121609142D

 13 14  0  0  0  0  0  0  0  0999 V2000
   -0.5083    0.0000    0.0000 N   0  0  0  0  0  0  0  0  0  0  0  0
    0.3542    0.5000    0.0000 C   0  0  0  0  0  0  0  0  0  0  0  0
    1.2167    0.0000    0.0000 C   0  0  0  0  0  0  0  0  0  0  0  0
   -1.5958   -1.2000    0.0000 N   0  0  0  0  0  0  0  0  0  0  0  0
   -0.6125   -0.9917    0.0000 C   0  0  0  0  0  0  0  0  0  0  0  0
    1.2167   -1.0000    0.0000 C   0  0  0  0  0  0  0  0  0  0  0  0
    1.2167   -2.0000    0.0000 N   0  0  0  0  0  0  0  0  0  0  0  0
    0.3542    1.5000    0.0000 N   0  0  0  0  0  0  0  0  0  0  0  0
   -1.4250    0.4083    0.0000 C   0  0  0  0  0  0  0  0  0  0  0  0
   -2.0958   -0.3292    0.0000 C   0  0  0  0  0  0  0  0  0  0  0  0
    2.0875    0.5000    0.0000 C   0  0  0  0  0  0  0  0  0  0  0  0
    1.2167    2.0000    0.0000 C   0  0  0  0  0  0  0  0  0  0  0  0
    2.0875    1.5000    0.0000 C   0  0  0  0  0  0  0  0  0  0  0  0
  2  1  1  0  0  0  0
  3  2  2  0  0  0  0
  4  5  2  0  0  0  0
  5  1  1  0  0  0  0
  6  3  1  0  0  0  0
  7  6  3  0  0  0  0
  8  2  1  0  0  0  0
  9  1  1  0  0  0  0
 10  9  2  0  0  0  0
 10  4  1  0  0  0  0
 11  3  1  0  0  0  0
 11 13  2  0  0  0  0
 12  8  2  0  0  0  0
 13 12  1  0  0  0  0
M  END
>  <idnumber>
T6051118

>  <LogP>
1.020000000000000e-001

>  <rotating_bonds>
2.000000000000000e+000

>  <hb_acceptors>
3.000000000000000e+000

>  <hb_donors>
0.000000000000000e+000

>  <PSA>
5.450000000000000e+001

>  <clusterid>
-1731

>  <is_centroid>
@

>  <class1>
686

>  <class2>
632

>  <population1>
31113

>  <population2>
79489

>  <population>
860

>  <cansmi>
N#Cc1cccnc1n1cncc1

>  <HBA2>
4

>  <HBD>
0

>  <logP>
1.13898

>  <TPSA>
54.5

>  <MW>
170.171

$$$$

 OpenBabel02121609142D

 12 13  0  0  0  0  0  0  0  0999 V2000
    0.0000    1.2333    0.0000 N   0  0  0  0  0  0  0  0  0  0  0  0
    0.0000    0.2333    0.0000 C   0  0  0  0  0  0  0  0  0  0  0  0
   -0.8708   -0.2667    0.0000 N   0  0  0  0  0  0  0  0  0  0  0  0
   -0.5000    2.7708    0.0000 N   0  0  0  0  0  0  0  0  0  0  0  0
   -0.8125    1.8208    0.0000 C   0  0  0  0  0  0  0  0  0  0  0  0
    0.8042    1.8208    0.0000 C   0  0  0  0  0  0  0  0  0  0  0  0
    0.5000    2.7708    0.0000 C   0  0  0  0  0  0  0  0  0  0  0  0
    0.8625   -0.2667    0.0000 C   0  0  0  0  0  0  0  0  0  0  0  0
   -0.8708   -1.2667    0.0000 C   0  0  0  0  0  0  0  0  0  0  0  0
    0.0000   -1.7667    0.0000 C   0  0  0  0  0  0  0  0  0  0  0  0
    0.0000   -2.7667    0.0000 N   0  0  0  0  0  0  0  0  0  0  0  0
    0.8625   -1.2667    0.0000 C   0  0  0  0  0  0  0  0  0  0  0  0
  2  1  1  0  0  0  0
  3  2  2  0  0  0  0
  4  5  2  0  0  0  0
  5  1  1  0  0  0  0
  6  1  1  0  0  0  0
  7  6  2  0  0  0  0
  7  4  1  0  0  0  0
  8  2  1  0  0  0  0
  9  3  1  0  0  0  0
  9 10  2  0  0  0  0
 10 12  1  0  0  0  0
 11 10  1  0  0  0  0
 12  8  2  0  0  0  0
M  END
>  <idnumber>
T6051127

>  <LogP>
2.210000000000000e-001

>  <rotating_bonds>
1.000000000000000e+000

>  <hb_acceptors>
3.000000000000000e+000

>  <hb_donors>
1.000000000000000e+000

>  <PSA>
5.673000000000000e+001

>  <clusterid>
-1732

>  <is_centroid>
@

>  <class1>
686

>  <class2>
632

>  <population1>
31113

>  <population2>
79489

>  <population>
860

>  <cansmi>
Nc1ccc(nc1)n1cncc1

>  <HBA2>
4

>  <HBD>
1

>  <logP>
1.4307

>  <TPSA>
56.73

>  <MW>
160.176

$$$$

 OpenBabel02121609142D

 19 21  0  0  0  0  0  0  0  0999 V2000
   -0.4250   -0.8500    0.0000 C   0  0  0  0  0  0  0  0  0  0  0  0
    0.4417   -0.3500    0.0000 C   0  0  0  0  0  0  0  0  0  0  0  0
    1.3042    1.1500    0.0000 C   0  0  0  0  0  0  0  0  0  0  0  0
    2.2167    0.7458    0.0000 N   0  0  0  0  0  0  0  0  0  0  0  0
   -1.2958   -0.3500    0.0000 C   0  0  0  0  0  0  0  0  0  0  0  0
    0.4417    0.6500    0.0000 N   0  0  0  0  0  0  0  0  0  0  0  0
    1.4125    2.1458    0.0000 C   0  0  0  0  0  0  0  0  0  0  0  0
    2.8917    1.4875    0.0000 N   0  0  0  0  0  0  0  0  0  0  0  0
   -1.2958   -2.3500    0.0000 O   0  0  0  0  0  0  0  0  0  0  0  0
    2.3917    2.3583    0.0000 C   0  0  0  0  0  0  0  0  0  0  0  0
   -2.1583   -0.8500    0.0000 C   0  0  0  0  0  0  0  0  0  0  0  0
   -0.4250   -1.8500    0.0000 C   0  0  0  0  0  0  0  0  0  0  0  0
   -2.1583   -1.8500    0.0000 C   0  0  0  0  0  0  0  0  0  0  0  0
    1.3042   -0.8500    0.0000 O   0  0  0  0  0  0  0  0  0  0  0  0
    3.8792    1.3833    0.0000 C   0  0  0  0  0  0  0  0  0  0  0  0
   -3.0208   -0.3500    0.0000 C   0  0  0  0  0  0  0  0  0  0  0  0
   -3.0208   -2.3500    0.0000 C   0  0  0  0  0  0  0  0  0  0  0  0
   -3.8958   -0.8500    0.0000 C   0  0  0  0  0  0  0  0  0  0  0  0
   -3.8958   -1.8500    0.0000 C   0  0  0  0  0  0  0  0  0  0  0  0
  2  1  1  0  0  0  0
  3  6  1  0  0  0  0
  4  3  2  0  0  0  0
  5  1  2  0  0  0  0
  6  2  1  0  0  0  0
  7  3  1  0  0  0  0
  8  4  1  0  0  0  0
  8 10  1  0  0  0  0
  9 12  1  0  0  0  0
 10  7  2  0  0  0  0
 11  5  1  0  0  0  0
 11 13  2  0  0  0  0
 12  1  1  0  0  0  0
 13  9  1  0  0  0  0
 14  2  2  0  0  0  0
 15  8  1  0  0  0  0
 16 11  1  0  0  0  0
 17 13  1  0  0  0  0
 18 16  2  0  0  0  0
 18 19  1  0  0  0  0
 19 17  2  0  0  0  0
M  END
>  <idnumber>
T6052103

>  <LogP>
1.921000000000000e+000

>  <rotating_bonds>
2.000000000000000e+000

>  <hb_acceptors>
3.000000000000000e+000

>  <hb_donors>
1.000000000000000e+000

>  <PSA>
5.614999999999996e+001

>  <clusterid>
-1735

>  <is_centroid>
@

>  <class1>
631

>  <class2>
694

>  <population1>
41612

>  <population2>
8594

>  <population>
246

>  <cansmi>
Cn1ccc(n1)NC(=O)C1=Cc2c(OC1)cccc2

>  <HBA2>
5

>  <HBD>
1

>  <logP>
1.9076

>  <TPSA>
56.15

>  <MW>
255.272

$$$$

 OpenBabel02121609142D

 21 23  0  0  0  0  0  0  0  0999 V2000
   -0.4333    0.7500    0.0000 N   0  0  0  0  0  0  0  0  0  0  0  0
   -0.4333    1.7583    0.0000 C   0  0  0  0  0  0  0  0  0  0  0  0
   -1.3000    0.2500    0.0000 C   0  0  0  0  0  0  0  0  0  0  0  0
   -2.1708    0.7500    0.0000 C   0  0  0  0  0  0  0  0  0  0  0  0
   -1.3000    2.2500    0.0000 N   0  0  0  0  0  0  0  0  0  0  0  0
   -2.1708    1.7583    0.0000 C   0  0  0  0  0  0  0  0  0  0  0  0
    2.1625   -0.7500    0.0000 N   0  0  0  0  0  0  0  0  0  0  0  0
    0.4292    0.2500    0.0000 C   0  0  0  0  0  0  0  0  0  0  0  0
    0.4292    2.2500    0.0000 O   0  0  0  0  0  0  0  0  0  0  0  0
   -1.3000   -0.7500    0.0000 O   0  0  0  0  0  0  0  0  0  0  0  0
    1.2917    0.7500    0.0000 C   0  0  0  0  0  0  0  0  0  0  0  0
    0.4292   -0.7500    0.0000 C   0  0  0  0  0  0  0  0  0  0  0  0
    2.1625    0.2500    0.0000 C   0  0  0  0  0  0  0  0  0  0  0  0
    1.2917   -1.2417    0.0000 C   0  0  0  0  0  0  0  0  0  0  0  0
    3.0292   -1.2417    0.0000 C   0  0  0  0  0  0  0  0  0  0  0  0
   -3.0333    0.2500    0.0000 C   0  0  0  0  0  0  0  0  0  0  0  0
   -3.0333    2.2500    0.0000 C   0  0  0  0  0  0  0  0  0  0  0  0
    3.0292   -2.2500    0.0000 C   0  0  0  0  0  0  0  0  0  0  0  0
    3.8917   -0.7500    0.0000 C   0  0  0  0  0  0  0  0  0  0  0  0
   -3.9000    0.7500    0.0000 C   0  0  0  0  0  0  0  0  0  0  0  0
   -3.9000    1.7583    0.0000 C   0  0  0  0  0  0  0  0  0  0  0  0
  2  1  1  0  0  0  0
  3  1  1  0  0  0  0
  4  3  1  0  0  0  0
  5  2  1  0  0  0  0
  5  6  1  0  0  0  0
  6  4  2  0  0  0  0
  7 14  1  0  0  0  0
  7 13  1  0  0  0  0
  8  1  1  0  0  0  0
  9  2  2  0  0  0  0
 10  3  2  0  0  0  0
 11  8  1  0  0  0  0
 12  8  1  0  0  0  0
 13 11  1  0  0  0  0
 14 12  1  0  0  0  0
 15  7  1  0  0  0  0
 16  4  1  0  0  0  0
 17  6  1  0  0  0  0
 17 21  2  0  0  0  0
 18 15  1  0  0  0  0
 19 15  1  0  0  0  0
 20 16  2  0  0  0  0
 21 20  1  0  0  0  0
M  END
>  <idnumber>
T6052699

>  <LogP>
2.280000000000000e+000

>  <rotating_bonds>
2.000000000000000e+000

>  <hb_acceptors>
3.000000000000000e+000

>  <hb_donors>
1.000000000000000e+000

>  <PSA>
5.265000000000000e+001

>  <clusterid>
824

>  <is_centroid>
@

>  <class1>
655

>  <class2>
639

>  <population1>
569

>  <population2>
59855

>  <population>
28

>  <cansmi>
CC(N1CCC(CC1)n1c(=O)[nH]c2c(c1=O)cccc2)C

>  <HBA2>
4

>  <HBD>
1

>  <logP>
1.673

>  <TPSA>
58.1

>  <MW>
287.357

$$$$

 OpenBabel02121609142D

 21 23  0  0  0  0  0  0  0  0999 V2000
   -0.4333   -1.0167    0.0000 C   0  0  0  0  0  0  0  0  0  0  0  0
   -0.4333    2.9833    0.0000 N   0  0  0  0  0  0  0  0  0  0  0  0
    0.4292   -1.5167    0.0000 N   0  0  0  0  0  0  0  0  0  0  0  0
   -0.4333   -0.0167    0.0000 C   0  0  0  0  0  0  0  0  0  0  0  0
   -0.4333    1.9833    0.0000 C   0  0  0  0  0  0  0  0  0  0  0  0
   -1.2458    3.5708    0.0000 N   0  0  0  0  0  0  0  0  0  0  0  0
   -1.3000    1.4833    0.0000 N   0  0  0  0  0  0  0  0  0  0  0  0
   -1.3000    0.4833    0.0000 C   0  0  0  0  0  0  0  0  0  0  0  0
    0.3750    3.5708    0.0000 C   0  0  0  0  0  0  0  0  0  0  0  0
    0.0667    4.5167    0.0000 C   0  0  0  0  0  0  0  0  0  0  0  0
   -1.3000   -1.5167    0.0000 O   0  0  0  0  0  0  0  0  0  0  0  0
    0.4292    0.4833    0.0000 C   0  0  0  0  0  0  0  0  0  0  0  0
    0.4292    1.4833    0.0000 C   0  0  0  0  0  0  0  0  0  0  0  0
   -0.9333    4.5167    0.0000 C   0  0  0  0  0  0  0  0  0  0  0  0
    0.4292   -2.5167    0.0000 C   0  0  0  0  0  0  0  0  0  0  0  0
    1.2917   -1.0167    0.0000 C   0  0  0  0  0  0  0  0  0  0  0  0
    1.2917   -3.0167    0.0000 C   0  0  0  0  0  0  0  0  0  0  0  0
   -0.4333   -3.0167    0.0000 C   0  0  0  0  0  0  0  0  0  0  0  0
   -0.4333   -4.0167    0.0000 C   0  0  0  0  0  0  0  0  0  0  0  0
    1.2917   -4.0167    0.0000 C   0  0  0  0  0  0  0  0  0  0  0  0
    0.4292   -4.5167    0.0000 C   0  0  0  0  0  0  0  0  0  0  0  0
  2  5  1  0  0  0  0
  3  1  1  0  0  0  0
  4  1  1  0  0  0  0
  5 13  1  0  0  0  0
  6  2  1  0  0  0  0
  7  8  1  0  0  0  0
  7  5  2  0  0  0  0
  8  4  2  0  0  0  0
  9  2  1  0  0  0  0
 10  9  2  0  0  0  0
 10 14  1  0  0  0  0
 11  1  2  0  0  0  0
 12  4  1  0  0  0  0
 13 12  2  0  0  0  0
 14  6  2  0  0  0  0
 15  3  1  0  0  0  0
 16  3  1  0  0  0  0
 17 15  1  0  0  0  0
 18 15  1  0  0  0  0
 19 18  1  0  0  0  0
 20 17  1  0  0  0  0
 20 21  1  0  0  0  0
 21 19  1  0  0  0  0
M  END
>  <idnumber>
T6053181

>  <LogP>
2.313000000000000e+000

>  <rotating_bonds>
3.000000000000000e+000

>  <hb_acceptors>
3.000000000000000e+000

>  <hb_donors>
0.000000000000000e+000

>  <PSA>
5.102000000000000e+001

>  <clusterid>
825

>  <is_centroid>
@

>  <class1>
631

>  <class2>
632

>  <class3>
797

>  <population1>
41612

>  <population2>
79489

>  <population3>
40410

>  <population>
34

>  <cansmi>
CN(C(=O)c1ccc(nc1)n1cccn1)C1CCCCC1

>  <HBA2>
5

>  <HBD>
0

>  <logP>
2.672

>  <TPSA>
51.02

>  <MW>
284.356

$$$$

 OpenBabel02121609142D

 21 23  0  0  0  0  0  0  0  0999 V2000
    1.5625   -2.0542    0.0000 N   0  0  0  0  0  0  0  0  0  0  0  0
    0.6125   -1.7417    0.0000 C   0  0  0  0  0  0  0  0  0  0  0  0
    2.1500   -1.2417    0.0000 N   0  0  0  0  0  0  0  0  0  0  0  0
    0.6125   -0.7417    0.0000 C   0  0  0  0  0  0  0  0  0  0  0  0
   -1.1208   -0.7417    0.0000 C   0  0  0  0  0  0  0  0  0  0  0  0
   -1.9875   -0.2417    0.0000 C   0  0  0  0  0  0  0  0  0  0  0  0
   -0.2583   -2.2417    0.0000 N   0  0  0  0  0  0  0  0  0  0  0  0
   -1.9875    0.7583    0.0000 N   0  0  0  0  0  0  0  0  0  0  0  0
    1.5625   -0.4375    0.0000 C   0  0  0  0  0  0  0  0  0  0  0  0
   -0.2583   -0.2417    0.0000 C   0  0  0  0  0  0  0  0  0  0  0  0
   -1.1208   -1.7417    0.0000 C   0  0  0  0  0  0  0  0  0  0  0  0
   -2.8583   -0.7417    0.0000 O   0  0  0  0  0  0  0  0  0  0  0  0
   -1.1208    1.2583    0.0000 C   0  0  0  0  0  0  0  0  0  0  0  0
   -2.8583    1.2583    0.0000 C   0  0  0  0  0  0  0  0  0  0  0  0
    1.8667   -3.0042    0.0000 C   0  0  0  0  0  0  0  0  0  0  0  0
   -2.8583    2.2583    0.0000 C   0  0  0  0  0  0  0  0  0  0  0  0
   -1.1208    2.2583    0.0000 C   0  0  0  0  0  0  0  0  0  0  0  0
   -1.9875    2.7583    0.0000 C   0  0  0  0  0  0  0  0  0  0  0  0
    2.8500   -3.2125    0.0000 C   0  0  0  0  0  0  0  0  0  0  0  0
    1.2000   -3.7500    0.0000 C   0  0  0  0  0  0  0  0  0  0  0  0
   -1.9875    3.7583    0.0000 C   0  0  0  0  0  0  0  0  0  0  0  0
  2  1  1  0  0  0  0
  3  1  1  0  0  0  0
  4  2  2  0  0  0  0
  5 11  1  0  0  0  0
  6  5  1  0  0  0  0
  7  2  1  0  0  0  0
  8  6  1  0  0  0  0
  9  3  2  0  0  0  0
  9  4  1  0  0  0  0
 10  4  1  0  0  0  0
 10  5  2  0  0  0  0
 11  7  2  0  0  0  0
 12  6  2  0  0  0  0
 13  8  1  0  0  0  0
 14  8  1  0  0  0  0
 15  1  1  0  0  0  0
 16 14  1  0  0  0  0
 17 13  1  0  0  0  0
 17 18  1  0  0  0  0
 18 16  1  0  0  0  0
 19 15  1  0  0  0  0
 20 15  1  0  0  0  0
 21 18  1  0  0  0  0
M  END
>  <idnumber>
T6053784

>  <LogP>
2.128000000000000e+000

>  <rotating_bonds>
2.000000000000000e+000

>  <hb_acceptors>
3.000000000000000e+000

>  <hb_donors>
0.000000000000000e+000

>  <PSA>
5.102000000000000e+001

>  <clusterid>
760

>  <is_centroid>
@

>  <class1>
639

>  <class2>
726

>  <population1>
59855

>  <population2>
3632

>  <population>
114

>  <cansmi>
CC1CCN(CC1)C(=O)c1cnc2c(c1)cnn2C(C)C

>  <HBA2>
5

>  <HBD>
0

>  <logP>
2.8222

>  <TPSA>
51.02

>  <MW>
286.372

$$$$

 OpenBabel02121609142D

 20 22  0  0  0  0  0  0  0  0999 V2000
   -1.1208   -0.3625    0.0000 C   0  0  0  0  0  0  0  0  0  0  0  0
   -0.1208   -0.3625    0.0000 N   0  0  0  0  0  0  0  0  0  0  0  0
   -1.7083    0.4458    0.0000 N   0  0  0  0  0  0  0  0  0  0  0  0
    0.3792    0.5083    0.0000 C   0  0  0  0  0  0  0  0  0  0  0  0
   -1.7083   -1.1750    0.0000 O   0  0  0  0  0  0  0  0  0  0  0  0
   -2.6583    0.1375    0.0000 C   0  0  0  0  0  0  0  0  0  0  0  0
   -2.6583   -0.8625    0.0000 C   0  0  0  0  0  0  0  0  0  0  0  0
    1.3792    0.5083    0.0000 C   0  0  0  0  0  0  0  0  0  0  0  0
   -0.1208    1.3708    0.0000 O   0  0  0  0  0  0  0  0  0  0  0  0
    1.8792    1.3708    0.0000 C   0  0  0  0  0  0  0  0  0  0  0  0
    1.8792   -0.3625    0.0000 C   0  0  0  0  0  0  0  0  0  0  0  0
    0.3792   -1.2292    0.0000 C   0  0  0  0  0  0  0  0  0  0  0  0
    2.8792   -0.3625    0.0000 C   0  0  0  0  0  0  0  0  0  0  0  0
    2.8792    1.3708    0.0000 C   0  0  0  0  0  0  0  0  0  0  0  0
    3.3792    0.5083    0.0000 C   0  0  0  0  0  0  0  0  0  0  0  0
   -3.5208    0.6375    0.0000 C   0  0  0  0  0  0  0  0  0  0  0  0
   -3.5208   -1.3625    0.0000 C   0  0  0  0  0  0  0  0  0  0  0  0
    4.3792    0.5083    0.0000 C   0  0  0  0  0  0  0  0  0  0  0  0
   -4.3958   -0.8625    0.0000 C   0  0  0  0  0  0  0  0  0  0  0  0
   -4.3958    0.1375    0.0000 C   0  0  0  0  0  0  0  0  0  0  0  0
  2  1  1  0  0  0  0
  3  1  2  0  0  0  0
  4  2  1  0  0  0  0
  5  1  1  0  0  0  0
  6  3  1  0  0  0  0
  6  7  2  0  0  0  0
  7  5  1  0  0  0  0
  8  4  1  0  0  0  0
  9  4  2  0  0  0  0
 10  8  2  0  0  0  0
 11  8  1  0  0  0  0
 12  2  1  0  0  0  0
 13 11  2  0  0  0  0
 14 10  1  0  0  0  0
 14 15  2  0  0  0  0
 15 13  1  0  0  0  0
 16  6  1  0  0  0  0
 17  7  1  0  0  0  0
 18 15  1  0  0  0  0
 19 17  2  0  0  0  0
 20 16  2  0  0  0  0
 20 19  1  0  0  0  0
M  END
>  <idnumber>
T6053817

>  <LogP>
2.598000000000000e+000

>  <rotating_bonds>
2.000000000000000e+000

>  <hb_acceptors>
2.000000000000000e+000

>  <hb_donors>
0.000000000000000e+000

>  <PSA>
4.634000000000000e+001

>  <clusterid>
823

>  <is_centroid>
@

>  <class1>
625

>  <class2>
752

>  <population1>
877209

>  <population2>
4005

>  <population>
4005

>  <cansmi>
Cc1ccc(cc1)C(=O)N(c1nc2c(o1)cccc2)C

>  <HBA2>
4

>  <HBD>
0

>  <logP>
3.4128

>  <TPSA>
46.34

>  <MW>
266.295

$$$$

 OpenBabel02121609142D

 17 18  0  0  0  0  0  0  0  0999 V2000
   -0.8708   -1.2500    0.0000 C   0  0  0  0  0  0  0  0  0  0  0  0
   -0.8708   -2.2500    0.0000 C   0  0  0  0  0  0  0  0  0  0  0  0
   -1.7333    0.2583    0.0000 N   0  0  0  0  0  0  0  0  0  0  0  0
   -0.8708    0.7500    0.0000 C   0  0  0  0  0  0  0  0  0  0  0  0
   -1.7333   -0.7500    0.0000 C   0  0  0  0  0  0  0  0  0  0  0  0
   -0.8708    1.7500    0.0000 N   0  0  0  0  0  0  0  0  0  0  0  0
   -1.7333   -2.7500    0.0000 O   0  0  0  0  0  0  0  0  0  0  0  0
   -0.0083   -0.7500    0.0000 C   0  0  0  0  0  0  0  0  0  0  0  0
   -0.0083   -2.7500    0.0000 N   0  0  0  0  0  0  0  0  0  0  0  0
   -0.0083    0.2583    0.0000 C   0  0  0  0  0  0  0  0  0  0  0  0
   -0.0083    2.2500    0.0000 C   0  0  0  0  0  0  0  0  0  0  0  0
   -0.0083   -3.7500    0.0000 C   0  0  0  0  0  0  0  0  0  0  0  0
    0.8625    1.7500    0.0000 C   0  0  0  0  0  0  0  0  0  0  0  0
   -0.0083    3.2500    0.0000 C   0  0  0  0  0  0  0  0  0  0  0  0
    0.8625    3.7500    0.0000 C   0  0  0  0  0  0  0  0  0  0  0  0
    1.7292    2.2500    0.0000 C   0  0  0  0  0  0  0  0  0  0  0  0
    1.7292    3.2500    0.0000 C   0  0  0  0  0  0  0  0  0  0  0  0
  2  1  1  0  0  0  0
  3  5  1  0  0  0  0
  3  4  2  0  0  0  0
  4 10  1  0  0  0  0
  5  1  2  0  0  0  0
  6  4  1  0  0  0  0
  7  2  2  0  0  0  0
  8  1  1  0  0  0  0
  9  2  1  0  0  0  0
 10  8  2  0  0  0  0
 11  6  1  0  0  0  0
 12  9  1  0  0  0  0
 13 11  1  0  0  0  0
 14 11  1  0  0  0  0
 15 14  1  0  0  0  0
 16 13  1  0  0  0  0
 16 17  1  0  0  0  0
 17 15  1  0  0  0  0
M  END
>  <idnumber>
T6054112

>  <LogP>
2.664000000000000e+000

>  <rotating_bonds>
3.000000000000000e+000

>  <hb_acceptors>
3.000000000000000e+000

>  <hb_donors>
2.000000000000000e+000

>  <PSA>
5.402000000000000e+001

>  <clusterid>
-1743

>  <is_centroid>
@

>  <class1>
797

>  <class2>
632

>  <population1>
40410

>  <population2>
79489

>  <population>
2014

>  <cansmi>
CNC(=O)c1ccc(nc1)NC1CCCCC1

>  <HBA2>
4

>  <HBD>
2

>  <logP>
2.6497

>  <TPSA>
54.02

>  <MW>
233.309

$$$$

 OpenBabel02121609142D

 15 17  0  0  0  0  0  0  0  0999 V2000
    0.1667    0.6458    0.0000 C   0  0  0  0  0  0  0  0  0  0  0  0
    0.4792   -0.3042    0.0000 C   0  0  0  0  0  0  0  0  0  0  0  0
   -0.7833    0.9500    0.0000 C   0  0  0  0  0  0  0  0  0  0  0  0
    0.7542    1.4500    0.0000 C   0  0  0  0  0  0  0  0  0  0  0  0
    0.1667    2.2583    0.0000 S   0  0  0  0  0  0  0  0  0  0  0  0
   -0.7833    1.9583    0.0000 C   0  0  0  0  0  0  0  0  0  0  0  0
    1.4542   -0.5167    0.0000 N   0  0  0  0  0  0  0  0  0  0  0  0
    1.7667   -1.4667    0.0000 C   0  0  0  0  0  0  0  0  0  0  0  0
    2.5042   -2.1375    0.0000 C   0  0  0  0  0  0  0  0  0  0  0  0
    1.5542   -2.4417    0.0000 C   0  0  0  0  0  0  0  0  0  0  0  0
   -0.1958   -1.0542    0.0000 O   0  0  0  0  0  0  0  0  0  0  0  0
   -1.6458    0.4500    0.0000 C   0  0  0  0  0  0  0  0  0  0  0  0
   -1.6458    2.4583    0.0000 C   0  0  0  0  0  0  0  0  0  0  0  0
   -2.5125    0.9500    0.0000 C   0  0  0  0  0  0  0  0  0  0  0  0
   -2.5125    1.9583    0.0000 C   0  0  0  0  0  0  0  0  0  0  0  0
  2  1  1  0  0  0  0
  3  1  1  0  0  0  0
  4  1  2  0  0  0  0
  5  4  1  0  0  0  0
  5  6  1  0  0  0  0
  6  3  2  0  0  0  0
  7  2  1  0  0  0  0
  8  7  1  0  0  0  0
  9  8  1  0  0  0  0
 10  8  1  0  0  0  0
 10  9  1  0  0  0  0
 11  2  2  0  0  0  0
 12  3  1  0  0  0  0
 13  6  1  0  0  0  0
 13 15  1  0  0  0  0
 14 12  1  0  0  0  0
 15 14  1  0  0  0  0
M  END
>  <idnumber>
T6054282

>  <LogP>
2.625000000000000e+000

>  <rotating_bonds>
2.000000000000000e+000

>  <hb_acceptors>
2.000000000000000e+000

>  <hb_donors>
1.000000000000000e+000

>  <PSA>
5.734000000000000e+001

>  <clusterid>
-1744

>  <is_centroid>
@

>  <class1>
675

>  <class2>
859

>  <population1>
33654

>  <population2>
9817

>  <population>
161

>  <cansmi>
O=C(c1csc2c1CCCC2)NC1CC1

>  <HBA2>
3

>  <HBD>
1

>  <logP>
2.91

>  <TPSA>
57.34

>  <MW>
221.319

$$$$

 OpenBabel02121609142D

 21 23  0  0  0  0  0  0  0  0999 V2000
   -0.0083   -1.0750    0.0000 C   0  0  0  0  0  0  0  0  0  0  0  0
   -0.0083   -0.0750    0.0000 C   0  0  0  0  0  0  0  0  0  0  0  0
    0.8042   -1.6625    0.0000 C   0  0  0  0  0  0  0  0  0  0  0  0
   -0.8125   -1.6625    0.0000 C   0  0  0  0  0  0  0  0  0  0  0  0
    0.4917   -2.6125    0.0000 O   0  0  0  0  0  0  0  0  0  0  0  0
   -0.5083   -2.6125    0.0000 C   0  0  0  0  0  0  0  0  0  0  0  0
    0.8625    0.4250    0.0000 N   0  0  0  0  0  0  0  0  0  0  0  0
    0.8625    1.4250    0.0000 C   0  0  3  0  0  0  0  0  0  0  0  0
   -0.0083    1.9250    0.0000 C   0  0  0  0  0  0  0  0  0  0  0  0
   -0.8708    0.4250    0.0000 O   0  0  0  0  0  0  0  0  0  0  0  0
   -0.0083    2.9250    0.0000 C   0  0  0  0  0  0  0  0  0  0  0  0
    0.8625    3.4250    0.0000 O   0  0  0  0  0  0  0  0  0  0  0  0
    1.7292    1.9250    0.0000 C   0  0  0  0  0  0  0  0  0  0  0  0
    1.7542   -1.3542    0.0000 C   0  0  0  0  0  0  0  0  0  0  0  0
    1.7292    2.9250    0.0000 C   0  0  0  0  0  0  0  0  0  0  0  0
   -1.7625   -1.3542    0.0000 C   0  0  0  0  0  0  0  0  0  0  0  0
   -1.0958   -3.4167    0.0000 C   0  0  0  0  0  0  0  0  0  0  0  0
   -0.8708    1.4250    0.0000 C   0  0  0  0  0  0  0  0  0  0  0  0
   -0.8708    3.4250    0.0000 C   0  0  0  0  0  0  0  0  0  0  0  0
   -1.7333    1.9250    0.0000 C   0  0  0  0  0  0  0  0  0  0  0  0
   -1.7333    2.9250    0.0000 C   0  0  0  0  0  0  0  0  0  0  0  0
  2  1  1  0  0  0  0
  3  1  2  0  0  0  0
  4  1  1  0  0  0  0
  5  3  1  0  0  0  0
  6  4  2  0  0  0  0
  6  5  1  0  0  0  0
  7  2  1  0  0  0  0
  8  7  1  0  0  0  0
  9  8  1  0  0  0  0
 10  2  2  0  0  0  0
 11  9  2  0  0  0  0
 11 12  1  0  0  0  0
 12 15  1  0  0  0  0
 13  8  1  0  0  0  0
 14  3  1  0  0  0  0
 15 13  1  0  0  0  0
 16  4  1  0  0  0  0
 17  6  1  0  0  0  0
 18  9  1  0  0  0  0
 19 11  1  0  0  0  0
 19 21  2  0  0  0  0
 20 18  2  0  0  0  0
 21 20  1  0  0  0  0
M  END
>  <idnumber>
T6057288

>  <LogP>
2.636000000000000e+000

>  <rotating_bonds>
2.000000000000000e+000

>  <hb_acceptors>
2.000000000000000e+000

>  <hb_donors>
1.000000000000000e+000

>  <PSA>
5.146999999999999e+001

>  <clusterid>
-1748

>  <is_centroid>
@

>  <class1>
704

>  <class2>
766

>  <population1>
51112

>  <population2>
1661

>  <population>
49

>  <cansmi>
O=C(c1c(C)oc(c1C)C)NC1CCOc2c1cccc2

>  <HBA2>
4

>  <HBD>
1

>  <logP>
3.8493

>  <TPSA>
51.47

>  <MW>
285.338

$$$$

 OpenBabel02121609142D

 17 19  0  0  0  0  0  0  0  0999 V2000
    0.4292   -0.7500    0.0000 N   0  0  0  0  0  0  0  0  0  0  0  0
    0.4292    0.2500    0.0000 C   0  0  0  0  0  0  0  0  0  0  0  0
   -0.4333    0.7500    0.0000 N   0  0  0  0  0  0  0  0  0  0  0  0
   -0.4333   -1.2500    0.0000 C   0  0  0  0  0  0  0  0  0  0  0  0
   -1.3000   -0.7500    0.0000 C   0  0  0  0  0  0  0  0  0  0  0  0
   -1.3000    0.2500    0.0000 C   0  0  0  0  0  0  0  0  0  0  0  0
   -0.4333   -2.2500    0.0000 O   0  0  0  0  0  0  0  0  0  0  0  0
    1.2917    0.7500    0.0000 C   0  0  0  0  0  0  0  0  0  0  0  0
   -2.1708   -1.2500    0.0000 C   0  0  0  0  0  0  0  0  0  0  0  0
   -2.1708    0.7500    0.0000 C   0  0  0  0  0  0  0  0  0  0  0  0
    2.1625    0.2500    0.0000 C   0  0  0  0  0  0  0  0  0  0  0  0
    1.2917    1.7583    0.0000 C   0  0  0  0  0  0  0  0  0  0  0  0
   -3.0333   -0.7500    0.0000 C   0  0  0  0  0  0  0  0  0  0  0  0
   -3.0333    0.2500    0.0000 C   0  0  0  0  0  0  0  0  0  0  0  0
    2.1625    2.2500    0.0000 C   0  0  0  0  0  0  0  0  0  0  0  0
    3.0292    0.7500    0.0000 C   0  0  0  0  0  0  0  0  0  0  0  0
    3.0292    1.7583    0.0000 C   0  0  0  0  0  0  0  0  0  0  0  0
  2  1  1  0  0  0  0
  3  2  2  0  0  0  0
  3  6  1  0  0  0  0
  4  1  1  0  0  0  0
  5  4  1  0  0  0  0
  6  5  2  0  0  0  0
  7  4  2  0  0  0  0
  8  2  1  0  0  0  0
  9  5  1  0  0  0  0
 10  6  1  0  0  0  0
 11  8  1  0  0  0  0
 12  8  2  0  0  0  0
 13  9  2  0  0  0  0
 14 13  1  0  0  0  0
 14 10  2  0  0  0  0
 15 12  1  0  0  0  0
 16 11  2  0  0  0  0
 16 17  1  0  0  0  0
 17 15  2  0  0  0  0
M  END
>  <idnumber>
T6059109

>  <LogP>
2.403000000000000e+000

>  <rotating_bonds>
1.000000000000000e+000

>  <hb_acceptors>
2.000000000000000e+000

>  <hb_donors>
1.000000000000000e+000

>  <PSA>
4.146000000000000e+001

>  <clusterid>
-1749

>  <is_centroid>
@

>  <class1>
648

>  <class2>
625

>  <population1>
19152

>  <population2>
877209

>  <population>
19152

>  <cansmi>
O=c1[nH]c(nc2c1cccc2)c1ccccc1

>  <HBA2>
2

>  <HBD>
1

>  <logP>
2.5901

>  <TPSA>
45.75

>  <MW>
222.242

$$$$

 OpenBabel02121609142D

 20 22  0  0  0  0  0  0  0  0999 V2000
    0.8917    1.9458    0.0000 C   0  0  0  0  0  0  0  0  0  0  0  0
    0.3042    2.7500    0.0000 N   0  0  0  0  0  0  0  0  0  0  0  0
    0.5792    0.9958    0.0000 N   0  0  0  0  0  0  0  0  0  0  0  0
    1.2542    0.2500    0.0000 C   0  0  0  0  0  0  0  0  0  0  0  0
    0.8917    3.5583    0.0000 N   0  0  0  0  0  0  0  0  0  0  0  0
    1.8417    2.2500    0.0000 C   0  0  0  0  0  0  0  0  0  0  0  0
    1.8417    3.2500    0.0000 C   0  0  0  0  0  0  0  0  0  0  0  0
    0.9417   -0.7042    0.0000 C   0  0  0  0  0  0  0  0  0  0  0  0
    2.2292    0.4583    0.0000 O   0  0  0  0  0  0  0  0  0  0  0  0
   -0.6958    2.7500    0.0000 C   0  0  0  0  0  0  0  0  0  0  0  0
   -0.0333   -0.9125    0.0000 C   0  0  0  0  0  0  0  0  0  0  0  0
    1.6125   -1.4417    0.0000 C   0  0  0  0  0  0  0  0  0  0  0  0
    0.3250   -2.6042    0.0000 C   0  0  0  0  0  0  0  0  0  0  0  0
   -0.3458   -1.8625    0.0000 C   0  0  0  0  0  0  0  0  0  0  0  0
    1.3042   -2.3917    0.0000 C   0  0  0  0  0  0  0  0  0  0  0  0
    0.0167   -3.5542    0.0000 F   0  0  0  0  0  0  0  0  0  0  0  0
   -1.2833    3.5583    0.0000 C   0  0  0  0  0  0  0  0  0  0  0  0
   -1.2833    1.9458    0.0000 C   0  0  0  0  0  0  0  0  0  0  0  0
   -2.2333    2.2500    0.0000 C   0  0  0  0  0  0  0  0  0  0  0  0
   -2.2333    3.2500    0.0000 C   0  0  0  0  0  0  0  0  0  0  0  0
  2  1  1  0  0  0  0
  3  1  1  0  0  0  0
  4  3  1  0  0  0  0
  5  2  1  0  0  0  0
  6  1  2  0  0  0  0
  7  6  1  0  0  0  0
  7  5  2  0  0  0  0
  8  4  1  0  0  0  0
  9  4  2  0  0  0  0
 10  2  1  0  0  0  0
 11  8  2  0  0  0  0
 12  8  1  0  0  0  0
 13 15  1  0  0  0  0
 14 11  1  0  0  0  0
 14 13  2  0  0  0  0
 15 12  2  0  0  0  0
 16 13  1  0  0  0  0
 17 10  1  0  0  0  0
 18 10  1  0  0  0  0
 19 18  1  0  0  0  0
 20 17  1  0  0  0  0
 20 19  1  0  0  0  0
M  END
>  <idnumber>
T6060195

>  <LogP>
2.811000000000000e+000

>  <rotating_bonds>
3.000000000000000e+000

>  <hb_acceptors>
3.000000000000000e+000

>  <hb_donors>
1.000000000000000e+000

>  <PSA>
4.692000000000000e+001

>  <clusterid>
791

>  <is_centroid>
@

>  <class1>
625

>  <class2>
674

>  <class3>
631

>  <population1>
877209

>  <population2>
16474

>  <population3>
41612

>  <population>
662

>  <cansmi>
Fc1ccc(cc1)C(=O)Nc1ccnn1C1CCCC1

>  <HBA2>
4

>  <HBD>
1

>  <logP>
3.4626

>  <TPSA>
46.92

>  <MW>
273.305

$$$$

 OpenBabel02121609142D

 15 15  0  0  0  0  0  0  0  0999 V2000
    1.4292    0.0000    0.0000 C   0  0  3  0  0  0  0  0  0  0  0  0
    0.5667   -0.5000    0.0000 O   0  0  0  0  0  0  0  0  0  0  0  0
    0.5667    1.5000    0.0000 N   0  0  0  0  0  0  0  0  0  0  0  0
    2.2917   -0.5000    0.0000 C   0  0  0  0  0  0  0  0  0  0  0  0
   -0.3000    0.0000    0.0000 C   0  0  0  0  0  0  0  0  0  0  0  0
    1.4292    1.0000    0.0000 C   0  0  0  0  0  0  0  0  0  0  0  0
   -0.3000    1.0000    0.0000 C   0  0  0  0  0  0  0  0  0  0  0  0
    2.2917   -1.5000    0.0000 O   0  0  0  0  0  0  0  0  0  0  0  0
    3.1625    0.0000    0.0000 O   0  0  0  0  0  0  0  0  0  0  0  0
   -4.0333    0.1833    0.0000 Cl  0  0  0  0  0  0  0  0  0  0  0  0
   -1.1708   -0.5000    0.0000 C   0  0  0  0  0  0  0  0  0  0  0  0
   -1.1708    1.5000    0.0000 C   0  0  0  0  0  0  0  0  0  0  0  0
    4.0292   -0.5000    0.0000 C   0  0  0  0  0  0  0  0  0  0  0  0
   -2.0333    0.0000    0.0000 C   0  0  0  0  0  0  0  0  0  0  0  0
   -2.0333    1.0000    0.0000 C   0  0  0  0  0  0  0  0  0  0  0  0
  2  1  1  0  0  0  0
  3  6  1  0  0  0  0
  4  1  1  0  0  0  0
  5  2  1  0  0  0  0
  5  7  2  0  0  0  0
  6  1  1  0  0  0  0
  7  3  1  0  0  0  0
  8  4  2  0  0  0  0
  9  4  1  0  0  0  0
 11  5  1  0  0  0  0
 12  7  1  0  0  0  0
 13  9  1  0  0  0  0
 14 11  2  0  0  0  0
 15 12  2  0  0  0  0
 15 14  1  0  0  0  0
M  END
>  <idnumber>
T6060407

>  <LogP>
1.186000000000000e+000

>  <rotating_bonds>
2.000000000000000e+000

>  <hb_acceptors>
3.000000000000000e+000

>  <hb_donors>
1.000000000000000e+000

>  <PSA>
4.756000000000000e+001

>  <clusterid>
-1755

>  <is_centroid>
@

>  <class1>
824

>  <population1>
4751

>  <population>
4751

>  <cansmi>
COC(=O)C1CNc2c(O1)cccc2.Cl

>  <HBA2>
4

>  <HBD>
2

>  <logP>
1.9725

>  <TPSA>
47.56

>  <MW>
229.66

$$$$

 OpenBabel02121609142D

 14 16  0  0  0  0  0  0  0  0999 V2000
    0.1667    0.9208    0.0000 C   0  0  0  0  0  0  0  0  0  0  0  0
    0.1667   -0.0792    0.0000 N   0  0  0  0  0  0  0  0  0  0  0  0
   -0.7833    1.2250    0.0000 N   0  0  0  0  0  0  0  0  0  0  0  0
    1.0292    1.4208    0.0000 N   0  0  0  0  0  0  0  0  0  0  0  0
   -0.7833   -0.3917    0.0000 C   0  0  0  0  0  0  0  0  0  0  0  0
    1.0292   -0.5792    0.0000 C   0  0  0  0  0  0  0  0  0  0  0  0
   -1.3708    0.4208    0.0000 C   0  0  0  0  0  0  0  0  0  0  0  0
    1.9000   -0.0792    0.0000 C   0  0  0  0  0  0  0  0  0  0  0  0
    1.9000    0.9208    0.0000 C   0  0  0  0  0  0  0  0  0  0  0  0
    2.7667   -0.5792    0.0000 Br  0  0  0  0  0  0  0  0  0  0  0  0
   -1.1875   -1.3042    0.0000 C   0  0  0  0  0  0  0  0  0  0  0  0
   -2.3625    0.3125    0.0000 C   0  0  0  0  0  0  0  0  0  0  0  0
   -2.1833   -1.4125    0.0000 C   0  0  0  0  0  0  0  0  0  0  0  0
   -2.7708   -0.6042    0.0000 C   0  0  0  0  0  0  0  0  0  0  0  0
  2  1  1  0  0  0  0
  3  1  2  0  0  0  0
  4  1  1  0  0  0  0
  5  2  1  0  0  0  0
  6  2  1  0  0  0  0
  6  8  2  0  0  0  0
  7  3  1  0  0  0  0
  7  5  2  0  0  0  0
  8  9  1  0  0  0  0
  9  4  2  0  0  0  0
 10  8  1  0  0  0  0
 11  5  1  0  0  0  0
 12  7  1  0  0  0  0
 13 11  2  0  0  0  0
 14 12  2  0  0  0  0
 14 13  1  0  0  0  0
M  END
>  <idnumber>
T6060421

>  <LogP>
2.565000000000000e+000

>  <rotating_bonds>
0.000000000000000e+000

>  <hb_acceptors>
3.000000000000000e+000

>  <hb_donors>
0.000000000000000e+000

>  <PSA>
3.019000000000000e+001

>  <clusterid>
-1756

>  <is_centroid>
@

>  <class1>
936

>  <population1>
19

>  <population>
19

>  <cansmi>
Brc1cnc2n(c1)c1ccccc1n2

>  <HBA2>
3

>  <HBD>
0

>  <logP>
2.645

>  <TPSA>
30.19

>  <MW>
248.079

$$$$

 OpenBabel02121609142D

 21 23  0  0  0  0  0  0  0  0999 V2000
   -0.0083   -2.9792    0.0000 N   0  0  0  0  0  0  0  0  0  0  0  0
   -0.0083   -1.9792    0.0000 C   0  0  0  0  0  0  0  0  0  0  0  0
    0.4917   -4.5167    0.0000 N   0  0  0  0  0  0  0  0  0  0  0  0
   -0.8708   -1.4792    0.0000 N   0  0  0  0  0  0  0  0  0  0  0  0
    0.8042   -3.5667    0.0000 C   0  0  0  0  0  0  0  0  0  0  0  0
   -0.8708    1.5208    0.0000 N   0  0  0  0  0  0  0  0  0  0  0  0
   -0.8125   -3.5667    0.0000 C   0  0  0  0  0  0  0  0  0  0  0  0
    0.8625   -1.4792    0.0000 O   0  0  0  0  0  0  0  0  0  0  0  0
   -0.5083   -4.5167    0.0000 C   0  0  0  0  0  0  0  0  0  0  0  0
   -0.8708   -0.4792    0.0000 C   0  0  0  0  0  0  0  0  0  0  0  0
   -0.8708    2.5208    0.0000 C   0  0  0  0  0  0  0  0  0  0  0  0
   -1.7333    0.0208    0.0000 C   0  0  0  0  0  0  0  0  0  0  0  0
   -0.0083    0.0208    0.0000 C   0  0  0  0  0  0  0  0  0  0  0  0
   -0.0083    1.0208    0.0000 C   0  0  0  0  0  0  0  0  0  0  0  0
   -1.7333    1.0208    0.0000 C   0  0  0  0  0  0  0  0  0  0  0  0
   -0.0083    3.0208    0.0000 C   0  0  0  0  0  0  0  0  0  0  0  0
   -0.0083    4.0167    0.0000 C   0  0  0  0  0  0  0  0  0  0  0  0
    0.8625    2.5208    0.0000 C   0  0  0  0  0  0  0  0  0  0  0  0
    1.7292    3.0208    0.0000 C   0  0  0  0  0  0  0  0  0  0  0  0
    0.8625    4.5167    0.0000 C   0  0  0  0  0  0  0  0  0  0  0  0
    1.7292    4.0167    0.0000 C   0  0  0  0  0  0  0  0  0  0  0  0
  2  1  1  0  0  0  0
  3  5  2  0  0  0  0
  4  2  1  0  0  0  0
  5  1  1  0  0  0  0
  6 14  1  0  0  0  0
  7  1  1  0  0  0  0
  8  2  2  0  0  0  0
  9  7  2  0  0  0  0
  9  3  1  0  0  0  0
 10  4  1  0  0  0  0
 11  6  1  0  0  0  0
 12 10  1  0  0  0  0
 13 10  1  0  0  0  0
 14 13  1  0  0  0  0
 15 12  1  0  0  0  0
 15  6  1  0  0  0  0
 16 11  1  0  0  0  0
 17 16  2  0  0  0  0
 18 16  1  0  0  0  0
 19 18  2  0  0  0  0
 20 17  1  0  0  0  0
 20 21  2  0  0  0  0
 21 19  1  0  0  0  0
M  END
>  <idnumber>
T6060433

>  <LogP>
3.030000000000000e-001

>  <rotating_bonds>
3.000000000000000e+000

>  <hb_acceptors>
3.000000000000000e+000

>  <hb_donors>
1.000000000000000e+000

>  <PSA>
5.016000000000000e+001

>  <clusterid>
-1758

>  <is_centroid>
@

>  <class1>
625

>  <class2>
639

>  <class3>
686

>  <population1>
877209

>  <population2>
59855

>  <population3>
31113

>  <population>
1029

>  <cansmi>
O=C(n1cncc1)NC1CCN(CC1)Cc1ccccc1

>  <HBA2>
5

>  <HBD>
1

>  <logP>
2.4342

>  <TPSA>
50.16

>  <MW>
284.356

$$$$

 OpenBabel02121609142D

 21 23  0  0  0  0  0  0  0  0999 V2000
    0.8625   -2.7500    0.0000 C   0  0  0  0  0  0  0  0  0  0  0  0
    0.8625   -1.7500    0.0000 C   0  0  0  0  0  0  0  0  0  0  0  0
    0.0000   -1.2500    0.0000 N   0  0  0  0  0  0  0  0  0  0  0  0
    0.0542   -3.3375    0.0000 C   0  0  0  0  0  0  0  0  0  0  0  0
    0.0000    2.7500    0.0000 N   0  0  0  0  0  0  0  0  0  0  0  0
    0.0000    1.7500    0.0000 C   0  0  0  0  0  0  0  0  0  0  0  0
    0.0000   -0.2500    0.0000 C   0  0  0  0  0  0  0  0  0  0  0  0
    1.6750   -3.3375    0.0000 C   0  0  0  0  0  0  0  0  0  0  0  0
   -0.8708    1.2500    0.0000 C   0  0  0  0  0  0  0  0  0  0  0  0
   -0.8708    0.2500    0.0000 C   0  0  0  0  0  0  0  0  0  0  0  0
    0.3625   -4.2875    0.0000 O   0  0  0  0  0  0  0  0  0  0  0  0
    1.3625   -4.2875    0.0000 C   0  0  0  0  0  0  0  0  0  0  0  0
    1.7292   -1.2500    0.0000 O   0  0  0  0  0  0  0  0  0  0  0  0
    0.8625    1.2500    0.0000 C   0  0  0  0  0  0  0  0  0  0  0  0
    0.8625    0.2500    0.0000 C   0  0  0  0  0  0  0  0  0  0  0  0
    0.8042    3.3458    0.0000 C   0  0  0  0  0  0  0  0  0  0  0  0
   -0.8125    3.3458    0.0000 C   0  0  0  0  0  0  0  0  0  0  0  0
   -0.8958   -3.0250    0.0000 C   0  0  0  0  0  0  0  0  0  0  0  0
   -1.7333   -0.2500    0.0000 C   0  0  0  0  0  0  0  0  0  0  0  0
   -0.5000    4.2792    0.0000 C   0  0  0  0  0  0  0  0  0  0  0  0
    0.5000    4.2792    0.0000 C   0  0  0  0  0  0  0  0  0  0  0  0
  2  1  1  0  0  0  0
  3  2  1  0  0  0  0
  4  1  2  0  0  0  0
  5  6  1  0  0  0  0
  6 14  1  0  0  0  0
  7  3  1  0  0  0  0
  8  1  1  0  0  0  0
  9 10  1  0  0  0  0
  9  6  2  0  0  0  0
 10  7  2  0  0  0  0
 11  4  1  0  0  0  0
 11 12  1  0  0  0  0
 12  8  2  0  0  0  0
 13  2  2  0  0  0  0
 14 15  2  0  0  0  0
 15  7  1  0  0  0  0
 16  5  1  0  0  0  0
 17  5  1  0  0  0  0
 18  4  1  0  0  0  0
 19 10  1  0  0  0  0
 20 17  1  0  0  0  0
 21 16  1  0  0  0  0
 21 20  1  0  0  0  0
M  END
>  <idnumber>
T6060771

>  <LogP>
2.633000000000000e+000

>  <rotating_bonds>
3.000000000000000e+000

>  <hb_acceptors>
2.000000000000000e+000

>  <hb_donors>
1.000000000000000e+000

>  <PSA>
4.548000000000000e+001

>  <clusterid>
-1761

>  <is_centroid>
@

>  <class1>
704

>  <class2>
642

>  <class3>
625

>  <population1>
51112

>  <population2>
51183

>  <population3>
877209

>  <population>
1700

>  <cansmi>
Cc1cc(ccc1NC(=O)c1ccoc1C)N1CCCC1

>  <HBA2>
4

>  <HBD>
1

>  <logP>
3.8869

>  <TPSA>
45.48

>  <MW>
284.353

$$$$

 OpenBabel02121609142D

 18 20  0  0  0  0  0  0  0  0999 V2000
   -0.5333    1.7500    0.0000 C   0  0  0  0  0  0  0  0  0  0  0  0
    1.2000   -0.2417    0.0000 C   0  0  0  0  0  0  0  0  0  0  0  0
    0.3292    0.2500    0.0000 N   0  0  0  0  0  0  0  0  0  0  0  0
   -2.0708    2.2500    0.0000 N   0  0  0  0  0  0  0  0  0  0  0  0
    0.3292    1.2500    0.0000 C   0  0  0  0  0  0  0  0  0  0  0  0
   -1.4833    1.4458    0.0000 N   0  0  0  0  0  0  0  0  0  0  0  0
   -0.5333    2.7500    0.0000 C   0  0  0  0  0  0  0  0  0  0  0  0
    2.0667    0.2500    0.0000 O   0  0  0  0  0  0  0  0  0  0  0  0
   -1.4833    3.0625    0.0000 C   0  0  0  0  0  0  0  0  0  0  0  0
    1.2000   -1.2500    0.0000 C   0  0  3  0  0  0  0  0  0  0  0  0
    2.0667   -2.7500    0.0000 C   0  0  0  0  0  0  0  0  0  0  0  0
    1.2000   -3.2500    0.0000 C   0  0  0  0  0  0  0  0  0  0  0  0
    1.2000    1.7500    0.0000 C   0  0  0  0  0  0  0  0  0  0  0  0
    0.3292    3.2500    0.0000 C   0  0  0  0  0  0  0  0  0  0  0  0
    2.0667   -1.7500    0.0000 C   0  0  0  0  0  0  0  0  0  0  0  0
    1.2000    2.7500    0.0000 C   0  0  0  0  0  0  0  0  0  0  0  0
    0.3292   -2.7500    0.0000 C   0  0  0  0  0  0  0  0  0  0  0  0
    0.3292   -1.7500    0.0000 C   0  0  0  0  0  0  0  0  0  0  0  0
  2  3  1  0  0  0  0
  3  5  1  0  0  0  0
  4  6  1  0  0  0  0
  5  1  2  0  0  0  0
  6  1  1  0  0  0  0
  7  1  1  0  0  0  0
  8  2  2  0  0  0  0
  9  7  1  0  0  0  0
  9  4  2  0  0  0  0
 10  2  1  0  0  0  0
 11 15  1  0  0  0  0
 11 12  2  0  0  0  0
 12 17  1  0  0  0  0
 13  5  1  0  0  0  0
 13 16  2  0  0  0  0
 14  7  2  0  0  0  0
 15 10  1  0  0  0  0
 16 14  1  0  0  0  0
 17 18  1  0  0  0  0
 18 10  1  0  0  0  0
M  END
>  <idnumber>
T6062591

>  <LogP>
2.777000000000000e+000

>  <rotating_bonds>
2.000000000000000e+000

>  <hb_acceptors>
2.000000000000000e+000

>  <hb_donors>
2.000000000000000e+000

>  <PSA>
5.778000000000000e+001

>  <clusterid>
-1764

>  <is_centroid>
@

>  <class1>
810

>  <class2>
829

>  <population1>
20527

>  <population2>
1541

>  <population>
14

>  <cansmi>
O=C(C1CCC=CC1)Nc1cccc2c1[nH]nc2

>  <HBA2>
3

>  <HBD>
2

>  <logP>
2.9307

>  <TPSA>
57.78

>  <MW>
241.288

$$$$

 OpenBabel02121609142D

 22 24  0  0  0  0  0  0  0  0999 V2000
    0.1167    1.6000    0.0000 C   0  0  0  0  0  0  0  0  0  0  0  0
   -0.1958    0.6500    0.0000 C   0  0  0  0  0  0  0  0  0  0  0  0
   -0.4708    2.4125    0.0000 C   0  0  0  0  0  0  0  0  0  0  0  0
    0.4792   -0.0917    0.0000 N   0  0  0  0  0  0  0  0  0  0  0  0
    1.8167   -1.5792    0.0000 N   0  0  0  0  0  0  0  0  0  0  0  0
    2.4875   -2.3167    0.0000 C   0  0  0  0  0  0  0  0  0  0  0  0
    1.0667    1.9125    0.0000 O   0  0  0  0  0  0  0  0  0  0  0  0
    0.1167    3.2208    0.0000 C   0  0  0  0  0  0  0  0  0  0  0  0
    1.0667    2.9125    0.0000 C   0  0  0  0  0  0  0  0  0  0  0  0
   -1.1708    0.4458    0.0000 O   0  0  0  0  0  0  0  0  0  0  0  0
    0.1667   -1.0417    0.0000 C   0  0  0  0  0  0  0  0  0  0  0  0
    1.4542    0.1208    0.0000 C   0  0  0  0  0  0  0  0  0  0  0  0
   -1.4708    2.4125    0.0000 C   0  0  0  0  0  0  0  0  0  0  0  0
    2.1250   -0.6292    0.0000 C   0  0  0  0  0  0  0  0  0  0  0  0
    0.8375   -1.7875    0.0000 C   0  0  0  0  0  0  0  0  0  0  0  0
    3.4667   -2.1125    0.0000 O   0  0  0  0  0  0  0  0  0  0  0  0
    2.1792   -3.2667    0.0000 C   0  0  0  0  0  0  0  0  0  0  0  0
   -1.9708    3.2750    0.0000 C   0  0  0  0  0  0  0  0  0  0  0  0
   -1.9708    1.5458    0.0000 C   0  0  0  0  0  0  0  0  0  0  0  0
   -2.9708    1.5458    0.0000 C   0  0  0  0  0  0  0  0  0  0  0  0
   -2.9708    3.2750    0.0000 C   0  0  0  0  0  0  0  0  0  0  0  0
   -3.4708    2.4125    0.0000 C   0  0  0  0  0  0  0  0  0  0  0  0
  2  1  1  0  0  0  0
  3  1  2  0  0  0  0
  4  2  1  0  0  0  0
  5 14  1  0  0  0  0
  6  5  1  0  0  0  0
  7  1  1  0  0  0  0
  8  3  1  0  0  0  0
  9  7  1  0  0  0  0
  9  8  2  0  0  0  0
 10  2  2  0  0  0  0
 11  4  1  0  0  0  0
 12  4  1  0  0  0  0
 13  3  1  0  0  0  0
 14 12  1  0  0  0  0
 15 11  1  0  0  0  0
 15  5  1  0  0  0  0
 16  6  2  0  0  0  0
 17  6  1  0  0  0  0
 18 13  1  0  0  0  0
 19 13  2  0  0  0  0
 20 19  1  0  0  0  0
 21 18  2  0  0  0  0
 21 22  1  0  0  0  0
 22 20  2  0  0  0  0
M  END
>  <idnumber>
T6062642

>  <LogP>
1.417000000000000e+000

>  <rotating_bonds>
2.000000000000000e+000

>  <hb_acceptors>
2.000000000000000e+000

>  <hb_donors>
0.000000000000000e+000

>  <PSA>
5.376000000000001e+001

>  <clusterid>
-1765

>  <is_centroid>
@

>  <class1>
717

>  <class2>
704

>  <class3>
625

>  <population1>
74368

>  <population2>
51112

>  <population3>
877209

>  <population>
3504

>  <cansmi>
CC(=O)N1CCN(CC1)C(=O)c1occc1c1ccccc1

>  <HBA2>
5

>  <HBD>
0

>  <logP>
2.1267

>  <TPSA>
53.76

>  <MW>
298.336

$$$$

 OpenBabel02121609142D

 13 15  0  0  0  0  0  0  0  0999 V2000
    0.4500   -0.4292    0.0000 C   0  0  0  0  0  0  0  0  0  0  0  0
   -0.1375    0.3833    0.0000 N   0  0  0  0  0  0  0  0  0  0  0  0
   -0.1375   -1.2417    0.0000 S   0  0  0  0  0  0  0  0  0  0  0  0
   -1.0875    0.0708    0.0000 C   0  0  0  0  0  0  0  0  0  0  0  0
   -1.0875   -0.9292    0.0000 C   0  0  0  0  0  0  0  0  0  0  0  0
    1.4500   -0.4292    0.0000 N   0  0  0  0  0  0  0  0  0  0  0  0
    1.9500    0.4333    0.0000 C   0  0  0  0  0  0  0  0  0  0  0  0
    1.9500    1.4333    0.0000 C   0  0  0  0  0  0  0  0  0  0  0  0
    2.8167    0.9333    0.0000 C   0  0  0  0  0  0  0  0  0  0  0  0
   -1.9583    0.5708    0.0000 C   0  0  0  0  0  0  0  0  0  0  0  0
   -1.9583   -1.4292    0.0000 C   0  0  0  0  0  0  0  0  0  0  0  0
   -2.8208   -0.9292    0.0000 C   0  0  0  0  0  0  0  0  0  0  0  0
   -2.8208    0.0708    0.0000 C   0  0  0  0  0  0  0  0  0  0  0  0
  2  1  2  0  0  0  0
  3  1  1  0  0  0  0
  4  2  1  0  0  0  0
  4  5  2  0  0  0  0
  5  3  1  0  0  0  0
  6  1  1  0  0  0  0
  7  6  1  0  0  0  0
  8  7  1  0  0  0  0
  9  7  1  0  0  0  0
  9  8  1  0  0  0  0
 10  4  1  0  0  0  0
 11  5  1  0  0  0  0
 12 11  2  0  0  0  0
 13 10  2  0  0  0  0
 13 12  1  0  0  0  0
M  END
>  <idnumber>
T6062656

>  <LogP>
2.981000000000000e+000

>  <rotating_bonds>
2.000000000000000e+000

>  <hb_acceptors>
3.000000000000000e+000

>  <hb_donors>
1.000000000000000e+000

>  <PSA>
5.316000000000000e+001

>  <clusterid>
-1766

>  <is_centroid>
@

>  <class1>
675

>  <class2>
640

>  <population1>
33654

>  <population2>
23901

>  <population>
433

>  <cansmi>
c1ccc2c(c1)sc(n2)NC1CC1

>  <HBA2>
3

>  <HBD>
1

>  <logP>
2.9436

>  <TPSA>
53.16

>  <MW>
190.265

$$$$

 OpenBabel02121609142D

 18 20  0  0  0  0  0  0  0  0999 V2000
   -0.7583    0.7125    0.0000 C   0  0  0  0  0  0  0  0  0  0  0  0
   -0.7583    2.3333    0.0000 N   0  0  0  0  0  0  0  0  0  0  0  0
   -0.1625    1.5208    0.0000 C   0  0  0  0  0  0  0  0  0  0  0  0
    0.5292   -0.4417    0.0000 C   0  0  0  0  0  0  0  0  0  0  0  0
   -1.7083    1.0208    0.0000 C   0  0  0  0  0  0  0  0  0  0  0  0
   -0.4458   -0.2375    0.0000 C   0  0  0  0  0  0  0  0  0  0  0  0
   -1.7083    2.0208    0.0000 C   0  0  0  0  0  0  0  0  0  0  0  0
    0.8417   -1.3917    0.0000 N   0  0  0  0  0  0  0  0  0  0  0  0
    1.2042    0.2958    0.0000 O   0  0  0  0  0  0  0  0  0  0  0  0
    1.8167   -1.6042    0.0000 C   0  0  0  0  0  0  0  0  0  0  0  0
   -2.5708    0.5208    0.0000 C   0  0  0  0  0  0  0  0  0  0  0  0
   -2.5708    2.5208    0.0000 C   0  0  0  0  0  0  0  0  0  0  0  0
    2.2292   -2.5167    0.0000 C   0  0  0  0  0  0  0  0  0  0  0  0
    2.5667   -0.9375    0.0000 C   0  0  0  0  0  0  0  0  0  0  0  0
   -3.4333    1.0208    0.0000 C   0  0  0  0  0  0  0  0  0  0  0  0
   -3.4333    2.0208    0.0000 C   0  0  0  0  0  0  0  0  0  0  0  0
    3.4292   -1.4375    0.0000 C   0  0  0  0  0  0  0  0  0  0  0  0
    3.2250   -2.4125    0.0000 C   0  0  0  0  0  0  0  0  0  0  0  0
  2  3  1  0  0  0  0
  2  7  1  0  0  0  0
  3  1  2  0  0  0  0
  4  6  1  0  0  0  0
  5  1  1  0  0  0  0
  6  1  1  0  0  0  0
  7  5  2  0  0  0  0
  8  4  1  0  0  0  0
  9  4  2  0  0  0  0
 10  8  1  0  0  0  0
 11  5  1  0  0  0  0
 12  7  1  0  0  0  0
 12 16  2  0  0  0  0
 13 10  1  0  0  0  0
 14 10  1  0  0  0  0
 15 11  2  0  0  0  0
 16 15  1  0  0  0  0
 17 14  1  0  0  0  0
 18 13  1  0  0  0  0
 18 17  1  0  0  0  0
M  END
>  <idnumber>
T6062954

>  <LogP>
2.152000000000000e+000

>  <rotating_bonds>
3.000000000000000e+000

>  <hb_acceptors>
1.000000000000000e+000

>  <hb_donors>
2.000000000000000e+000

>  <PSA>
4.489000000000003e+001

>  <clusterid>
731

>  <is_centroid>
@

>  <class1>
674

>  <class2>
748

>  <population1>
16474

>  <population2>
15713

>  <population>
151

>  <cansmi>
O=C(Cc1c[nH]c2c1cccc2)NC1CCCC1

>  <HBA2>
2

>  <HBD>
2

>  <logP>
3.1601

>  <TPSA>
44.89

>  <MW>
242.316

$$$$

 OpenBabel02121609142D

 20 22  0  0  0  0  0  0  0  0999 V2000
   -1.3958    2.2500    0.0000 C   0  0  0  0  0  0  0  0  0  0  0  0
   -2.9375    2.7500    0.0000 N   0  0  0  0  0  0  0  0  0  0  0  0
   -0.5333    1.7500    0.0000 C   0  0  0  0  0  0  0  0  0  0  0  0
   -2.3500    1.9458    0.0000 N   0  0  0  0  0  0  0  0  0  0  0  0
   -0.5333    0.7500    0.0000 N   0  0  0  0  0  0  0  0  0  0  0  0
    0.3292    0.2500    0.0000 C   0  0  0  0  0  0  0  0  0  0  0  0
   -1.3958    3.2500    0.0000 C   0  0  0  0  0  0  0  0  0  0  0  0
   -2.3500    3.5625    0.0000 C   0  0  0  0  0  0  0  0  0  0  0  0
    1.2000    0.7500    0.0000 O   0  0  0  0  0  0  0  0  0  0  0  0
    0.3292   -0.7500    0.0000 C   0  0  0  0  0  0  0  0  0  0  0  0
    1.2000   -1.2500    0.0000 C   0  0  0  0  0  0  0  0  0  0  0  0
    1.2000   -2.2500    0.0000 C   0  0  0  0  0  0  0  0  0  0  0  0
    2.0667   -2.7500    0.0000 C   0  0  0  0  0  0  0  0  0  0  0  0
    2.0667   -3.7500    0.0000 F   0  0  0  0  0  0  0  0  0  0  0  0
    0.3292    2.2500    0.0000 C   0  0  0  0  0  0  0  0  0  0  0  0
   -0.5333    3.7500    0.0000 C   0  0  0  0  0  0  0  0  0  0  0  0
    0.3292    3.2500    0.0000 C   0  0  0  0  0  0  0  0  0  0  0  0
    2.9292   -1.2500    0.0000 C   0  0  0  0  0  0  0  0  0  0  0  0
    2.0667   -0.7500    0.0000 C   0  0  0  0  0  0  0  0  0  0  0  0
    2.9292   -2.2500    0.0000 C   0  0  0  0  0  0  0  0  0  0  0  0
  2  4  1  0  0  0  0
  3  1  2  0  0  0  0
  4  1  1  0  0  0  0
  5  3  1  0  0  0  0
  6  5  1  0  0  0  0
  7  1  1  0  0  0  0
  8  7  1  0  0  0  0
  8  2  2  0  0  0  0
  9  6  2  0  0  0  0
 10  6  1  0  0  0  0
 11 10  1  0  0  0  0
 12 11  1  0  0  0  0
 13 12  2  0  0  0  0
 13 20  1  0  0  0  0
 14 13  1  0  0  0  0
 15  3  1  0  0  0  0
 15 17  2  0  0  0  0
 16  7  2  0  0  0  0
 17 16  1  0  0  0  0
 18 19  1  0  0  0  0
 19 11  2  0  0  0  0
 20 18  2  0  0  0  0
M  END
>  <idnumber>
T6068232

>  <LogP>
2.911000000000000e+000

>  <rotating_bonds>
3.000000000000000e+000

>  <hb_acceptors>
3.000000000000000e+000

>  <hb_donors>
2.000000000000000e+000

>  <PSA>
5.778000000000000e+001

>  <clusterid>
829

>  <is_centroid>
@

>  <class1>
625

>  <class2>
829

>  <population1>
877209

>  <population2>
1541

>  <population>
1541

>  <cansmi>
O=C(Nc1cccc2c1[nH]nc2)Cc1cccc(c1)F

>  <HBA2>
3

>  <HBD>
2

>  <logP>
2.9562

>  <TPSA>
57.78

>  <MW>
269.274

$$$$

 OpenBabel02121609142D

 21 23  0  0  0  0  0  0  0  0999 V2000
    2.2542    0.8708    0.0000 C   0  0  0  0  0  0  0  0  0  0  0  0
    2.2542   -0.1292    0.0000 C   0  0  0  0  0  0  0  0  0  0  0  0
    3.8000    0.3708    0.0000 N   0  0  0  0  0  0  0  0  0  0  0  0
    3.2125    1.1833    0.0000 N   0  0  0  0  0  0  0  0  0  0  0  0
    3.2125   -0.4375    0.0000 C   0  0  0  0  0  0  0  0  0  0  0  0
    1.3917    1.3708    0.0000 N   0  0  0  0  0  0  0  0  0  0  0  0
   -1.2083   -0.1292    0.0000 C   0  0  0  0  0  0  0  0  0  0  0  0
   -0.3375   -0.6292    0.0000 N   0  0  0  0  0  0  0  0  0  0  0  0
   -2.0708   -0.6292    0.0000 C   0  0  0  0  0  0  0  0  0  0  0  0
    1.3917   -0.6292    0.0000 C   0  0  0  0  0  0  0  0  0  0  0  0
    0.5292   -0.1292    0.0000 C   0  0  0  0  0  0  0  0  0  0  0  0
   -1.2083    0.8708    0.0000 O   0  0  0  0  0  0  0  0  0  0  0  0
    0.5292    0.8708    0.0000 C   0  0  0  0  0  0  0  0  0  0  0  0
   -2.0708   -1.6292    0.0000 C   0  0  0  0  0  0  0  0  0  0  0  0
    3.5167    2.1333    0.0000 C   0  0  0  0  0  0  0  0  0  0  0  0
    3.5167   -1.3875    0.0000 C   0  0  0  0  0  0  0  0  0  0  0  0
   -2.9375   -0.1292    0.0000 C   0  0  0  0  0  0  0  0  0  0  0  0
   -1.2083   -2.1292    0.0000 C   0  0  0  0  0  0  0  0  0  0  0  0
   -2.9375   -2.1292    0.0000 C   0  0  0  0  0  0  0  0  0  0  0  0
   -3.8083   -0.6292    0.0000 C   0  0  0  0  0  0  0  0  0  0  0  0
   -3.8083   -1.6292    0.0000 C   0  0  0  0  0  0  0  0  0  0  0  0
  2  1  2  0  0  0  0
  3  4  1  0  0  0  0
  4  1  1  0  0  0  0
  5  2  1  0  0  0  0
  5  3  2  0  0  0  0
  6  1  1  0  0  0  0
  7  8  1  0  0  0  0
  8 11  1  0  0  0  0
  9  7  1  0  0  0  0
 10  2  1  0  0  0  0
 10 11  2  0  0  0  0
 11 13  1  0  0  0  0
 12  7  2  0  0  0  0
 13  6  2  0  0  0  0
 14  9  2  0  0  0  0
 15  4  1  0  0  0  0
 16  5  1  0  0  0  0
 17  9  1  0  0  0  0
 18 14  1  0  0  0  0
 19 14  1  0  0  0  0
 19 21  2  0  0  0  0
 20 17  2  0  0  0  0
 21 20  1  0  0  0  0
M  END
>  <idnumber>
T6069167

>  <LogP>
2.662000000000000e+000

>  <rotating_bonds>
2.000000000000000e+000

>  <hb_acceptors>
3.000000000000000e+000

>  <hb_donors>
1.000000000000000e+000

>  <PSA>
5.981000000000002e+001

>  <clusterid>
-1775

>  <is_centroid>
@

>  <class1>
625

>  <class2>
726

>  <population1>
877209

>  <population2>
3632

>  <population>
2999

>  <cansmi>
O=C(c1ccccc1C)Nc1cnc2c(c1)c(C)nn2C

>  <HBA2>
5

>  <HBD>
1

>  <logP>
2.9104

>  <TPSA>
59.81

>  <MW>
280.324

$$$$

 OpenBabel02121609142D

 18 19  0  0  0  0  0  0  0  0999 V2000
    1.2042    0.3333    0.0000 C   0  0  0  0  0  0  0  0  0  0  0  0
    2.1625    1.6458    0.0000 N   0  0  0  0  0  0  0  0  0  0  0  0
    0.6167    1.1458    0.0000 C   0  0  0  0  0  0  0  0  0  0  0  0
    1.2042    1.9583    0.0000 N   0  0  0  0  0  0  0  0  0  0  0  0
    2.1625    0.6458    0.0000 C   0  0  0  0  0  0  0  0  0  0  0  0
    0.9000   -0.6167    0.0000 N   0  0  0  0  0  0  0  0  0  0  0  0
   -0.3875   -1.7750    0.0000 C   0  0  0  0  0  0  0  0  0  0  0  0
   -1.3708   -1.9792    0.0000 N   0  0  0  0  0  0  0  0  0  0  0  0
   -0.0833   -0.8250    0.0000 C   0  0  3  0  0  0  0  0  0  0  0  0
    0.2792   -2.5167    0.0000 O   0  0  0  0  0  0  0  0  0  0  0  0
   -0.3833    1.1458    0.0000 C   0  0  0  0  0  0  0  0  0  0  0  0
    0.9000    2.9083    0.0000 C   0  0  0  0  0  0  0  0  0  0  0  0
    2.9667    0.0583    0.0000 C   0  0  0  0  0  0  0  0  0  0  0  0
   -2.1083   -1.3167    0.0000 C   0  0  0  0  0  0  0  0  0  0  0  0
   -1.7708   -2.9000    0.0000 C   0  0  0  0  0  0  0  0  0  0  0  0
   -0.7458   -0.0792    0.0000 C   0  0  0  0  0  0  0  0  0  0  0  0
   -2.7708   -2.7917    0.0000 C   0  0  0  0  0  0  0  0  0  0  0  0
   -2.9750   -1.8167    0.0000 C   0  0  0  0  0  0  0  0  0  0  0  0
  2  5  2  0  0  0  0
  2  4  1  0  0  0  0
  3  1  2  0  0  0  0
  4  3  1  0  0  0  0
  5  1  1  0  0  0  0
  6  1  1  0  0  0  0
  7  9  1  0  0  0  0
  8  7  1  0  0  0  0
  9  6  1  0  0  0  0
 10  7  2  0  0  0  0
 11  3  1  0  0  0  0
 12  4  1  0  0  0  0
 13  5  1  0  0  0  0
 14  8  1  0  0  0  0
 15  8  1  0  0  0  0
 16  9  1  0  0  0  0
 17 15  1  0  0  0  0
 18 14  1  0  0  0  0
 18 17  1  0  0  0  0
M  END
>  <idnumber>
T6069446

>  <LogP>
7.609999999999999e-001

>  <rotating_bonds>
3.000000000000000e+000

>  <hb_acceptors>
3.000000000000000e+000

>  <hb_donors>
1.000000000000000e+000

>  <PSA>
5.016000000000000e+001

>  <clusterid>
-1776

>  <is_centroid>
@

>  <class1>
631

>  <class2>
642

>  <population1>
41612

>  <population2>
51183

>  <population>
1361

>  <cansmi>
CC(C(=O)N1CCCC1)Nc1c(C)nn(c1C)C

>  <HBA2>
5

>  <HBD>
1

>  <logP>
1.4706

>  <TPSA>
50.16

>  <MW>
250.34

$$$$

 OpenBabel02121609142D

 20 22  0  0  0  0  0  0  0  0999 V2000
   -0.4333    0.2500    0.0000 N   0  0  0  0  0  0  0  0  0  0  0  0
   -1.3000   -0.2500    0.0000 C   0  0  0  0  0  0  0  0  0  0  0  0
   -0.4333    1.2500    0.0000 N   0  0  0  0  0  0  0  0  0  0  0  0
   -2.1708    0.2500    0.0000 C   0  0  0  0  0  0  0  0  0  0  0  0
    0.4292   -0.2500    0.0000 C   0  0  0  0  0  0  0  0  0  0  0  0
   -1.3000    1.7500    0.0000 C   0  0  0  0  0  0  0  0  0  0  0  0
   -2.1708    1.2500    0.0000 C   0  0  0  0  0  0  0  0  0  0  0  0
    1.2917    0.2500    0.0000 C   0  0  3  0  0  0  0  0  0  0  0  0
   -1.3000   -1.2500    0.0000 O   0  0  0  0  0  0  0  0  0  0  0  0
    2.1625   -0.2500    0.0000 C   0  0  0  0  0  0  0  0  0  0  0  0
    1.2917    1.2500    0.0000 O   0  0  0  0  0  0  0  0  0  0  0  0
   -3.0333   -0.2500    0.0000 C   0  0  0  0  0  0  0  0  0  0  0  0
   -3.0333    1.7500    0.0000 C   0  0  0  0  0  0  0  0  0  0  0  0
    2.1625   -1.2500    0.0000 C   0  0  0  0  0  0  0  0  0  0  0  0
    3.0292    0.2500    0.0000 C   0  0  0  0  0  0  0  0  0  0  0  0
   -3.9000    0.2500    0.0000 C   0  0  0  0  0  0  0  0  0  0  0  0
   -3.9000    1.2500    0.0000 C   0  0  0  0  0  0  0  0  0  0  0  0
    3.8917   -0.2500    0.0000 C   0  0  0  0  0  0  0  0  0  0  0  0
    3.0292   -1.7500    0.0000 C   0  0  0  0  0  0  0  0  0  0  0  0
    3.8917   -1.2500    0.0000 C   0  0  0  0  0  0  0  0  0  0  0  0
  2  1  1  0  0  0  0
  3  1  1  0  0  0  0
  4  2  1  0  0  0  0
  4  7  2  0  0  0  0
  5  1  1  0  0  0  0
  6  3  2  0  0  0  0
  7  6  1  0  0  0  0
  8  5  1  0  0  0  0
  9  2  2  0  0  0  0
 10  8  1  0  0  0  0
 11  8  1  0  0  0  0
 12  4  1  0  0  0  0
 13  7  1  0  0  0  0
 14 10  1  0  0  0  0
 15 10  2  0  0  0  0
 16 12  2  0  0  0  0
 17 13  2  0  0  0  0
 17 16  1  0  0  0  0
 18 15  1  0  0  0  0
 19 14  2  0  0  0  0
 19 20  1  0  0  0  0
 20 18  2  0  0  0  0
M  END
>  <idnumber>
T6072184

>  <LogP>
9.510000000000002e-001

>  <rotating_bonds>
3.000000000000000e+000

>  <hb_acceptors>
3.000000000000000e+000

>  <hb_donors>
1.000000000000000e+000

>  <PSA>
5.290000000000000e+001

>  <clusterid>
-1780

>  <is_centroid>
@

>  <class1>
625

>  <class2>
792

>  <population1>
877209

>  <population2>
7197

>  <population>
7197

>  <cansmi>
OC(c1ccccc1)Cn1ncc2c(c1=O)cccc2

>  <HBA2>
4

>  <HBD>
1

>  <logP>
2.1301

>  <TPSA>
55.12

>  <MW>
266.295

$$$$

 OpenBabel02121609142D

 12 13  0  0  0  0  0  0  0  0999 V2000
    0.0417    0.4458    0.0000 N   0  0  0  0  0  0  0  0  0  0  0  0
    0.6292   -0.3625    0.0000 C   0  0  0  0  0  0  0  0  0  0  0  0
    0.0417   -1.1750    0.0000 O   0  0  0  0  0  0  0  0  0  0  0  0
   -0.9083    0.1375    0.0000 C   0  0  0  0  0  0  0  0  0  0  0  0
    2.6292    1.3708    0.0000 N   0  0  0  0  0  0  0  0  0  0  0  0
   -0.9083   -0.8625    0.0000 C   0  0  0  0  0  0  0  0  0  0  0  0
    2.1292    0.5000    0.0000 C   0  0  0  0  0  0  0  0  0  0  0  0
    1.6292   -0.3625    0.0000 C   0  0  0  0  0  0  0  0  0  0  0  0
   -1.7708    0.6375    0.0000 C   0  0  0  0  0  0  0  0  0  0  0  0
   -1.7708   -1.3625    0.0000 C   0  0  0  0  0  0  0  0  0  0  0  0
   -2.6375   -0.8625    0.0000 C   0  0  0  0  0  0  0  0  0  0  0  0
   -2.6375    0.1375    0.0000 C   0  0  0  0  0  0  0  0  0  0  0  0
  2  1  2  0  0  0  0
  3  2  1  0  0  0  0
  4  1  1  0  0  0  0
  5  7  3  0  0  0  0
  6  4  2  0  0  0  0
  6  3  1  0  0  0  0
  7  8  1  0  0  0  0
  8  2  1  0  0  0  0
  9  4  1  0  0  0  0
 10  6  1  0  0  0  0
 10 11  2  0  0  0  0
 11 12  1  0  0  0  0
 12  9  2  0  0  0  0
M  END
>  <idnumber>
T6073025

>  <LogP>
8.370000000000004e-001

>  <rotating_bonds>
2.000000000000000e+000

>  <hb_acceptors>
2.000000000000000e+000

>  <hb_donors>
0.000000000000000e+000

>  <PSA>
4.982000000000000e+001

>  <clusterid>
-1782

>  <is_centroid>
@

>  <class1>
752

>  <population1>
4005

>  <population>
4005

>  <cansmi>
N#CCc1nc2c(o1)cccc2

>  <HBA2>
3

>  <HBD>
0

>  <logP>
1.89388

>  <TPSA>
49.82

>  <MW>
158.157

$$$$

 OpenBabel02121609142D

 16 17  0  0  0  0  0  0  0  0999 V2000
   -1.3000   -0.2500    0.0000 C   0  0  0  0  0  0  0  0  0  0  0  0
   -0.4333    0.2583    0.0000 C   0  0  0  0  0  0  0  0  0  0  0  0
    0.4292   -0.2500    0.0000 N   0  0  0  0  0  0  0  0  0  0  0  0
    1.2917    0.2500    0.0000 C   0  0  0  0  0  0  0  0  0  0  0  0
   -1.3000   -1.2500    0.0000 O   0  0  0  0  0  0  0  0  0  0  0  0
   -2.1708    0.2583    0.0000 C   0  0  0  0  0  0  0  0  0  0  0  0
   -0.4333    1.2583    0.0000 O   0  0  0  0  0  0  0  0  0  0  0  0
   -3.0333   -0.2500    0.0000 O   0  0  0  0  0  0  0  0  0  0  0  0
    2.1625   -0.2500    0.0000 C   0  0  0  0  0  0  0  0  0  0  0  0
    1.2917    1.2500    0.0000 C   0  0  0  0  0  0  0  0  0  0  0  0
   -2.1708   -1.7417    0.0000 C   0  0  0  0  0  0  0  0  0  0  0  0
   -3.0333   -1.2500    0.0000 C   0  0  0  0  0  0  0  0  0  0  0  0
    2.1625   -1.2500    0.0000 C   0  0  0  0  0  0  0  0  0  0  0  0
    3.0292    0.2500    0.0000 C   0  0  0  0  0  0  0  0  0  0  0  0
    2.1625    1.7500    0.0000 C   0  0  0  0  0  0  0  0  0  0  0  0
    3.0292    1.2500    0.0000 C   0  0  0  0  0  0  0  0  0  0  0  0
  2  1  1  0  0  0  0
  3  2  1  0  0  0  0
  4  3  1  0  0  0  0
  5  1  1  0  0  0  0
  6  1  2  0  0  0  0
  7  2  2  0  0  0  0
  8  6  1  0  0  0  0
  9  4  2  0  0  0  0
 10  4  1  0  0  0  0
 11  5  1  0  0  0  0
 11 12  1  0  0  0  0
 12  8  1  0  0  0  0
 13  9  1  0  0  0  0
 14  9  1  0  0  0  0
 14 16  2  0  0  0  0
 15 10  2  0  0  0  0
 16 15  1  0  0  0  0
M  END
>  <idnumber>
T6074550

>  <LogP>
7.360000000000000e-001

>  <rotating_bonds>
2.000000000000000e+000

>  <hb_acceptors>
3.000000000000000e+000

>  <hb_donors>
1.000000000000000e+000

>  <PSA>
4.756000000000000e+001

>  <clusterid>
569

>  <is_centroid>
@

>  <class1>
808

>  <class2>
625

>  <population1>
716

>  <population2>
877209

>  <population>
586

>  <cansmi>
O=C(C1=COCCO1)Nc1ccccc1C

>  <HBA2>
4

>  <HBD>
1

>  <logP>
1.8947

>  <TPSA>
47.56

>  <MW>
219.237

$$$$

 OpenBabel02121609142D

 21 23  0  0  0  0  0  0  0  0999 V2000
   -0.4125    1.9583    0.0000 C   0  0  0  0  0  0  0  0  0  0  0  0
    0.8750    0.7958    0.0000 C   0  0  0  0  0  0  0  0  0  0  0  0
    1.1792   -0.1542    0.0000 N   0  0  0  0  0  0  0  0  0  0  0  0
    1.8042   -2.0625    0.0000 N   0  0  0  0  0  0  0  0  0  0  0  0
   -0.4125    3.5708    0.0000 N   0  0  0  0  0  0  0  0  0  0  0  0
    0.1750    2.7583    0.0000 C   0  0  0  0  0  0  0  0  0  0  0  0
   -0.1083    1.0000    0.0000 C   0  0  0  0  0  0  0  0  0  0  0  0
    2.1125   -3.0125    0.0000 C   0  0  0  0  0  0  0  0  0  0  0  0
   -1.3625    2.2583    0.0000 C   0  0  0  0  0  0  0  0  0  0  0  0
   -1.3625    3.2583    0.0000 C   0  0  0  0  0  0  0  0  0  0  0  0
    0.5167   -0.9042    0.0000 C   0  0  0  0  0  0  0  0  0  0  0  0
    2.1625   -0.3667    0.0000 C   0  0  0  0  0  0  0  0  0  0  0  0
    0.8250   -1.8542    0.0000 C   0  0  0  0  0  0  0  0  0  0  0  0
    2.4667   -1.3167    0.0000 C   0  0  0  0  0  0  0  0  0  0  0  0
    1.5417    1.5333    0.0000 O   0  0  0  0  0  0  0  0  0  0  0  0
    3.0917   -3.2167    0.0000 O   0  0  0  0  0  0  0  0  0  0  0  0
    1.4417   -3.7542    0.0000 C   0  0  0  0  0  0  0  0  0  0  0  0
   -2.2333    1.7583    0.0000 C   0  0  0  0  0  0  0  0  0  0  0  0
   -2.2333    3.7583    0.0000 C   0  0  0  0  0  0  0  0  0  0  0  0
   -3.0958    2.2583    0.0000 C   0  0  0  0  0  0  0  0  0  0  0  0
   -3.0958    3.2583    0.0000 C   0  0  0  0  0  0  0  0  0  0  0  0
  2  7  1  0  0  0  0
  3  2  1  0  0  0  0
  4 14  1  0  0  0  0
  5  6  1  0  0  0  0
  5 10  1  0  0  0  0
  6  1  2  0  0  0  0
  7  1  1  0  0  0  0
  8  4  1  0  0  0  0
  9  1  1  0  0  0  0
 10  9  2  0  0  0  0
 11  3  1  0  0  0  0
 12  3  1  0  0  0  0
 13 11  1  0  0  0  0
 13  4  1  0  0  0  0
 14 12  1  0  0  0  0
 15  2  2  0  0  0  0
 16  8  2  0  0  0  0
 17  8  1  0  0  0  0
 18  9  1  0  0  0  0
 19 10  1  0  0  0  0
 19 21  2  0  0  0  0
 20 18  2  0  0  0  0
 21 20  1  0  0  0  0
M  END
>  <idnumber>
T6074985

>  <LogP>
1.845000000000000e+000

>  <rotating_bonds>
2.000000000000000e+000

>  <hb_acceptors>
2.000000000000000e+000

>  <hb_donors>
1.000000000000000e+000

>  <PSA>
5.641000000000000e+001

>  <clusterid>
-1785

>  <is_centroid>
@

>  <class1>
717

>  <class2>
748

>  <population1>
74368

>  <population2>
15713

>  <population>
942

>  <cansmi>
O=C(N1CCN(CC1)C(=O)C)Cc1c[nH]c2c1cccc2

>  <HBA2>
4

>  <HBD>
1

>  <logP>
1.2769

>  <TPSA>
56.41

>  <MW>
285.341

$$$$

 OpenBabel02121609142D

 21 23  0  0  0  0  0  0  0  0999 V2000
   -0.4333    0.2500    0.0000 C   0  0  0  0  0  0  0  0  0  0  0  0
   -1.3000   -0.2500    0.0000 C   0  0  0  0  0  0  0  0  0  0  0  0
   -2.1708    0.2500    0.0000 N   0  0  0  0  0  0  0  0  0  0  0  0
    0.4292   -0.2500    0.0000 C   0  0  0  0  0  0  0  0  0  0  0  0
   -0.4333    1.2500    0.0000 C   0  0  0  0  0  0  0  0  0  0  0  0
   -1.3000    1.7500    0.0000 N   0  0  0  0  0  0  0  0  0  0  0  0
   -2.1708    1.2500    0.0000 C   0  0  0  0  0  0  0  0  0  0  0  0
    1.2917    0.2500    0.0000 N   0  0  0  0  0  0  0  0  0  0  0  0
   -3.0333   -0.2500    0.0000 C   0  0  0  0  0  0  0  0  0  0  0  0
   -1.3000   -1.2500    0.0000 O   0  0  0  0  0  0  0  0  0  0  0  0
    0.4292   -1.2500    0.0000 O   0  0  0  0  0  0  0  0  0  0  0  0
   -3.0333    1.7500    0.0000 C   0  0  0  0  0  0  0  0  0  0  0  0
   -3.9000    0.2500    0.0000 C   0  0  0  0  0  0  0  0  0  0  0  0
   -3.9000    1.2500    0.0000 C   0  0  0  0  0  0  0  0  0  0  0  0
    2.1625   -0.2500    0.0000 C   0  0  0  0  0  0  0  0  0  0  0  0
    1.2917    1.2500    0.0000 C   0  0  0  0  0  0  0  0  0  0  0  0
    3.0292    0.2500    0.0000 C   0  0  0  0  0  0  0  0  0  0  0  0
    2.1625   -1.2500    0.0000 C   0  0  0  0  0  0  0  0  0  0  0  0
    3.0292   -1.7500    0.0000 C   0  0  0  0  0  0  0  0  0  0  0  0
    3.8917   -0.2500    0.0000 C   0  0  0  0  0  0  0  0  0  0  0  0
    3.8917   -1.2500    0.0000 C   0  0  0  0  0  0  0  0  0  0  0  0
  2  1  1  0  0  0  0
  3  2  1  0  0  0  0
  3  7  1  0  0  0  0
  4  1  1  0  0  0  0
  5  1  2  0  0  0  0
  6  5  1  0  0  0  0
  7  6  2  0  0  0  0
  8  4  1  0  0  0  0
  9  3  1  0  0  0  0
 10  2  2  0  0  0  0
 11  4  2  0  0  0  0
 12  7  1  0  0  0  0
 13  9  2  0  0  0  0
 14 12  2  0  0  0  0
 14 13  1  0  0  0  0
 15  8  1  0  0  0  0
 16  8  1  0  0  0  0
 17 15  1  0  0  0  0
 18 15  1  0  0  0  0
 19 18  1  0  0  0  0
 20 17  1  0  0  0  0
 20 21  1  0  0  0  0
 21 19  1  0  0  0  0
M  END
>  <idnumber>
T6075053

>  <LogP>
3.940000000000000e-001

>  <rotating_bonds>
2.000000000000000e+000

>  <hb_acceptors>
3.000000000000000e+000

>  <hb_donors>
0.000000000000000e+000

>  <PSA>
5.298000000000000e+001

>  <clusterid>
-1786

>  <is_centroid>
@

>  <class1>
797

>  <class2>
806

>  <population1>
40410

>  <population2>
5354

>  <population>
174

>  <cansmi>
CN(C(=O)c1cnc2n(c1=O)cccc2)C1CCCCC1

>  <HBA2>
5

>  <HBD>
0

>  <logP>
2.0992

>  <TPSA>
54.68

>  <MW>
285.341

$$$$

 OpenBabel02121609142D

 20 22  0  0  0  0  0  0  0  0999 V2000
   -0.4208    1.4833    0.0000 N   0  0  0  0  0  0  0  0  0  0  0  0
    0.3875    2.0708    0.0000 C   0  0  0  0  0  0  0  0  0  0  0  0
   -1.2333    2.0708    0.0000 C   0  0  0  0  0  0  0  0  0  0  0  0
   -1.2875   -1.0167    0.0000 N   0  0  0  0  0  0  0  0  0  0  0  0
   -0.4208   -1.5167    0.0000 C   0  0  0  0  0  0  0  0  0  0  0  0
   -0.4208    0.4833    0.0000 C   0  0  0  0  0  0  0  0  0  0  0  0
   -0.4208   -2.5167    0.0000 C   0  0  0  0  0  0  0  0  0  0  0  0
    0.4417   -1.0167    0.0000 C   0  0  0  0  0  0  0  0  0  0  0  0
   -1.2875   -0.0167    0.0000 C   0  0  0  0  0  0  0  0  0  0  0  0
    0.0792    3.0208    0.0000 C   0  0  0  0  0  0  0  0  0  0  0  0
   -0.9208    3.0208    0.0000 C   0  0  0  0  0  0  0  0  0  0  0  0
    0.4417   -3.0167    0.0000 C   0  0  0  0  0  0  0  0  0  0  0  0
    1.3375    1.7625    0.0000 O   0  0  0  0  0  0  0  0  0  0  0  0
   -2.1833    1.7625    0.0000 O   0  0  0  0  0  0  0  0  0  0  0  0
    1.3125   -1.5167    0.0000 C   0  0  0  0  0  0  0  0  0  0  0  0
    1.3125   -2.5167    0.0000 C   0  0  0  0  0  0  0  0  0  0  0  0
   -2.1583   -1.5167    0.0000 C   0  0  0  0  0  0  0  0  0  0  0  0
   -1.2875   -3.0167    0.0000 C   0  0  0  0  0  0  0  0  0  0  0  0
   -2.1583   -2.5167    0.0000 C   0  0  0  0  0  0  0  0  0  0  0  0
    2.1750   -3.0167    0.0000 C   0  0  0  0  0  0  0  0  0  0  0  0
  2  1  1  0  0  0  0
  3  1  1  0  0  0  0
  4  9  1  0  0  0  0
  5  4  1  0  0  0  0
  6  1  1  0  0  0  0
  7  5  2  0  0  0  0
  8  5  1  0  0  0  0
  9  6  1  0  0  0  0
 10  2  1  0  0  0  0
 10 11  1  0  0  0  0
 11  3  1  0  0  0  0
 12  7  1  0  0  0  0
 12 16  2  0  0  0  0
 13  2  2  0  0  0  0
 14  3  2  0  0  0  0
 15  8  2  0  0  0  0
 16 15  1  0  0  0  0
 17  4  1  0  0  0  0
 18 19  1  0  0  0  0
 18  7  1  0  0  0  0
 19 17  1  0  0  0  0
 20 16  1  0  0  0  0
M  END
>  <idnumber>
T6075157

>  <LogP>
1.830000000000000e+000

>  <rotating_bonds>
3.000000000000000e+000

>  <hb_acceptors>
3.000000000000000e+000

>  <hb_donors>
0.000000000000000e+000

>  <PSA>
4.062000000000001e+001

>  <clusterid>
-1787

>  <is_centroid>
@

>  <class1>
814

>  <class2>
705

>  <population1>
5317

>  <population2>
4908

>  <population>
10

>  <cansmi>
Cc1ccc2c(c1)CCCN2CCN1C(=O)CCC1=O

>  <HBA2>
4

>  <HBD>
0

>  <logP>
1.8995

>  <TPSA>
40.62

>  <MW>
272.342

$$$$

 OpenBabel02121609142D

 11 12  0  0  0  0  0  0  0  0999 V2000
    0.0292   -0.5000    0.0000 N   0  0  0  0  0  0  0  0  0  0  0  0
    0.0292    0.5000    0.0000 C   0  0  0  0  0  0  0  0  0  0  0  0
    0.9792   -0.8042    0.0000 N   0  0  0  0  0  0  0  0  0  0  0  0
    0.9792    0.8125    0.0000 C   0  0  0  0  0  0  0  0  0  0  0  0
   -0.8375    1.0000    0.0000 N   0  0  0  0  0  0  0  0  0  0  0  0
   -0.8375   -1.0000    0.0000 C   0  0  0  0  0  0  0  0  0  0  0  0
    1.5667    0.0000    0.0000 C   0  0  0  0  0  0  0  0  0  0  0  0
   -1.7083   -0.5000    0.0000 C   0  0  0  0  0  0  0  0  0  0  0  0
   -1.7083    0.5000    0.0000 C   0  0  0  0  0  0  0  0  0  0  0  0
   -2.5708   -1.0000    0.0000 Br  0  0  0  0  0  0  0  0  0  0  0  0
    2.5667    0.0000    0.0000 C   0  0  0  0  0  0  0  0  0  0  0  0
  2  1  1  0  0  0  0
  3  1  1  0  0  0  0
  4  2  2  0  0  0  0
  5  2  1  0  0  0  0
  5  9  2  0  0  0  0
  6  1  1  0  0  0  0
  7  3  2  0  0  0  0
  7  4  1  0  0  0  0
  8  6  2  0  0  0  0
  9  8  1  0  0  0  0
 10  8  1  0  0  0  0
 11  7  1  0  0  0  0
M  END
>  <idnumber>
T6075851

>  <LogP>
2.110000000000000e+000

>  <rotating_bonds>
0.000000000000000e+000

>  <hb_acceptors>
3.000000000000000e+000

>  <hb_donors>
0.000000000000000e+000

>  <PSA>
3.019000000000000e+001

>  <clusterid>
-1788

>  <is_centroid>
@

>  <class1>
669

>  <population1>
410

>  <population>
410

>  <cansmi>
Brc1cnc2n(c1)nc(c2)C

>  <HBA2>
3

>  <HBD>
0

>  <logP>
1.8002

>  <TPSA>
30.19

>  <MW>
212.047

$$$$

 OpenBabel02121609142D

 18 20  0  0  0  0  0  0  0  0999 V2000
    1.1750   -2.4000    0.0000 N   0  0  0  0  0  0  0  0  0  0  0  0
    0.2250   -2.7042    0.0000 C   0  0  0  0  0  0  0  0  0  0  0  0
    1.1750   -1.4000    0.0000 C   0  0  0  0  0  0  0  0  0  0  0  0
    0.2250   -1.0917    0.0000 C   0  0  3  0  0  0  0  0  0  0  0  0
   -0.3625   -1.9000    0.0000 N   0  0  0  0  0  0  0  0  0  0  0  0
   -0.0833   -3.6542    0.0000 O   0  0  0  0  0  0  0  0  0  0  0  0
    1.9792   -0.8125    0.0000 O   0  0  0  0  0  0  0  0  0  0  0  0
   -0.7583   -0.8792    0.0000 C   0  0  0  0  0  0  0  0  0  0  0  0
    0.8917   -0.3417    0.0000 C   0  0  0  0  0  0  0  0  0  0  0  0
   -0.3958    0.8125    0.0000 C   0  0  3  0  0  0  0  0  0  0  0  0
    0.5792    0.6083    0.0000 C   0  0  0  0  0  0  0  0  0  0  0  0
   -1.0625    0.0708    0.0000 C   0  0  0  0  0  0  0  0  0  0  0  0
   -0.7000    1.7625    0.0000 C   0  0  0  0  0  0  0  0  0  0  0  0
   -1.6833    1.9708    0.0000 C   0  0  0  0  0  0  0  0  0  0  0  0
   -0.0333    2.5083    0.0000 C   0  0  0  0  0  0  0  0  0  0  0  0
   -0.3458    3.4583    0.0000 C   0  0  0  0  0  0  0  0  0  0  0  0
   -1.9875    2.9208    0.0000 C   0  0  0  0  0  0  0  0  0  0  0  0
   -1.3208    3.6708    0.0000 C   0  0  0  0  0  0  0  0  0  0  0  0
  2  1  1  0  0  0  0
  3  1  1  0  0  0  0
  4  3  1  0  0  0  0
  4  5  1  0  0  0  0
  5  2  1  0  0  0  0
  6  2  2  0  0  0  0
  7  3  2  0  0  0  0
  8  4  1  0  0  0  0
  9  4  1  0  0  0  0
 10 11  1  0  0  0  0
 11  9  1  0  0  0  0
 12  8  1  0  0  0  0
 12 10  1  0  0  0  0
 13 10  1  0  0  0  0
 14 13  2  0  0  0  0
 15 13  1  0  0  0  0
 16 15  2  0  0  0  0
 17 14  1  0  0  0  0
 17 18  2  0  0  0  0
 18 16  1  0  0  0  0
M  END
>  <idnumber>
T6075911

>  <LogP>
1.708000000000000e+000

>  <rotating_bonds>
1.000000000000000e+000

>  <hb_acceptors>
2.000000000000000e+000

>  <hb_donors>
2.000000000000000e+000

>  <PSA>
5.820000000000000e+001

>  <clusterid>
-1790

>  <is_centroid>
@

>  <class1>
776

>  <class2>
625

>  <population1>
4006

>  <population2>
877209

>  <population>
2915

>  <cansmi>
O=C1NC(=O)NC21CCC(CC2)c1ccccc1

>  <HBA2>
4

>  <HBD>
2

>  <logP>
2.58

>  <TPSA>
58.2

>  <MW>
244.289

$$$$

 OpenBabel02121609142D

 10  9  0  0  0  0  0  0  0  0999 V2000
    1.3250    0.3458    0.0000 N   0  0  0  0  0  0  0  0  0  0  0  0
    2.2250   -0.0917    0.0000 C   0  0  0  0  0  0  0  0  0  0  0  0
    2.7875   -0.9167    0.0000 C   0  0  0  0  0  0  0  0  0  0  0  0
    3.2250   -0.0167    0.0000 C   0  0  0  0  0  0  0  0  0  0  0  0
    0.5000   -0.2167    0.0000 C   0  0  3  0  0  0  0  0  0  0  0  0
   -0.4000    0.2208    0.0000 C   0  0  0  0  0  0  0  0  0  0  0  0
   -3.2333   -0.1125    0.0000 Cl  0  0  0  0  0  0  0  0  0  0  0  0
    0.5667   -1.2125    0.0000 C   0  0  0  0  0  0  0  0  0  0  0  0
   -0.4750    1.2208    0.0000 C   0  0  0  0  0  0  0  0  0  0  0  0
   -1.2333   -0.3417    0.0000 C   0  0  0  0  0  0  0  0  0  0  0  0
  2  1  1  0  0  0  0
  3  2  1  0  0  0  0
  3  4  1  0  0  0  0
  4  2  1  0  0  0  0
  5  1  1  0  0  0  0
  6  5  1  0  0  0  0
  8  5  1  0  0  0  0
  9  6  1  0  0  0  0
 10  6  1  0  0  0  0
M  END
>  <idnumber>
T6075933

>  <LogP>
1.602000000000000e+000

>  <rotating_bonds>
3.000000000000000e+000

>  <hb_acceptors>
1.000000000000000e+000

>  <hb_donors>
1.000000000000000e+000

>  <PSA>
1.203000000000000e+001

>  <clusterid>
-1796

>  <is_centroid>
@

>  <class1>
675

>  <population1>
33654

>  <population>
33654

>  <cansmi>
CC(C(C)C)NC1CC1.Cl

>  <HBA2>
1

>  <HBD>
2

>  <logP>
2.9758

>  <TPSA>
12.03

>  <MW>
163.688

$$$$

 OpenBabel02121609142D

 10 10  0  0  0  0  0  0  0  0999 V2000
   -0.2500   -0.2500    0.0000 C   0  0  0  0  0  0  0  0  0  0  0  0
   -1.1208    0.2500    0.0000 C   0  0  0  0  0  0  0  0  0  0  0  0
   -1.1208   -0.7500    0.0000 C   0  0  0  0  0  0  0  0  0  0  0  0
    1.2500    0.6208    0.0000 N   0  0  0  0  0  0  0  0  0  0  0  0
    2.2500    0.6208    0.0000 C   0  0  0  0  0  0  0  0  0  0  0  0
    0.7500   -0.2500    0.0000 C   0  0  3  0  0  0  0  0  0  0  0  0
    3.1125    1.1208    0.0000 C   0  0  0  0  0  0  0  0  0  0  0  0
    3.1125    0.1208    0.0000 C   0  0  0  0  0  0  0  0  0  0  0  0
   -3.1208    0.0458    0.0000 Cl  0  0  0  0  0  0  0  0  0  0  0  0
    1.2500   -1.1125    0.0000 C   0  0  0  0  0  0  0  0  0  0  0  0
  2  1  1  0  0  0  0
  2  3  1  0  0  0  0
  3  1  1  0  0  0  0
  4  6  1  0  0  0  0
  5  4  1  0  0  0  0
  6  1  1  0  0  0  0
  7  5  1  0  0  0  0
  8  5  1  0  0  0  0
  8  7  1  0  0  0  0
 10  6  1  0  0  0  0
M  END
>  <idnumber>
T6075948

>  <LogP>
1.118000000000000e+000

>  <rotating_bonds>
3.000000000000000e+000

>  <hb_acceptors>
1.000000000000000e+000

>  <hb_donors>
1.000000000000000e+000

>  <PSA>
1.203000000000000e+001

>  <clusterid>
-1797

>  <is_centroid>
@

>  <class1>
675

>  <class2>
675

>  <population1>
33654

>  <population2>
33654

>  <population>
33654

>  <cansmi>
CC(C1CC1)NC1CC1.Cl

>  <HBA2>
1

>  <HBD>
2

>  <logP>
2.7298

>  <TPSA>
12.03

>  <MW>
161.672

$$$$

 OpenBabel02121609142D

 15 15  0  0  0  0  0  0  0  0999 V2000
    0.4500   -1.0167    0.0000 C   0  0  0  0  0  0  0  0  0  0  0  0
    0.7625   -0.0667    0.0000 N   0  0  0  0  0  0  0  0  0  0  0  0
    0.4000    1.6250    0.0000 C   0  0  0  0  0  0  0  0  0  0  0  0
   -0.1875    2.4333    0.0000 O   0  0  0  0  0  0  0  0  0  0  0  0
    2.1167   -1.6542    0.0000 N   0  0  0  0  0  0  0  0  0  0  0  0
    1.1167   -1.7625    0.0000 C   0  0  3  0  0  0  0  0  0  0  0  0
   -0.5250   -1.2250    0.0000 O   0  0  0  0  0  0  0  0  0  0  0  0
    1.3500    1.9375    0.0000 C   0  0  0  0  0  0  0  0  0  0  0  0
    0.4000    3.2458    0.0000 C   0  0  0  0  0  0  0  0  0  0  0  0
    1.3500    2.9375    0.0000 C   0  0  0  0  0  0  0  0  0  0  0  0
    0.0917    0.6750    0.0000 C   0  0  0  0  0  0  0  0  0  0  0  0
   -2.5250   -0.1042    0.0000 Cl  0  0  0  0  0  0  0  0  0  0  0  0
    2.5167   -2.5667    0.0000 C   0  0  0  0  0  0  0  0  0  0  0  0
    0.9125   -2.7417    0.0000 C   0  0  0  0  0  0  0  0  0  0  0  0
    1.7792   -3.2417    0.0000 C   0  0  0  0  0  0  0  0  0  0  0  0
  2  1  1  0  0  0  0
  3 11  1  0  0  0  0
  4  3  1  0  0  0  0
  5  6  1  0  0  0  0
  6  1  1  0  0  0  0
  7  1  2  0  0  0  0
  8  3  2  0  0  0  0
  9  4  1  0  0  0  0
 10  8  1  0  0  0  0
 10  9  2  0  0  0  0
 11  2  1  0  0  0  0
 13  5  1  0  0  0  0
 14  6  1  0  0  0  0
 15 14  1  0  0  0  0
 15 13  1  0  0  0  0
M  END
>  <idnumber>
T6075960

>  <LogP>
4.650000000000000e-001

>  <rotating_bonds>
3.000000000000000e+000

>  <hb_acceptors>
2.000000000000000e+000

>  <hb_donors>
2.000000000000000e+000

>  <PSA>
5.427000000000000e+001

>  <clusterid>
-1798

>  <is_centroid>
@

>  <class1>
704

>  <class2>
642

>  <population1>
51112

>  <population2>
51183

>  <population>
2019

>  <cansmi>
O=C(C1CCCN1)NCc1ccco1.Cl

>  <HBA2>
4

>  <HBD>
3

>  <logP>
2.1695

>  <TPSA>
54.27

>  <MW>
230.691

$$$$

 OpenBabel02121609142D

 20 22  0  0  0  0  0  0  0  0999 V2000
    2.0667   -0.5792    0.0000 N   0  0  0  0  0  0  0  0  0  0  0  0
    2.9917   -0.9875    0.0000 N   0  0  0  0  0  0  0  0  0  0  0  0
    2.1792    0.4125    0.0000 C   0  0  0  0  0  0  0  0  0  0  0  0
    1.2125   -1.0792    0.0000 C   0  0  0  0  0  0  0  0  0  0  0  0
    3.1542    0.6208    0.0000 C   0  0  0  0  0  0  0  0  0  0  0  0
    0.3417   -0.5792    0.0000 C   0  0  0  0  0  0  0  0  0  0  0  0
    3.6542   -0.2417    0.0000 C   0  0  0  0  0  0  0  0  0  0  0  0
   -0.5208   -1.0792    0.0000 N   0  0  0  0  0  0  0  0  0  0  0  0
   -3.1208   -0.5792    0.0000 C   0  0  0  0  0  0  0  0  0  0  0  0
   -1.3875   -0.5792    0.0000 C   0  0  0  0  0  0  0  0  0  0  0  0
   -2.2583   -1.0792    0.0000 C   0  0  0  0  0  0  0  0  0  0  0  0
   -3.1208    0.4208    0.0000 C   0  0  0  0  0  0  0  0  0  0  0  0
    0.3417    0.4208    0.0000 O   0  0  0  0  0  0  0  0  0  0  0  0
   -2.2583    0.9208    0.0000 C   0  0  0  0  0  0  0  0  0  0  0  0
   -1.3875    0.4208    0.0000 C   0  0  0  0  0  0  0  0  0  0  0  0
    1.4375    1.0833    0.0000 C   0  0  0  0  0  0  0  0  0  0  0  0
   -4.0708   -0.8875    0.0000 C   0  0  0  0  0  0  0  0  0  0  0  0
   -4.6583   -0.0792    0.0000 C   0  0  0  0  0  0  0  0  0  0  0  0
    4.6542   -0.3500    0.0000 C   0  0  0  0  0  0  0  0  0  0  0  0
   -4.0708    0.7333    0.0000 C   0  0  0  0  0  0  0  0  0  0  0  0
  2  1  1  0  0  0  0
  3  1  1  0  0  0  0
  4  1  1  0  0  0  0
  5  3  2  0  0  0  0
  6  4  1  0  0  0  0
  7  2  2  0  0  0  0
  7  5  1  0  0  0  0
  8  6  1  0  0  0  0
  9 11  1  0  0  0  0
  9 12  2  0  0  0  0
 10  8  1  0  0  0  0
 11 10  2  0  0  0  0
 12 14  1  0  0  0  0
 13  6  2  0  0  0  0
 14 15  2  0  0  0  0
 15 10  1  0  0  0  0
 16  3  1  0  0  0  0
 17  9  1  0  0  0  0
 18 17  1  0  0  0  0
 19  7  1  0  0  0  0
 20 12  1  0  0  0  0
 20 18  1  0  0  0  0
M  END
>  <idnumber>
T6077241

>  <LogP>
2.770000000000000e+000

>  <rotating_bonds>
3.000000000000000e+000

>  <hb_acceptors>
2.000000000000000e+000

>  <hb_donors>
1.000000000000000e+000

>  <PSA>
4.692000000000000e+001

>  <clusterid>
-1802

>  <is_centroid>
@

>  <class1>
631

>  <class2>
644

>  <population1>
41612

>  <population2>
7036

>  <population>
149

>  <cansmi>
O=C(Cn1nc(cc1C)C)Nc1ccc2c(c1)CCC2

>  <HBA2>
4

>  <HBD>
1

>  <logP>
2.7003

>  <TPSA>
46.92

>  <MW>
269.342

$$$$

 OpenBabel02121609142D

 19 21  0  0  0  0  0  0  0  0999 V2000
   -0.2083   -0.5375    0.0000 C   0  0  0  0  0  0  0  0  0  0  0  0
   -0.2083    1.0833    0.0000 N   0  0  0  0  0  0  0  0  0  0  0  0
   -0.5208   -1.4917    0.0000 C   0  0  0  0  0  0  0  0  0  0  0  0
    0.7417    0.7708    0.0000 N   0  0  0  0  0  0  0  0  0  0  0  0
   -0.7958    0.2708    0.0000 C   0  0  0  0  0  0  0  0  0  0  0  0
    0.7417   -0.2292    0.0000 C   0  0  0  0  0  0  0  0  0  0  0  0
    0.1542   -2.2292    0.0000 N   0  0  0  0  0  0  0  0  0  0  0  0
   -0.5208    2.0333    0.0000 C   0  0  0  0  0  0  0  0  0  0  0  0
   -1.4958   -1.7000    0.0000 O   0  0  0  0  0  0  0  0  0  0  0  0
   -0.1583   -3.1792    0.0000 C   0  0  0  0  0  0  0  0  0  0  0  0
    1.1292   -2.0250    0.0000 C   0  0  0  0  0  0  0  0  0  0  0  0
    0.1542    2.7750    0.0000 C   0  0  0  0  0  0  0  0  0  0  0  0
   -1.4958    2.2375    0.0000 C   0  0  0  0  0  0  0  0  0  0  0  0
    1.8000   -2.7667    0.0000 C   0  0  0  0  0  0  0  0  0  0  0  0
    0.5125   -3.9292    0.0000 C   0  0  0  0  0  0  0  0  0  0  0  0
   -1.8083    3.1875    0.0000 C   0  0  0  0  0  0  0  0  0  0  0  0
   -0.1583    3.7333    0.0000 C   0  0  0  0  0  0  0  0  0  0  0  0
    1.4917   -3.7167    0.0000 C   0  0  0  0  0  0  0  0  0  0  0  0
   -1.1333    3.9333    0.0000 C   0  0  0  0  0  0  0  0  0  0  0  0
  2  5  1  0  0  0  0
  3  1  1  0  0  0  0
  4  6  2  0  0  0  0
  4  2  1  0  0  0  0
  5  1  2  0  0  0  0
  6  1  1  0  0  0  0
  7  3  1  0  0  0  0
  8  2  1  0  0  0  0
  9  3  2  0  0  0  0
 10  7  1  0  0  0  0
 11  7  1  0  0  0  0
 12  8  1  0  0  0  0
 13  8  2  0  0  0  0
 14 11  1  0  0  0  0
 15 10  1  0  0  0  0
 15 18  1  0  0  0  0
 16 13  1  0  0  0  0
 17 12  2  0  0  0  0
 17 19  1  0  0  0  0
 18 14  1  0  0  0  0
 19 16  2  0  0  0  0
M  END
>  <idnumber>
T6077266

>  <LogP>
2.369000000000000e+000

>  <rotating_bonds>
2.000000000000000e+000

>  <hb_acceptors>
2.000000000000000e+000

>  <hb_donors>
0.000000000000000e+000

>  <PSA>
3.813000000000000e+001

>  <clusterid>
741

>  <is_centroid>
@

>  <class1>
631

>  <class2>
625

>  <class3>
639

>  <population1>
41612

>  <population2>
877209

>  <population3>
59855

>  <population>
1579

>  <cansmi>
O=C(c1cnn(c1)c1ccccc1)N1CCCCC1

>  <HBA2>
4

>  <HBD>
0

>  <logP>
2.4363

>  <TPSA>
38.13

>  <MW>
255.315

$$$$

 OpenBabel02121609142D

 18 20  0  0  0  0  0  0  0  0999 V2000
   -0.1083    1.1083    0.0000 C   0  0  0  0  0  0  0  0  0  0  0  0
    1.1792   -0.0542    0.0000 C   0  0  0  0  0  0  0  0  0  0  0  0
   -0.1083    2.7208    0.0000 N   0  0  0  0  0  0  0  0  0  0  0  0
    0.4875    1.9125    0.0000 C   0  0  0  0  0  0  0  0  0  0  0  0
    1.4917   -1.0042    0.0000 N   0  0  0  0  0  0  0  0  0  0  0  0
    0.2042    0.1583    0.0000 C   0  0  0  0  0  0  0  0  0  0  0  0
   -1.0583    1.4125    0.0000 C   0  0  0  0  0  0  0  0  0  0  0  0
   -1.0583    2.4125    0.0000 C   0  0  0  0  0  0  0  0  0  0  0  0
    1.8542    0.6875    0.0000 O   0  0  0  0  0  0  0  0  0  0  0  0
    2.1125   -2.9042    0.0000 O   0  0  0  0  0  0  0  0  0  0  0  0
    0.8250   -1.7500    0.0000 C   0  0  0  0  0  0  0  0  0  0  0  0
    2.4667   -1.2125    0.0000 C   0  0  0  0  0  0  0  0  0  0  0  0
   -1.9208    0.9125    0.0000 C   0  0  0  0  0  0  0  0  0  0  0  0
    2.7792   -2.1667    0.0000 C   0  0  0  0  0  0  0  0  0  0  0  0
    1.1292   -2.7000    0.0000 C   0  0  0  0  0  0  0  0  0  0  0  0
   -1.9208    2.9125    0.0000 C   0  0  0  0  0  0  0  0  0  0  0  0
   -2.7833    1.4125    0.0000 C   0  0  0  0  0  0  0  0  0  0  0  0
   -2.7833    2.4125    0.0000 C   0  0  0  0  0  0  0  0  0  0  0  0
  2  6  1  0  0  0  0
  3  4  1  0  0  0  0
  3  8  1  0  0  0  0
  4  1  2  0  0  0  0
  5  2  1  0  0  0  0
  6  1  1  0  0  0  0
  7  1  1  0  0  0  0
  8  7  2  0  0  0  0
  9  2  2  0  0  0  0
 10 14  1  0  0  0  0
 11  5  1  0  0  0  0
 12  5  1  0  0  0  0
 13  7  1  0  0  0  0
 14 12  1  0  0  0  0
 15 11  1  0  0  0  0
 15 10  1  0  0  0  0
 16  8  1  0  0  0  0
 16 18  2  0  0  0  0
 17 13  2  0  0  0  0
 18 17  1  0  0  0  0
M  END
>  <idnumber>
T6078149

>  <LogP>
2.264000000000000e+000

>  <rotating_bonds>
2.000000000000000e+000

>  <hb_acceptors>
2.000000000000000e+000

>  <hb_donors>
1.000000000000000e+000

>  <PSA>
4.533000000000001e+001

>  <clusterid>
-1803

>  <is_centroid>
@

>  <class1>
748

>  <class2>
786

>  <population1>
15713

>  <population2>
48067

>  <population>
510

>  <cansmi>
O=C(N1CCOCC1)Cc1c[nH]c2c1cccc2

>  <HBA2>
3

>  <HBD>
1

>  <logP>
1.5071

>  <TPSA>
45.33

>  <MW>
244.289

$$$$

 OpenBabel02121609142D

 15 16  0  0  0  0  0  0  0  0999 V2000
   -1.3583   -1.9542    0.0000 N   0  0  0  0  0  0  0  0  0  0  0  0
   -0.7708   -1.1417    0.0000 C   0  0  0  0  0  0  0  0  0  0  0  0
    0.1792   -1.4542    0.0000 C   0  0  0  0  0  0  0  0  0  0  0  0
   -0.7708   -2.7667    0.0000 N   0  0  0  0  0  0  0  0  0  0  0  0
   -1.0833   -0.1917    0.0000 N   0  0  0  0  0  0  0  0  0  0  0  0
   -0.4083    0.5458    0.0000 C   0  0  0  0  0  0  0  0  0  0  0  0
    0.1792   -2.4542    0.0000 C   0  0  0  0  0  0  0  0  0  0  0  0
    0.5667    0.3458    0.0000 O   0  0  0  0  0  0  0  0  0  0  0  0
   -0.7208    1.5000    0.0000 C   0  0  0  0  0  0  0  0  0  0  0  0
   -1.0833   -3.7167    0.0000 C   0  0  0  0  0  0  0  0  0  0  0  0
   -0.0500    2.2458    0.0000 C   0  0  0  0  0  0  0  0  0  0  0  0
   -0.2583    3.2208    0.0000 C   0  0  0  0  0  0  0  0  0  0  0  0
    0.9417    2.1458    0.0000 C   0  0  0  0  0  0  0  0  0  0  0  0
    1.3542    3.0500    0.0000 C   0  0  0  0  0  0  0  0  0  0  0  0
    0.6042    3.7208    0.0000 C   0  0  0  0  0  0  0  0  0  0  0  0
  2  1  2  0  0  0  0
  3  2  1  0  0  0  0
  4  1  1  0  0  0  0
  5  2  1  0  0  0  0
  6  5  1  0  0  0  0
  7  4  1  0  0  0  0
  7  3  2  0  0  0  0
  8  6  2  0  0  0  0
  9  6  1  0  0  0  0
 10  4  1  0  0  0  0
 11  9  1  0  0  0  0
 12 11  1  0  0  0  0
 13 11  1  0  0  0  0
 14 13  1  0  0  0  0
 14 15  1  0  0  0  0
 15 12  1  0  0  0  0
M  END
>  <idnumber>
T6078823

>  <LogP>
1.774000000000000e+000

>  <rotating_bonds>
3.000000000000000e+000

>  <hb_acceptors>
2.000000000000000e+000

>  <hb_donors>
1.000000000000000e+000

>  <PSA>
4.692000000000000e+001

>  <clusterid>
-1804

>  <is_centroid>
@

>  <class1>
674

>  <class2>
631

>  <population1>
16474

>  <population2>
41612

>  <population>
817

>  <cansmi>
O=C(Nc1ccn(n1)C)CC1CCCC1

>  <HBA2>
4

>  <HBD>
1

>  <logP>
2.0119

>  <TPSA>
46.92

>  <MW>
207.272

$$$$

 OpenBabel02121609142D

 20 22  0  0  0  0  0  0  0  0999 V2000
    0.6042    1.1250    0.0000 N   0  0  0  0  0  0  0  0  0  0  0  0
    0.3000    0.1750    0.0000 C   0  0  0  0  0  0  0  0  0  0  0  0
    0.0167    1.9333    0.0000 C   0  0  3  0  0  0  0  0  0  0  0  0
    0.9667   -0.5667    0.0000 C   0  0  0  0  0  0  0  0  0  0  0  0
   -0.6833   -0.0292    0.0000 O   0  0  0  0  0  0  0  0  0  0  0  0
   -0.9833    1.9333    0.0000 C   0  0  0  0  0  0  0  0  0  0  0  0
   -2.9833    1.9333    0.0000 N   0  0  0  0  0  0  0  0  0  0  0  0
    1.9417   -0.3542    0.0000 C   0  0  0  0  0  0  0  0  0  0  0  0
    0.6542   -1.5167    0.0000 C   0  0  0  0  0  0  0  0  0  0  0  0
    1.5542    1.4375    0.0000 C   0  0  0  0  0  0  0  0  0  0  0  0
    1.3292   -2.2625    0.0000 C   0  0  0  0  0  0  0  0  0  0  0  0
    2.6167   -1.1042    0.0000 C   0  0  0  0  0  0  0  0  0  0  0  0
    2.3042   -2.0542    0.0000 C   0  0  0  0  0  0  0  0  0  0  0  0
    0.6042    2.7458    0.0000 C   0  0  0  0  0  0  0  0  0  0  0  0
    1.5542    2.4375    0.0000 C   0  0  0  0  0  0  0  0  0  0  0  0
   -2.4833    2.8000    0.0000 C   0  0  0  0  0  0  0  0  0  0  0  0
   -2.4833    1.0708    0.0000 C   0  0  0  0  0  0  0  0  0  0  0  0
   -1.4833    2.8000    0.0000 C   0  0  0  0  0  0  0  0  0  0  0  0
   -1.4833    1.0708    0.0000 C   0  0  0  0  0  0  0  0  0  0  0  0
    2.9750   -2.7917    0.0000 C   0  0  0  0  0  0  0  0  0  0  0  0
  2  1  1  0  0  0  0
  3  1  1  0  0  0  0
  4  2  1  0  0  0  0
  5  2  2  0  0  0  0
  6  3  1  0  0  0  0
  7 17  2  0  0  0  0
  8  4  1  0  0  0  0
  9  4  2  0  0  0  0
 10  1  1  0  0  0  0
 11  9  1  0  0  0  0
 12  8  2  0  0  0  0
 13 11  2  0  0  0  0
 13 12  1  0  0  0  0
 14  3  1  0  0  0  0
 15 10  1  0  0  0  0
 15 14  1  0  0  0  0
 16 18  2  0  0  0  0
 16  7  1  0  0  0  0
 17 19  1  0  0  0  0
 18  6  1  0  0  0  0
 19  6  2  0  0  0  0
 20 13  1  0  0  0  0
M  END
>  <idnumber>
T6078976

>  <LogP>
2.421000000000000e+000

>  <rotating_bonds>
2.000000000000000e+000

>  <hb_acceptors>
2.000000000000000e+000

>  <hb_donors>
0.000000000000000e+000

>  <PSA>
3.320000000000000e+001

>  <clusterid>
830

>  <is_centroid>
@

>  <class1>
625

>  <class2>
642

>  <class3>
632

>  <population1>
877209

>  <population2>
51183

>  <population3>
79489

>  <population>
2488

>  <cansmi>
Cc1ccc(cc1)C(=O)N1CCCC1c1ccncc1

>  <HBA2>
3

>  <HBD>
0

>  <logP>
3.3052

>  <TPSA>
33.2

>  <MW>
266.338

$$$$

 OpenBabel02121609142D

 21 23  0  0  0  0  0  0  0  0999 V2000
    1.3667   -1.4417    0.0000 N   0  0  0  0  0  0  0  0  0  0  0  0
    1.4750   -2.4292    0.0000 N   0  0  0  0  0  0  0  0  0  0  0  0
    2.2792   -1.0292    0.0000 C   0  0  0  0  0  0  0  0  0  0  0  0
    0.5042   -0.9417    0.0000 C   0  0  0  0  0  0  0  0  0  0  0  0
    2.9542   -1.7750    0.0000 C   0  0  0  0  0  0  0  0  0  0  0  0
    0.5042    0.0583    0.0000 C   0  0  0  0  0  0  0  0  0  0  0  0
    2.4542   -2.6417    0.0000 C   0  0  0  0  0  0  0  0  0  0  0  0
   -1.2250    2.0583    0.0000 C   0  0  0  0  0  0  0  0  0  0  0  0
   -0.3625    1.5583    0.0000 C   0  0  3  0  0  0  0  0  0  0  0  0
   -0.3625    0.5583    0.0000 N   0  0  0  0  0  0  0  0  0  0  0  0
   -1.2250    3.0583    0.0000 C   0  0  0  0  0  0  0  0  0  0  0  0
   -0.3625    3.5583    0.0000 O   0  0  0  0  0  0  0  0  0  0  0  0
    1.3667    0.5583    0.0000 O   0  0  0  0  0  0  0  0  0  0  0  0
    0.5042    2.0583    0.0000 C   0  0  0  0  0  0  0  0  0  0  0  0
    0.5042    3.0583    0.0000 C   0  0  0  0  0  0  0  0  0  0  0  0
    2.4917   -0.0542    0.0000 C   0  0  0  0  0  0  0  0  0  0  0  0
   -2.0958    1.5583    0.0000 C   0  0  0  0  0  0  0  0  0  0  0  0
    2.8625   -3.5542    0.0000 C   0  0  0  0  0  0  0  0  0  0  0  0
   -2.0958    3.5583    0.0000 C   0  0  0  0  0  0  0  0  0  0  0  0
   -2.9583    2.0583    0.0000 C   0  0  0  0  0  0  0  0  0  0  0  0
   -2.9583    3.0583    0.0000 C   0  0  0  0  0  0  0  0  0  0  0  0
  2  1  1  0  0  0  0
  3  1  1  0  0  0  0
  4  1  1  0  0  0  0
  5  3  2  0  0  0  0
  6  4  1  0  0  0  0
  7  2  2  0  0  0  0
  7  5  1  0  0  0  0
  8  9  1  0  0  0  0
  9 10  1  0  0  0  0
 10  6  1  0  0  0  0
 11  8  2  0  0  0  0
 11 12  1  0  0  0  0
 12 15  1  0  0  0  0
 13  6  2  0  0  0  0
 14  9  1  0  0  0  0
 15 14  1  0  0  0  0
 16  3  1  0  0  0  0
 17  8  1  0  0  0  0
 18  7  1  0  0  0  0
 19 11  1  0  0  0  0
 19 21  2  0  0  0  0
 20 17  2  0  0  0  0
 21 20  1  0  0  0  0
M  END
>  <idnumber>
T6082929

>  <LogP>
1.647000000000000e+000

>  <rotating_bonds>
3.000000000000000e+000

>  <hb_acceptors>
3.000000000000000e+000

>  <hb_donors>
1.000000000000000e+000

>  <PSA>
5.614999999999996e+001

>  <clusterid>
-1809

>  <is_centroid>
@

>  <class1>
631

>  <class2>
766

>  <population1>
41612

>  <population2>
1661

>  <population>
56

>  <cansmi>
O=C(Cn1nc(cc1C)C)NC1CCOc2c1cccc2

>  <HBA2>
5

>  <HBD>
1

>  <logP>
2.5308

>  <TPSA>
56.15

>  <MW>
285.341

$$$$

 OpenBabel02121609142D

 21 23  0  0  0  0  0  0  0  0999 V2000
   -0.1083   -0.3500    0.0000 N   0  0  0  0  0  0  0  0  0  0  0  0
    0.4875   -1.1542    0.0000 C   0  0  0  0  0  0  0  0  0  0  0  0
   -0.1083   -1.9667    0.0000 N   0  0  0  0  0  0  0  0  0  0  0  0
   -1.0583   -0.6542    0.0000 C   0  0  0  0  0  0  0  0  0  0  0  0
   -1.0583   -1.6542    0.0000 C   0  0  0  0  0  0  0  0  0  0  0  0
    0.2042    0.6083    0.0000 C   0  0  0  0  0  0  0  0  0  0  0  0
    1.1792    0.8125    0.0000 C   0  0  0  0  0  0  0  0  0  0  0  0
    1.4917    1.7625    0.0000 N   0  0  0  0  0  0  0  0  0  0  0  0
    1.4875   -1.1542    0.0000 O   0  0  0  0  0  0  0  0  0  0  0  0
    1.8542    0.0708    0.0000 O   0  0  0  0  0  0  0  0  0  0  0  0
    0.2042   -2.9167    0.0000 C   0  0  0  0  0  0  0  0  0  0  0  0
   -1.9208   -0.1542    0.0000 C   0  0  0  0  0  0  0  0  0  0  0  0
   -1.9208   -2.1542    0.0000 C   0  0  0  0  0  0  0  0  0  0  0  0
    2.4667    1.9708    0.0000 C   0  0  0  0  0  0  0  0  0  0  0  0
    0.8250    2.5083    0.0000 C   0  0  0  0  0  0  0  0  0  0  0  0
   -0.4625   -3.6542    0.0000 C   0  0  0  0  0  0  0  0  0  0  0  0
   -2.7833   -0.6542    0.0000 C   0  0  0  0  0  0  0  0  0  0  0  0
   -2.7833   -1.6542    0.0000 C   0  0  0  0  0  0  0  0  0  0  0  0
    1.1292    3.4583    0.0000 C   0  0  0  0  0  0  0  0  0  0  0  0
    2.7792    2.9208    0.0000 C   0  0  0  0  0  0  0  0  0  0  0  0
    2.1125    3.6708    0.0000 C   0  0  0  0  0  0  0  0  0  0  0  0
  2  1  1  0  0  0  0
  3  2  1  0  0  0  0
  3  5  1  0  0  0  0
  4  1  1  0  0  0  0
  5  4  2  0  0  0  0
  6  1  1  0  0  0  0
  7  6  1  0  0  0  0
  8  7  1  0  0  0  0
  9  2  2  0  0  0  0
 10  7  2  0  0  0  0
 11  3  1  0  0  0  0
 12  4  1  0  0  0  0
 13  5  1  0  0  0  0
 13 18  2  0  0  0  0
 14  8  1  0  0  0  0
 15  8  1  0  0  0  0
 16 11  1  0  0  0  0
 17 12  2  0  0  0  0
 18 17  1  0  0  0  0
 19 15  1  0  0  0  0
 20 14  1  0  0  0  0
 20 21  1  0  0  0  0
 21 19  1  0  0  0  0
M  END
>  <idnumber>
T6083180

>  <LogP>
2.731000000000000e+000

>  <rotating_bonds>
3.000000000000000e+000

>  <hb_acceptors>
2.000000000000000e+000

>  <hb_donors>
0.000000000000000e+000

>  <PSA>
4.386000000000000e+001

>  <clusterid>
-1810

>  <is_centroid>
@

>  <class1>
727

>  <class2>
639

>  <population1>
3921

>  <population2>
59855

>  <population>
782

>  <cansmi>
CCn1c(=O)n(c2c1cccc2)CC(=O)N1CCCCC1

>  <HBA2>
5

>  <HBD>
0

>  <logP>
1.7733

>  <TPSA>
47.24

>  <MW>
287.357

$$$$

 OpenBabel02121609142D

 22 24  0  0  0  0  0  0  0  0999 V2000
   -0.4333    0.0000    0.0000 N   0  0  0  0  0  0  0  0  0  0  0  0
   -0.4333    1.0000    0.0000 C   0  0  0  0  0  0  0  0  0  0  0  0
    0.4292   -1.5000    0.0000 C   0  0  3  0  0  0  0  0  0  0  0  0
    0.4292   -0.5000    0.0000 C   0  0  0  0  0  0  0  0  0  0  0  0
   -0.4333   -2.0000    0.0000 O   0  0  0  0  0  0  0  0  0  0  0  0
   -1.3000   -0.5000    0.0000 C   0  0  0  0  0  0  0  0  0  0  0  0
   -1.3000   -1.5000    0.0000 C   0  0  0  0  0  0  0  0  0  0  0  0
    1.2917   -2.0000    0.0000 C   0  0  0  0  0  0  0  0  0  0  0  0
   -1.3000    1.5000    0.0000 O   0  0  0  0  0  0  0  0  0  0  0  0
    0.4292    1.5000    0.0000 C   0  0  0  0  0  0  0  0  0  0  0  0
    1.2917   -3.0000    0.0000 O   0  0  0  0  0  0  0  0  0  0  0  0
    2.1625   -1.5000    0.0000 N   0  0  0  0  0  0  0  0  0  0  0  0
   -2.1708    0.0000    0.0000 C   0  0  0  0  0  0  0  0  0  0  0  0
   -2.1708   -2.0000    0.0000 C   0  0  0  0  0  0  0  0  0  0  0  0
    0.4292    2.5000    0.0000 C   0  0  0  0  0  0  0  0  0  0  0  0
    1.2917    1.0000    0.0000 C   0  0  0  0  0  0  0  0  0  0  0  0
    3.0292   -2.0000    0.0000 C   0  0  0  0  0  0  0  0  0  0  0  0
   -3.0333   -0.5000    0.0000 C   0  0  0  0  0  0  0  0  0  0  0  0
   -3.0333   -1.5000    0.0000 C   0  0  0  0  0  0  0  0  0  0  0  0
    2.1625    1.5000    0.0000 C   0  0  0  0  0  0  0  0  0  0  0  0
    1.2917    3.0000    0.0000 C   0  0  0  0  0  0  0  0  0  0  0  0
    2.1625    2.5000    0.0000 C   0  0  0  0  0  0  0  0  0  0  0  0
  2  1  1  0  0  0  0
  3  4  1  0  0  0  0
  3  5  1  0  0  0  0
  4  1  1  0  0  0  0
  5  7  1  0  0  0  0
  6  1  1  0  0  0  0
  7  6  2  0  0  0  0
  8  3  1  0  0  0  0
  9  2  2  0  0  0  0
 10  2  1  0  0  0  0
 11  8  2  0  0  0  0
 12  8  1  0  0  0  0
 13  6  1  0  0  0  0
 14  7  1  0  0  0  0
 14 19  2  0  0  0  0
 15 10  2  0  0  0  0
 16 10  1  0  0  0  0
 17 12  1  0  0  0  0
 18 13  2  0  0  0  0
 19 18  1  0  0  0  0
 20 16  2  0  0  0  0
 21 15  1  0  0  0  0
 21 22  2  0  0  0  0
 22 20  1  0  0  0  0
M  END
>  <idnumber>
T6084391

>  <LogP>
1.432000000000000e+000

>  <rotating_bonds>
2.000000000000000e+000

>  <hb_acceptors>
3.000000000000000e+000

>  <hb_donors>
1.000000000000000e+000

>  <PSA>
5.863999999999997e+001

>  <clusterid>
-1811

>  <is_centroid>
@

>  <class1>
625

>  <class2>
824

>  <population1>
877209

>  <population2>
4751

>  <population>
4751

>  <cansmi>
CNC(=O)C1Oc2ccccc2N(C1)C(=O)c1ccccc1

>  <HBA2>
5

>  <HBD>
1

>  <logP>
2.2963

>  <TPSA>
58.64

>  <MW>
296.321

$$$$

 OpenBabel02121609142D

 19 21  0  0  0  0  0  0  0  0999 V2000
   -0.3625    1.1083    0.0000 C   0  0  0  0  0  0  0  0  0  0  0  0
   -0.3625    0.1083    0.0000 N   0  0  0  0  0  0  0  0  0  0  0  0
    0.5042   -0.3917    0.0000 C   0  0  0  0  0  0  0  0  0  0  0  0
   -1.2250    1.6083    0.0000 C   0  0  0  0  0  0  0  0  0  0  0  0
    1.3667   -1.8917    0.0000 N   0  0  0  0  0  0  0  0  0  0  0  0
   -2.0958    3.1083    0.0000 N   0  0  0  0  0  0  0  0  0  0  0  0
   -1.2250    2.6083    0.0000 C   0  0  0  0  0  0  0  0  0  0  0  0
    0.5042   -1.3917    0.0000 C   0  0  0  0  0  0  0  0  0  0  0  0
    1.3667    0.1083    0.0000 O   0  0  0  0  0  0  0  0  0  0  0  0
    0.5042    1.6083    0.0000 C   0  0  0  0  0  0  0  0  0  0  0  0
    1.4750   -2.8917    0.0000 C   0  0  0  0  0  0  0  0  0  0  0  0
    2.2792   -1.4917    0.0000 C   0  0  0  0  0  0  0  0  0  0  0  0
   -2.0958    1.1083    0.0000 C   0  0  0  0  0  0  0  0  0  0  0  0
    0.5042    2.6083    0.0000 C   0  0  0  0  0  0  0  0  0  0  0  0
   -2.9583    2.6083    0.0000 C   0  0  0  0  0  0  0  0  0  0  0  0
   -0.3625    3.1083    0.0000 C   0  0  0  0  0  0  0  0  0  0  0  0
   -2.9583    1.6083    0.0000 C   0  0  0  0  0  0  0  0  0  0  0  0
    2.4542   -3.1000    0.0000 C   0  0  0  0  0  0  0  0  0  0  0  0
    2.9542   -2.2292    0.0000 C   0  0  0  0  0  0  0  0  0  0  0  0
  2  1  1  0  0  0  0
  3  2  1  0  0  0  0
  4  1  2  0  0  0  0
  5  8  1  0  0  0  0
  6  7  1  0  0  0  0
  6 15  2  0  0  0  0
  7  4  1  0  0  0  0
  7 16  2  0  0  0  0
  8  3  1  0  0  0  0
  9  3  2  0  0  0  0
 10  1  1  0  0  0  0
 11  5  1  0  0  0  0
 12  5  1  0  0  0  0
 13  4  1  0  0  0  0
 14 10  2  0  0  0  0
 15 17  1  0  0  0  0
 16 14  1  0  0  0  0
 17 13  2  0  0  0  0
 18 11  1  0  0  0  0
 18 19  1  0  0  0  0
 19 12  1  0  0  0  0
M  END
>  <idnumber>
T6085741

>  <LogP>
2.455000000000000e+000

>  <rotating_bonds>
3.000000000000000e+000

>  <hb_acceptors>
3.000000000000000e+000

>  <hb_donors>
1.000000000000000e+000

>  <PSA>
4.523000000000000e+001

>  <clusterid>
-1814

>  <is_centroid>
@

>  <class1>
642

>  <class2>
682

>  <population1>
51183

>  <population2>
20351

>  <population>
455

>  <cansmi>
O=C(Nc1cccc2c1cccn2)CN1CCCC1

>  <HBA2>
4

>  <HBD>
1

>  <logP>
2.28

>  <TPSA>
45.23

>  <MW>
255.315

$$$$

 OpenBabel02121609142D

 15 16  0  0  0  0  0  0  0  0999 V2000
    0.8625    0.2500    0.0000 C   0  0  0  0  0  0  0  0  0  0  0  0
    0.0000    0.7500    0.0000 N   0  0  0  0  0  0  0  0  0  0  0  0
    0.8625   -0.7500    0.0000 C   0  0  0  0  0  0  0  0  0  0  0  0
    1.7292   -1.2500    0.0000 C   0  0  0  0  0  0  0  0  0  0  0  0
   -0.8708    0.2500    0.0000 C   0  0  0  0  0  0  0  0  0  0  0  0
    0.0000   -1.2500    0.0000 C   0  0  0  0  0  0  0  0  0  0  0  0
    2.5917   -1.7500    0.0000 N   0  0  0  0  0  0  0  0  0  0  0  0
   -0.8708   -0.7500    0.0000 C   0  0  0  0  0  0  0  0  0  0  0  0
    1.7292    0.7500    0.0000 N   0  0  0  0  0  0  0  0  0  0  0  0
   -1.7333    0.7500    0.0000 C   0  0  0  0  0  0  0  0  0  0  0  0
   -1.7333   -1.2500    0.0000 C   0  0  0  0  0  0  0  0  0  0  0  0
    2.5917    0.2500    0.0000 C   0  0  0  0  0  0  0  0  0  0  0  0
    1.7292    1.7500    0.0000 C   0  0  0  0  0  0  0  0  0  0  0  0
   -2.6000    0.2500    0.0000 C   0  0  0  0  0  0  0  0  0  0  0  0
   -2.6000   -0.7500    0.0000 C   0  0  0  0  0  0  0  0  0  0  0  0
  2  1  1  0  0  0  0
  3  1  2  0  0  0  0
  4  3  1  0  0  0  0
  5  2  2  0  0  0  0
  5  8  1  0  0  0  0
  6  3  1  0  0  0  0
  7  4  3  0  0  0  0
  8  6  2  0  0  0  0
  9  1  1  0  0  0  0
 10  5  1  0  0  0  0
 11  8  1  0  0  0  0
 12  9  1  0  0  0  0
 13  9  1  0  0  0  0
 14 10  1  0  0  0  0
 14 15  1  0  0  0  0
 15 11  1  0  0  0  0
M  END
>  <idnumber>
T6086623

>  <LogP>
2.561000000000000e+000

>  <rotating_bonds>
2.000000000000000e+000

>  <hb_acceptors>
3.000000000000000e+000

>  <hb_donors>
0.000000000000000e+000

>  <PSA>
3.992000000000000e+001

>  <clusterid>
-1815

>  <is_centroid>
@

>  <class1>
791

>  <population1>
1469

>  <population>
1469

>  <cansmi>
N#Cc1cc2CCCCc2nc1N(C)C

>  <HBA2>
3

>  <HBD>
0

>  <logP>
1.89808

>  <TPSA>
39.92

>  <MW>
201.268

$$$$

 OpenBabel02121609142D

 20 22  0  0  0  0  0  0  0  0999 V2000
   -0.5083    0.6750    0.0000 N   0  0  0  0  0  0  0  0  0  0  0  0
   -1.4583    0.3708    0.0000 C   0  0  0  0  0  0  0  0  0  0  0  0
    1.2167    1.8583    0.0000 N   0  0  0  0  0  0  0  0  0  0  0  0
   -0.5083    1.6833    0.0000 C   0  0  0  0  0  0  0  0  0  0  0  0
    2.0292    2.4458    0.0000 C   0  0  0  0  0  0  0  0  0  0  0  0
   -2.0458    1.1750    0.0000 O   0  0  0  0  0  0  0  0  0  0  0  0
   -1.4583    1.9875    0.0000 C   0  0  0  0  0  0  0  0  0  0  0  0
    0.3042    2.2708    0.0000 C   0  0  0  0  0  0  0  0  0  0  0  0
   -1.7625   -0.5792    0.0000 C   0  0  0  0  0  0  0  0  0  0  0  0
    1.3250    0.8625    0.0000 C   0  0  0  0  0  0  0  0  0  0  0  0
    2.9417    2.0375    0.0000 C   0  0  0  0  0  0  0  0  0  0  0  0
    1.9250    3.4458    0.0000 O   0  0  0  0  0  0  0  0  0  0  0  0
    2.2375    0.4583    0.0000 C   0  0  0  0  0  0  0  0  0  0  0  0
    3.0417    1.0458    0.0000 C   0  0  0  0  0  0  0  0  0  0  0  0
   -2.7458   -0.7917    0.0000 C   0  0  0  0  0  0  0  0  0  0  0  0
   -1.0958   -1.3250    0.0000 C   0  0  0  0  0  0  0  0  0  0  0  0
   -2.3833   -2.4792    0.0000 C   0  0  0  0  0  0  0  0  0  0  0  0
   -3.0500   -1.7417    0.0000 C   0  0  0  0  0  0  0  0  0  0  0  0
   -1.4083   -2.2792    0.0000 C   0  0  0  0  0  0  0  0  0  0  0  0
   -2.6958   -3.4375    0.0000 Cl  0  0  0  0  0  0  0  0  0  0  0  0
  2  1  2  0  0  0  0
  3  8  1  0  0  0  0
  4  1  1  0  0  0  0
  5  3  1  0  0  0  0
  6  2  1  0  0  0  0
  7  4  2  0  0  0  0
  7  6  1  0  0  0  0
  8  4  1  0  0  0  0
  9  2  1  0  0  0  0
 10  3  1  0  0  0  0
 11  5  1  0  0  0  0
 11 14  2  0  0  0  0
 12  5  2  0  0  0  0
 13 10  2  0  0  0  0
 14 13  1  0  0  0  0
 15  9  2  0  0  0  0
 16  9  1  0  0  0  0
 17 19  1  0  0  0  0
 18 15  1  0  0  0  0
 18 17  2  0  0  0  0
 19 16  2  0  0  0  0
 20 17  1  0  0  0  0
M  END
>  <idnumber>
T6086881

>  <LogP>
2.189000000000000e+000

>  <rotating_bonds>
3.000000000000000e+000

>  <hb_acceptors>
3.000000000000000e+000

>  <hb_donors>
0.000000000000000e+000

>  <PSA>
4.634000000000000e+001

>  <clusterid>
-1816

>  <is_centroid>
@

>  <class1>
789

>  <class2>
625

>  <class3>
696

>  <population1>
4296

>  <population2>
877209

>  <population3>
4759

>  <population>
30

>  <cansmi>
Clc1ccc(cc1)c1occ(n1)Cn1ccccc1=O

>  <HBA2>
4

>  <HBD>
0

>  <logP>
3.205

>  <TPSA>
48.03

>  <MW>
286.713

$$$$

 OpenBabel02121609142D

 17 18  0  0  0  0  0  0  0  0999 V2000
   -0.6333    0.4625    0.0000 C   0  0  0  0  0  0  0  0  0  0  0  0
   -0.6333   -0.3625    0.0000 C   0  0  0  0  0  0  0  0  0  0  0  0
    0.0792   -0.7750    0.0000 N   0  0  0  0  0  0  0  0  0  0  0  0
   -1.3458    0.8750    0.0000 C   0  0  0  0  0  0  0  0  0  0  0  0
    0.0792    0.8750    0.0000 C   0  0  0  0  0  0  0  0  0  0  0  0
   -1.3458   -0.7750    0.0000 O   0  0  0  0  0  0  0  0  0  0  0  0
    0.0792   -1.6000    0.0000 C   0  0  0  0  0  0  0  0  0  0  0  0
    0.7917   -0.3625    0.0000 C   0  0  0  0  0  0  0  0  0  0  0  0
   -1.3458    1.7000    0.0000 C   0  0  0  0  0  0  0  0  0  0  0  0
    0.0792    1.7000    0.0000 C   0  0  0  0  0  0  0  0  0  0  0  0
   -0.6333    2.1125    0.0000 C   0  0  0  0  0  0  0  0  0  0  0  0
   -2.0625    0.4625    0.0000 O   0  0  0  0  0  0  0  0  0  0  0  0
    0.7917   -2.0125    0.0000 C   0  0  0  0  0  0  0  0  0  0  0  0
    1.5125   -0.7750    0.0000 C   0  0  0  0  0  0  0  0  0  0  0  0
    1.5125   -1.6000    0.0000 C   0  0  0  0  0  0  0  0  0  0  0  0
    0.7917    2.1125    0.0000 C   0  0  0  0  0  0  0  0  0  0  0  0
    2.2250   -2.0125    0.0000 C   0  0  0  0  0  0  0  0  0  0  0  0
  2  1  1  0  0  0  0
  3  2  1  0  0  0  0
  4  1  2  0  0  0  0
  5  1  1  0  0  0  0
  6  2  2  0  0  0  0
  7  3  1  0  0  0  0
  8  3  1  0  0  0  0
  9  4  1  0  0  0  0
  9 11  2  0  0  0  0
 10  5  2  0  0  0  0
 11 10  1  0  0  0  0
 12  4  1  0  0  0  0
 13  7  1  0  0  0  0
 13 15  1  0  0  0  0
 14  8  1  0  0  0  0
 15 14  1  0  0  0  0
 16 10  1  0  0  0  0
 17 15  1  0  0  0  0
M  END
>  <idnumber>
T6115656

>  <LogP>
2.692000000000000e+000

>  <rotating_bonds>
1.000000000000000e+000

>  <hb_acceptors>
2.000000000000000e+000

>  <hb_donors>
1.000000000000000e+000

>  <PSA>
4.053999999999999e+001

>  <clusterid>
-612

>  <is_centroid>
@

>  <class1>
639

>  <class2>
625

>  <population1>
59855

>  <population2>
877209

>  <population>
54917

>  <cansmi>
CC1CCN(CC1)C(=O)c1cc(C)ccc1O

>  <HBA2>
3

>  <HBD>
1

>  <logP>
2.5106

>  <TPSA>
40.54

>  <MW>
233.306

$$$$

 OpenBabel02121609142D

 14 15  0  0  0  0  0  0  0  0999 V2000
    0.3875   -0.3042    0.0000 C   0  0  0  0  0  0  0  0  0  0  0  0
   -0.0958    0.3625    0.0000 N   0  0  0  0  0  0  0  0  0  0  0  0
   -0.0958   -0.9667    0.0000 N   0  0  0  0  0  0  0  0  0  0  0  0
    1.2125   -0.3042    0.0000 N   0  0  0  0  0  0  0  0  0  0  0  0
   -0.8833    0.1083    0.0000 C   0  0  0  0  0  0  0  0  0  0  0  0
   -0.8833   -0.7167    0.0000 C   0  0  0  0  0  0  0  0  0  0  0  0
    1.6250    0.4083    0.0000 C   0  0  0  0  0  0  0  0  0  0  0  0
    1.2125    1.1250    0.0000 O   0  0  0  0  0  0  0  0  0  0  0  0
   -1.5958    0.5208    0.0000 C   0  0  0  0  0  0  0  0  0  0  0  0
    2.4458    0.4083    0.0000 C   0  0  0  0  0  0  0  0  0  0  0  0
   -1.5958   -1.1292    0.0000 C   0  0  0  0  0  0  0  0  0  0  0  0
    2.8625    1.1250    0.0000 C   0  0  0  0  0  0  0  0  0  0  0  0
   -2.3125   -0.7167    0.0000 C   0  0  0  0  0  0  0  0  0  0  0  0
   -2.3125    0.1083    0.0000 C   0  0  0  0  0  0  0  0  0  0  0  0
  2  1  2  0  0  0  0
  3  1  1  0  0  0  0
  4  1  1  0  0  0  0
  5  2  1  0  0  0  0
  5  6  2  0  0  0  0
  6  3  1  0  0  0  0
  7  4  1  0  0  0  0
  8  7  2  0  0  0  0
  9  5  1  0  0  0  0
 10  7  1  0  0  0  0
 11  6  1  0  0  0  0
 12 10  1  0  0  0  0
 13 11  2  0  0  0  0
 14  9  2  0  0  0  0
 14 13  1  0  0  0  0
M  END
>  <idnumber>
T6130677

>  <LogP>
1.941000000000000e+000

>  <rotating_bonds>
2.000000000000000e+000

>  <hb_acceptors>
2.000000000000000e+000

>  <hb_donors>
2.000000000000000e+000

>  <PSA>
5.778000000000000e+001

>  <clusterid>
51

>  <is_centroid>
@

>  <class1>
685

>  <population1>
28767

>  <population>
28767

>  <cansmi>
CCC(=O)Nc1nc2c([nH]1)cccc2

>  <HBA2>
3

>  <HBD>
2

>  <logP>
1.9844

>  <TPSA>
57.78

>  <MW>
189.214

$$$$

 OpenBabel02121609142D

 15 16  0  0  0  0  0  0  0  0999 V2000
    0.8542   -0.1042    0.0000 C   0  0  3  0  0  0  0  0  0  0  0  0
   -0.5750   -0.1042    0.0000 C   0  0  0  0  0  0  0  0  0  0  0  0
    1.5667   -0.5167    0.0000 C   0  0  0  0  0  0  0  0  0  0  0  0
    0.1417    1.1333    0.0000 O   0  0  0  0  0  0  0  0  0  0  0  0
    0.1417   -0.5167    0.0000 C   0  0  0  0  0  0  0  0  0  0  0  0
   -0.5750    0.7208    0.0000 C   0  0  0  0  0  0  0  0  0  0  0  0
    0.8542    0.7208    0.0000 C   0  0  0  0  0  0  0  0  0  0  0  0
   -1.2875   -0.5167    0.0000 C   0  0  0  0  0  0  0  0  0  0  0  0
    1.5667   -1.3417    0.0000 O   0  0  0  0  0  0  0  0  0  0  0  0
   -1.2875    1.1333    0.0000 C   0  0  0  0  0  0  0  0  0  0  0  0
   -2.0083   -0.1042    0.0000 C   0  0  0  0  0  0  0  0  0  0  0  0
    2.2792   -0.1042    0.0000 O   0  0  0  0  0  0  0  0  0  0  0  0
   -2.0083    0.7208    0.0000 C   0  0  0  0  0  0  0  0  0  0  0  0
   -2.7208   -0.5167    0.0000 Cl  0  0  0  0  0  0  0  0  0  0  0  0
    3.0000   -0.5167    0.0000 C   0  0  0  0  0  0  0  0  0  0  0  0
  2  5  1  0  0  0  0
  2  6  2  0  0  0  0
  3  1  1  0  0  0  0
  4  7  1  0  0  0  0
  5  1  1  0  0  0  0
  6  4  1  0  0  0  0
  7  1  1  0  0  0  0
  8  2  1  0  0  0  0
  9  3  2  0  0  0  0
 10  6  1  0  0  0  0
 11  8  2  0  0  0  0
 12  3  1  0  0  0  0
 13 10  2  0  0  0  0
 13 11  1  0  0  0  0
 14 11  1  0  0  0  0
 15 12  1  0  0  0  0
M  END
>  <idnumber>
T6149759

>  <LogP>
2.941000000000000e+000

>  <rotating_bonds>
2.000000000000000e+000

>  <hb_acceptors>
3.000000000000000e+000

>  <hb_donors>
0.000000000000000e+000

>  <PSA>
3.553000000000000e+001

>  <population>
1460

>  <cansmi>
COC(=O)C1Cc2cc(Cl)ccc2OC1

>  <HBA2>
3

>  <HBD>
0

>  <logP>
2.0641

>  <TPSA>
35.53

>  <MW>
226.656

$$$$

 OpenBabel02121609142D

 18 20  0  0  0  0  0  0  0  0999 V2000
   -0.2833   -0.2750    0.0000 C   0  0  0  0  0  0  0  0  0  0  0  0
    0.5417   -0.2750    0.0000 C   0  0  0  0  0  0  0  0  0  0  0  0
   -0.7708   -0.9417    0.0000 N   0  0  0  0  0  0  0  0  0  0  0  0
   -0.7708    0.3958    0.0000 C   0  0  0  0  0  0  0  0  0  0  0  0
    0.9542    0.4375    0.0000 N   0  0  0  0  0  0  0  0  0  0  0  0
   -1.5583   -0.6875    0.0000 C   0  0  0  0  0  0  0  0  0  0  0  0
   -1.5583    0.1375    0.0000 C   0  0  0  0  0  0  0  0  0  0  0  0
    0.9542   -0.9917    0.0000 O   0  0  0  0  0  0  0  0  0  0  0  0
    1.7792    0.4375    0.0000 C   0  0  0  0  0  0  0  0  0  0  0  0
    0.5417    1.1583    0.0000 C   0  0  0  0  0  0  0  0  0  0  0  0
   -2.2708   -1.1000    0.0000 C   0  0  0  0  0  0  0  0  0  0  0  0
   -2.2708    0.5500    0.0000 C   0  0  0  0  0  0  0  0  0  0  0  0
    2.2583    1.1083    0.0000 C   0  0  0  0  0  0  0  0  0  0  0  0
    2.2583   -0.2292    0.0000 C   0  0  0  0  0  0  0  0  0  0  0  0
   -2.9833   -0.6875    0.0000 C   0  0  0  0  0  0  0  0  0  0  0  0
   -2.9833    0.1375    0.0000 C   0  0  0  0  0  0  0  0  0  0  0  0
    3.0500    0.0250    0.0000 C   0  0  0  0  0  0  0  0  0  0  0  0
    3.0500    0.8500    0.0000 C   0  0  0  0  0  0  0  0  0  0  0  0
  2  1  1  0  0  0  0
  3  1  1  0  0  0  0
  4  1  2  0  0  0  0
  5  2  1  0  0  0  0
  6  3  1  0  0  0  0
  7  4  1  0  0  0  0
  7  6  2  0  0  0  0
  8  2  2  0  0  0  0
  9  5  1  0  0  0  0
 10  5  1  0  0  0  0
 11  6  1  0  0  0  0
 12  7  1  0  0  0  0
 13  9  1  0  0  0  0
 14  9  1  0  0  0  0
 15 11  2  0  0  0  0
 16 12  2  0  0  0  0
 16 15  1  0  0  0  0
 17 14  1  0  0  0  0
 17 18  1  0  0  0  0
 18 13  1  0  0  0  0
M  END
>  <idnumber>
T6150925

>  <LogP>
2.477000000000000e+000

>  <rotating_bonds>
2.000000000000000e+000

>  <hb_acceptors>
1.000000000000000e+000

>  <hb_donors>
1.000000000000000e+000

>  <PSA>
3.610000000000000e+001

>  <clusterid>
-1576

>  <is_centroid>
@

>  <class1>
674

>  <class2>
748

>  <population1>
16474

>  <population2>
15713

>  <population>
151

>  <cansmi>
O=C(N(C1CCCC1)C)c1cc2c([nH]1)cccc2

>  <HBA2>
2

>  <HBD>
1

>  <logP>
3.1825

>  <TPSA>
36.1

>  <MW>
242.316

$$$$

 OpenBabel02121609142D

 16 17  0  0  0  0  0  0  0  0999 V2000
   -0.3083   -0.1792    0.0000 C   0  0  0  0  0  0  0  0  0  0  0  0
    0.4125   -0.5917    0.0000 N   0  0  0  0  0  0  0  0  0  0  0  0
    1.1250   -0.1792    0.0000 C   0  0  0  0  0  0  0  0  0  0  0  0
   -0.3083    0.6458    0.0000 O   0  0  0  0  0  0  0  0  0  0  0  0
    1.8417   -0.5917    0.0000 C   0  0  0  0  0  0  0  0  0  0  0  0
   -2.4875   -0.5167    0.0000 C   0  0  0  0  0  0  0  0  0  0  0  0
   -1.0208   -0.5917    0.0000 C   0  0  0  0  0  0  0  0  0  0  0  0
   -3.0375    0.0958    0.0000 C   0  0  0  0  0  0  0  0  0  0  0  0
    1.8417   -1.4167    0.0000 Cl  0  0  0  0  0  0  0  0  0  0  0  0
   -1.7333   -0.1792    0.0000 C   0  0  3  0  0  0  0  0  0  0  0  0
    1.1250    0.6458    0.0000 C   0  0  0  0  0  0  0  0  0  0  0  0
    2.5542   -0.1792    0.0000 C   0  0  0  0  0  0  0  0  0  0  0  0
   -2.6250    0.8083    0.0000 C   0  0  0  0  0  0  0  0  0  0  0  0
   -1.8208    0.6375    0.0000 C   0  0  0  0  0  0  0  0  0  0  0  0
    1.8417    1.0583    0.0000 C   0  0  0  0  0  0  0  0  0  0  0  0
    2.5542    0.6458    0.0000 C   0  0  0  0  0  0  0  0  0  0  0  0
  2  1  1  0  0  0  0
  3  2  1  0  0  0  0
  4  1  2  0  0  0  0
  5  3  2  0  0  0  0
  6 10  1  0  0  0  0
  7  1  1  0  0  0  0
  8  6  2  0  0  0  0
  9  5  1  0  0  0  0
 10  7  1  0  0  0  0
 11  3  1  0  0  0  0
 12  5  1  0  0  0  0
 12 16  2  0  0  0  0
 13 14  1  0  0  0  0
 13  8  1  0  0  0  0
 14 10  1  0  0  0  0
 15 11  2  0  0  0  0
 16 15  1  0  0  0  0
M  END
>  <idnumber>
T6157593

>  <LogP>
2.889000000000000e+000

>  <rotating_bonds>
3.000000000000000e+000

>  <hb_acceptors>
2.000000000000000e+000

>  <hb_donors>
1.000000000000000e+000

>  <PSA>
2.910000000000000e+001

>  <clusterid>
-274

>  <is_centroid>
@

>  <class1>
729

>  <class2>
625

>  <population1>
8613

>  <population2>
877209

>  <population>
6441

>  <cansmi>
O=C(Nc1ccccc1Cl)CC1C=CCC1

>  <HBA2>
2

>  <HBD>
1

>  <logP>
3.7078

>  <TPSA>
29.1

>  <MW>
235.709

$$$$

 OpenBabel02121609142D

 18 19  0  0  0  0  0  0  0  0999 V2000
   -0.5083    1.5375    0.0000 C   0  0  0  0  0  0  0  0  0  0  0  0
   -0.7583    0.7583    0.0000 C   0  0  0  0  0  0  0  0  0  0  0  0
   -0.9875    2.2083    0.0000 N   0  0  0  0  0  0  0  0  0  0  0  0
   -0.2083    0.1375    0.0000 N   0  0  0  0  0  0  0  0  0  0  0  0
    0.2792    1.7958    0.0000 C   0  0  0  0  0  0  0  0  0  0  0  0
   -0.5083    2.8708    0.0000 C   0  0  0  0  0  0  0  0  0  0  0  0
    0.2792    2.6208    0.0000 C   0  0  0  0  0  0  0  0  0  0  0  0
   -1.5708    0.5833    0.0000 O   0  0  0  0  0  0  0  0  0  0  0  0
   -0.4625   -0.6417    0.0000 C   0  0  0  0  0  0  0  0  0  0  0  0
    0.0917   -1.2542    0.0000 C   0  0  0  0  0  0  0  0  0  0  0  0
    1.1917   -2.4792    0.0000 C   0  0  0  0  0  0  0  0  0  0  0  0
    1.7417   -3.0917    0.0000 F   0  0  0  0  0  0  0  0  0  0  0  0
    0.8917   -1.0875    0.0000 C   0  0  0  0  0  0  0  0  0  0  0  0
   -0.1625   -2.0417    0.0000 C   0  0  0  0  0  0  0  0  0  0  0  0
    0.3875   -2.6542    0.0000 C   0  0  0  0  0  0  0  0  0  0  0  0
    1.4500   -1.7000    0.0000 C   0  0  0  0  0  0  0  0  0  0  0  0
   -1.8125    2.2083    0.0000 C   0  0  0  0  0  0  0  0  0  0  0  0
    0.6000    0.3125    0.0000 C   0  0  0  0  0  0  0  0  0  0  0  0
  2  1  1  0  0  0  0
  3  1  1  0  0  0  0
  4  2  1  0  0  0  0
  5  1  2  0  0  0  0
  6  3  1  0  0  0  0
  7  5  1  0  0  0  0
  7  6  2  0  0  0  0
  8  2  2  0  0  0  0
  9  4  1  0  0  0  0
 10  9  1  0  0  0  0
 11 15  1  0  0  0  0
 12 11  1  0  0  0  0
 13 10  2  0  0  0  0
 14 10  1  0  0  0  0
 15 14  2  0  0  0  0
 16 13  1  0  0  0  0
 16 11  2  0  0  0  0
 17  3  1  0  0  0  0
 18  4  1  0  0  0  0
M  END
>  <idnumber>
T6168916

>  <LogP>
2.193000000000000e+000

>  <rotating_bonds>
3.000000000000000e+000

>  <hb_acceptors>
2.000000000000000e+000

>  <hb_donors>
0.000000000000000e+000

>  <PSA>
2.524000000000000e+001

>  <clusterid>
-458

>  <is_centroid>
@

>  <class1>
625

>  <class2>
635

>  <population1>
877209

>  <population2>
31512

>  <population>
24537

>  <cansmi>
Fc1ccc(cc1)CN(C(=O)c1cccn1C)C

>  <HBA2>
3

>  <HBD>
0

>  <logP>
2.4364

>  <TPSA>
25.24

>  <MW>
246.28

$$$$

 OpenBabel02121609142D

 14 15  0  0  0  0  0  0  0  0999 V2000
   -1.3708   -0.1917    0.0000 C   0  0  0  0  0  0  0  0  0  0  0  0
    0.0625   -0.1917    0.0000 S   0  0  0  0  0  0  0  0  0  0  0  0
    1.4917   -0.1917    0.0000 C   0  0  0  0  0  0  0  0  0  0  0  0
   -1.4583   -1.0167    0.0000 O   0  0  0  0  0  0  0  0  0  0  0  0
    0.7750    0.2208    0.0000 C   0  0  3  0  0  0  0  0  0  0  0  0
   -2.1208    0.1375    0.0000 C   0  0  0  0  0  0  0  0  0  0  0  0
   -2.2583   -1.1875    0.0000 C   0  0  0  0  0  0  0  0  0  0  0  0
   -2.6708   -0.4750    0.0000 C   0  0  0  0  0  0  0  0  0  0  0  0
    1.4917   -1.0167    0.0000 O   0  0  0  0  0  0  0  0  0  0  0  0
   -0.6583    0.2208    0.0000 C   0  0  0  0  0  0  0  0  0  0  0  0
    2.2042    0.2208    0.0000 C   0  0  0  0  0  0  0  0  0  0  0  0
    0.7750    1.0458    0.0000 C   0  0  0  0  0  0  0  0  0  0  0  0
    2.2042    1.0458    0.0000 C   0  0  0  0  0  0  0  0  0  0  0  0
    1.4917    1.4583    0.0000 C   0  0  0  0  0  0  0  0  0  0  0  0
  2 10  1  0  0  0  0
  3  5  1  0  0  0  0
  4  1  1  0  0  0  0
  5  2  1  0  0  0  0
  6  1  2  0  0  0  0
  7  4  1  0  0  0  0
  8  6  1  0  0  0  0
  8  7  2  0  0  0  0
  9  3  2  0  0  0  0
 10  1  1  0  0  0  0
 11  3  1  0  0  0  0
 11 13  1  0  0  0  0
 12  5  1  0  0  0  0
 13 14  1  0  0  0  0
 14 12  1  0  0  0  0
M  END
>  <idnumber>
T6182358

>  <LogP>
2.269000000000000e+000

>  <rotating_bonds>
3.000000000000000e+000

>  <hb_acceptors>
2.000000000000000e+000

>  <hb_donors>
0.000000000000000e+000

>  <PSA>
5.551000000000001e+001

>  <population>
40

>  <cansmi>
O=C1CCCCC1SCc1ccco1

>  <HBA2>
3

>  <HBD>
0

>  <logP>
3.0245

>  <TPSA>
55.51

>  <MW>
210.293

$$$$

 OpenBabel02121609142D

 19 21  0  0  0  0  0  0  0  0999 V2000
   -0.3583    1.1083    0.0000 C   0  0  0  0  0  0  0  0  0  0  0  0
   -0.3583    0.1083    0.0000 C   0  0  0  0  0  0  0  0  0  0  0  0
   -1.2250    1.6083    0.0000 C   0  0  0  0  0  0  0  0  0  0  0  0
    0.5042   -0.3917    0.0000 N   0  0  0  0  0  0  0  0  0  0  0  0
   -2.0958    1.1083    0.0000 N   0  0  0  0  0  0  0  0  0  0  0  0
   -1.2250   -0.3917    0.0000 O   0  0  0  0  0  0  0  0  0  0  0  0
    2.2792   -1.4917    0.0000 O   0  0  0  0  0  0  0  0  0  0  0  0
   -1.2250    2.6083    0.0000 C   0  0  0  0  0  0  0  0  0  0  0  0
    0.5042   -1.3917    0.0000 C   0  0  0  0  0  0  0  0  0  0  0  0
    0.5042    1.6083    0.0000 C   0  0  0  0  0  0  0  0  0  0  0  0
    1.3667   -1.8917    0.0000 C   0  0  3  0  0  0  0  0  0  0  0  0
    0.5042    2.6083    0.0000 C   0  0  0  0  0  0  0  0  0  0  0  0
   -2.9583    1.6083    0.0000 C   0  0  0  0  0  0  0  0  0  0  0  0
    2.9542   -2.2292    0.0000 C   0  0  0  0  0  0  0  0  0  0  0  0
   -0.3583    3.1083    0.0000 C   0  0  0  0  0  0  0  0  0  0  0  0
   -2.0958    3.1083    0.0000 C   0  0  0  0  0  0  0  0  0  0  0  0
    1.4750   -2.8917    0.0000 C   0  0  0  0  0  0  0  0  0  0  0  0
   -2.9583    2.6083    0.0000 C   0  0  0  0  0  0  0  0  0  0  0  0
    2.4542   -3.1000    0.0000 C   0  0  0  0  0  0  0  0  0  0  0  0
  2  1  1  0  0  0  0
  3  1  2  0  0  0  0
  4  2  1  0  0  0  0
  5  3  1  0  0  0  0
  6  2  2  0  0  0  0
  7 11  1  0  0  0  0
  8  3  1  0  0  0  0
  9  4  1  0  0  0  0
 10  1  1  0  0  0  0
 11  9  1  0  0  0  0
 12 10  2  0  0  0  0
 13  5  2  0  0  0  0
 13 18  1  0  0  0  0
 14  7  1  0  0  0  0
 14 19  1  0  0  0  0
 15 12  1  0  0  0  0
 15  8  2  0  0  0  0
 16  8  1  0  0  0  0
 17 11  1  0  0  0  0
 18 16  2  0  0  0  0
 19 17  1  0  0  0  0
M  END
>  <idnumber>
T6190306

>  <LogP>
1.947000000000000e+000

>  <rotating_bonds>
3.000000000000000e+000

>  <hb_acceptors>
3.000000000000000e+000

>  <hb_donors>
1.000000000000000e+000

>  <PSA>
5.121999999999999e+001

>  <population>
151

>  <cansmi>
O=C(c1cccc2c1nccc2)NCC1CCCO1

>  <HBA2>
4

>  <HBD>
1

>  <logP>
2.5345

>  <TPSA>
51.22

>  <MW>
256.3

$$$$

 OpenBabel02121609142D

 21 23  0  0  0  0  0  0  0  0999 V2000
   -1.3000    0.0000    0.0000 N   0  0  0  0  0  0  0  0  0  0  0  0
   -0.4333   -0.5000    0.0000 C   0  0  0  0  0  0  0  0  0  0  0  0
   -2.1708   -0.5000    0.0000 C   0  0  0  0  0  0  0  0  0  0  0  0
   -3.0333    0.0000    0.0000 C   0  0  0  0  0  0  0  0  0  0  0  0
   -1.3000    1.0083    0.0000 C   0  0  0  0  0  0  0  0  0  0  0  0
   -3.0333    1.0083    0.0000 C   0  0  0  0  0  0  0  0  0  0  0  0
   -0.4333   -1.5000    0.0000 O   0  0  0  0  0  0  0  0  0  0  0  0
    0.4292    0.0000    0.0000 C   0  0  0  0  0  0  0  0  0  0  0  0
   -2.1708    1.5000    0.0000 C   0  0  0  0  0  0  0  0  0  0  0  0
    3.8917    1.0083    0.0000 C   0  0  0  0  0  0  0  0  0  0  0  0
    2.1625    0.0000    0.0000 C   0  0  0  0  0  0  0  0  0  0  0  0
    1.2917   -0.5000    0.0000 C   0  0  0  0  0  0  0  0  0  0  0  0
    4.7625    1.5000    0.0000 F   0  0  0  0  0  0  0  0  0  0  0  0
    3.0292    1.5000    0.0000 C   0  0  0  0  0  0  0  0  0  0  0  0
    3.8917    0.0000    0.0000 C   0  0  0  0  0  0  0  0  0  0  0  0
    3.0292   -0.5000    0.0000 C   0  0  0  0  0  0  0  0  0  0  0  0
    2.1625    1.0083    0.0000 C   0  0  0  0  0  0  0  0  0  0  0  0
   -3.9000   -0.5000    0.0000 C   0  0  0  0  0  0  0  0  0  0  0  0
   -3.9000    1.5000    0.0000 C   0  0  0  0  0  0  0  0  0  0  0  0
   -4.7708    0.0000    0.0000 C   0  0  0  0  0  0  0  0  0  0  0  0
   -4.7708    1.0083    0.0000 C   0  0  0  0  0  0  0  0  0  0  0  0
  2  1  1  0  0  0  0
  3  1  1  0  0  0  0
  4  3  1  0  0  0  0
  5  1  1  0  0  0  0
  6  9  1  0  0  0  0
  6  4  2  0  0  0  0
  7  2  2  0  0  0  0
  8  2  1  0  0  0  0
  9  5  1  0  0  0  0
 10 14  1  0  0  0  0
 10 15  2  0  0  0  0
 11 12  1  0  0  0  0
 12  8  1  0  0  0  0
 13 10  1  0  0  0  0
 14 17  2  0  0  0  0
 15 16  1  0  0  0  0
 16 11  2  0  0  0  0
 17 11  1  0  0  0  0
 18  4  1  0  0  0  0
 19  6  1  0  0  0  0
 20 18  2  0  0  0  0
 20 21  1  0  0  0  0
 21 19  2  0  0  0  0
M  END
>  <idnumber>
T6190623

>  <LogP>
2.881000000000000e+000

>  <rotating_bonds>
3.000000000000000e+000

>  <hb_acceptors>
2.000000000000000e+000

>  <hb_donors>
0.000000000000000e+000

>  <PSA>
2.031000000000000e+001

>  <population>
7929

>  <cansmi>
Fc1ccc(cc1)CCC(=O)N1CCc2c(C1)cccc2

>  <HBA2>
2

>  <HBD>
0

>  <logP>
3.2811

>  <TPSA>
20.31

>  <MW>
283.34

$$$$

 OpenBabel02121609142D

 15 16  0  0  0  0  0  0  0  0999 V2000
    0.8625    0.2500    0.0000 N   0  0  0  0  0  0  0  0  0  0  0  0
    0.0000   -0.2500    0.0000 C   0  0  0  0  0  0  0  0  0  0  0  0
    0.0000    1.7500    0.0000 N   0  0  0  0  0  0  0  0  0  0  0  0
    0.8625    1.2500    0.0000 C   0  0  0  0  0  0  0  0  0  0  0  0
   -0.8708    0.2500    0.0000 C   0  0  0  0  0  0  0  0  0  0  0  0
   -0.8708    1.2500    0.0000 C   0  0  0  0  0  0  0  0  0  0  0  0
    0.0000   -1.2500    0.0000 O   0  0  0  0  0  0  0  0  0  0  0  0
    1.7292   -0.2500    0.0000 C   0  0  0  0  0  0  0  0  0  0  0  0
   -1.7333   -0.2500    0.0000 C   0  0  0  0  0  0  0  0  0  0  0  0
    1.7292    1.7500    0.0000 C   0  0  0  0  0  0  0  0  0  0  0  0
   -1.7333    1.7500    0.0000 C   0  0  0  0  0  0  0  0  0  0  0  0
    2.5917   -1.7500    0.0000 O   0  0  0  0  0  0  0  0  0  0  0  0
    1.7292   -1.2500    0.0000 C   0  0  0  0  0  0  0  0  0  0  0  0
   -2.6000    0.2500    0.0000 C   0  0  0  0  0  0  0  0  0  0  0  0
   -2.6000    1.2500    0.0000 C   0  0  0  0  0  0  0  0  0  0  0  0
  2  1  1  0  0  0  0
  3  4  2  0  0  0  0
  4  1  1  0  0  0  0
  5  2  1  0  0  0  0
  6  3  1  0  0  0  0
  6  5  2  0  0  0  0
  7  2  2  0  0  0  0
  8  1  1  0  0  0  0
  9  5  1  0  0  0  0
 10  4  1  0  0  0  0
 11  6  1  0  0  0  0
 12 13  1  0  0  0  0
 13  8  1  0  0  0  0
 14  9  2  0  0  0  0
 15 11  2  0  0  0  0
 15 14  1  0  0  0  0
M  END
>  <idnumber>
T6191474

>  <LogP>
4.890000000000001e-001

>  <rotating_bonds>
2.000000000000000e+000

>  <hb_acceptors>
3.000000000000000e+000

>  <hb_donors>
1.000000000000000e+000

>  <PSA>
5.290000000000000e+001

>  <population>
19152

>  <cansmi>
OCCn1c(C)nc2c(c1=O)cccc2

>  <HBA2>
4

>  <HBD>
1

>  <logP>
0.6972

>  <TPSA>
55.12

>  <MW>
204.225

$$$$

 OpenBabel02121609142D

 17 18  0  0  0  0  0  0  0  0999 V2000
    0.6292   -0.9875    0.0000 C   0  0  0  0  0  0  0  0  0  0  0  0
    0.0417   -1.7917    0.0000 N   0  0  0  0  0  0  0  0  0  0  0  0
    0.3167   -0.0292    0.0000 C   0  0  0  0  0  0  0  0  0  0  0  0
    1.5792   -1.2917    0.0000 C   0  0  0  0  0  0  0  0  0  0  0  0
    0.9917    0.7083    0.0000 N   0  0  0  0  0  0  0  0  0  0  0  0
    0.6292   -2.6042    0.0000 C   0  0  0  0  0  0  0  0  0  0  0  0
    1.5792   -2.2917    0.0000 C   0  0  0  0  0  0  0  0  0  0  0  0
    0.6792    1.6583    0.0000 C   0  0  0  0  0  0  0  0  0  0  0  0
   -0.2958    1.8708    0.0000 N   0  0  0  0  0  0  0  0  0  0  0  0
   -0.6583    0.1708    0.0000 O   0  0  0  0  0  0  0  0  0  0  0  0
   -0.6083    2.8208    0.0000 C   0  0  0  0  0  0  0  0  0  0  0  0
   -0.9583   -1.7917    0.0000 C   0  0  0  0  0  0  0  0  0  0  0  0
    1.3500    2.4000    0.0000 C   0  0  0  0  0  0  0  0  0  0  0  0
    0.3167   -3.5542    0.0000 C   0  0  0  0  0  0  0  0  0  0  0  0
    1.0417    3.3583    0.0000 C   0  0  0  0  0  0  0  0  0  0  0  0
    0.0625    3.5583    0.0000 C   0  0  0  0  0  0  0  0  0  0  0  0
   -1.5833    3.0250    0.0000 C   0  0  0  0  0  0  0  0  0  0  0  0
  2  1  1  0  0  0  0
  3  1  1  0  0  0  0
  4  1  2  0  0  0  0
  5  3  1  0  0  0  0
  6  2  1  0  0  0  0
  7  4  1  0  0  0  0
  7  6  2  0  0  0  0
  8  5  1  0  0  0  0
  9  8  2  0  0  0  0
 10  3  2  0  0  0  0
 11  9  1  0  0  0  0
 12  2  1  0  0  0  0
 13  8  1  0  0  0  0
 14  6  1  0  0  0  0
 15 13  2  0  0  0  0
 16 15  1  0  0  0  0
 16 11  2  0  0  0  0
 17 11  1  0  0  0  0
M  END
>  <idnumber>
T6191505

>  <LogP>
2.531000000000000e+000

>  <rotating_bonds>
2.000000000000000e+000

>  <hb_acceptors>
2.000000000000000e+000

>  <hb_donors>
1.000000000000000e+000

>  <PSA>
4.692000000000000e+001

>  <population>
1851

>  <cansmi>
Cc1cccc(n1)NC(=O)c1ccc(n1C)C

>  <HBA2>
4

>  <HBD>
1

>  <logP>
2.3622

>  <TPSA>
46.92

>  <MW>
229.278

$$$$

 OpenBabel02121609142D

 18 20  0  0  0  0  0  0  0  0999 V2000
    0.6167   -1.2167    0.0000 N   0  0  0  0  0  0  0  0  0  0  0  0
    1.0417   -0.3250    0.0000 C   0  0  0  0  0  0  0  0  0  0  0  0
    0.3917    1.3083    0.0000 C   0  0  3  0  0  0  0  0  0  0  0  0
    0.3042    0.3333    0.0000 C   0  0  0  0  0  0  0  0  0  0  0  0
   -0.4125    2.0333    0.0000 C   0  0  3  0  0  0  0  0  0  0  0  0
   -0.3500   -1.4250    0.0000 C   0  0  0  0  0  0  0  0  0  0  0  0
    1.2042    1.8458    0.0000 C   0  0  0  0  0  0  0  0  0  0  0  0
    1.9875   -0.0292    0.0000 O   0  0  0  0  0  0  0  0  0  0  0  0
   -0.2250    2.7458    0.0000 C   0  0  0  0  0  0  0  0  0  0  0  0
    0.9250    2.7583    0.0000 C   0  0  3  0  0  0  0  0  0  0  0  0
   -0.4250    3.2333    0.0000 C   0  0  0  0  0  0  0  0  0  0  0  0
   -0.6625   -2.3667    0.0000 C   0  0  3  0  0  0  0  0  0  0  0  0
    0.5750    3.6208    0.0000 C   0  0  0  0  0  0  0  0  0  0  0  0
    1.2792   -1.9542    0.0000 C   0  0  0  0  0  0  0  0  0  0  0  0
   -1.9958   -3.6125    0.0000 O   0  0  0  0  0  0  0  0  0  0  0  0
    0.9750   -2.9000    0.0000 C   0  0  0  0  0  0  0  0  0  0  0  0
   -1.6083   -2.6917    0.0000 C   0  0  0  0  0  0  0  0  0  0  0  0
    0.0042   -3.1042    0.0000 C   0  0  0  0  0  0  0  0  0  0  0  0
  2  1  1  0  0  0  0
  3  4  1  0  0  0  0
  4  2  1  0  0  0  0
  5  3  1  0  0  0  0
  6  1  1  0  0  0  0
  7  3  1  0  0  0  0
  8  2  2  0  0  0  0
  9  5  1  0  0  0  0
 10  7  1  0  0  0  0
 10  9  1  0  0  0  0
 11  5  1  0  0  0  0
 11 13  1  0  0  0  0
 12  6  1  0  0  0  0
 12 18  1  0  0  0  0
 13 10  1  0  0  0  0
 14  1  1  0  0  0  0
 15 17  1  0  0  0  0
 16 14  1  0  0  0  0
 17 12  1  0  0  0  0
 18 16  1  0  0  0  0
M  END
>  <idnumber>
T6191521

>  <LogP>
9.180000000000002e-001

>  <rotating_bonds>
3.000000000000000e+000

>  <hb_acceptors>
2.000000000000000e+000

>  <hb_donors>
1.000000000000000e+000

>  <PSA>
4.053999999999999e+001

>  <population>
73

>  <cansmi>
OCC1CCCN(C1)C(=O)CC1CC2CC1CC2

>  <HBA2>
3

>  <HBD>
1

>  <logP>
1.9815

>  <TPSA>
40.54

>  <MW>
251.365

$$$$

 OpenBabel02121609142D

 19 21  0  0  0  0  0  0  0  0999 V2000
   -0.7958    0.0000    0.0000 N   0  0  0  0  0  0  0  0  0  0  0  0
    2.7750    0.9958    0.0000 N   0  0  0  0  0  0  0  0  0  0  0  0
    0.0667   -0.5000    0.0000 C   0  0  0  0  0  0  0  0  0  0  0  0
    3.7542    1.2083    0.0000 N   0  0  0  0  0  0  0  0  0  0  0  0
    2.6667    0.0000    0.0000 N   0  0  0  0  0  0  0  0  0  0  0  0
    0.9375    0.0000    0.0000 C   0  0  0  0  0  0  0  0  0  0  0  0
   -1.6583   -0.5000    0.0000 C   0  0  0  0  0  0  0  0  0  0  0  0
    4.2542    0.3375    0.0000 C   0  0  0  0  0  0  0  0  0  0  0  0
    3.5792   -0.4042    0.0000 C   0  0  0  0  0  0  0  0  0  0  0  0
   -2.5250    0.0000    0.0000 C   0  0  0  0  0  0  0  0  0  0  0  0
   -0.7958    1.0000    0.0000 C   0  0  0  0  0  0  0  0  0  0  0  0
   -2.5250    1.0000    0.0000 C   0  0  0  0  0  0  0  0  0  0  0  0
    0.0667   -1.5000    0.0000 O   0  0  0  0  0  0  0  0  0  0  0  0
    1.8042   -0.5000    0.0000 C   0  0  0  0  0  0  0  0  0  0  0  0
   -1.6583    1.5000    0.0000 C   0  0  0  0  0  0  0  0  0  0  0  0
   -3.3958   -0.5000    0.0000 C   0  0  0  0  0  0  0  0  0  0  0  0
   -3.3958    1.5000    0.0000 C   0  0  0  0  0  0  0  0  0  0  0  0
   -4.2583    0.0000    0.0000 C   0  0  0  0  0  0  0  0  0  0  0  0
   -4.2583    1.0000    0.0000 C   0  0  0  0  0  0  0  0  0  0  0  0
  2  5  1  0  0  0  0
  3  1  1  0  0  0  0
  4  2  2  0  0  0  0
  5 14  1  0  0  0  0
  6  3  1  0  0  0  0
  7  1  1  0  0  0  0
  8  9  2  0  0  0  0
  8  4  1  0  0  0  0
  9  5  1  0  0  0  0
 10  7  1  0  0  0  0
 10 12  2  0  0  0  0
 11  1  1  0  0  0  0
 12 15  1  0  0  0  0
 13  3  2  0  0  0  0
 14  6  1  0  0  0  0
 15 11  1  0  0  0  0
 16 10  1  0  0  0  0
 17 12  1  0  0  0  0
 18 16  2  0  0  0  0
 19 17  2  0  0  0  0
 19 18  1  0  0  0  0
M  END
>  <idnumber>
T6193694

>  <LogP>
7.330000000000000e-001

>  <rotating_bonds>
3.000000000000000e+000

>  <hb_acceptors>
3.000000000000000e+000

>  <hb_donors>
0.000000000000000e+000

>  <PSA>
5.102000000000000e+001

>  <population>
16

>  <cansmi>
O=C(N1CCc2c(C1)cccc2)CCn1nncc1

>  <HBA2>
5

>  <HBD>
0

>  <logP>
1.191

>  <TPSA>
51.02

>  <MW>
256.303

$$$$

 OpenBabel02121609142D

 16 17  0  0  0  0  0  0  0  0999 V2000
    1.2792    0.5458    0.0000 C   0  0  0  0  0  0  0  0  0  0  0  0
   -2.1833   -0.4542    0.0000 N   0  0  0  0  0  0  0  0  0  0  0  0
    2.1500    1.0458    0.0000 C   0  0  0  0  0  0  0  0  0  0  0  0
    0.4167    1.0458    0.0000 N   0  0  0  0  0  0  0  0  0  0  0  0
   -1.3125   -0.9542    0.0000 C   0  0  0  0  0  0  0  0  0  0  0  0
   -2.1833    0.5458    0.0000 C   0  0  0  0  0  0  0  0  0  0  0  0
    3.1500    1.0458    0.0000 C   0  0  0  0  0  0  0  0  0  0  0  0
    2.6500    1.9125    0.0000 C   0  0  0  0  0  0  0  0  0  0  0  0
   -0.4458    0.5458    0.0000 C   0  0  0  0  0  0  0  0  0  0  0  0
   -1.3125    1.0458    0.0000 C   0  0  0  0  0  0  0  0  0  0  0  0
   -0.4458   -0.4542    0.0000 C   0  0  0  0  0  0  0  0  0  0  0  0
    1.2792   -0.4542    0.0000 O   0  0  0  0  0  0  0  0  0  0  0  0
   -2.8583    1.2833    0.0000 C   0  0  0  0  0  0  0  0  0  0  0  0
   -1.0208   -1.9042    0.0000 C   0  0  0  0  0  0  0  0  0  0  0  0
   -1.6083   -1.9042    0.0000 C   0  0  0  0  0  0  0  0  0  0  0  0
   -3.1583    0.7708    0.0000 C   0  0  0  0  0  0  0  0  0  0  0  0
  2  5  1  0  0  0  0
  3  1  1  0  0  0  0
  4  1  1  0  0  0  0
  5 11  1  0  0  0  0
  6 10  1  0  0  0  0
  6  2  1  0  0  0  0
  7  3  1  0  0  0  0
  7  8  1  0  0  0  0
  8  3  1  0  0  0  0
  9  4  1  0  0  0  0
 10  9  1  0  0  0  0
 11  9  1  0  0  0  0
 12  1  2  0  0  0  0
 13  6  1  0  0  0  0
 14  5  1  0  0  0  0
 15  5  1  0  0  0  0
 16  6  1  0  0  0  0
M  END
>  <idnumber>
T6194559

>  <LogP>
9.640000000000001e-001

>  <rotating_bonds>
2.000000000000000e+000

>  <hb_acceptors>
2.000000000000000e+000

>  <hb_donors>
2.000000000000000e+000

>  <PSA>
4.113000000000000e+001

>  <population>
1428

>  <cansmi>
O=C(C1CC1)NC1CC(C)(C)NC(C1)(C)C

>  <HBA2>
3

>  <HBD>
2

>  <logP>
2.5415

>  <TPSA>
41.13

>  <MW>
224.342

$$$$

 OpenBabel02121609142D

 22 25  0  0  0  0  0  0  0  0999 V2000
   -2.3333    0.1833    0.0000 C   0  0  3  0  0  0  0  0  0  0  0  0
   -2.9083    1.7208    0.0000 C   0  0  3  0  0  0  0  0  0  0  0  0
   -0.7500   -0.7542    0.0000 C   0  0  0  0  0  0  0  0  0  0  0  0
   -0.1750   -1.5375    0.0000 N   0  0  0  0  0  0  0  0  0  0  0  0
   -2.7125    2.0250    0.0000 C   0  0  3  0  0  0  0  0  0  0  0  0
   -1.2208    1.4875    0.0000 C   0  0  3  0  0  0  0  0  0  0  0  0
   -3.0083    0.5125    0.0000 C   0  0  0  0  0  0  0  0  0  0  0  0
   -1.6833   -0.5292    0.0000 C   0  0  0  0  0  0  0  0  0  0  0  0
   -1.3500    0.5208    0.0000 C   0  0  0  0  0  0  0  0  0  0  0  0
   -3.2083    0.8458    0.0000 C   0  0  0  0  0  0  0  0  0  0  0  0
   -3.7583    1.9208    0.0000 C   0  0  0  0  0  0  0  0  0  0  0  0
   -2.0458    2.0458    0.0000 C   0  0  0  0  0  0  0  0  0  0  0  0
   -0.0875   -0.0333    0.0000 O   0  0  0  0  0  0  0  0  0  0  0  0
   -1.7208    2.3083    0.0000 C   0  0  0  0  0  0  0  0  0  0  0  0
   -3.2500    2.6958    0.0000 O   0  0  0  0  0  0  0  0  0  0  0  0
    0.7792   -1.7750    0.0000 C   0  0  0  0  0  0  0  0  0  0  0  0
    2.7625   -1.8500    0.0000 C   0  0  0  0  0  0  0  0  0  0  0  0
    1.3042   -0.9375    0.0000 C   0  0  0  0  0  0  0  0  0  0  0  0
    1.2417   -2.6500    0.0000 C   0  0  0  0  0  0  0  0  0  0  0  0
    2.3000   -0.9750    0.0000 C   0  0  0  0  0  0  0  0  0  0  0  0
    2.2375   -2.6875    0.0000 C   0  0  0  0  0  0  0  0  0  0  0  0
    3.7542   -1.8792    0.0000 C   0  0  0  0  0  0  0  0  0  0  0  0
  2  7  1  0  0  0  0
  2 11  1  0  0  0  0
  3  8  1  0  0  0  0
  4  3  1  0  0  0  0
  5 10  1  0  0  0  0
  6  9  1  0  0  0  0
  7  1  1  0  0  0  0
  8  1  1  0  0  0  0
  9  1  1  0  0  0  0
 10  1  1  0  0  0  0
 11  5  1  0  0  0  0
 12  6  1  0  0  0  0
 12  2  1  0  0  0  0
 13  3  2  0  0  0  0
 14  5  1  0  0  0  0
 14  6  1  0  0  0  0
 15  2  1  0  0  0  0
 16  4  1  0  0  0  0
 17 21  2  0  0  0  0
 18 16  1  0  0  0  0
 19 16  2  0  0  0  0
 20 18  2  0  0  0  0
 20 17  1  0  0  0  0
 21 19  1  0  0  0  0
 22 17  1  0  0  0  0
M  END
>  <idnumber>
T6194915

>  <LogP>
2.851000000000000e+000

>  <rotating_bonds>
3.000000000000000e+000

>  <hb_acceptors>
2.000000000000000e+000

>  <hb_donors>
2.000000000000000e+000

>  <PSA>
4.933000000000001e+001

>  <population>
5907

>  <cansmi>
O=C(CC12CC3CC(C1)CC(C2)(C3)O)Nc1ccc(cc1)C

>  <HBA2>
3

>  <HBD>
2

>  <logP>
3.7279

>  <TPSA>
49.33

>  <MW>
299.407

$$$$

 OpenBabel02121609142D

 15 16  0  0  0  0  0  0  0  0999 V2000
   -0.2208    1.7583    0.0000 C   0  0  3  0  0  0  0  0  0  0  0  0
   -0.6000    0.8375    0.0000 C   0  0  0  0  0  0  0  0  0  0  0  0
   -0.7958    2.6583    0.0000 C   0  0  3  0  0  0  0  0  0  0  0  0
   -0.7000    1.7375    0.0000 C   0  0  0  0  0  0  0  0  0  0  0  0
    0.0417    0.1208    0.0000 N   0  0  0  0  0  0  0  0  0  0  0  0
    0.3292    1.8958    0.0000 C   0  0  0  0  0  0  0  0  0  0  0  0
    0.5750   -1.6000    0.0000 C   0  0  0  0  0  0  0  0  0  0  0  0
    0.7792    1.9833    0.0000 C   0  0  0  0  0  0  0  0  0  0  0  0
   -0.1125    3.3583    0.0000 C   0  0  0  0  0  0  0  0  0  0  0  0
    0.7792    2.9125    0.0000 C   0  0  3  0  0  0  0  0  0  0  0  0
   -1.5458    0.6083    0.0000 O   0  0  0  0  0  0  0  0  0  0  0  0
    1.5417   -1.3500    0.0000 O   0  0  0  0  0  0  0  0  0  0  0  0
   -0.0958   -0.8542    0.0000 C   0  0  0  0  0  0  0  0  0  0  0  0
    0.3000   -2.5625    0.0000 N   0  0  0  0  0  0  0  0  0  0  0  0
    0.9042   -3.3542    0.0000 C   0  0  0  0  0  0  0  0  0  0  0  0
  2  1  1  0  0  0  0
  3  1  1  0  0  0  0
  4  3  1  0  0  0  0
  5  2  1  0  0  0  0
  6 10  1  0  0  0  0
  6  4  2  0  0  0  0
  7 13  1  0  0  0  0
  8  1  1  0  0  0  0
  9  3  1  0  0  0  0
  9 10  1  0  0  0  0
 10  8  1  0  0  0  0
 11  2  2  0  0  0  0
 12  7  2  0  0  0  0
 13  5  1  0  0  0  0
 14  7  1  0  0  0  0
 15 14  1  0  0  0  0
M  END
>  <idnumber>
T6200949

>  <LogP>
-3.430000000000000e-001

>  <rotating_bonds>
3.000000000000000e+000

>  <hb_acceptors>
2.000000000000000e+000

>  <hb_donors>
2.000000000000000e+000

>  <PSA>
5.820000000000000e+001

>  <population>
344

>  <cansmi>
CNC(=O)CNC(=O)C1CC2CC1C=C2

>  <HBA2>
4

>  <HBD>
2

>  <logP>
0.8426

>  <TPSA>
58.2

>  <MW>
208.257

$$$$

 OpenBabel02121609142D

 17 18  0  0  0  0  0  0  0  0999 V2000
   -0.0333    0.6208    0.0000 C   0  0  0  0  0  0  0  0  0  0  0  0
   -0.9833    0.3125    0.0000 N   0  0  0  0  0  0  0  0  0  0  0  0
    0.8292    0.1208    0.0000 C   0  0  0  0  0  0  0  0  0  0  0  0
   -1.5708    1.1208    0.0000 C   0  0  0  0  0  0  0  0  0  0  0  0
   -0.9833    1.9333    0.0000 C   0  0  0  0  0  0  0  0  0  0  0  0
    0.8292   -0.8792    0.0000 C   0  0  0  0  0  0  0  0  0  0  0  0
   -0.0333    1.6208    0.0000 C   0  0  0  0  0  0  0  0  0  0  0  0
    1.7000   -1.3792    0.0000 N   0  0  0  0  0  0  0  0  0  0  0  0
   -0.0333   -1.3792    0.0000 O   0  0  0  0  0  0  0  0  0  0  0  0
    1.7000    0.6208    0.0000 C   0  0  0  0  0  0  0  0  0  0  0  0
    0.8292    2.1208    0.0000 C   0  0  0  0  0  0  0  0  0  0  0  0
   -1.2958    2.8833    0.0000 C   0  0  0  0  0  0  0  0  0  0  0  0
   -2.5708    1.1208    0.0000 C   0  0  0  0  0  0  0  0  0  0  0  0
    1.7000   -2.3792    0.0000 C   0  0  0  0  0  0  0  0  0  0  0  0
    1.7000    1.6208    0.0000 C   0  0  0  0  0  0  0  0  0  0  0  0
    0.8292   -2.8792    0.0000 C   0  0  0  0  0  0  0  0  0  0  0  0
    2.5667   -2.8792    0.0000 C   0  0  0  0  0  0  0  0  0  0  0  0
  2  1  1  0  0  0  0
  3  1  2  0  0  0  0
  4  2  1  0  0  0  0
  5  7  1  0  0  0  0
  5  4  2  0  0  0  0
  6  3  1  0  0  0  0
  7  1  1  0  0  0  0
  8  6  1  0  0  0  0
  9  6  2  0  0  0  0
 10  3  1  0  0  0  0
 10 15  2  0  0  0  0
 11  7  2  0  0  0  0
 12  5  1  0  0  0  0
 13  4  1  0  0  0  0
 14  8  1  0  0  0  0
 15 11  1  0  0  0  0
 16 14  1  0  0  0  0
 17 14  1  0  0  0  0
M  END
>  <idnumber>
T6201564

>  <LogP>
2.829000000000000e+000

>  <rotating_bonds>
2.000000000000000e+000

>  <hb_acceptors>
1.000000000000000e+000

>  <hb_donors>
2.000000000000000e+000

>  <PSA>
4.489000000000002e+001

>  <population>
15713

>  <cansmi>
CC(NC(=O)c1cccc2c1[nH]c(c2C)C)C

>  <HBA2>
2

>  <HBD>
2

>  <logP>
3.3138

>  <TPSA>
44.89

>  <MW>
230.306

$$$$

 OpenBabel02121609142D

 15 16  0  0  0  0  0  0  0  0999 V2000
   -0.2375   -0.0667    0.0000 C   0  0  0  0  0  0  0  0  0  0  0  0
    0.1167   -1.7625    0.0000 N   0  0  0  0  0  0  0  0  0  0  0  0
   -0.5500   -1.0167    0.0000 C   0  0  3  0  0  0  0  0  0  0  0  0
    0.7792   -3.2417    0.0000 N   0  0  0  0  0  0  0  0  0  0  0  0
    1.1167   -1.6542    0.0000 N   0  0  0  0  0  0  0  0  0  0  0  0
   -0.9083    0.6750    0.0000 N   0  0  0  0  0  0  0  0  0  0  0  0
   -0.0875   -2.7417    0.0000 C   0  0  0  0  0  0  0  0  0  0  0  0
    1.5167   -2.5667    0.0000 C   0  0  0  0  0  0  0  0  0  0  0  0
    0.7375    0.1458    0.0000 O   0  0  0  0  0  0  0  0  0  0  0  0
   -0.6000    1.6250    0.0000 C   0  0  0  0  0  0  0  0  0  0  0  0
   -1.5250   -1.2250    0.0000 C   0  0  0  0  0  0  0  0  0  0  0  0
   -1.1875    2.4333    0.0000 C   0  0  0  0  0  0  0  0  0  0  0  0
    0.3500    1.9333    0.0000 C   0  0  0  0  0  0  0  0  0  0  0  0
    0.3500    2.9333    0.0000 C   0  0  0  0  0  0  0  0  0  0  0  0
   -0.6000    3.2458    0.0000 C   0  0  0  0  0  0  0  0  0  0  0  0
  2  3  1  0  0  0  0
  3  1  1  0  0  0  0
  4  7  2  0  0  0  0
  4  8  1  0  0  0  0
  5  2  1  0  0  0  0
  6  1  1  0  0  0  0
  7  2  1  0  0  0  0
  8  5  2  0  0  0  0
  9  1  2  0  0  0  0
 10  6  1  0  0  0  0
 11  3  1  0  0  0  0
 12 10  1  0  0  0  0
 13 10  1  0  0  0  0
 14 13  1  0  0  0  0
 14 15  1  0  0  0  0
 15 12  1  0  0  0  0
M  END
>  <idnumber>
T6204198

>  <LogP>
6.310000000000000e-001

>  <rotating_bonds>
3.000000000000000e+000

>  <hb_acceptors>
3.000000000000000e+000

>  <hb_donors>
1.000000000000000e+000

>  <PSA>
5.981000000000002e+001

>  <population>
1619

>  <cansmi>
CC(n1ncnc1)C(=O)NC1CCCC1

>  <HBA2>
5

>  <HBD>
1

>  <logP>
1.2888

>  <TPSA>
59.81

>  <MW>
208.26

$$$$

 OpenBabel02121609142D

 13 14  0  0  0  0  0  0  0  0999 V2000
   -0.9833   -0.1917    0.0000 N   0  0  0  0  0  0  0  0  0  0  0  0
   -1.7333   -0.5292    0.0000 N   0  0  0  0  0  0  0  0  0  0  0  0
    0.4500   -0.1917    0.0000 C   0  0  0  0  0  0  0  0  0  0  0  0
   -0.2625   -0.6042    0.0000 C   0  0  0  0  0  0  0  0  0  0  0  0
   -1.8708    0.7958    0.0000 C   0  0  0  0  0  0  0  0  0  0  0  0
   -1.0625    0.6250    0.0000 C   0  0  0  0  0  0  0  0  0  0  0  0
    1.1667   -0.6042    0.0000 C   0  0  0  0  0  0  0  0  0  0  0  0
   -2.2833    0.0833    0.0000 C   0  0  0  0  0  0  0  0  0  0  0  0
    1.1667   -1.4292    0.0000 N   0  0  0  0  0  0  0  0  0  0  0  0
    0.4500    0.6333    0.0000 C   0  0  0  0  0  0  0  0  0  0  0  0
    1.8792   -0.1917    0.0000 C   0  0  0  0  0  0  0  0  0  0  0  0
    1.1667    1.0458    0.0000 C   0  0  0  0  0  0  0  0  0  0  0  0
    1.8792    0.6333    0.0000 C   0  0  0  0  0  0  0  0  0  0  0  0
  2  1  1  0  0  0  0
  3  4  1  0  0  0  0
  4  1  1  0  0  0  0
  5  6  2  0  0  0  0
  5  8  1  0  0  0  0
  6  1  1  0  0  0  0
  7  3  2  0  0  0  0
  8  2  2  0  0  0  0
  9  7  1  0  0  0  0
 10  3  1  0  0  0  0
 11  7  1  0  0  0  0
 11 13  2  0  0  0  0
 12 10  2  0  0  0  0
 13 12  1  0  0  0  0
M  END
>  <idnumber>
T6205283

>  <LogP>
7.480000000000000e-001

>  <rotating_bonds>
2.000000000000000e+000

>  <hb_acceptors>
2.000000000000000e+000

>  <hb_donors>
1.000000000000000e+000

>  <PSA>
4.384000000000000e+001

>  <clusterid>
-145

>  <is_centroid>
@

>  <class1>
631

>  <class2>
625

>  <population1>
41612

>  <population2>
877209

>  <population>
39300

>  <cansmi>
Nc1ccccc1Cn1cccn1

>  <HBA2>
3

>  <HBD>
1

>  <logP>
2.0948

>  <TPSA>
43.84

>  <MW>
173.214

$$$$

 OpenBabel02121609142D

 15 16  0  0  0  0  0  0  0  0999 V2000
    1.2917    0.0000    0.0000 C   0  0  0  0  0  0  0  0  0  0  0  0
    0.4292    1.5000    0.0000 N   0  0  0  0  0  0  0  0  0  0  0  0
    1.2917    1.0000    0.0000 C   0  0  0  0  0  0  0  0  0  0  0  0
    0.4292   -0.5000    0.0000 C   0  0  0  0  0  0  0  0  0  0  0  0
    2.1625   -0.5000    0.0000 C   0  0  0  0  0  0  0  0  0  0  0  0
   -0.4333    1.0000    0.0000 C   0  0  0  0  0  0  0  0  0  0  0  0
   -0.4333    0.0000    0.0000 C   0  0  0  0  0  0  0  0  0  0  0  0
   -1.3000    1.5000    0.0000 C   0  0  0  0  0  0  0  0  0  0  0  0
    3.0292    0.0000    0.0000 O   0  0  0  0  0  0  0  0  0  0  0  0
   -1.3000   -0.5000    0.0000 C   0  0  0  0  0  0  0  0  0  0  0  0
   -2.1708    1.0000    0.0000 C   0  0  0  0  0  0  0  0  0  0  0  0
    2.1625   -1.5000    0.0000 N   0  0  0  0  0  0  0  0  0  0  0  0
   -2.1708    0.0000    0.0000 C   0  0  0  0  0  0  0  0  0  0  0  0
   -3.0333    1.5000    0.0000 F   0  0  0  0  0  0  0  0  0  0  0  0
    2.1625    1.5000    0.0000 C   0  0  0  0  0  0  0  0  0  0  0  0
  2  3  1  0  0  0  0
  2  6  2  0  0  0  0
  3  1  2  0  0  0  0
  4  1  1  0  0  0  0
  5  1  1  0  0  0  0
  6  7  1  0  0  0  0
  7  4  2  0  0  0  0
  8  6  1  0  0  0  0
  9  5  2  0  0  0  0
 10  7  1  0  0  0  0
 11 13  1  0  0  0  0
 11  8  2  0  0  0  0
 12  5  1  0  0  0  0
 13 10  2  0  0  0  0
 14 11  1  0  0  0  0
 15  3  1  0  0  0  0
M  END
>  <idnumber>
T6211132

>  <LogP>
1.531000000000000e+000

>  <rotating_bonds>
1.000000000000000e+000

>  <hb_acceptors>
3.000000000000000e+000

>  <hb_donors>
1.000000000000000e+000

>  <PSA>
5.598000000000000e+001

>  <population>
20351

>  <cansmi>
Fc1ccc2c(c1)nc(c(c2)C(=O)N)C

>  <HBA2>
3

>  <HBD>
1

>  <logP>
2.4815

>  <TPSA>
55.98

>  <MW>
204.2

$$$$

 OpenBabel02121609142D

 16 17  0  0  0  0  0  0  0  0999 V2000
   -0.6125    1.0208    0.0000 N   0  0  0  0  0  0  0  0  0  0  0  0
   -0.6125    2.0208    0.0000 C   0  0  0  0  0  0  0  0  0  0  0  0
   -0.6125   -1.9792    0.0000 C   0  0  0  0  0  0  0  0  0  0  0  0
   -0.6125   -0.9792    0.0000 C   0  0  0  0  0  0  0  0  0  0  0  0
   -1.4833    0.5208    0.0000 C   0  0  0  0  0  0  0  0  0  0  0  0
    0.2500    0.5208    0.0000 C   0  0  0  0  0  0  0  0  0  0  0  0
   -1.4833    2.5208    0.0000 O   0  0  0  0  0  0  0  0  0  0  0  0
   -1.4833   -2.4792    0.0000 O   0  0  0  0  0  0  0  0  0  0  0  0
    0.2500    2.5208    0.0000 C   0  0  0  0  0  0  0  0  0  0  0  0
   -1.4833   -0.4792    0.0000 C   0  0  0  0  0  0  0  0  0  0  0  0
    0.2500   -0.4792    0.0000 C   0  0  0  0  0  0  0  0  0  0  0  0
    0.2500   -2.4792    0.0000 N   0  0  0  0  0  0  0  0  0  0  0  0
    1.4750    3.2333    0.0000 C   0  0  0  0  0  0  0  0  0  0  0  0
    1.2167    2.2583    0.0000 C   0  0  0  0  0  0  0  0  0  0  0  0
    0.5125    3.4833    0.0000 C   0  0  0  0  0  0  0  0  0  0  0  0
    0.2500   -3.4792    0.0000 C   0  0  0  0  0  0  0  0  0  0  0  0
  2  1  1  0  0  0  0
  3  4  1  0  0  0  0
  4 11  1  0  0  0  0
  5  1  1  0  0  0  0
  6  1  1  0  0  0  0
  7  2  2  0  0  0  0
  8  3  2  0  0  0  0
  9  2  1  0  0  0  0
 10  5  1  0  0  0  0
 10  4  1  0  0  0  0
 11  6  1  0  0  0  0
 12  3  1  0  0  0  0
 13 15  1  0  0  0  0
 14  9  1  0  0  0  0
 14 13  1  0  0  0  0
 15  9  1  0  0  0  0
 16 12  1  0  0  0  0
M  END
>  <idnumber>
T6211997

>  <LogP>
-1.507000000000000e+000

>  <rotating_bonds>
2.000000000000000e+000

>  <hb_acceptors>
2.000000000000000e+000

>  <hb_donors>
1.000000000000000e+000

>  <PSA>
4.941000000000002e+001

>  <population>
97

>  <cansmi>
CNC(=O)C1CCN(CC1)C(=O)C1CCC1

>  <HBA2>
4

>  <HBD>
1

>  <logP>
1.0999

>  <TPSA>
49.41

>  <MW>
224.299

$$$$

 OpenBabel02121609142D

 17 18  0  0  0  0  0  0  0  0999 V2000
    0.0000    0.2958    0.0000 C   0  0  0  0  0  0  0  0  0  0  0  0
    0.0000    1.1208    0.0000 C   0  0  0  0  0  0  0  0  0  0  0  0
    0.0000   -3.0042    0.0000 C   0  0  0  0  0  0  0  0  0  0  0  0
    0.0000   -2.1792    0.0000 C   0  0  0  0  0  0  0  0  0  0  0  0
    0.7125   -3.4167    0.0000 O   0  0  0  0  0  0  0  0  0  0  0  0
    0.0000   -0.5292    0.0000 C   0  0  0  0  0  0  0  0  0  0  0  0
    0.7125   -1.7667    0.0000 C   0  0  0  0  0  0  0  0  0  0  0  0
   -0.7208   -1.7667    0.0000 C   0  0  0  0  0  0  0  0  0  0  0  0
   -0.7208   -3.4167    0.0000 N   0  0  0  0  0  0  0  0  0  0  0  0
    0.0000    1.9458    0.0000 C   0  0  0  0  0  0  0  0  0  0  0  0
   -0.7208   -0.9417    0.0000 C   0  0  0  0  0  0  0  0  0  0  0  0
    0.7125   -0.9417    0.0000 C   0  0  0  0  0  0  0  0  0  0  0  0
    0.7125    2.3583    0.0000 C   0  0  0  0  0  0  0  0  0  0  0  0
   -0.7208    2.3583    0.0000 C   0  0  0  0  0  0  0  0  0  0  0  0
   -0.7208    3.1833    0.0000 C   0  0  0  0  0  0  0  0  0  0  0  0
    0.7125    3.1833    0.0000 C   0  0  0  0  0  0  0  0  0  0  0  0
    0.0000    3.5958    0.0000 C   0  0  0  0  0  0  0  0  0  0  0  0
  2  1  3  0  0  0  0
  3  4  1  0  0  0  0
  4  7  1  0  0  0  0
  5  3  2  0  0  0  0
  6  1  1  0  0  0  0
  7 12  2  0  0  0  0
  8 11  1  0  0  0  0
  8  4  2  0  0  0  0
  9  3  1  0  0  0  0
 10  2  1  0  0  0  0
 11  6  2  0  0  0  0
 12  6  1  0  0  0  0
 13 10  1  0  0  0  0
 14 10  2  0  0  0  0
 15 14  1  0  0  0  0
 16 13  2  0  0  0  0
 16 17  1  0  0  0  0
 17 15  2  0  0  0  0
M  END
>  <idnumber>
T6218247

>  <LogP>
2.493000000000000e+000

>  <rotating_bonds>
3.000000000000000e+000

>  <hb_acceptors>
1.000000000000000e+000

>  <hb_donors>
1.000000000000000e+000

>  <PSA>
4.309000000000000e+001

>  <clusterid>
13

>  <is_centroid>
@

>  <class1>
625

>  <population1>
877209

>  <population>
651286

>  <cansmi>
NC(=O)c1ccc(cc1)C#Cc1ccccc1

>  <HBA2>
2

>  <HBD>
1

>  <logP>
2.8856

>  <TPSA>
43.09

>  <MW>
221.254

$$$$

 OpenBabel02121609142D

 20 22  0  0  0  0  0  0  0  0999 V2000
    0.7042    0.7708    0.0000 C   0  0  0  0  0  0  0  0  0  0  0  0
    0.2750   -0.1167    0.0000 N   0  0  0  0  0  0  0  0  0  0  0  0
    0.0667    2.4125    0.0000 C   0  0  3  0  0  0  0  0  0  0  0  0
   -0.0208    1.4375    0.0000 C   0  0  0  0  0  0  0  0  0  0  0  0
   -0.6958   -2.9417    0.0000 C   0  0  0  0  0  0  0  0  0  0  0  0
   -0.7375    3.1333    0.0000 C   0  0  3  0  0  0  0  0  0  0  0  0
   -0.3333   -2.0125    0.0000 C   0  0  3  0  0  0  0  0  0  0  0  0
    0.9417   -0.8542    0.0000 C   0  0  0  0  0  0  0  0  0  0  0  0
   -0.6958   -0.3292    0.0000 C   0  0  0  0  0  0  0  0  0  0  0  0
    0.8875    2.9458    0.0000 C   0  0  0  0  0  0  0  0  0  0  0  0
    1.6542    1.0625    0.0000 O   0  0  0  0  0  0  0  0  0  0  0  0
   -0.5458    3.8583    0.0000 C   0  0  0  0  0  0  0  0  0  0  0  0
   -1.6583   -3.1667    0.0000 O   0  0  0  0  0  0  0  0  0  0  0  0
    0.6042    3.8625    0.0000 C   0  0  3  0  0  0  0  0  0  0  0  0
    0.6375   -1.8042    0.0000 C   0  0  0  0  0  0  0  0  0  0  0  0
   -1.0000   -1.2750    0.0000 C   0  0  0  0  0  0  0  0  0  0  0  0
   -0.7458    4.3292    0.0000 C   0  0  0  0  0  0  0  0  0  0  0  0
   -0.1083   -3.7417    0.0000 N   0  0  0  0  0  0  0  0  0  0  0  0
    0.2542    4.7167    0.0000 C   0  0  0  0  0  0  0  0  0  0  0  0
   -0.3000   -4.7167    0.0000 C   0  0  0  0  0  0  0  0  0  0  0  0
  2  1  1  0  0  0  0
  3  4  1  0  0  0  0
  4  1  1  0  0  0  0
  5  7  1  0  0  0  0
  6  3  1  0  0  0  0
  7 16  1  0  0  0  0
  7 15  1  0  0  0  0
  8  2  1  0  0  0  0
  9  2  1  0  0  0  0
 10  3  1  0  0  0  0
 11  1  2  0  0  0  0
 12  6  1  0  0  0  0
 13  5  2  0  0  0  0
 14 10  1  0  0  0  0
 14 12  1  0  0  0  0
 15  8  1  0  0  0  0
 16  9  1  0  0  0  0
 17  6  1  0  0  0  0
 17 19  1  0  0  0  0
 18  5  1  0  0  0  0
 19 14  1  0  0  0  0
 20 18  1  0  0  0  0
M  END
>  <idnumber>
T6218719

>  <LogP>
-1.500000000000000e-002

>  <rotating_bonds>
3.000000000000000e+000

>  <hb_acceptors>
2.000000000000000e+000

>  <hb_donors>
1.000000000000000e+000

>  <PSA>
4.941000000000002e+001

>  <population>
73

>  <cansmi>
CNC(=O)C1CCN(CC1)C(=O)CC1CC2CC1CC2

>  <HBA2>
4

>  <HBD>
1

>  <logP>
2.1261

>  <TPSA>
49.41

>  <MW>
278.39

$$$$

 OpenBabel02121609142D

 18 19  0  0  0  0  0  0  0  0999 V2000
   -0.7583    1.4875    0.0000 C   0  0  0  0  0  0  0  0  0  0  0  0
   -1.0708    0.5375    0.0000 C   0  0  0  0  0  0  0  0  0  0  0  0
   -1.3458    2.2958    0.0000 C   0  0  0  0  0  0  0  0  0  0  0  0
    0.1917    1.7958    0.0000 C   0  0  0  0  0  0  0  0  0  0  0  0
   -0.7583    3.1083    0.0000 O   0  0  0  0  0  0  0  0  0  0  0  0
   -0.4000   -0.2042    0.0000 N   0  0  0  0  0  0  0  0  0  0  0  0
    0.1917    2.7958    0.0000 C   0  0  0  0  0  0  0  0  0  0  0  0
   -0.0375   -1.9000    0.0000 C   0  0  0  0  0  0  0  0  0  0  0  0
    0.9542   -1.7917    0.0000 O   0  0  0  0  0  0  0  0  0  0  0  0
    1.3625   -2.7125    0.0000 C   0  0  0  0  0  0  0  0  0  0  0  0
   -0.2458   -2.8792    0.0000 C   0  0  0  0  0  0  0  0  0  0  0  0
   -0.7083   -1.1542    0.0000 C   0  0  0  0  0  0  0  0  0  0  0  0
    0.6167   -3.3792    0.0000 C   0  0  0  0  0  0  0  0  0  0  0  0
   -2.0458    0.3333    0.0000 O   0  0  0  0  0  0  0  0  0  0  0  0
   -2.3458    2.2958    0.0000 C   0  0  0  0  0  0  0  0  0  0  0  0
    0.5792    0.0000    0.0000 C   0  0  0  0  0  0  0  0  0  0  0  0
    1.0000    3.3833    0.0000 C   0  0  0  0  0  0  0  0  0  0  0  0
    2.3417   -2.9167    0.0000 C   0  0  0  0  0  0  0  0  0  0  0  0
  2  1  1  0  0  0  0
  3  1  2  0  0  0  0
  4  1  1  0  0  0  0
  5  3  1  0  0  0  0
  5  7  1  0  0  0  0
  6  2  1  0  0  0  0
  7  4  2  0  0  0  0
  8 12  1  0  0  0  0
  9  8  1  0  0  0  0
 10  9  1  0  0  0  0
 10 13  2  0  0  0  0
 11  8  2  0  0  0  0
 12  6  1  0  0  0  0
 13 11  1  0  0  0  0
 14  2  2  0  0  0  0
 15  3  1  0  0  0  0
 16  6  1  0  0  0  0
 17  7  1  0  0  0  0
 18 10  1  0  0  0  0
M  END
>  <idnumber>
T6219132

>  <LogP>
2.644000000000000e+000

>  <rotating_bonds>
3.000000000000000e+000

>  <hb_acceptors>
1.000000000000000e+000

>  <hb_donors>
0.000000000000000e+000

>  <PSA>
4.659000000000000e+001

>  <population>
51112

>  <cansmi>
Cc1ccc(o1)CN(C(=O)c1cc(oc1C)C)C

>  <HBA2>
4

>  <HBD>
0

>  <logP>
3.07

>  <TPSA>
46.59

>  <MW>
247.29

$$$$

 OpenBabel02121609142D

 21 23  0  0  0  0  0  0  0  0999 V2000
   -1.3625    2.6583    0.0000 N   0  0  0  0  0  0  0  0  0  0  0  0
   -1.3625    1.0333    0.0000 N   0  0  0  0  0  0  0  0  0  0  0  0
   -0.7750    1.8458    0.0000 C   0  0  0  0  0  0  0  0  0  0  0  0
    0.2292   -1.0750    0.0000 C   0  0  0  0  0  0  0  0  0  0  0  0
    1.2125   -1.2792    0.0000 N   0  0  0  0  0  0  0  0  0  0  0  0
   -0.0750   -0.1250    0.0000 C   0  0  0  0  0  0  0  0  0  0  0  0
   -2.3125    1.3458    0.0000 C   0  0  0  0  0  0  0  0  0  0  0  0
   -2.3125    2.3458    0.0000 C   0  0  0  0  0  0  0  0  0  0  0  0
    3.2500   -2.2292    0.0000 N   0  0  0  0  0  0  0  0  0  0  0  0
   -1.0583    0.0833    0.0000 C   0  0  0  0  0  0  0  0  0  0  0  0
    1.4500   -2.2542    0.0000 C   0  0  0  0  0  0  0  0  0  0  0  0
   -0.4375   -1.8167    0.0000 O   0  0  0  0  0  0  0  0  0  0  0  0
    2.3542   -2.6750    0.0000 C   0  0  0  0  0  0  0  0  0  0  0  0
    2.8250   -0.4792    0.0000 C   0  0  0  0  0  0  0  0  0  0  0  0
    1.8250   -0.4917    0.0000 C   0  0  0  0  0  0  0  0  0  0  0  0
    3.4542   -1.2500    0.0000 C   0  0  0  0  0  0  0  0  0  0  0  0
    4.0417   -2.8375    0.0000 C   0  0  0  0  0  0  0  0  0  0  0  0
   -3.1833    0.8458    0.0000 C   0  0  0  0  0  0  0  0  0  0  0  0
   -3.1833    2.8458    0.0000 C   0  0  0  0  0  0  0  0  0  0  0  0
   -4.0458    1.3458    0.0000 C   0  0  0  0  0  0  0  0  0  0  0  0
   -4.0458    2.3458    0.0000 C   0  0  0  0  0  0  0  0  0  0  0  0
  2  3  1  0  0  0  0
  2  7  1  0  0  0  0
  3  1  2  0  0  0  0
  4  6  1  0  0  0  0
  5  4  1  0  0  0  0
  6 10  1  0  0  0  0
  7  8  2  0  0  0  0
  8  1  1  0  0  0  0
  9 13  1  0  0  0  0
  9 16  1  0  0  0  0
 10  2  1  0  0  0  0
 11  5  1  0  0  0  0
 12  4  2  0  0  0  0
 13 11  1  0  0  0  0
 14 15  1  0  0  0  0
 15  5  1  0  0  0  0
 16 14  1  0  0  0  0
 17  9  1  0  0  0  0
 18  7  1  0  0  0  0
 18 20  2  0  0  0  0
 19  8  1  0  0  0  0
 20 21  1  0  0  0  0
 21 19  2  0  0  0  0
M  END
>  <idnumber>
T6219286

>  <LogP>
1.403000000000000e+000

>  <rotating_bonds>
3.000000000000000e+000

>  <hb_acceptors>
3.000000000000000e+000

>  <hb_donors>
0.000000000000000e+000

>  <PSA>
4.137000000000000e+001

>  <population>
19

>  <cansmi>
CN1CCCN(CC1)C(=O)CCn1cnc2c1cccc2

>  <HBA2>
5

>  <HBD>
0

>  <logP>
1.4663

>  <TPSA>
41.37

>  <MW>
286.372

$$$$

 OpenBabel02121609142D

 18 19  0  0  0  0  0  0  0  0999 V2000
    1.2917    0.5000    0.0000 N   0  0  0  0  0  0  0  0  0  0  0  0
    1.2917    1.5000    0.0000 N   0  0  0  0  0  0  0  0  0  0  0  0
    0.4292    0.0000    0.0000 C   0  0  0  0  0  0  0  0  0  0  0  0
    0.4292    2.0000    0.0000 C   0  0  0  0  0  0  0  0  0  0  0  0
    0.4292   -1.0000    0.0000 C   0  0  0  0  0  0  0  0  0  0  0  0
   -0.4333    1.5000    0.0000 C   0  0  0  0  0  0  0  0  0  0  0  0
    1.2917   -1.5000    0.0000 C   0  0  0  0  0  0  0  0  0  0  0  0
   -0.4333    0.5000    0.0000 C   0  0  0  0  0  0  0  0  0  0  0  0
    1.2917   -2.5000    0.0000 N   0  0  0  0  0  0  0  0  0  0  0  0
    0.4292    3.0000    0.0000 O   0  0  0  0  0  0  0  0  0  0  0  0
    2.1625   -1.0000    0.0000 O   0  0  0  0  0  0  0  0  0  0  0  0
    2.1625    2.0000    0.0000 C   0  0  0  0  0  0  0  0  0  0  0  0
   -1.3000    2.0000    0.0000 C   0  0  0  0  0  0  0  0  0  0  0  0
   -1.3000    0.0000    0.0000 C   0  0  0  0  0  0  0  0  0  0  0  0
    2.1625   -3.0000    0.0000 C   0  0  0  0  0  0  0  0  0  0  0  0
    0.4292   -3.0000    0.0000 C   0  0  0  0  0  0  0  0  0  0  0  0
   -2.1708    1.5000    0.0000 C   0  0  0  0  0  0  0  0  0  0  0  0
   -2.1708    0.5000    0.0000 C   0  0  0  0  0  0  0  0  0  0  0  0
  2  1  1  0  0  0  0
  3  1  2  0  0  0  0
  4  2  1  0  0  0  0
  4  6  1  0  0  0  0
  5  3  1  0  0  0  0
  6  8  2  0  0  0  0
  7  5  1  0  0  0  0
  8  3  1  0  0  0  0
  9  7  1  0  0  0  0
 10  4  2  0  0  0  0
 11  7  2  0  0  0  0
 12  2  1  0  0  0  0
 13  6  1  0  0  0  0
 14  8  1  0  0  0  0
 15  9  1  0  0  0  0
 16  9  1  0  0  0  0
 17 18  1  0  0  0  0
 17 13  2  0  0  0  0
 18 14  2  0  0  0  0
M  END
>  <idnumber>
T6221498

>  <LogP>
-5.650000000000001e-001

>  <rotating_bonds>
2.000000000000000e+000

>  <hb_acceptors>
3.000000000000000e+000

>  <hb_donors>
0.000000000000000e+000

>  <PSA>
5.298000000000000e+001

>  <population>
7197

>  <cansmi>
O=C(N(C)C)Cc1nn(C)c(=O)c2c1cccc2

>  <HBA2>
5

>  <HBD>
0

>  <logP>
0.5642

>  <TPSA>
55.2

>  <MW>
245.277

$$$$

 OpenBabel02121609142D

 18 19  0  0  0  0  0  0  0  0999 V2000
    0.0000    0.7583    0.0000 C   0  0  0  0  0  0  0  0  0  0  0  0
   -0.8708    1.2500    0.0000 N   0  0  0  0  0  0  0  0  0  0  0  0
    0.0000   -0.2417    0.0000 C   0  0  0  0  0  0  0  0  0  0  0  0
   -0.8708    2.2500    0.0000 N   0  0  0  0  0  0  0  0  0  0  0  0
    0.0000    2.7500    0.0000 C   0  0  0  0  0  0  0  0  0  0  0  0
    0.8625   -0.7500    0.0000 N   0  0  0  0  0  0  0  0  0  0  0  0
    0.8625    1.2500    0.0000 C   0  0  0  0  0  0  0  0  0  0  0  0
    0.8625    2.2500    0.0000 C   0  0  0  0  0  0  0  0  0  0  0  0
   -0.8708   -0.7500    0.0000 O   0  0  0  0  0  0  0  0  0  0  0  0
    0.0000    3.7500    0.0000 O   0  0  0  0  0  0  0  0  0  0  0  0
    0.8625   -1.7500    0.0000 C   0  0  0  0  0  0  0  0  0  0  0  0
   -1.7333    2.7500    0.0000 C   0  0  0  0  0  0  0  0  0  0  0  0
    1.7292   -0.2417    0.0000 C   0  0  0  0  0  0  0  0  0  0  0  0
    0.0000   -2.2500    0.0000 C   0  0  0  0  0  0  0  0  0  0  0  0
    1.7292   -2.2500    0.0000 C   0  0  0  0  0  0  0  0  0  0  0  0
    1.7292   -3.2500    0.0000 C   0  0  0  0  0  0  0  0  0  0  0  0
    0.0000   -3.2500    0.0000 C   0  0  0  0  0  0  0  0  0  0  0  0
    0.8625   -3.7500    0.0000 C   0  0  0  0  0  0  0  0  0  0  0  0
  2  1  2  0  0  0  0
  3  1  1  0  0  0  0
  4  2  1  0  0  0  0
  5  8  1  0  0  0  0
  5  4  1  0  0  0  0
  6  3  1  0  0  0  0
  7  1  1  0  0  0  0
  8  7  2  0  0  0  0
  9  3  2  0  0  0  0
 10  5  2  0  0  0  0
 11  6  1  0  0  0  0
 12  4  1  0  0  0  0
 13  6  1  0  0  0  0
 14 11  1  0  0  0  0
 15 11  1  0  0  0  0
 16 15  1  0  0  0  0
 17 14  1  0  0  0  0
 18 16  1  0  0  0  0
 18 17  1  0  0  0  0
M  END
>  <idnumber>
T6222592

>  <LogP>
-2.000000000000000e-002

>  <rotating_bonds>
2.000000000000000e+000

>  <hb_acceptors>
3.000000000000000e+000

>  <hb_donors>
0.000000000000000e+000

>  <PSA>
5.298000000000000e+001

>  <population>
110

>  <cansmi>
CN(C(=O)c1ccc(=O)n(n1)C)C1CCCCC1

>  <HBA2>
5

>  <HBD>
0

>  <logP>
1.185

>  <TPSA>
55.2

>  <MW>
249.309

$$$$

 OpenBabel02121609142D

 21 24  0  0  0  0  0  0  0  0999 V2000
   -0.0958   -0.2167    0.0000 N   0  0  0  0  0  0  0  0  0  0  0  0
   -0.8083   -0.6292    0.0000 C   0  0  0  0  0  0  0  0  0  0  0  0
   -0.0958    0.6083    0.0000 C   0  0  0  0  0  0  0  0  0  0  0  0
   -0.8083    1.0208    0.0000 N   0  0  0  0  0  0  0  0  0  0  0  0
   -1.5250   -0.2167    0.0000 C   0  0  0  0  0  0  0  0  0  0  0  0
   -1.5250    0.6083    0.0000 C   0  0  0  0  0  0  0  0  0  0  0  0
    0.6167   -0.6292    0.0000 C   0  0  0  0  0  0  0  0  0  0  0  0
    1.0292   -1.3417    0.0000 C   0  0  0  0  0  0  0  0  0  0  0  0
    1.4417   -0.6292    0.0000 C   0  0  0  0  0  0  0  0  0  0  0  0
   -0.8083   -1.4542    0.0000 O   0  0  0  0  0  0  0  0  0  0  0  0
    0.6167    1.0208    0.0000 C   0  0  0  0  0  0  0  0  0  0  0  0
   -2.2375   -0.6292    0.0000 C   0  0  0  0  0  0  0  0  0  0  0  0
    1.3292    0.6083    0.0000 C   0  0  0  0  0  0  0  0  0  0  0  0
   -2.2375    1.0208    0.0000 C   0  0  0  0  0  0  0  0  0  0  0  0
    2.0500    1.0208    0.0000 C   0  0  0  0  0  0  0  0  0  0  0  0
    1.3292   -0.2167    0.0000 C   0  0  0  0  0  0  0  0  0  0  0  0
   -2.9583   -0.2167    0.0000 C   0  0  0  0  0  0  0  0  0  0  0  0
   -2.9583    0.6083    0.0000 C   0  0  0  0  0  0  0  0  0  0  0  0
    2.0500   -0.6292    0.0000 C   0  0  0  0  0  0  0  0  0  0  0  0
    2.7625    0.6083    0.0000 C   0  0  0  0  0  0  0  0  0  0  0  0
    2.7625   -0.2167    0.0000 C   0  0  0  0  0  0  0  0  0  0  0  0
  2  1  1  0  0  0  0
  3  1  1  0  0  0  0
  4  3  2  0  0  0  0
  5  2  1  0  0  0  0
  6  4  1  0  0  0  0
  6  5  2  0  0  0  0
  7  1  1  0  0  0  0
  8  7  1  0  0  0  0
  8  9  1  0  0  0  0
  9  7  1  0  0  0  0
 10  2  2  0  0  0  0
 11  3  1  0  0  0  0
 12  5  1  0  0  0  0
 13 11  1  0  0  0  0
 14  6  1  0  0  0  0
 15 13  2  0  0  0  0
 16 13  1  0  0  0  0
 17 12  2  0  0  0  0
 18 14  2  0  0  0  0
 18 17  1  0  0  0  0
 19 16  2  0  0  0  0
 20 15  1  0  0  0  0
 20 21  2  0  0  0  0
 21 19  1  0  0  0  0
M  END
>  <idnumber>
T6222783

>  <LogP>
2.942000000000000e+000

>  <rotating_bonds>
3.000000000000000e+000

>  <hb_acceptors>
2.000000000000000e+000

>  <hb_donors>
0.000000000000000e+000

>  <PSA>
3.267000000000000e+001

>  <population>
209

>  <cansmi>
O=c1n(C2CC2)c(Cc2ccccc2)nc2c1cccc2

>  <HBA2>
3

>  <HBD>
0

>  <logP>
3.3222

>  <TPSA>
34.89

>  <MW>
276.332

$$$$

 OpenBabel02121609142D

 22 24  0  0  0  0  0  0  0  0999 V2000
   -1.7333   -0.5000    0.0000 C   0  0  0  0  0  0  0  0  0  0  0  0
    0.0000   -0.4917    0.0000 N   0  0  0  0  0  0  0  0  0  0  0  0
   -0.8708   -1.0000    0.0000 C   0  0  0  0  0  0  0  0  0  0  0  0
   -1.7333    0.5083    0.0000 N   0  0  0  0  0  0  0  0  0  0  0  0
    0.8625   -0.9917    0.0000 C   0  0  0  0  0  0  0  0  0  0  0  0
    0.8625   -1.9917    0.0000 C   0  0  0  0  0  0  0  0  0  0  0  0
   -2.6000   -1.0000    0.0000 O   0  0  0  0  0  0  0  0  0  0  0  0
   -0.8708   -2.0000    0.0000 C   0  0  0  0  0  0  0  0  0  0  0  0
   -2.6000    1.0083    0.0000 C   0  0  0  0  0  0  0  0  0  0  0  0
    1.7292   -2.4917    0.0000 C   0  0  0  0  0  0  0  0  0  0  0  0
    0.0000   -2.5000    0.0000 C   0  0  0  0  0  0  0  0  0  0  0  0
    1.7292   -0.4917    0.0000 C   0  0  0  0  0  0  0  0  0  0  0  0
    2.5917   -2.0000    0.0000 C   0  0  0  0  0  0  0  0  0  0  0  0
    2.5917   -0.9917    0.0000 C   0  0  0  0  0  0  0  0  0  0  0  0
   -0.8708    1.0083    0.0000 C   0  0  0  0  0  0  0  0  0  0  0  0
    3.4625   -2.5000    0.0000 O   0  0  0  0  0  0  0  0  0  0  0  0
   -2.6000    2.0083    0.0000 C   0  0  0  0  0  0  0  0  0  0  0  0
   -3.4708    0.5083    0.0000 C   0  0  0  0  0  0  0  0  0  0  0  0
    4.3292   -2.0000    0.0000 C   0  0  0  0  0  0  0  0  0  0  0  0
   -4.3333    1.0083    0.0000 C   0  0  0  0  0  0  0  0  0  0  0  0
   -3.4708    2.5000    0.0000 C   0  0  0  0  0  0  0  0  0  0  0  0
   -4.3333    2.0083    0.0000 C   0  0  0  0  0  0  0  0  0  0  0  0
  2  3  2  0  0  0  0
  3  1  1  0  0  0  0
  4  1  1  0  0  0  0
  5  2  1  0  0  0  0
  6 11  1  0  0  0  0
  6  5  2  0  0  0  0
  7  1  2  0  0  0  0
  8  3  1  0  0  0  0
  9  4  1  0  0  0  0
 10  6  1  0  0  0  0
 11  8  2  0  0  0  0
 12  5  1  0  0  0  0
 13 10  2  0  0  0  0
 14 12  2  0  0  0  0
 14 13  1  0  0  0  0
 15  4  1  0  0  0  0
 16 13  1  0  0  0  0
 17  9  1  0  0  0  0
 18  9  2  0  0  0  0
 19 16  1  0  0  0  0
 20 18  1  0  0  0  0
 21 17  2  0  0  0  0
 22 20  2  0  0  0  0
 22 21  1  0  0  0  0
M  END
>  <idnumber>
T6223868

>  <LogP>
2.892000000000000e+000

>  <rotating_bonds>
3.000000000000000e+000

>  <hb_acceptors>
3.000000000000000e+000

>  <hb_donors>
0.000000000000000e+000

>  <PSA>
4.243000000000001e+001

>  <population>
20351

>  <cansmi>
COc1ccc2c(c1)ccc(n2)C(=O)N(c1ccccc1)C

>  <HBA2>
4

>  <HBD>
0

>  <logP>
3.52

>  <TPSA>
42.43

>  <MW>
292.332

$$$$

 OpenBabel02121609142D

 15 16  0  0  0  0  0  0  0  0999 V2000
   -0.8083   -0.1667    0.0000 C   0  0  0  0  0  0  0  0  0  0  0  0
    0.1417   -0.4792    0.0000 N   0  0  0  0  0  0  0  0  0  0  0  0
    0.1417   -1.4792    0.0000 N   0  0  0  0  0  0  0  0  0  0  0  0
   -1.3958   -0.9792    0.0000 O   0  0  0  0  0  0  0  0  0  0  0  0
   -0.8083   -1.7875    0.0000 C   0  0  0  0  0  0  0  0  0  0  0  0
   -0.4458    1.5250    0.0000 N   0  0  0  0  0  0  0  0  0  0  0  0
   -1.1208    0.7833    0.0000 C   0  0  0  0  0  0  0  0  0  0  0  0
   -1.1208   -2.7375    0.0000 C   0  0  0  0  0  0  0  0  0  0  0  0
   -0.8250    2.4583    0.0000 C   0  0  0  0  0  0  0  0  0  0  0  0
    0.5125    1.2458    0.0000 C   0  0  0  0  0  0  0  0  0  0  0  0
   -0.4458   -3.4792    0.0000 C   0  0  0  0  0  0  0  0  0  0  0  0
    1.3292    1.8208    0.0000 C   0  0  0  0  0  0  0  0  0  0  0  0
   -0.3375    3.3208    0.0000 C   0  0  0  0  0  0  0  0  0  0  0  0
    0.6417    3.4875    0.0000 C   0  0  0  0  0  0  0  0  0  0  0  0
    1.3917    2.8208    0.0000 C   0  0  0  0  0  0  0  0  0  0  0  0
  2  1  2  0  0  0  0
  3  2  1  0  0  0  0
  4  1  1  0  0  0  0
  5  4  1  0  0  0  0
  5  3  2  0  0  0  0
  6  7  1  0  0  0  0
  7  1  1  0  0  0  0
  8  5  1  0  0  0  0
  9  6  1  0  0  0  0
 10  6  1  0  0  0  0
 11  8  1  0  0  0  0
 12 10  1  0  0  0  0
 13  9  1  0  0  0  0
 14 13  1  0  0  0  0
 15 12  1  0  0  0  0
 15 14  1  0  0  0  0
M  END
>  <idnumber>
T6223882

>  <LogP>
8.280000000000001e-001

>  <rotating_bonds>
3.000000000000000e+000

>  <hb_acceptors>
3.000000000000000e+000

>  <hb_donors>
0.000000000000000e+000

>  <PSA>
4.216000000000000e+001

>  <population>
144

>  <cansmi>
CCc1nnc(o1)CN1CCCCCC1

>  <HBA2>
4

>  <HBD>
0

>  <logP>
1.9459

>  <TPSA>
42.16

>  <MW>
209.288

$$$$

 OpenBabel02121609142D

 18 20  0  0  0  0  0  0  0  0999 V2000
   -0.1250    0.4333    0.0000 N   0  0  0  0  0  0  0  0  0  0  0  0
   -0.1250    1.2583    0.0000 C   0  0  0  0  0  0  0  0  0  0  0  0
   -0.9125    1.5208    0.0000 N   0  0  0  0  0  0  0  0  0  0  0  0
   -0.9125    0.1833    0.0000 C   0  0  0  0  0  0  0  0  0  0  0  0
    0.5417    1.7458    0.0000 C   0  0  0  0  0  0  0  0  0  0  0  0
   -1.3958    0.8458    0.0000 O   0  0  0  0  0  0  0  0  0  0  0  0
   -0.6125   -1.2167    0.0000 N   0  0  0  0  0  0  0  0  0  0  0  0
    1.3250    2.8292    0.0000 S   0  0  0  0  0  0  0  0  0  0  0  0
    0.5417    2.5708    0.0000 C   0  0  0  0  0  0  0  0  0  0  0  0
    1.3250    1.4958    0.0000 C   0  0  0  0  0  0  0  0  0  0  0  0
   -1.1708   -0.6042    0.0000 C   0  0  0  0  0  0  0  0  0  0  0  0
    1.8125    2.1583    0.0000 C   0  0  0  0  0  0  0  0  0  0  0  0
   -0.8708   -2.0042    0.0000 C   0  0  0  0  0  0  0  0  0  0  0  0
    0.1917   -1.0417    0.0000 C   0  0  0  0  0  0  0  0  0  0  0  0
   -0.3208   -2.6167    0.0000 C   0  0  3  0  0  0  0  0  0  0  0  0
    0.7417   -1.6542    0.0000 C   0  0  0  0  0  0  0  0  0  0  0  0
    0.4917   -2.4417    0.0000 C   0  0  0  0  0  0  0  0  0  0  0  0
   -0.5708   -3.4000    0.0000 C   0  0  0  0  0  0  0  0  0  0  0  0
  2  1  1  0  0  0  0
  3  2  2  0  0  0  0
  3  6  1  0  0  0  0
  4  1  2  0  0  0  0
  5  2  1  0  0  0  0
  6  4  1  0  0  0  0
  7 11  1  0  0  0  0
  8  9  1  0  0  0  0
  9  5  2  0  0  0  0
 10  5  1  0  0  0  0
 11  4  1  0  0  0  0
 12 10  2  0  0  0  0
 12  8  1  0  0  0  0
 13  7  1  0  0  0  0
 14  7  1  0  0  0  0
 15 13  1  0  0  0  0
 15 17  1  0  0  0  0
 16 14  1  0  0  0  0
 17 16  1  0  0  0  0
 18 15  1  0  0  0  0
M  END
>  <idnumber>
T6225641

>  <LogP>
2.825000000000000e+000

>  <rotating_bonds>
3.000000000000000e+000

>  <hb_acceptors>
3.000000000000000e+000

>  <hb_donors>
0.000000000000000e+000

>  <PSA>
4.200000000000000e+001

>  <population>
55

>  <cansmi>
CC1CCCN(C1)Cc1onc(n1)c1cscc1

>  <HBA2>
5

>  <HBD>
0

>  <logP>
2.9679

>  <TPSA>
70.4

>  <MW>
263.359

$$$$

 OpenBabel02121609142D

 18 19  0  0  0  0  0  0  0  0999 V2000
    0.4542    0.3458    0.0000 N   0  0  0  0  0  0  0  0  0  0  0  0
    0.2292   -0.6292    0.0000 C   0  0  0  0  0  0  0  0  0  0  0  0
    1.4292    0.5625    0.0000 C   0  0  0  0  0  0  0  0  0  0  0  0
   -0.7208   -0.9292    0.0000 C   0  0  0  0  0  0  0  0  0  0  0  0
   -0.3250    0.9625    0.0000 C   0  0  0  0  0  0  0  0  0  0  0  0
   -0.9458   -1.9042    0.0000 N   0  0  0  0  0  0  0  0  0  0  0  0
   -0.3250    1.9625    0.0000 C   0  0  0  0  0  0  0  0  0  0  0  0
    1.8625    1.4625    0.0000 C   0  0  0  0  0  0  0  0  0  0  0  0
    0.4542    2.5875    0.0000 O   0  0  0  0  0  0  0  0  0  0  0  0
   -1.4583   -0.2500    0.0000 O   0  0  0  0  0  0  0  0  0  0  0  0
    2.0542   -0.2167    0.0000 O   0  0  0  0  0  0  0  0  0  0  0  0
    1.4292    2.3708    0.0000 C   0  0  0  0  0  0  0  0  0  0  0  0
   -1.1958    0.4625    0.0000 C   0  0  0  0  0  0  0  0  0  0  0  0
   -0.2125   -2.5792    0.0000 C   0  0  0  0  0  0  0  0  0  0  0  0
   -1.9083   -2.2000    0.0000 C   0  0  0  0  0  0  0  0  0  0  0  0
   -1.1958    2.4625    0.0000 C   0  0  0  0  0  0  0  0  0  0  0  0
   -2.0583    0.9625    0.0000 C   0  0  0  0  0  0  0  0  0  0  0  0
   -2.0583    1.9625    0.0000 C   0  0  0  0  0  0  0  0  0  0  0  0
  2  1  1  0  0  0  0
  3  1  1  0  0  0  0
  4  2  1  0  0  0  0
  5  1  1  0  0  0  0
  6  4  1  0  0  0  0
  7  5  2  0  0  0  0
  8  3  1  0  0  0  0
  9  7  1  0  0  0  0
 10  4  2  0  0  0  0
 11  3  2  0  0  0  0
 12  8  1  0  0  0  0
 12  9  1  0  0  0  0
 13  5  1  0  0  0  0
 14  6  1  0  0  0  0
 15  6  1  0  0  0  0
 16  7  1  0  0  0  0
 16 18  2  0  0  0  0
 17 13  2  0  0  0  0
 18 17  1  0  0  0  0
M  END
>  <idnumber>
T6226703

>  <LogP>
9.250000000000000e-001

>  <rotating_bonds>
2.000000000000000e+000

>  <hb_acceptors>
3.000000000000000e+000

>  <hb_donors>
0.000000000000000e+000

>  <PSA>
4.984999999999999e+001

>  <population>
271

>  <cansmi>
O=C(N(C)C)CN1C(=O)CCOc2c1cccc2

>  <HBA2>
5

>  <HBD>
0

>  <logP>
0.9553

>  <TPSA>
49.85

>  <MW>
248.278

$$$$

 OpenBabel02121609142D

 14 15  0  0  0  0  0  0  0  0999 V2000
    0.1000   -0.0542    0.0000 C   0  0  0  0  0  0  0  0  0  0  0  0
    0.8125    0.3583    0.0000 N   0  0  0  0  0  0  0  0  0  0  0  0
    0.1000   -0.8792    0.0000 N   0  0  0  0  0  0  0  0  0  0  0  0
   -0.6125    0.3583    0.0000 N   0  0  0  0  0  0  0  0  0  0  0  0
    0.8125   -1.2917    0.0000 C   0  0  0  0  0  0  0  0  0  0  0  0
    1.5292   -0.0542    0.0000 C   0  0  0  0  0  0  0  0  0  0  0  0
    1.5292   -0.8792    0.0000 C   0  0  0  0  0  0  0  0  0  0  0  0
   -0.6125    1.1833    0.0000 C   0  0  0  0  0  0  0  0  0  0  0  0
   -1.3333   -0.0542    0.0000 C   0  0  0  0  0  0  0  0  0  0  0  0
    0.8125   -2.1167    0.0000 C   0  0  0  0  0  0  0  0  0  0  0  0
    2.2417    0.3583    0.0000 C   0  0  0  0  0  0  0  0  0  0  0  0
   -2.0458    0.3583    0.0000 C   0  0  0  0  0  0  0  0  0  0  0  0
   -1.3333    1.5958    0.0000 C   0  0  0  0  0  0  0  0  0  0  0  0
   -2.0458    1.1833    0.0000 C   0  0  0  0  0  0  0  0  0  0  0  0
  2  1  2  0  0  0  0
  3  1  1  0  0  0  0
  4  1  1  0  0  0  0
  5  3  2  0  0  0  0
  6  2  1  0  0  0  0
  7  5  1  0  0  0  0
  7  6  2  0  0  0  0
  8  4  1  0  0  0  0
  9  4  1  0  0  0  0
 10  5  1  0  0  0  0
 11  6  1  0  0  0  0
 12  9  1  0  0  0  0
 13  8  1  0  0  0  0
 13 14  1  0  0  0  0
 14 12  1  0  0  0  0
M  END
>  <idnumber>
T6227547

>  <LogP>
2.785000000000000e+000

>  <rotating_bonds>
1.000000000000000e+000

>  <hb_acceptors>
3.000000000000000e+000

>  <hb_donors>
0.000000000000000e+000

>  <PSA>
2.902000000000000e+001

>  <population>
1468

>  <cansmi>
Cc1nc(nc(c1)C)N1CCCCC1

>  <HBA2>
3

>  <HBD>
0

>  <logP>
2.1487

>  <TPSA>
29.02

>  <MW>
191.273

$$$$

 OpenBabel02121609142D

 15 16  0  0  0  0  0  0  0  0999 V2000
    0.0000   -0.5000    0.0000 N   0  0  0  0  0  0  0  0  0  0  0  0
   -0.8708    0.0000    0.0000 C   0  0  0  0  0  0  0  0  0  0  0  0
   -0.8708    1.0000    0.0000 C   0  0  0  0  0  0  0  0  0  0  0  0
   -1.7333    1.5000    0.0000 N   0  0  0  0  0  0  0  0  0  0  0  0
    0.0000   -1.5000    0.0000 C   0  0  0  0  0  0  0  0  0  0  0  0
   -1.7333   -0.5000    0.0000 O   0  0  0  0  0  0  0  0  0  0  0  0
    0.0000    2.5000    0.0000 N   0  0  0  0  0  0  0  0  0  0  0  0
    0.8625    0.0000    0.0000 C   0  0  0  0  0  0  0  0  0  0  0  0
    0.0000    1.5000    0.0000 C   0  0  0  0  0  0  0  0  0  0  0  0
    0.8625   -2.0000    0.0000 C   0  0  3  0  0  0  0  0  0  0  0  0
    1.7292   -0.5000    0.0000 C   0  0  0  0  0  0  0  0  0  0  0  0
   -1.7333    2.5000    0.0000 C   0  0  0  0  0  0  0  0  0  0  0  0
   -0.8708    3.0000    0.0000 C   0  0  0  0  0  0  0  0  0  0  0  0
    1.7292   -1.5000    0.0000 C   0  0  0  0  0  0  0  0  0  0  0  0
    0.8625   -3.0000    0.0000 C   0  0  0  0  0  0  0  0  0  0  0  0
  2  1  1  0  0  0  0
  3  2  1  0  0  0  0
  4  3  2  0  0  0  0
  5  1  1  0  0  0  0
  6  2  2  0  0  0  0
  7  9  2  0  0  0  0
  8  1  1  0  0  0  0
  9  3  1  0  0  0  0
 10  5  1  0  0  0  0
 10 14  1  0  0  0  0
 11  8  1  0  0  0  0
 12  4  1  0  0  0  0
 12 13  2  0  0  0  0
 13  7  1  0  0  0  0
 14 11  1  0  0  0  0
 15 10  1  0  0  0  0
M  END
>  <idnumber>
T6235658

>  <LogP>
2.630000000000000e-001

>  <rotating_bonds>
1.000000000000000e+000

>  <hb_acceptors>
3.000000000000000e+000

>  <hb_donors>
0.000000000000000e+000

>  <PSA>
4.609000000000000e+001

>  <population>
409

>  <cansmi>
CC1CCCN(C1)C(=O)c1cnccn1

>  <HBA2>
4

>  <HBD>
0

>  <logP>
1.2866

>  <TPSA>
46.09

>  <MW>
205.256

$$$$

 OpenBabel02121609142D

 18 19  0  0  0  0  0  0  0  0999 V2000
    0.8625   -0.7500    0.0000 C   0  0  0  0  0  0  0  0  0  0  0  0
    0.8625   -1.7500    0.0000 C   0  0  0  0  0  0  0  0  0  0  0  0
    1.7292   -0.2500    0.0000 C   0  0  0  0  0  0  0  0  0  0  0  0
    0.0000   -0.2500    0.0000 C   0  0  0  0  0  0  0  0  0  0  0  0
    0.0000   -2.2500    0.0000 N   0  0  0  0  0  0  0  0  0  0  0  0
   -0.8708   -1.7500    0.0000 C   0  0  0  0  0  0  0  0  0  0  0  0
   -0.8708   -0.7500    0.0000 C   0  0  0  0  0  0  0  0  0  0  0  0
    1.7292    0.7500    0.0000 N   0  0  0  0  0  0  0  0  0  0  0  0
    1.7292   -2.2500    0.0000 O   0  0  0  0  0  0  0  0  0  0  0  0
    2.5917   -0.7500    0.0000 O   0  0  0  0  0  0  0  0  0  0  0  0
   -1.7333   -2.2500    0.0000 C   0  0  0  0  0  0  0  0  0  0  0  0
   -1.7333   -0.2500    0.0000 C   0  0  0  0  0  0  0  0  0  0  0  0
    2.5917    1.2500    0.0000 C   0  0  0  0  0  0  0  0  0  0  0  0
    0.8625    1.2500    0.0000 C   0  0  0  0  0  0  0  0  0  0  0  0
    2.5917    2.2500    0.0000 C   0  0  0  0  0  0  0  0  0  0  0  0
    0.8625    2.2500    0.0000 C   0  0  0  0  0  0  0  0  0  0  0  0
   -2.6000   -1.7500    0.0000 C   0  0  0  0  0  0  0  0  0  0  0  0
   -2.6000   -0.7500    0.0000 C   0  0  0  0  0  0  0  0  0  0  0  0
  2  1  1  0  0  0  0
  3  1  1  0  0  0  0
  4  1  2  0  0  0  0
  5  2  1  0  0  0  0
  5  6  1  0  0  0  0
  6  7  2  0  0  0  0
  7  4  1  0  0  0  0
  8  3  1  0  0  0  0
  9  2  2  0  0  0  0
 10  3  2  0  0  0  0
 11  6  1  0  0  0  0
 12  7  1  0  0  0  0
 13  8  1  0  0  0  0
 14  8  1  0  0  0  0
 15 13  1  0  0  0  0
 16 14  1  0  0  0  0
 17 18  1  0  0  0  0
 17 11  2  0  0  0  0
 18 12  2  0  0  0  0
M  END
>  <idnumber>
T6248919

>  <LogP>
8.270000000000002e-001

>  <rotating_bonds>
3.000000000000000e+000

>  <hb_acceptors>
2.000000000000000e+000

>  <hb_donors>
1.000000000000000e+000

>  <PSA>
4.941000000000002e+001

>  <population>
1387

>  <cansmi>
CCN(C(=O)c1cc2ccccc2[nH]c1=O)CC

>  <HBA2>
3

>  <HBD>
1

>  <logP>
2.0101

>  <TPSA>
53.17

>  <MW>
244.289

$$$$

 OpenBabel02121609142D

 18 20  0  0  0  0  0  0  0  0999 V2000
    0.0667   -0.4167    0.0000 C   0  0  0  0  0  0  0  0  0  0  0  0
    0.9375   -0.9167    0.0000 C   0  0  0  0  0  0  0  0  0  0  0  0
    0.0667    0.5833    0.0000 N   0  0  0  0  0  0  0  0  0  0  0  0
   -0.7958    1.0833    0.0000 C   0  0  0  0  0  0  0  0  0  0  0  0
    1.0417   -1.9125    0.0000 C   0  0  0  0  0  0  0  0  0  0  0  0
    1.8542   -0.5042    0.0000 C   0  0  0  0  0  0  0  0  0  0  0  0
    2.0167   -2.1167    0.0000 O   0  0  0  0  0  0  0  0  0  0  0  0
   -0.7958    2.0833    0.0000 C   0  0  0  0  0  0  0  0  0  0  0  0
   -0.7958   -0.9167    0.0000 O   0  0  0  0  0  0  0  0  0  0  0  0
    0.0667    2.5833    0.0000 S   0  0  0  0  0  0  0  0  0  0  0  0
    2.5167   -1.2542    0.0000 C   0  0  0  0  0  0  0  0  0  0  0  0
    0.9375    1.0833    0.0000 C   0  0  0  0  0  0  0  0  0  0  0  0
    0.9375    2.0833    0.0000 C   0  0  0  0  0  0  0  0  0  0  0  0
   -1.6583    0.5833    0.0000 C   0  0  0  0  0  0  0  0  0  0  0  0
    0.3000   -2.5792    0.0000 C   0  0  0  0  0  0  0  0  0  0  0  0
   -1.6583    2.5833    0.0000 C   0  0  0  0  0  0  0  0  0  0  0  0
   -2.5250    1.0833    0.0000 C   0  0  0  0  0  0  0  0  0  0  0  0
   -2.5250    2.0833    0.0000 C   0  0  0  0  0  0  0  0  0  0  0  0
  2  1  1  0  0  0  0
  3  1  1  0  0  0  0
  4  3  1  0  0  0  0
  5  2  2  0  0  0  0
  6  2  1  0  0  0  0
  7  5  1  0  0  0  0
  8  4  2  0  0  0  0
  9  1  2  0  0  0  0
 10 13  1  0  0  0  0
 10  8  1  0  0  0  0
 11  6  2  0  0  0  0
 11  7  1  0  0  0  0
 12  3  1  0  0  0  0
 13 12  1  0  0  0  0
 14  4  1  0  0  0  0
 15  5  1  0  0  0  0
 16  8  1  0  0  0  0
 17 14  2  0  0  0  0
 18 17  1  0  0  0  0
 18 16  2  0  0  0  0
M  END
>  <idnumber>
T6249351

>  <LogP>
2.646000000000000e+000

>  <rotating_bonds>
1.000000000000000e+000

>  <hb_acceptors>
2.000000000000000e+000

>  <hb_donors>
0.000000000000000e+000

>  <PSA>
5.875000000000000e+001

>  <population>
90

>  <cansmi>
Cc1occc1C(=O)N1CCSc2c1cccc2

>  <HBA2>
4

>  <HBD>
0

>  <logP>
3.4055

>  <TPSA>
58.75

>  <MW>
259.324

$$$$

 OpenBabel02121609142D

 20 22  0  0  0  0  0  0  0  0999 V2000
   -0.1083    2.8208    0.0000 C   0  0  0  0  0  0  0  0  0  0  0  0
   -0.1083    1.2000    0.0000 C   0  0  3  0  0  0  0  0  0  0  0  0
    0.4875    2.0083    0.0000 O   0  0  0  0  0  0  0  0  0  0  0  0
    1.1792    0.0458    0.0000 C   0  0  0  0  0  0  0  0  0  0  0  0
    0.2042    0.2500    0.0000 C   0  0  0  0  0  0  0  0  0  0  0  0
    1.4917   -0.9125    0.0000 N   0  0  0  0  0  0  0  0  0  0  0  0
   -1.0583    2.5083    0.0000 C   0  0  0  0  0  0  0  0  0  0  0  0
   -1.0583    1.5083    0.0000 C   0  0  0  0  0  0  0  0  0  0  0  0
    0.2042    3.7708    0.0000 O   0  0  0  0  0  0  0  0  0  0  0  0
    1.8542    0.7833    0.0000 O   0  0  0  0  0  0  0  0  0  0  0  0
    0.8250   -1.6542    0.0000 C   0  0  0  0  0  0  0  0  0  0  0  0
    2.4667   -1.1167    0.0000 C   0  0  0  0  0  0  0  0  0  0  0  0
    1.1292   -2.6042    0.0000 C   0  0  0  0  0  0  0  0  0  0  0  0
    2.7792   -2.0667    0.0000 C   0  0  0  0  0  0  0  0  0  0  0  0
    2.1125   -2.8125    0.0000 C   0  0  3  0  0  0  0  0  0  0  0  0
   -1.9208    3.0083    0.0000 C   0  0  0  0  0  0  0  0  0  0  0  0
   -1.9208    1.0083    0.0000 C   0  0  0  0  0  0  0  0  0  0  0  0
    2.4167   -3.7625    0.0000 C   0  0  0  0  0  0  0  0  0  0  0  0
   -2.7833    2.5083    0.0000 C   0  0  0  0  0  0  0  0  0  0  0  0
   -2.7833    1.5083    0.0000 C   0  0  0  0  0  0  0  0  0  0  0  0
  2  3  1  0  0  0  0
  3  1  1  0  0  0  0
  4  5  1  0  0  0  0
  5  2  1  0  0  0  0
  6  4  1  0  0  0  0
  7  1  1  0  0  0  0
  8  7  2  0  0  0  0
  8  2  1  0  0  0  0
  9  1  2  0  0  0  0
 10  4  2  0  0  0  0
 11  6  1  0  0  0  0
 12  6  1  0  0  0  0
 13 11  1  0  0  0  0
 14 12  1  0  0  0  0
 15 14  1  0  0  0  0
 15 13  1  0  0  0  0
 16  7  1  0  0  0  0
 17  8  1  0  0  0  0
 18 15  1  0  0  0  0
 19 16  2  0  0  0  0
 20 19  1  0  0  0  0
 20 17  2  0  0  0  0
M  END
>  <idnumber>
T6249791

>  <LogP>
2.640000000000000e+000

>  <rotating_bonds>
2.000000000000000e+000

>  <hb_acceptors>
2.000000000000000e+000

>  <hb_donors>
0.000000000000000e+000

>  <PSA>
4.661000000000000e+001

>  <population>
13

>  <cansmi>
CC1CCN(CC1)C(=O)CC1OC(=O)c2c1cccc2

>  <HBA2>
4

>  <HBD>
0

>  <logP>
2.4846

>  <TPSA>
46.61

>  <MW>
273.327

$$$$

 OpenBabel02121609142D

 19 21  0  0  0  0  0  0  0  0999 V2000
    1.1292   -0.3625    0.0000 N   0  0  0  0  0  0  0  0  0  0  0  0
    0.6292   -1.2292    0.0000 C   0  0  0  0  0  0  0  0  0  0  0  0
   -0.3708   -1.2292    0.0000 C   0  0  3  0  0  0  0  0  0  0  0  0
   -0.9583   -2.0375    0.0000 S   0  0  0  0  0  0  0  0  0  0  0  0
   -1.9083   -1.7292    0.0000 C   0  0  0  0  0  0  0  0  0  0  0  0
   -0.9583   -0.4167    0.0000 C   0  0  0  0  0  0  0  0  0  0  0  0
    2.1292    1.3708    0.0000 O   0  0  0  0  0  0  0  0  0  0  0  0
   -1.9083   -0.7292    0.0000 C   0  0  0  0  0  0  0  0  0  0  0  0
    2.1292   -0.3625    0.0000 C   0  0  0  0  0  0  0  0  0  0  0  0
    0.6292    0.5000    0.0000 C   0  0  0  0  0  0  0  0  0  0  0  0
    1.1292   -2.0917    0.0000 O   0  0  0  0  0  0  0  0  0  0  0  0
    1.1292    1.3708    0.0000 C   0  0  3  0  0  0  0  0  0  0  0  0
    2.6292    0.5000    0.0000 C   0  0  3  0  0  0  0  0  0  0  0  0
   -2.7708   -2.2292    0.0000 C   0  0  0  0  0  0  0  0  0  0  0  0
   -2.7708   -0.2292    0.0000 C   0  0  0  0  0  0  0  0  0  0  0  0
    0.6292    2.2333    0.0000 C   0  0  0  0  0  0  0  0  0  0  0  0
    3.6292    0.5000    0.0000 C   0  0  0  0  0  0  0  0  0  0  0  0
   -3.6375   -1.7292    0.0000 C   0  0  0  0  0  0  0  0  0  0  0  0
   -3.6375   -0.7292    0.0000 C   0  0  0  0  0  0  0  0  0  0  0  0
  2  1  1  0  0  0  0
  3  2  1  0  0  0  0
  4  3  1  0  0  0  0
  5  4  1  0  0  0  0
  5  8  2  0  0  0  0
  6  3  1  0  0  0  0
  7 12  1  0  0  0  0
  7 13  1  0  0  0  0
  8  6  1  0  0  0  0
  9  1  1  0  0  0  0
 10  1  1  0  0  0  0
 11  2  2  0  0  0  0
 12 10  1  0  0  0  0
 13  9  1  0  0  0  0
 14  5  1  0  0  0  0
 15  8  1  0  0  0  0
 16 12  1  0  0  0  0
 17 13  1  0  0  0  0
 18 14  2  0  0  0  0
 18 19  1  0  0  0  0
 19 15  2  0  0  0  0
M  END
>  <idnumber>
T6251386

>  <LogP>
2.730000000000000e+000

>  <rotating_bonds>
1.000000000000000e+000

>  <hb_acceptors>
3.000000000000000e+000

>  <hb_donors>
0.000000000000000e+000

>  <PSA>
5.484000000000000e+001

>  <population>
11

>  <cansmi>
CC1OC(C)CN(C1)C(=O)C1Cc2c(S1)cccc2

>  <HBA2>
4

>  <HBD>
0

>  <logP>
2.2771

>  <TPSA>
54.84

>  <MW>
277.382

$$$$
