MODEL 1
REMARK VINA RESULT:      -4.3      0.000      0.000
REMARK  1 active torsions:
REMARK  status: ('A' for Active; 'I' for Inactive)
REMARK    1  A    between atoms: C_4  and  C_7 
ROOT
HETATM    1  N   UNL     1      76.767  11.449  18.438  1.00  0.00    -0.348 N 
ATOM      2  HN  UNL     1      76.007  11.666  17.794  1.00  0.00     0.167 HD
HETATM    3  N   UNL     1      78.475  10.447  19.423  1.00  0.00    -0.354 N 
HETATM    4  C   UNL     1      77.564  10.403  18.397  1.00  0.00     0.080 A 
HETATM    5  C   UNL     1      77.167  12.189  19.526  1.00  0.00     0.022 A 
HETATM    6  C   UNL     1      78.233  11.579  20.149  1.00  0.00     0.114 A 
HETATM    7  C   UNL     1      76.466  13.441  19.880  1.00  0.00     0.069 C 
HETATM    8  H   UNL     1      79.178   9.781  19.604  1.00  0.00     0.166 HD
ENDROOT
BRANCH   4   9
HETATM    9  C   UNL     1      77.518   9.293  17.407  1.00  0.00     0.072 C 
HETATM   10  C   UNL     1      76.873   8.050  17.998  1.00  0.00     0.013 C 
ENDBRANCH   4   9
TORSDOF 1
ENDMDL
MODEL 2
REMARK VINA RESULT:      -4.3      1.032      3.578
REMARK  1 active torsions:
REMARK  status: ('A' for Active; 'I' for Inactive)
REMARK    1  A    between atoms: C_4  and  C_7 
ROOT
HETATM    1  N   UNL     1      77.258  11.074  19.153  1.00  0.00    -0.348 N 
ATOM      2  HN  UNL     1      76.298  11.361  18.964  1.00  0.00     0.167 HD
HETATM    3  N   UNL     1      79.301  10.970  19.995  1.00  0.00    -0.354 N 
HETATM    4  C   UNL     1      78.097  11.630  20.002  1.00  0.00     0.080 A 
HETATM    5  C   UNL     1      77.940  10.030  18.575  1.00  0.00     0.022 A 
HETATM    6  C   UNL     1      79.214   9.949  19.091  1.00  0.00     0.114 A 
HETATM    7  C   UNL     1      77.290   9.188  17.548  1.00  0.00     0.069 C 
HETATM    8  H   UNL     1      80.087  11.193  20.545  1.00  0.00     0.166 HD
ENDROOT
BRANCH   4   9
HETATM    9  C   UNL     1      77.832  12.815  20.862  1.00  0.00     0.072 C 
HETATM   10  C   UNL     1      76.604  13.577  20.389  1.00  0.00     0.013 C 
ENDBRANCH   4   9
TORSDOF 1
ENDMDL
MODEL 3
REMARK VINA RESULT:      -4.3     13.804     14.380
REMARK  1 active torsions:
REMARK  status: ('A' for Active; 'I' for Inactive)
REMARK    1  A    between atoms: C_4  and  C_7 
ROOT
HETATM    1  N   UNL     1      72.646  22.484  11.937  1.00  0.00    -0.348 N 
ATOM      2  HN  UNL     1      73.564  22.482  11.493  1.00  0.00     0.167 HD
HETATM    3  N   UNL     1      70.536  22.029  12.419  1.00  0.00    -0.354 N 
HETATM    4  C   UNL     1      71.595  21.774  11.585  1.00  0.00     0.080 A 
HETATM    5  C   UNL     1      72.254  23.227  13.026  1.00  0.00     0.022 A 
HETATM    6  C   UNL     1      70.942  22.953  13.341  1.00  0.00     0.114 A 
HETATM    7  C   UNL     1      73.198  24.160  13.675  1.00  0.00     0.069 C 
HETATM    8  H   UNL     1      69.641  21.620  12.363  1.00  0.00     0.166 HD
ENDROOT
BRANCH   4   9
HETATM    9  C   UNL     1      71.512  20.822  10.444  1.00  0.00     0.072 C 
HETATM   10  C   UNL     1      70.917  19.491  10.876  1.00  0.00     0.013 C 
ENDBRANCH   4   9
TORSDOF 1
ENDMDL
MODEL 4
REMARK VINA RESULT:      -4.3      0.846      1.616
REMARK  1 active torsions:
REMARK  status: ('A' for Active; 'I' for Inactive)
REMARK    1  A    between atoms: C_4  and  C_7 
ROOT
HETATM    1  N   UNL     1      78.334  10.879  19.961  1.00  0.00    -0.348 N 
ATOM      2  HN  UNL     1      79.059  10.398  20.492  1.00  0.00     0.167 HD
HETATM    3  N   UNL     1      76.841  11.385  18.409  1.00  0.00    -0.354 N 
HETATM    4  C   UNL     1      77.791  10.488  18.827  1.00  0.00     0.080 A 
HETATM    5  C   UNL     1      77.723  12.069  20.282  1.00  0.00     0.022 A 
HETATM    6  C   UNL     1      76.788  12.396  19.327  1.00  0.00     0.114 A 
HETATM    7  C   UNL     1      78.110  12.803  21.506  1.00  0.00     0.069 C 
HETATM    8  H   UNL     1      76.295  11.313  17.592  1.00  0.00     0.166 HD
ENDROOT
BRANCH   4   9
HETATM    9  C   UNL     1      78.133   9.259  18.060  1.00  0.00     0.072 C 
HETATM   10  C   UNL     1      76.949   8.308  17.984  1.00  0.00     0.013 C 
ENDBRANCH   4   9
TORSDOF 1
ENDMDL
MODEL 5
REMARK VINA RESULT:      -4.2      5.906      7.800
REMARK  1 active torsions:
REMARK  status: ('A' for Active; 'I' for Inactive)
REMARK    1  A    between atoms: C_4  and  C_7 
ROOT
HETATM    1  N   UNL     1      75.431   4.058  17.005  1.00  0.00    -0.348 N 
ATOM      2  HN  UNL     1      74.668   4.432  16.441  1.00  0.00     0.167 HD
HETATM    3  N   UNL     1      77.288   3.891  18.195  1.00  0.00    -0.354 N 
HETATM    4  C   UNL     1      76.468   4.721  17.471  1.00  0.00     0.080 A 
HETATM    5  C   UNL     1      75.587   2.761  17.432  1.00  0.00     0.022 A 
HETATM    6  C   UNL     1      76.738   2.641  18.178  1.00  0.00     0.114 A 
HETATM    7  C   UNL     1      74.593   1.728  17.069  1.00  0.00     0.069 C 
HETATM    8  H   UNL     1      78.124   4.151  18.646  1.00  0.00     0.166 HD
ENDROOT
BRANCH   4   9
HETATM    9  C   UNL     1      76.764   6.164  17.261  1.00  0.00     0.072 C 
HETATM   10  C   UNL     1      76.793   6.513  15.781  1.00  0.00     0.013 C 
ENDBRANCH   4   9
TORSDOF 1
ENDMDL
MODEL 6
REMARK VINA RESULT:      -4.1     12.542     14.067
REMARK  1 active torsions:
REMARK  status: ('A' for Active; 'I' for Inactive)
REMARK    1  A    between atoms: C_4  and  C_7 
ROOT
HETATM    1  N   UNL     1      72.557  22.000  14.014  1.00  0.00    -0.348 N 
ATOM      2  HN  UNL     1      72.678  21.012  13.793  1.00  0.00     0.167 HD
HETATM    3  N   UNL     1      71.776  24.069  14.069  1.00  0.00    -0.354 N 
HETATM    4  C   UNL     1      71.634  22.810  13.540  1.00  0.00     0.080 A 
HETATM    5  C   UNL     1      73.324  22.757  14.868  1.00  0.00     0.022 A 
HETATM    6  C   UNL     1      72.849  24.049  14.915  1.00  0.00     0.114 A 
HETATM    7  C   UNL     1      74.477  22.157  15.572  1.00  0.00     0.069 C 
HETATM    8  H   UNL     1      71.207  24.849  13.872  1.00  0.00     0.166 HD
ENDROOT
BRANCH   4   9
HETATM    9  C   UNL     1      70.571  22.463  12.559  1.00  0.00     0.072 C 
HETATM   10  C   UNL     1      71.111  21.574  11.450  1.00  0.00     0.013 C 
ENDBRANCH   4   9
TORSDOF 1
ENDMDL
MODEL 7
REMARK VINA RESULT:      -4.1      5.332      7.258
REMARK  1 active torsions:
REMARK  status: ('A' for Active; 'I' for Inactive)
REMARK    1  A    between atoms: C_4  and  C_7 
ROOT
HETATM    1  N   UNL     1      77.265   4.565  18.101  1.00  0.00    -0.348 N 
ATOM      2  HN  UNL     1      78.117   4.718  18.640  1.00  0.00     0.167 HD
HETATM    3  N   UNL     1      75.547   3.595  17.102  1.00  0.00    -0.354 N 
HETATM    4  C   UNL     1      76.679   3.413  17.856  1.00  0.00     0.080 A 
HETATM    5  C   UNL     1      76.495   5.522  17.481  1.00  0.00     0.022 A 
HETATM    6  C   UNL     1      75.418   4.933  16.857  1.00  0.00     0.114 A 
HETATM    7  C   UNL     1      76.879   6.948  17.542  1.00  0.00     0.069 C 
HETATM    8  H   UNL     1      74.936   2.887  16.792  1.00  0.00     0.166 HD
ENDROOT
BRANCH   4   9
HETATM    9  C   UNL     1      77.145   2.071  18.300  1.00  0.00     0.072 C 
HETATM   10  C   UNL     1      76.945   1.028  17.211  1.00  0.00     0.013 C 
ENDBRANCH   4   9
TORSDOF 1
ENDMDL
MODEL 8
REMARK VINA RESULT:      -4.1      1.477      3.930
REMARK  1 active torsions:
REMARK  status: ('A' for Active; 'I' for Inactive)
REMARK    1  A    between atoms: C_4  and  C_7 
ROOT
HETATM    1  N   UNL     1      78.289  10.927  20.108  1.00  0.00    -0.348 N 
ATOM      2  HN  UNL     1      78.917  10.308  20.620  1.00  0.00     0.167 HD
HETATM    3  N   UNL     1      77.135  12.703  19.470  1.00  0.00    -0.354 N 
HETATM    4  C   UNL     1      78.020  12.185  20.383  1.00  0.00     0.080 A 
HETATM    5  C   UNL     1      77.552  10.618  18.989  1.00  0.00     0.022 A 
HETATM    6  C   UNL     1      76.830  11.715  18.577  1.00  0.00     0.114 A 
HETATM    7  C   UNL     1      77.606   9.259  18.408  1.00  0.00     0.069 C 
HETATM    8  H   UNL     1      76.783  13.623  19.461  1.00  0.00     0.166 HD
ENDROOT
BRANCH   4   9
HETATM    9  C   UNL     1      78.562  12.978  21.520  1.00  0.00     0.072 C 
HETATM   10  C   UNL     1      79.869  12.392  22.030  1.00  0.00     0.013 C 
ENDBRANCH   4   9
TORSDOF 1
ENDMDL
MODEL 9
REMARK VINA RESULT:      -4.1     13.731     14.463
REMARK  1 active torsions:
REMARK  status: ('A' for Active; 'I' for Inactive)
REMARK    1  A    between atoms: C_4  and  C_7 
ROOT
HETATM    1  N   UNL     1      70.575  22.401  12.675  1.00  0.00    -0.348 N 
ATOM      2  HN  UNL     1      69.605  22.092  12.724  1.00  0.00     0.167 HD
HETATM    3  N   UNL     1      72.678  22.655  12.038  1.00  0.00    -0.354 N 
HETATM    4  C   UNL     1      71.483  22.022  11.801  1.00  0.00     0.080 A 
HETATM    5  C   UNL     1      71.201  23.300  13.506  1.00  0.00     0.022 A 
HETATM    6  C   UNL     1      72.511  23.472  13.121  1.00  0.00     0.114 A 
HETATM    7  C   UNL     1      70.465  23.922  14.628  1.00  0.00     0.069 C 
HETATM    8  H   UNL     1      73.508  22.541  11.520  1.00  0.00     0.166 HD
ENDROOT
BRANCH   4   9
HETATM    9  C   UNL     1      71.296  21.039  10.699  1.00  0.00     0.072 C 
HETATM   10  C   UNL     1      70.965  19.658  11.242  1.00  0.00     0.013 C 
ENDBRANCH   4   9
TORSDOF 1
ENDMDL
