MODEL 1
REMARK VINA RESULT:      -5.1      0.000      0.000
REMARK  3 active torsions:
REMARK  status: ('A' for Active; 'I' for Inactive)
REMARK    1  A    between atoms: C_1  and  C_6 
REMARK    2  A    between atoms: C_6  and  N_9 
REMARK    3  A    between atoms: C_10  and  O_12 
ROOT
HETATM    1  C   UNL     1      63.043   9.198   5.185  1.00  0.00    -0.005 A 
HETATM    2  C   UNL     1      62.563   9.530   3.873  1.00  0.00     0.003 A 
HETATM    3  N   UNL     1      62.614  11.388   5.101  1.00  0.00    -0.365 N 
HETATM    4  C   UNL     1      63.041  10.374   5.915  1.00  0.00     0.098 A 
HETATM    5  C   UNL     1      62.316  10.902   3.851  1.00  0.00     0.043 A 
HETATM    6  C   UNL     1      62.345   8.793   2.691  1.00  0.00     0.051 A 
HETATM    7  C   UNL     1      61.862  11.569   2.708  1.00  0.00     0.033 A 
HETATM    8  C   UNL     1      61.883   9.435   1.534  1.00  0.00     0.069 A 
HETATM    9  C   UNL     1      61.649  10.809   1.550  1.00  0.00     0.039 A 
HETATM   10  H   UNL     1      62.531  12.330   5.373  1.00  0.00     0.165 HD
ENDROOT
BRANCH   1  11
HETATM   11  C   UNL     1      63.498   7.852   5.671  1.00  0.00     0.274 C 
BRANCH  11  12
HETATM   12  N   UNL     1      64.877   7.914   6.184  1.00  0.00    -0.075 N 
HETATM   13  C   UNL     1      65.201   6.752   7.015  1.00  0.00     0.269 C 
HETATM   14  C   UNL     1      65.828   8.012   5.078  1.00  0.00     0.269 C 
HETATM   15  H   UNL     1      64.944   8.749   6.768  1.00  0.00     0.279 HD
ENDBRANCH  11  12
ENDBRANCH   1  11
BRANCH   8  16
HETATM   16  O   UNL     1      61.704   8.603   0.461  1.00  0.00    -0.356 OA
HETATM   17  C   UNL     1      60.545   7.782   0.469  1.00  0.00     0.210 C 
ENDBRANCH   8  16
TORSDOF 3
ENDMDL
MODEL 2
REMARK VINA RESULT:      -4.8      2.924      5.142
REMARK  3 active torsions:
REMARK  status: ('A' for Active; 'I' for Inactive)
REMARK    1  A    between atoms: C_1  and  C_6 
REMARK    2  A    between atoms: C_6  and  N_9 
REMARK    3  A    between atoms: C_10  and  O_12 
ROOT
HETATM    1  C   UNL     1      62.287   8.382   1.637  1.00  0.00    -0.005 A 
HETATM    2  C   UNL     1      62.692   8.844   2.934  1.00  0.00     0.003 A 
HETATM    3  N   UNL     1      61.368  10.382   2.016  1.00  0.00    -0.365 N 
HETATM    4  C   UNL     1      61.484   9.373   1.099  1.00  0.00     0.098 A 
HETATM    5  C   UNL     1      62.094  10.086   3.144  1.00  0.00     0.043 A 
HETATM    6  C   UNL     1      63.491   8.305   3.963  1.00  0.00     0.051 A 
HETATM    7  C   UNL     1      62.255  10.811   4.330  1.00  0.00     0.033 A 
HETATM    8  C   UNL     1      63.676   9.014   5.158  1.00  0.00     0.069 A 
HETATM    9  C   UNL     1      63.059  10.251   5.333  1.00  0.00     0.039 A 
HETATM   10  H   UNL     1      60.839  11.202   1.887  1.00  0.00     0.165 HD
ENDROOT
BRANCH   1  11
HETATM   11  C   UNL     1      62.628   7.070   0.993  1.00  0.00     0.274 C 
BRANCH  11  12
HETATM   12  N   UNL     1      62.040   6.973  -0.353  1.00  0.00    -0.075 N 
HETATM   13  C   UNL     1      63.068   6.843  -1.389  1.00  0.00     0.269 C 
HETATM   14  C   UNL     1      61.119   5.838  -0.426  1.00  0.00     0.269 C 
HETATM   15  H   UNL     1      61.528   7.840  -0.522  1.00  0.00     0.279 HD
ENDBRANCH  11  12
ENDBRANCH   1  11
BRANCH   8  16
HETATM   16  O   UNL     1      64.480   8.382   6.070  1.00  0.00    -0.356 OA
HETATM   17  C   UNL     1      65.832   8.165   5.693  1.00  0.00     0.210 C 
ENDBRANCH   8  16
TORSDOF 3
ENDMDL
MODEL 3
REMARK VINA RESULT:      -4.6      4.576      8.314
REMARK  3 active torsions:
REMARK  status: ('A' for Active; 'I' for Inactive)
REMARK    1  A    between atoms: C_1  and  C_6 
REMARK    2  A    between atoms: C_6  and  N_9 
REMARK    3  A    between atoms: C_10  and  O_12 
ROOT
HETATM    1  C   UNL     1      66.475   6.321   7.050  1.00  0.00    -0.005 A 
HETATM    2  C   UNL     1      67.461   5.292   7.230  1.00  0.00     0.003 A 
HETATM    3  N   UNL     1      67.678   6.780   8.874  1.00  0.00    -0.365 N 
HETATM    4  C   UNL     1      66.659   7.228   8.079  1.00  0.00     0.098 A 
HETATM    5  C   UNL     1      68.185   5.602   8.381  1.00  0.00     0.043 A 
HETATM    6  C   UNL     1      67.783   4.108   6.536  1.00  0.00     0.051 A 
HETATM    7  C   UNL     1      69.213   4.788   8.868  1.00  0.00     0.033 A 
HETATM    8  C   UNL     1      68.814   3.278   6.998  1.00  0.00     0.069 A 
HETATM    9  C   UNL     1      69.515   3.620   8.153  1.00  0.00     0.039 A 
HETATM   10  H   UNL     1      68.002   7.236   9.684  1.00  0.00     0.165 HD
ENDROOT
BRANCH   1  11
HETATM   11  C   UNL     1      65.422   6.391   5.982  1.00  0.00     0.274 C 
BRANCH  11  12
HETATM   12  N   UNL     1      64.562   7.571   6.166  1.00  0.00    -0.075 N 
HETATM   13  C   UNL     1      64.744   8.551   5.092  1.00  0.00     0.269 C 
HETATM   14  C   UNL     1      63.156   7.171   6.236  1.00  0.00     0.269 C 
HETATM   15  H   UNL     1      64.836   8.011   7.045  1.00  0.00     0.279 HD
ENDBRANCH  11  12
ENDBRANCH   1  11
BRANCH   8  16
HETATM   16  O   UNL     1      69.031   2.167   6.228  1.00  0.00    -0.356 OA
HETATM   17  C   UNL     1      69.022   0.911   6.893  1.00  0.00     0.210 C 
ENDBRANCH   8  16
TORSDOF 3
ENDMDL
MODEL 4
REMARK VINA RESULT:      -4.5      6.796      9.883
REMARK  3 active torsions:
REMARK  status: ('A' for Active; 'I' for Inactive)
REMARK    1  A    between atoms: C_1  and  C_6 
REMARK    2  A    between atoms: C_6  and  N_9 
REMARK    3  A    between atoms: C_10  and  O_12 
ROOT
HETATM    1  C   UNL     1      68.317   1.780   9.700  1.00  0.00    -0.005 A 
HETATM    2  C   UNL     1      68.071   3.029   9.037  1.00  0.00     0.003 A 
HETATM    3  N   UNL     1      69.783   3.294  10.437  1.00  0.00    -0.365 N 
HETATM    4  C   UNL     1      69.372   1.996  10.569  1.00  0.00     0.098 A 
HETATM    5  C   UNL     1      69.008   3.947   9.510  1.00  0.00     0.043 A 
HETATM    6  C   UNL     1      67.155   3.455   8.053  1.00  0.00     0.051 A 
HETATM    7  C   UNL     1      69.071   5.267   9.048  1.00  0.00     0.033 A 
HETATM    8  C   UNL     1      67.191   4.774   7.579  1.00  0.00     0.069 A 
HETATM    9  C   UNL     1      68.144   5.663   8.074  1.00  0.00     0.039 A 
HETATM   10  H   UNL     1      70.527   3.703  10.935  1.00  0.00     0.165 HD
ENDROOT
BRANCH   1  11
HETATM   11  C   UNL     1      67.603   0.477   9.476  1.00  0.00     0.274 C 
BRANCH  11  12
HETATM   12  N   UNL     1      66.215   0.546   9.961  1.00  0.00    -0.075 N 
HETATM   13  C   UNL     1      65.286  -0.122   9.047  1.00  0.00     0.269 C 
HETATM   14  C   UNL     1      66.110  -0.048  11.293  1.00  0.00     0.269 C 
HETATM   15  H   UNL     1      65.959   1.533  10.006  1.00  0.00     0.279 HD
ENDBRANCH  11  12
ENDBRANCH   1  11
BRANCH   8  16
HETATM   16  O   UNL     1      66.243   5.059   6.634  1.00  0.00    -0.356 OA
HETATM   17  C   UNL     1      65.253   6.016   6.983  1.00  0.00     0.210 C 
ENDBRANCH   8  16
TORSDOF 3
ENDMDL
MODEL 5
REMARK VINA RESULT:      -4.5     19.276     21.674
REMARK  3 active torsions:
REMARK  status: ('A' for Active; 'I' for Inactive)
REMARK    1  A    between atoms: C_1  and  C_6 
REMARK    2  A    between atoms: C_6  and  N_9 
REMARK    3  A    between atoms: C_10  and  O_12 
ROOT
HETATM    1  C   UNL     1      77.677   1.786  18.968  1.00  0.00    -0.005 A 
HETATM    2  C   UNL     1      76.733   1.418  17.951  1.00  0.00     0.003 A 
HETATM    3  N   UNL     1      76.347   3.529  18.547  1.00  0.00    -0.365 N 
HETATM    4  C   UNL     1      77.389   3.094  19.319  1.00  0.00     0.098 A 
HETATM    5  C   UNL     1      75.927   2.529  17.705  1.00  0.00     0.043 A 
HETATM    6  C   UNL     1      76.509   0.249  17.196  1.00  0.00     0.051 A 
HETATM    7  C   UNL     1      74.912   2.526  16.742  1.00  0.00     0.033 A 
HETATM    8  C   UNL     1      75.493   0.216  16.230  1.00  0.00     0.069 A 
HETATM    9  C   UNL     1      74.709   1.348  16.010  1.00  0.00     0.039 A 
HETATM   10  H   UNL     1      75.954   4.431  18.589  1.00  0.00     0.165 HD
ENDROOT
BRANCH   1  11
HETATM   11  C   UNL     1      78.788   0.942  19.523  1.00  0.00     0.274 C 
BRANCH  11  12
HETATM   12  N   UNL     1      78.409   0.359  20.821  1.00  0.00    -0.075 N 
HETATM   13  C   UNL     1      77.564  -0.827  20.659  1.00  0.00     0.269 C 
HETATM   14  C   UNL     1      79.603   0.013  21.592  1.00  0.00     0.269 C 
HETATM   15  H   UNL     1      77.871   1.065  21.324  1.00  0.00     0.279 HD
ENDBRANCH  11  12
ENDBRANCH   1  11
BRANCH   8  16
HETATM   16  O   UNL     1      75.376  -0.980  15.575  1.00  0.00    -0.356 OA
HETATM   17  C   UNL     1      76.578  -1.585  15.120  1.00  0.00     0.210 C 
ENDBRANCH   8  16
TORSDOF 3
ENDMDL
MODEL 6
REMARK VINA RESULT:      -4.4     19.859     22.057
REMARK  3 active torsions:
REMARK  status: ('A' for Active; 'I' for Inactive)
REMARK    1  A    between atoms: C_1  and  C_6 
REMARK    2  A    between atoms: C_6  and  N_9 
REMARK    3  A    between atoms: C_10  and  O_12 
ROOT
HETATM    1  C   UNL     1      78.105   0.041  19.044  1.00  0.00    -0.005 A 
HETATM    2  C   UNL     1      77.130   0.810  18.325  1.00  0.00     0.003 A 
HETATM    3  N   UNL     1      78.489   2.212  19.398  1.00  0.00    -0.365 N 
HETATM    4  C   UNL     1      78.913   0.949  19.707  1.00  0.00     0.098 A 
HETATM    5  C   UNL     1      77.403   2.157  18.557  1.00  0.00     0.043 A 
HETATM    6  C   UNL     1      76.056   0.484  17.472  1.00  0.00     0.051 A 
HETATM    7  C   UNL     1      76.657   3.190  17.979  1.00  0.00     0.033 A 
HETATM    8  C   UNL     1      75.286   1.498  16.886  1.00  0.00     0.069 A 
HETATM    9  C   UNL     1      75.592   2.834  17.140  1.00  0.00     0.039 A 
HETATM   10  H   UNL     1      78.901   3.041  19.730  1.00  0.00     0.165 HD
ENDROOT
BRANCH   1  11
HETATM   11  C   UNL     1      78.256  -1.453  19.053  1.00  0.00     0.274 C 
BRANCH  11  12
HETATM   12  N   UNL     1      79.127  -1.903  17.955  1.00  0.00    -0.075 N 
HETATM   13  C   UNL     1      80.201  -2.777  18.436  1.00  0.00     0.269 C 
HETATM   14  C   UNL     1      78.344  -2.599  16.935  1.00  0.00     0.269 C 
HETATM   15  H   UNL     1      79.555  -1.071  17.549  1.00  0.00     0.279 HD
ENDBRANCH  11  12
ENDBRANCH   1  11
BRANCH   8  16
HETATM   16  O   UNL     1      74.270   1.045  16.087  1.00  0.00    -0.356 OA
HETATM   17  C   UNL     1      73.934  -0.331  16.192  1.00  0.00     0.210 C 
ENDBRANCH   8  16
TORSDOF 3
ENDMDL
MODEL 7
REMARK VINA RESULT:      -4.4      7.272     10.402
REMARK  3 active torsions:
REMARK  status: ('A' for Active; 'I' for Inactive)
REMARK    1  A    between atoms: C_1  and  C_6 
REMARK    2  A    between atoms: C_6  and  N_9 
REMARK    3  A    between atoms: C_10  and  O_12 
ROOT
HETATM    1  C   UNL     1      69.139   1.562   9.141  1.00  0.00    -0.005 A 
HETATM    2  C   UNL     1      68.812   2.813   8.518  1.00  0.00     0.003 A 
HETATM    3  N   UNL     1      69.638   3.225  10.545  1.00  0.00    -0.365 N 
HETATM    4  C   UNL     1      69.629   1.865  10.400  1.00  0.00     0.098 A 
HETATM    5  C   UNL     1      69.145   3.828   9.414  1.00  0.00     0.043 A 
HETATM    6  C   UNL     1      68.290   3.177   7.260  1.00  0.00     0.051 A 
HETATM    7  C   UNL     1      68.982   5.185   9.112  1.00  0.00     0.033 A 
HETATM    8  C   UNL     1      68.109   4.528   6.935  1.00  0.00     0.069 A 
HETATM    9  C   UNL     1      68.456   5.515   7.855  1.00  0.00     0.039 A 
HETATM   10  H   UNL     1      69.952   3.704  11.346  1.00  0.00     0.165 HD
ENDROOT
BRANCH   1  11
HETATM   11  C   UNL     1      69.014   0.190   8.544  1.00  0.00     0.274 C 
BRANCH  11  12
HETATM   12  N   UNL     1      70.234  -0.600   8.776  1.00  0.00    -0.075 N 
HETATM   13  C   UNL     1      69.960  -1.806   9.562  1.00  0.00     0.269 C 
HETATM   14  C   UNL     1      70.852  -0.970   7.503  1.00  0.00     0.269 C 
HETATM   15  H   UNL     1      70.877  -0.014   9.311  1.00  0.00     0.279 HD
ENDBRANCH  11  12
ENDBRANCH   1  11
BRANCH   8  16
HETATM   16  O   UNL     1      67.587   4.743   5.687  1.00  0.00    -0.356 OA
HETATM   17  C   UNL     1      67.547   6.087   5.228  1.00  0.00     0.210 C 
ENDBRANCH   8  16
TORSDOF 3
ENDMDL
MODEL 8
REMARK VINA RESULT:      -4.2      1.885      2.478
REMARK  3 active torsions:
REMARK  status: ('A' for Active; 'I' for Inactive)
REMARK    1  A    between atoms: C_1  and  C_6 
REMARK    2  A    between atoms: C_6  and  N_9 
REMARK    3  A    between atoms: C_10  and  O_12 
ROOT
HETATM    1  C   UNL     1      62.519   8.964   4.369  1.00  0.00    -0.005 A 
HETATM    2  C   UNL     1      62.519   8.417   3.042  1.00  0.00     0.003 A 
HETATM    3  N   UNL     1      61.817  10.528   2.939  1.00  0.00    -0.365 N 
HETATM    4  C   UNL     1      62.061  10.266   4.259  1.00  0.00     0.098 A 
HETATM    5  C   UNL     1      62.088   9.419   2.174  1.00  0.00     0.043 A 
HETATM    6  C   UNL     1      62.875   7.167   2.495  1.00  0.00     0.051 A 
HETATM    7  C   UNL     1      61.997   9.233   0.790  1.00  0.00     0.033 A 
HETATM    8  C   UNL     1      62.785   6.950   1.113  1.00  0.00     0.069 A 
HETATM    9  C   UNL     1      62.353   7.977   0.277  1.00  0.00     0.039 A 
HETATM   10  H   UNL     1      61.494  11.389   2.586  1.00  0.00     0.165 HD
ENDROOT
BRANCH   1  11
HETATM   11  C   UNL     1      62.962   8.282   5.632  1.00  0.00     0.274 C 
BRANCH  11  12
HETATM   12  N   UNL     1      64.223   7.552   5.423  1.00  0.00    -0.075 N 
HETATM   13  C   UNL     1      65.377   8.454   5.400  1.00  0.00     0.269 C 
HETATM   14  C   UNL     1      64.406   6.543   6.466  1.00  0.00     0.269 C 
HETATM   15  H   UNL     1      64.160   7.095   4.513  1.00  0.00     0.279 HD
ENDBRANCH  11  12
ENDBRANCH   1  11
BRANCH   8  16
HETATM   16  O   UNL     1      63.153   5.692   0.715  1.00  0.00    -0.356 OA
HETATM   17  C   UNL     1      63.954   4.940   1.615  1.00  0.00     0.210 C 
ENDBRANCH   8  16
TORSDOF 3
ENDMDL
MODEL 9
REMARK VINA RESULT:      -4.1      4.731      6.859
REMARK  3 active torsions:
REMARK  status: ('A' for Active; 'I' for Inactive)
REMARK    1  A    between atoms: C_1  and  C_6 
REMARK    2  A    between atoms: C_6  and  N_9 
REMARK    3  A    between atoms: C_10  and  O_12 
ROOT
HETATM    1  C   UNL     1      68.307   4.847   7.678  1.00  0.00    -0.005 A 
HETATM    2  C   UNL     1      67.580   5.658   6.743  1.00  0.00     0.003 A 
HETATM    3  N   UNL     1      67.730   6.761   8.672  1.00  0.00    -0.365 N 
HETATM    4  C   UNL     1      68.360   5.562   8.863  1.00  0.00     0.098 A 
HETATM    5  C   UNL     1      67.245   6.847   7.390  1.00  0.00     0.043 A 
HETATM    6  C   UNL     1      67.201   5.501   5.394  1.00  0.00     0.051 A 
HETATM    7  C   UNL     1      66.552   7.883   6.754  1.00  0.00     0.033 A 
HETATM    8  C   UNL     1      66.499   6.520   4.735  1.00  0.00     0.069 A 
HETATM    9  C   UNL     1      66.184   7.696   5.414  1.00  0.00     0.039 A 
HETATM   10  H   UNL     1      67.637   7.463   9.357  1.00  0.00     0.165 HD
ENDROOT
BRANCH   1  11
HETATM   11  C   UNL     1      68.928   3.503   7.424  1.00  0.00     0.274 C 
BRANCH  11  12
HETATM   12  N   UNL     1      68.321   2.471   8.280  1.00  0.00    -0.075 N 
HETATM   13  C   UNL     1      66.950   2.158   7.866  1.00  0.00     0.269 C 
HETATM   14  C   UNL     1      69.132   1.254   8.264  1.00  0.00     0.269 C 
HETATM   15  H   UNL     1      68.287   2.846   9.228  1.00  0.00     0.279 HD
ENDBRANCH  11  12
ENDBRANCH   1  11
BRANCH   8  16
HETATM   16  O   UNL     1      66.185   6.237   3.433  1.00  0.00    -0.356 OA
HETATM   17  C   UNL     1      64.812   6.042   3.129  1.00  0.00     0.210 C 
ENDBRANCH   8  16
TORSDOF 3
ENDMDL
