MODEL 1
REMARK VINA RESULT:      -6.1      0.000      0.000
REMARK  0 active torsions:
REMARK  status: ('A' for Active; 'I' for Inactive)
ROOT
HETATM    1  C   UNL     1      78.118  11.406  19.809  1.00  0.00     0.048 A 
HETATM    2  N   UNL     1      78.875  10.281  19.552  1.00  0.00    -0.365 N 
HETATM    3  C   UNL     1      78.383   9.611  18.465  1.00  0.00     0.089 A 
HETATM    4  C   UNL     1      77.103  11.433  18.854  1.00  0.00    -0.008 A 
HETATM    5  C   UNL     1      77.285  10.302  18.009  1.00  0.00     0.030 A 
HETATM    6  C   UNL     1      78.264  12.387  20.809  1.00  0.00    -0.035 A 
HETATM    7  C   UNL     1      76.277  13.465  19.872  1.00  0.00     0.002 A 
HETATM    8  C   UNL     1      76.166  12.483  18.885  1.00  0.00     0.014 A 
HETATM    9  C   UNL     1      77.307  13.418  20.811  1.00  0.00     0.009 A 
HETATM   10  C   UNL     1      79.370  12.366  21.819  1.00  0.00     0.050 C 
HETATM   11  H   UNL     1      79.659  10.001  20.077  1.00  0.00     0.165 HD
ENDROOT
TORSDOF 0
ENDMDL
MODEL 2
REMARK VINA RESULT:      -5.9      4.107      5.742
REMARK  0 active torsions:
REMARK  status: ('A' for Active; 'I' for Inactive)
ROOT
HETATM    1  C   UNL     1      77.243   7.858  15.601  1.00  0.00     0.048 A 
HETATM    2  N   UNL     1      77.316   7.530  14.262  1.00  0.00    -0.365 N 
HETATM    3  C   UNL     1      77.753   8.601  13.530  1.00  0.00     0.089 A 
HETATM    4  C   UNL     1      77.636   9.191  15.709  1.00  0.00    -0.008 A 
HETATM    5  C   UNL     1      77.961   9.645  14.400  1.00  0.00     0.030 A 
HETATM    6  C   UNL     1      76.862   7.073  16.706  1.00  0.00    -0.035 A 
HETATM    7  C   UNL     1      77.264   9.048  18.094  1.00  0.00     0.002 A 
HETATM    8  C   UNL     1      77.647   9.797  16.979  1.00  0.00     0.014 A 
HETATM    9  C   UNL     1      76.883   7.714  17.958  1.00  0.00     0.009 A 
HETATM   10  C   UNL     1      76.463   5.634  16.588  1.00  0.00     0.050 C 
HETATM   11  H   UNL     1      77.087   6.649  13.887  1.00  0.00     0.165 HD
ENDROOT
TORSDOF 0
ENDMDL
MODEL 3
REMARK VINA RESULT:      -5.8      3.575      5.660
REMARK  0 active torsions:
REMARK  status: ('A' for Active; 'I' for Inactive)
ROOT
HETATM    1  C   UNL     1      77.454   8.712  16.131  1.00  0.00     0.048 A 
HETATM    2  N   UNL     1      77.867   9.919  15.606  1.00  0.00    -0.365 N 
HETATM    3  C   UNL     1      77.920   9.854  14.240  1.00  0.00     0.089 A 
HETATM    4  C   UNL     1      77.255   7.852  15.052  1.00  0.00    -0.008 A 
HETATM    5  C   UNL     1      77.544   8.585  13.867  1.00  0.00     0.030 A 
HETATM    6  C   UNL     1      77.246   8.330  17.470  1.00  0.00    -0.035 A 
HETATM    7  C   UNL     1      76.629   6.120  16.619  1.00  0.00     0.002 A 
HETATM    8  C   UNL     1      76.834   6.532  15.300  1.00  0.00     0.014 A 
HETATM    9  C   UNL     1      76.829   7.002  17.680  1.00  0.00     0.009 A 
HETATM   10  C   UNL     1      77.439   9.264  18.626  1.00  0.00     0.050 C 
HETATM   11  H   UNL     1      78.091  10.715  16.139  1.00  0.00     0.165 HD
ENDROOT
TORSDOF 0
ENDMDL
MODEL 4
REMARK VINA RESULT:      -5.5      3.320      6.006
REMARK  0 active torsions:
REMARK  status: ('A' for Active; 'I' for Inactive)
ROOT
HETATM    1  C   UNL     1      77.348   8.619  16.420  1.00  0.00     0.048 A 
HETATM    2  N   UNL     1      77.684   9.923  16.718  1.00  0.00    -0.365 N 
HETATM    3  C   UNL     1      77.635  10.133  18.070  1.00  0.00     0.089 A 
HETATM    4  C   UNL     1      77.063   7.990  17.632  1.00  0.00    -0.008 A 
HETATM    5  C   UNL     1      77.255   8.952  18.663  1.00  0.00     0.030 A 
HETATM    6  C   UNL     1      77.278   7.962  15.176  1.00  0.00    -0.035 A 
HETATM    7  C   UNL     1      76.590   5.961  16.405  1.00  0.00     0.002 A 
HETATM    8  C   UNL     1      76.679   6.637  17.625  1.00  0.00     0.014 A 
HETATM    9  C   UNL     1      76.887   6.611  15.208  1.00  0.00     0.009 A 
HETATM   10  C   UNL     1      77.607   8.635  13.878  1.00  0.00     0.050 C 
HETATM   11  H   UNL     1      77.925  10.607  16.052  1.00  0.00     0.165 HD
ENDROOT
TORSDOF 0
ENDMDL
MODEL 5
REMARK VINA RESULT:      -5.3      3.294      5.795
REMARK  0 active torsions:
REMARK  status: ('A' for Active; 'I' for Inactive)
ROOT
HETATM    1  C   UNL     1      77.239   8.222  16.607  1.00  0.00     0.048 A 
HETATM    2  N   UNL     1      77.068   7.995  17.958  1.00  0.00    -0.365 N 
HETATM    3  C   UNL     1      77.384   9.117  18.675  1.00  0.00     0.089 A 
HETATM    4  C   UNL     1      77.695   9.533  16.475  1.00  0.00    -0.008 A 
HETATM    5  C   UNL     1      77.774  10.088  17.783  1.00  0.00     0.030 A 
HETATM    6  C   UNL     1      77.024   7.365  15.510  1.00  0.00    -0.035 A 
HETATM    7  C   UNL     1      77.770   9.206  14.080  1.00  0.00     0.002 A 
HETATM    8  C   UNL     1      77.964  10.034  15.188  1.00  0.00     0.014 A 
HETATM    9  C   UNL     1      77.307   7.900  14.241  1.00  0.00     0.009 A 
HETATM   10  C   UNL     1      76.512   5.964  15.656  1.00  0.00     0.050 C 
HETATM   11  H   UNL     1      76.761   7.146  18.350  1.00  0.00     0.165 HD
ENDROOT
TORSDOF 0
ENDMDL
MODEL 6
REMARK VINA RESULT:      -4.9      7.388      9.550
REMARK  0 active torsions:
REMARK  status: ('A' for Active; 'I' for Inactive)
ROOT
HETATM    1  C   UNL     1      76.593   3.232  17.772  1.00  0.00     0.048 A 
HETATM    2  N   UNL     1      77.298   4.402  17.965  1.00  0.00    -0.365 N 
HETATM    3  C   UNL     1      76.646   5.456  17.384  1.00  0.00     0.089 A 
HETATM    4  C   UNL     1      75.461   3.564  17.027  1.00  0.00    -0.008 A 
HETATM    5  C   UNL     1      75.503   4.968  16.796  1.00  0.00     0.030 A 
HETATM    6  C   UNL     1      76.876   1.922  18.201  1.00  0.00    -0.035 A 
HETATM    7  C   UNL     1      74.815   1.235  17.075  1.00  0.00     0.002 A 
HETATM    8  C   UNL     1      74.555   2.547  16.673  1.00  0.00     0.014 A 
HETATM    9  C   UNL     1      75.950   0.931  17.826  1.00  0.00     0.009 A 
HETATM   10  C   UNL     1      78.081   1.573  19.021  1.00  0.00     0.050 C 
HETATM   11  H   UNL     1      78.150   4.470  18.453  1.00  0.00     0.165 HD
ENDROOT
TORSDOF 0
ENDMDL
MODEL 7
REMARK VINA RESULT:      -4.8     21.660     23.013
REMARK  0 active torsions:
REMARK  status: ('A' for Active; 'I' for Inactive)
ROOT
HETATM    1  C   UNL     1      62.495   8.843   2.838  1.00  0.00     0.048 A 
HETATM    2  N   UNL     1      62.729   7.566   2.372  1.00  0.00    -0.365 N 
HETATM    3  C   UNL     1      62.520   7.503   1.020  1.00  0.00     0.089 A 
HETATM    4  C   UNL     1      62.109   9.608   1.738  1.00  0.00    -0.008 A 
HETATM    5  C   UNL     1      62.136   8.755   0.598  1.00  0.00     0.030 A 
HETATM    6  C   UNL     1      62.598   9.365   4.142  1.00  0.00    -0.035 A 
HETATM    7  C   UNL     1      61.879  11.511   3.211  1.00  0.00     0.002 A 
HETATM    8  C   UNL     1      61.797  10.967   1.927  1.00  0.00     0.014 A 
HETATM    9  C   UNL     1      62.274  10.726   4.293  1.00  0.00     0.009 A 
HETATM   10  C   UNL     1      63.035   8.545   5.318  1.00  0.00     0.050 C 
HETATM   11  H   UNL     1      63.008   6.806   2.932  1.00  0.00     0.165 HD
ENDROOT
TORSDOF 0
ENDMDL
MODEL 8
REMARK VINA RESULT:      -4.8     21.209     22.704
REMARK  0 active torsions:
REMARK  status: ('A' for Active; 'I' for Inactive)
ROOT
HETATM    1  C   UNL     1      62.633   8.885   3.053  1.00  0.00     0.048 A 
HETATM    2  N   UNL     1      63.080   7.609   3.326  1.00  0.00    -0.365 N 
HETATM    3  C   UNL     1      63.362   7.474   4.658  1.00  0.00     0.089 A 
HETATM    4  C   UNL     1      62.650   9.583   4.260  1.00  0.00    -0.008 A 
HETATM    5  C   UNL     1      63.103   8.681   5.264  1.00  0.00     0.030 A 
HETATM    6  C   UNL     1      62.220   9.460   1.836  1.00  0.00    -0.035 A 
HETATM    7  C   UNL     1      61.840  11.532   3.082  1.00  0.00     0.002 A 
HETATM    8  C   UNL     1      62.245  10.930   4.275  1.00  0.00     0.014 A 
HETATM    9  C   UNL     1      61.827  10.810   1.889  1.00  0.00     0.009 A 
HETATM   10  C   UNL     1      62.182   8.701   0.545  1.00  0.00     0.050 C 
HETATM   11  H   UNL     1      63.181   6.895   2.656  1.00  0.00     0.165 HD
ENDROOT
TORSDOF 0
ENDMDL
MODEL 9
REMARK VINA RESULT:      -4.7     20.862     22.417
REMARK  0 active torsions:
REMARK  status: ('A' for Active; 'I' for Inactive)
ROOT
HETATM    1  C   UNL     1      62.893   9.334   3.979  1.00  0.00     0.048 A 
HETATM    2  N   UNL     1      63.276   9.638   5.269  1.00  0.00    -0.365 N 
HETATM    3  C   UNL     1      62.875  10.903   5.602  1.00  0.00     0.089 A 
HETATM    4  C   UNL     1      62.238  10.459   3.479  1.00  0.00    -0.008 A 
HETATM    5  C   UNL     1      62.227  11.437   4.513  1.00  0.00     0.030 A 
HETATM    6  C   UNL     1      63.078   8.154   3.232  1.00  0.00    -0.035 A 
HETATM    7  C   UNL     1      61.920   9.278   1.392  1.00  0.00     0.002 A 
HETATM    8  C   UNL     1      61.742  10.430   2.162  1.00  0.00     0.014 A 
HETATM    9  C   UNL     1      62.572   8.164   1.919  1.00  0.00     0.009 A 
HETATM   10  C   UNL     1      63.762   6.939   3.781  1.00  0.00     0.050 C 
HETATM   11  H   UNL     1      63.768   9.029   5.866  1.00  0.00     0.165 HD
ENDROOT
TORSDOF 0
ENDMDL
