MODEL 1
REMARK VINA RESULT:      -6.7      0.000      0.000
REMARK  1 active torsions:
REMARK  status: ('A' for Active; 'I' for Inactive)
REMARK    1  A    between atoms: C_3  and  O_8 
ROOT
HETATM    1  N   UNL     1      80.060  10.920  20.648  1.00  0.00    -0.336 N 
ATOM      2  HN  UNL     1      80.872  10.302  20.675  1.00  0.00     0.168 HD
HETATM    3  C   UNL     1      79.941  11.943  21.506  1.00  0.00     0.140 A 
HETATM    4  C   UNL     1      79.078  10.735  19.754  1.00  0.00     0.044 A 
HETATM    5  C   UNL     1      77.818  12.603  20.637  1.00  0.00    -0.045 A 
HETATM    6  C   UNL     1      77.926  11.555  19.692  1.00  0.00    -0.003 A 
HETATM    7  C   UNL     1      78.858  12.800  21.551  1.00  0.00     0.063 A 
HETATM    8  C   UNL     1      76.622  13.513  20.683  1.00  0.00     0.049 C 
HETATM    9  C   UNL     1      79.211   9.701  18.835  1.00  0.00     0.030 A 
HETATM   10  C   UNL     1      76.959  11.300  18.694  1.00  0.00     0.014 A 
HETATM   11  C   UNL     1      78.262   9.471  17.838  1.00  0.00     0.002 A 
HETATM   12  C   UNL     1      77.135  10.275  17.764  1.00  0.00     0.001 A 
ENDROOT
BRANCH   3  13
HETATM   13  O   UNL     1      80.999  12.104  22.352  1.00  0.00    -0.346 OA
HETATM   14  H   UNL     1      81.341  11.368  22.819  1.00  0.00     0.219 HD
ENDBRANCH   3  13
TORSDOF 1
ENDMDL
MODEL 2
REMARK VINA RESULT:      -6.0      3.547      5.322
REMARK  1 active torsions:
REMARK  status: ('A' for Active; 'I' for Inactive)
REMARK    1  A    between atoms: C_3  and  O_8 
ROOT
HETATM    1  N   UNL     1      77.858   9.958  17.333  1.00  0.00    -0.336 N 
ATOM      2  HN  UNL     1      78.217  10.910  17.404  1.00  0.00     0.168 HD
HETATM    3  C   UNL     1      77.486   9.275  18.426  1.00  0.00     0.140 A 
HETATM    4  C   UNL     1      77.743   9.348  16.145  1.00  0.00     0.044 A 
HETATM    5  C   UNL     1      76.919   7.320  17.178  1.00  0.00    -0.045 A 
HETATM    6  C   UNL     1      77.269   8.022  16.000  1.00  0.00    -0.003 A 
HETATM    7  C   UNL     1      77.023   7.973  18.411  1.00  0.00     0.063 A 
HETATM    8  C   UNL     1      76.436   5.897  17.143  1.00  0.00     0.049 C 
HETATM    9  C   UNL     1      78.088  10.061  15.003  1.00  0.00     0.030 A 
HETATM   10  C   UNL     1      77.154   7.476  14.702  1.00  0.00     0.014 A 
HETATM   11  C   UNL     1      77.950   9.521  13.723  1.00  0.00     0.002 A 
HETATM   12  C   UNL     1      77.477   8.227  13.571  1.00  0.00     0.001 A 
ENDROOT
BRANCH   3  13
HETATM   13  O   UNL     1      77.581   9.973  19.594  1.00  0.00    -0.346 OA
HETATM   14  H   UNL     1      78.382   9.967  20.079  1.00  0.00     0.219 HD
ENDBRANCH   3  13
TORSDOF 1
ENDMDL
MODEL 3
REMARK VINA RESULT:      -5.6     21.713     23.505
REMARK  1 active torsions:
REMARK  status: ('A' for Active; 'I' for Inactive)
REMARK    1  A    between atoms: C_3  and  O_8 
ROOT
HETATM    1  N   UNL     1      61.853  10.862   2.929  1.00  0.00    -0.336 N 
ATOM      2  HN  UNL     1      61.368  11.560   2.364  1.00  0.00     0.168 HD
HETATM    3  C   UNL     1      62.224  11.127   4.190  1.00  0.00     0.140 A 
HETATM    4  C   UNL     1      62.140   9.649   2.434  1.00  0.00     0.044 A 
HETATM    5  C   UNL     1      63.234   8.984   4.488  1.00  0.00    -0.045 A 
HETATM    6  C   UNL     1      62.826   8.656   3.173  1.00  0.00    -0.003 A 
HETATM    7  C   UNL     1      62.911  10.245   5.002  1.00  0.00     0.063 A 
HETATM    8  C   UNL     1      63.997   8.017   5.350  1.00  0.00     0.049 C 
HETATM    9  C   UNL     1      61.724   9.351   1.142  1.00  0.00     0.030 A 
HETATM   10  C   UNL     1      63.055   7.396   2.576  1.00  0.00     0.014 A 
HETATM   11  C   UNL     1      61.935   8.096   0.568  1.00  0.00     0.002 A 
HETATM   12  C   UNL     1      62.598   7.114   1.288  1.00  0.00     0.001 A 
ENDROOT
BRANCH   3  13
HETATM   13  O   UNL     1      61.856  12.359   4.645  1.00  0.00    -0.346 OA
HETATM   14  H   UNL     1      62.076  13.125   4.154  1.00  0.00     0.219 HD
ENDBRANCH   3  13
TORSDOF 1
ENDMDL
MODEL 4
REMARK VINA RESULT:      -5.6     21.266     22.914
REMARK  1 active torsions:
REMARK  status: ('A' for Active; 'I' for Inactive)
REMARK    1  A    between atoms: C_3  and  O_8 
ROOT
HETATM    1  N   UNL     1      62.970   9.173   5.572  1.00  0.00    -0.336 N 
ATOM      2  HN  UNL     1      62.941   9.769   6.400  1.00  0.00     0.168 HD
HETATM    3  C   UNL     1      63.334   7.885   5.658  1.00  0.00     0.140 A 
HETATM    4  C   UNL     1      62.645   9.652   4.363  1.00  0.00     0.044 A 
HETATM    5  C   UNL     1      63.113   7.523   3.309  1.00  0.00    -0.045 A 
HETATM    6  C   UNL     1      62.689   8.868   3.184  1.00  0.00    -0.003 A 
HETATM    7  C   UNL     1      63.429   7.028   4.578  1.00  0.00     0.063 A 
HETATM    8  C   UNL     1      63.228   6.612   2.119  1.00  0.00     0.049 C 
HETATM    9  C   UNL     1      62.228  10.974   4.269  1.00  0.00     0.030 A 
HETATM   10  C   UNL     1      62.298   9.454   1.959  1.00  0.00     0.014 A 
HETATM   11  C   UNL     1      61.822  11.537   3.058  1.00  0.00     0.002 A 
HETATM   12  C   UNL     1      61.852  10.775   1.901  1.00  0.00     0.001 A 
ENDROOT
BRANCH   3  13
HETATM   13  O   UNL     1      63.601   7.452   6.923  1.00  0.00    -0.346 OA
HETATM   14  H   UNL     1      63.180   7.856   7.656  1.00  0.00     0.219 HD
ENDBRANCH   3  13
TORSDOF 1
ENDMDL
MODEL 5
REMARK VINA RESULT:      -5.4     21.317     22.953
REMARK  1 active torsions:
REMARK  status: ('A' for Active; 'I' for Inactive)
REMARK    1  A    between atoms: C_3  and  O_8 
ROOT
HETATM    1  N   UNL     1      62.894  10.261   4.904  1.00  0.00    -0.336 N 
ATOM      2  HN  UNL     1      63.131  10.563   5.849  1.00  0.00     0.168 HD
HETATM    3  C   UNL     1      62.212  11.061   4.072  1.00  0.00     0.140 A 
HETATM    4  C   UNL     1      63.255   9.051   4.454  1.00  0.00     0.044 A 
HETATM    5  C   UNL     1      62.179   9.439   2.320  1.00  0.00    -0.045 A 
HETATM    6  C   UNL     1      62.932   8.581   3.158  1.00  0.00    -0.003 A 
HETATM    7  C   UNL     1      61.827  10.707   2.792  1.00  0.00     0.063 A 
HETATM    8  C   UNL     1      61.754   9.029   0.938  1.00  0.00     0.049 C 
HETATM    9  C   UNL     1      63.997   8.230   5.294  1.00  0.00     0.030 A 
HETATM   10  C   UNL     1      63.383   7.302   2.763  1.00  0.00     0.014 A 
HETATM   11  C   UNL     1      64.457   6.977   4.887  1.00  0.00     0.002 A 
HETATM   12  C   UNL     1      64.154   6.513   3.617  1.00  0.00     0.001 A 
ENDROOT
BRANCH   3  13
HETATM   13  O   UNL     1      61.922  12.295   4.576  1.00  0.00    -0.346 OA
HETATM   14  H   UNL     1      62.118  13.062   4.076  1.00  0.00     0.219 HD
ENDBRANCH   3  13
TORSDOF 1
ENDMDL
MODEL 6
REMARK VINA RESULT:      -5.3     16.546     18.254
REMARK  1 active torsions:
REMARK  status: ('A' for Active; 'I' for Inactive)
REMARK    1  A    between atoms: C_3  and  O_8 
ROOT
HETATM    1  N   UNL     1      67.110   7.351   7.727  1.00  0.00    -0.336 N 
ATOM      2  HN  UNL     1      67.038   7.987   8.522  1.00  0.00     0.168 HD
HETATM    3  C   UNL     1      66.646   7.697   6.518  1.00  0.00     0.140 A 
HETATM    4  C   UNL     1      67.674   6.142   7.858  1.00  0.00     0.044 A 
HETATM    5  C   UNL     1      67.246   5.606   5.537  1.00  0.00    -0.045 A 
HETATM    6  C   UNL     1      67.780   5.219   6.790  1.00  0.00    -0.003 A 
HETATM    7  C   UNL     1      66.679   6.878   5.406  1.00  0.00     0.063 A 
HETATM    8  C   UNL     1      67.276   4.692   4.343  1.00  0.00     0.049 C 
HETATM    9  C   UNL     1      68.195   5.789   9.097  1.00  0.00     0.030 A 
HETATM   10  C   UNL     1      68.420   3.980   7.017  1.00  0.00     0.014 A 
HETATM   11  C   UNL     1      68.845   4.572   9.307  1.00  0.00     0.002 A 
HETATM   12  C   UNL     1      68.962   3.666   8.264  1.00  0.00     0.001 A 
ENDROOT
BRANCH   3  13
HETATM   13  O   UNL     1      66.132   8.959   6.445  1.00  0.00    -0.346 OA
HETATM   14  H   UNL     1      65.253   9.123   6.722  1.00  0.00     0.219 HD
ENDBRANCH   3  13
TORSDOF 1
ENDMDL
MODEL 7
REMARK VINA RESULT:      -5.3      2.177      2.984
REMARK  1 active torsions:
REMARK  status: ('A' for Active; 'I' for Inactive)
REMARK    1  A    between atoms: C_3  and  O_8 
ROOT
HETATM    1  N   UNL     1      76.405  12.635  19.350  1.00  0.00    -0.336 N 
ATOM      2  HN  UNL     1      75.573  12.820  18.788  1.00  0.00     0.168 HD
HETATM    3  C   UNL     1      76.705  13.393  20.414  1.00  0.00     0.140 A 
HETATM    4  C   UNL     1      77.233  11.624  19.047  1.00  0.00     0.044 A 
HETATM    5  C   UNL     1      78.710  12.185  20.881  1.00  0.00    -0.045 A 
HETATM    6  C   UNL     1      78.407  11.341  19.785  1.00  0.00    -0.003 A 
HETATM    7  C   UNL     1      77.829  13.222  21.200  1.00  0.00     0.063 A 
HETATM    8  C   UNL     1      79.949  11.994  21.713  1.00  0.00     0.049 C 
HETATM    9  C   UNL     1      76.909  10.808  17.970  1.00  0.00     0.030 A 
HETATM   10  C   UNL     1      79.201  10.234  19.408  1.00  0.00     0.014 A 
HETATM   11  C   UNL     1      77.687   9.704  17.619  1.00  0.00     0.002 A 
HETATM   12  C   UNL     1      78.833   9.412  18.342  1.00  0.00     0.001 A 
ENDROOT
BRANCH   3  13
HETATM   13  O   UNL     1      75.795  14.369  20.694  1.00  0.00    -0.346 OA
HETATM   14  H   UNL     1      75.276  14.737  20.006  1.00  0.00     0.219 HD
ENDBRANCH   3  13
TORSDOF 1
ENDMDL
MODEL 8
REMARK VINA RESULT:      -5.3      0.980      2.998
REMARK  1 active torsions:
REMARK  status: ('A' for Active; 'I' for Inactive)
REMARK    1  A    between atoms: C_3  and  O_8 
ROOT
HETATM    1  N   UNL     1      79.032  12.760  21.411  1.00  0.00    -0.336 N 
ATOM      2  HN  UNL     1      79.084  13.511  22.099  1.00  0.00     0.168 HD
HETATM    3  C   UNL     1      79.987  11.822  21.336  1.00  0.00     0.140 A 
HETATM    4  C   UNL     1      78.006  12.678  20.552  1.00  0.00     0.044 A 
HETATM    5  C   UNL     1      78.946  10.714  19.495  1.00  0.00    -0.045 A 
HETATM    6  C   UNL     1      77.901  11.665  19.568  1.00  0.00    -0.003 A 
HETATM    7  C   UNL     1      80.001  10.796  20.410  1.00  0.00     0.063 A 
HETATM    8  C   UNL     1      78.952   9.615  18.468  1.00  0.00     0.049 C 
HETATM    9  C   UNL     1      76.990  13.622  20.648  1.00  0.00     0.030 A 
HETATM   10  C   UNL     1      76.765  11.644  18.728  1.00  0.00     0.014 A 
HETATM   11  C   UNL     1      75.861  13.580  19.828  1.00  0.00     0.002 A 
HETATM   12  C   UNL     1      75.745  12.586  18.869  1.00  0.00     0.001 A 
ENDROOT
BRANCH   3  13
HETATM   13  O   UNL     1      80.973  11.936  22.271  1.00  0.00    -0.346 OA
HETATM   14  H   UNL     1      81.779  12.360  22.053  1.00  0.00     0.219 HD
ENDBRANCH   3  13
TORSDOF 1
ENDMDL
MODEL 9
REMARK VINA RESULT:      -5.1      1.630      2.837
REMARK  1 active torsions:
REMARK  status: ('A' for Active; 'I' for Inactive)
REMARK    1  A    between atoms: C_3  and  O_8 
ROOT
HETATM    1  N   UNL     1      78.716  10.683  19.345  1.00  0.00    -0.336 N 
ATOM      2  HN  UNL     1      78.600  10.035  18.565  1.00  0.00     0.168 HD
HETATM    3  C   UNL     1      79.779  10.606  20.158  1.00  0.00     0.140 A 
HETATM    4  C   UNL     1      77.808  11.639  19.590  1.00  0.00     0.044 A 
HETATM    5  C   UNL     1      79.034  12.413  21.529  1.00  0.00    -0.045 A 
HETATM    6  C   UNL     1      77.916  12.547  20.671  1.00  0.00    -0.003 A 
HETATM    7  C   UNL     1      79.985  11.426  21.252  1.00  0.00     0.063 A 
HETATM    8  C   UNL     1      79.231  13.302  22.725  1.00  0.00     0.049 C 
HETATM    9  C   UNL     1      76.723  11.753  18.730  1.00  0.00     0.030 A 
HETATM   10  C   UNL     1      76.925  13.541  20.830  1.00  0.00     0.014 A 
HETATM   11  C   UNL     1      75.760  12.752  18.882  1.00  0.00     0.002 A 
HETATM   12  C   UNL     1      75.863  13.652  19.931  1.00  0.00     0.001 A 
ENDROOT
BRANCH   3  13
HETATM   13  O   UNL     1      80.686   9.645  19.821  1.00  0.00    -0.346 OA
HETATM   14  H   UNL     1      81.559   9.888  19.583  1.00  0.00     0.219 HD
ENDBRANCH   3  13
TORSDOF 1
ENDMDL
