MODEL 1
REMARK VINA RESULT:      -4.4      0.000      0.000
REMARK  1 active torsions:
REMARK  status: ('A' for Active; 'I' for Inactive)
REMARK    1  A    between atoms: C_1  and  C_3 
ROOT
HETATM    1  C   UNL     1      76.564   2.748  17.935  1.00  0.00     0.081 A 
HETATM    2  S   UNL     1      75.110   2.724  17.030  1.00  0.00    -0.088 SA
HETATM    3  C   UNL     1      77.257   1.559  17.794  1.00  0.00     0.027 A 
HETATM    4  C   UNL     1      75.398   1.136  16.461  1.00  0.00    -0.020 A 
HETATM    5  C   UNL     1      76.586   0.632  16.945  1.00  0.00     0.015 A 
HETATM    6  C   UNL     1      74.413   0.476  15.557  1.00  0.00     0.056 C 
ENDROOT
BRANCH   1   7
HETATM    7  C   UNL     1      76.905   3.919  18.707  1.00  0.00     0.216 C 
HETATM    8  O   UNL     1      76.947   5.090  18.354  1.00  0.00    -0.643 OA
HETATM    9  O   UNL     1      77.209   3.599  19.986  1.00  0.00    -0.643 OA
ENDBRANCH   1   7
TORSDOF 1
ENDMDL
MODEL 2
REMARK VINA RESULT:      -4.3     19.863     21.152
REMARK  1 active torsions:
REMARK  status: ('A' for Active; 'I' for Inactive)
REMARK    1  A    between atoms: C_1  and  C_3 
ROOT
HETATM    1  C   UNL     1      62.522  10.170   4.080  1.00  0.00     0.081 A 
HETATM    2  S   UNL     1      62.748   8.715   3.205  1.00  0.00    -0.088 SA
HETATM    3  C   UNL     1      61.968  11.151   3.278  1.00  0.00     0.027 A 
HETATM    4  C   UNL     1      62.120   9.392   1.764  1.00  0.00    -0.020 A 
HETATM    5  C   UNL     1      61.736  10.702   1.946  1.00  0.00     0.015 A 
HETATM    6  C   UNL     1      62.046   8.570   0.522  1.00  0.00     0.056 C 
ENDROOT
BRANCH   1   7
HETATM    7  C   UNL     1      62.905  10.233   5.471  1.00  0.00     0.216 C 
HETATM    8  O   UNL     1      63.143  11.214   6.161  1.00  0.00    -0.643 OA
HETATM    9  O   UNL     1      62.992   8.998   6.018  1.00  0.00    -0.643 OA
ENDBRANCH   1   7
TORSDOF 1
ENDMDL
MODEL 3
REMARK VINA RESULT:      -4.3      7.913     10.009
REMARK  1 active torsions:
REMARK  status: ('A' for Active; 'I' for Inactive)
REMARK    1  A    between atoms: C_1  and  C_3 
ROOT
HETATM    1  C   UNL     1      77.256  11.026  18.452  1.00  0.00     0.081 A 
HETATM    2  S   UNL     1      78.345  11.012  19.774  1.00  0.00    -0.088 SA
HETATM    3  C   UNL     1      76.460  12.156  18.475  1.00  0.00     0.027 A 
HETATM    4  C   UNL     1      77.753  12.499  20.378  1.00  0.00    -0.020 A 
HETATM    5  C   UNL     1      76.747  13.005  19.583  1.00  0.00     0.015 A 
HETATM    6  C   UNL     1      78.330  13.083  21.623  1.00  0.00     0.056 C 
ENDROOT
BRANCH   1   7
HETATM    7  C   UNL     1      77.267   9.934  17.507  1.00  0.00     0.216 C 
HETATM    8  O   UNL     1      76.973   8.760  17.682  1.00  0.00    -0.643 OA
HETATM    9  O   UNL     1      77.669  10.343  16.281  1.00  0.00    -0.643 OA
ENDBRANCH   1   7
TORSDOF 1
ENDMDL
MODEL 4
REMARK VINA RESULT:      -4.2      8.382     10.346
REMARK  1 active torsions:
REMARK  status: ('A' for Active; 'I' for Inactive)
REMARK    1  A    between atoms: C_1  and  C_3 
ROOT
HETATM    1  C   UNL     1      77.964  11.153  19.740  1.00  0.00     0.081 A 
HETATM    2  S   UNL     1      79.589  11.161  20.282  1.00  0.00    -0.088 SA
HETATM    3  C   UNL     1      77.186  12.018  20.487  1.00  0.00     0.027 A 
HETATM    4  C   UNL     1      79.255  12.304  21.511  1.00  0.00    -0.020 A 
HETATM    5  C   UNL     1      77.930  12.682  21.505  1.00  0.00     0.015 A 
HETATM    6  C   UNL     1      80.344  12.764  22.420  1.00  0.00     0.056 C 
ENDROOT
BRANCH   1   7
HETATM    7  C   UNL     1      77.584  10.303  18.636  1.00  0.00     0.216 C 
HETATM    8  O   UNL     1      77.395  10.599  17.464  1.00  0.00    -0.643 OA
HETATM    9  O   UNL     1      77.437   9.016  19.029  1.00  0.00    -0.643 OA
ENDBRANCH   1   7
TORSDOF 1
ENDMDL
MODEL 5
REMARK VINA RESULT:      -4.1     20.082     21.080
REMARK  1 active torsions:
REMARK  status: ('A' for Active; 'I' for Inactive)
REMARK    1  A    between atoms: C_1  and  C_3 
ROOT
HETATM    1  C   UNL     1      62.636   9.956   3.999  1.00  0.00     0.081 A 
HETATM    2  S   UNL     1      61.918  10.232   2.469  1.00  0.00    -0.088 SA
HETATM    3  C   UNL     1      63.201   8.695   4.063  1.00  0.00     0.027 A 
HETATM    4  C   UNL     1      62.350   8.677   1.899  1.00  0.00    -0.020 A 
HETATM    5  C   UNL     1      63.037   7.960   2.854  1.00  0.00     0.015 A 
HETATM    6  C   UNL     1      61.974   8.256   0.518  1.00  0.00     0.056 C 
ENDROOT
BRANCH   1   7
HETATM    7  C   UNL     1      62.586  10.988   5.007  1.00  0.00     0.216 C 
HETATM    8  O   UNL     1      63.053  10.986   6.138  1.00  0.00    -0.643 OA
HETATM    9  O   UNL     1      61.913  12.078   4.568  1.00  0.00    -0.643 OA
ENDBRANCH   1   7
TORSDOF 1
ENDMDL
MODEL 6
REMARK VINA RESULT:      -4.0     10.460     11.686
REMARK  1 active torsions:
REMARK  status: ('A' for Active; 'I' for Inactive)
REMARK    1  A    between atoms: C_1  and  C_3 
ROOT
HETATM    1  C   UNL     1      68.902   3.060   9.660  1.00  0.00     0.081 A 
HETATM    2  S   UNL     1      67.704   3.231   8.447  1.00  0.00    -0.088 SA
HETATM    3  C   UNL     1      69.800   4.112   9.624  1.00  0.00     0.027 A 
HETATM    4  C   UNL     1      68.383   4.693   7.873  1.00  0.00    -0.020 A 
HETATM    5  C   UNL     1      69.500   5.052   8.596  1.00  0.00     0.015 A 
HETATM    6  C   UNL     1      67.758   5.406   6.722  1.00  0.00     0.056 C 
ENDROOT
BRANCH   1   7
HETATM    7  C   UNL     1      68.868   1.916  10.540  1.00  0.00     0.216 C 
HETATM    8  O   UNL     1      67.918   1.215  10.857  1.00  0.00    -0.643 OA
HETATM    9  O   UNL     1      70.095   1.642  11.044  1.00  0.00    -0.643 OA
ENDBRANCH   1   7
TORSDOF 1
ENDMDL
MODEL 7
REMARK VINA RESULT:      -4.0     19.613     20.996
REMARK  1 active torsions:
REMARK  status: ('A' for Active; 'I' for Inactive)
REMARK    1  A    between atoms: C_1  and  C_3 
ROOT
HETATM    1  C   UNL     1      62.092  10.002   3.656  1.00  0.00     0.081 A 
HETATM    2  S   UNL     1      62.991   9.676   5.077  1.00  0.00    -0.088 SA
HETATM    3  C   UNL     1      61.565   8.840   3.124  1.00  0.00     0.027 A 
HETATM    4  C   UNL     1      62.687   7.995   4.978  1.00  0.00    -0.020 A 
HETATM    5  C   UNL     1      61.907   7.685   3.886  1.00  0.00     0.015 A 
HETATM    6  C   UNL     1      63.250   7.072   6.005  1.00  0.00     0.056 C 
ENDROOT
BRANCH   1   7
HETATM    7  C   UNL     1      61.979  11.360   3.179  1.00  0.00     0.216 C 
HETATM    8  O   UNL     1      61.938  11.773   2.029  1.00  0.00    -0.643 OA
HETATM    9  O   UNL     1      61.913  12.242   4.205  1.00  0.00    -0.643 OA
ENDBRANCH   1   7
TORSDOF 1
ENDMDL
MODEL 8
REMARK VINA RESULT:      -3.9     19.792     20.732
REMARK  1 active torsions:
REMARK  status: ('A' for Active; 'I' for Inactive)
REMARK    1  A    between atoms: C_1  and  C_3 
ROOT
HETATM    1  C   UNL     1      62.502   9.920   3.866  1.00  0.00     0.081 A 
HETATM    2  S   UNL     1      63.514   8.608   4.299  1.00  0.00    -0.088 SA
HETATM    3  C   UNL     1      61.871   9.684   2.658  1.00  0.00     0.027 A 
HETATM    4  C   UNL     1      63.120   7.734   2.882  1.00  0.00    -0.020 A 
HETATM    5  C   UNL     1      62.226   8.425   2.093  1.00  0.00     0.015 A 
HETATM    6  C   UNL     1      63.732   6.397   2.635  1.00  0.00     0.056 C 
ENDROOT
BRANCH   1   7
HETATM    7  C   UNL     1      62.410  11.069   4.736  1.00  0.00     0.216 C 
HETATM    8  O   UNL     1      61.903  12.161   4.521  1.00  0.00    -0.643 OA
HETATM    9  O   UNL     1      62.987  10.829   5.937  1.00  0.00    -0.643 OA
ENDBRANCH   1   7
TORSDOF 1
ENDMDL
MODEL 9
REMARK VINA RESULT:      -3.9     12.715     14.140
REMARK  1 active torsions:
REMARK  status: ('A' for Active; 'I' for Inactive)
REMARK    1  A    between atoms: C_1  and  C_3 
ROOT
HETATM    1  C   UNL     1      67.100   6.407   7.386  1.00  0.00     0.081 A 
HETATM    2  S   UNL     1      67.556   6.190   9.023  1.00  0.00    -0.088 SA
HETATM    3  C   UNL     1      67.636   5.416   6.585  1.00  0.00     0.027 A 
HETATM    4  C   UNL     1      68.469   4.788   8.665  1.00  0.00    -0.020 A 
HETATM    5  C   UNL     1      68.423   4.483   7.322  1.00  0.00     0.015 A 
HETATM    6  C   UNL     1      69.188   4.066   9.753  1.00  0.00     0.056 C 
ENDROOT
BRANCH   1   7
HETATM    7  C   UNL     1      66.263   7.526   7.021  1.00  0.00     0.216 C 
HETATM    8  O   UNL     1      66.588   8.658   6.691  1.00  0.00    -0.643 OA
HETATM    9  O   UNL     1      64.950   7.200   7.075  1.00  0.00    -0.643 OA
ENDBRANCH   1   7
TORSDOF 1
ENDMDL
