MODEL 1
REMARK VINA RESULT:      -5.8      0.000      0.000
REMARK  0 active torsions:
REMARK  status: ('A' for Active; 'I' for Inactive)
ROOT
HETATM    1  N   UNL     1      71.562  25.049  15.328  1.00  0.00    -0.354 N 
HETATM    2  C   UNL     1      72.024  24.157  14.391  1.00  0.00     0.059 A 
HETATM    3  C   UNL     1      70.187  25.069  15.351  1.00  0.00     0.043 A 
HETATM    4  C   UNL     1      69.747  24.145  14.402  1.00  0.00     0.003 A 
HETATM    5  C   UNL     1      70.909  23.578  13.788  1.00  0.00     0.006 A 
HETATM    6  N   UNL     1      73.514  22.906  13.049  1.00  0.00    -0.373 N 
ATOM      7  HN  UNL     1      74.457  22.645  12.764  1.00  0.00     0.164 HD
HETATM    8  C   UNL     1      73.321  23.820  14.027  1.00  0.00     0.117 A 
HETATM    9  C   UNL     1      71.119  22.630  12.775  1.00  0.00     0.031 A 
HETATM   10  C   UNL     1      68.360  23.961  14.235  1.00  0.00     0.014 A 
HETATM   11  C   UNL     1      69.308  25.828  16.133  1.00  0.00     0.030 A 
HETATM   12  C   UNL     1      72.437  22.345  12.456  1.00  0.00     0.088 A 
HETATM   13  C   UNL     1      67.467  24.709  15.011  1.00  0.00     0.001 A 
HETATM   14  C   UNL     1      67.937  25.631  15.943  1.00  0.00     0.002 A 
HETATM   15  H   UNL     1      72.138  25.600  15.907  1.00  0.00     0.166 HD
ENDROOT
TORSDOF 0
ENDMDL
MODEL 2
REMARK VINA RESULT:      -5.3     18.853     20.295
REMARK  0 active torsions:
REMARK  status: ('A' for Active; 'I' for Inactive)
ROOT
HETATM    1  N   UNL     1      63.259   9.184   5.562  1.00  0.00    -0.354 N 
HETATM    2  C   UNL     1      63.747   7.916   5.354  1.00  0.00     0.059 A 
HETATM    3  C   UNL     1      62.756   9.715   4.397  1.00  0.00     0.043 A 
HETATM    4  C   UNL     1      62.913   8.747   3.405  1.00  0.00     0.003 A 
HETATM    5  C   UNL     1      63.550   7.616   4.007  1.00  0.00     0.006 A 
HETATM    6  N   UNL     1      64.755   5.821   5.770  1.00  0.00    -0.373 N 
ATOM      7  HN  UNL     1      65.197   5.148   6.397  1.00  0.00     0.164 HD
HETATM    8  C   UNL     1      64.342   7.022   6.232  1.00  0.00     0.117 A 
HETATM    9  C   UNL     1      63.980   6.367   3.536  1.00  0.00     0.031 A 
HETATM   10  C   UNL     1      62.460   9.040   2.102  1.00  0.00     0.014 A 
HETATM   11  C   UNL     1      62.179  10.966   4.152  1.00  0.00     0.030 A 
HETATM   12  C   UNL     1      64.573   5.524   4.464  1.00  0.00     0.088 A 
HETATM   13  C   UNL     1      61.877  10.285   1.840  1.00  0.00     0.001 A 
HETATM   14  C   UNL     1      61.743  11.234   2.850  1.00  0.00     0.002 A 
HETATM   15  H   UNL     1      63.267   9.650   6.430  1.00  0.00     0.166 HD
ENDROOT
TORSDOF 0
ENDMDL
MODEL 3
REMARK VINA RESULT:      -5.2     21.546     23.228
REMARK  0 active torsions:
REMARK  status: ('A' for Active; 'I' for Inactive)
ROOT
HETATM    1  N   UNL     1      77.707   2.521  18.454  1.00  0.00    -0.354 N 
HETATM    2  C   UNL     1      77.288   1.212  18.443  1.00  0.00     0.059 A 
HETATM    3  C   UNL     1      76.784   3.338  17.843  1.00  0.00     0.043 A 
HETATM    4  C   UNL     1      75.725   2.527  17.436  1.00  0.00     0.003 A 
HETATM    5  C   UNL     1      76.049   1.182  17.804  1.00  0.00     0.006 A 
HETATM    6  N   UNL     1      77.272  -1.125  18.784  1.00  0.00    -0.373 N 
ATOM      7  HN  UNL     1      77.701  -1.981  19.136  1.00  0.00     0.164 HD
HETATM    8  C   UNL     1      77.895   0.065  18.935  1.00  0.00     0.117 A 
HETATM    9  C   UNL     1      75.410  -0.057  17.653  1.00  0.00     0.031 A 
HETATM   10  C   UNL     1      74.627   3.129  16.786  1.00  0.00     0.014 A 
HETATM   11  C   UNL     1      76.808   4.720  17.624  1.00  0.00     0.030 A 
HETATM   12  C   UNL     1      76.074  -1.163  18.160  1.00  0.00     0.088 A 
HETATM   13  C   UNL     1      74.633   4.511  16.562  1.00  0.00     0.001 A 
HETATM   14  C   UNL     1      75.710   5.292  16.973  1.00  0.00     0.002 A 
HETATM   15  H   UNL     1      78.554   2.833  18.848  1.00  0.00     0.166 HD
ENDROOT
TORSDOF 0
ENDMDL
MODEL 4
REMARK VINA RESULT:      -5.2     18.888     20.447
REMARK  0 active torsions:
REMARK  status: ('A' for Active; 'I' for Inactive)
ROOT
HETATM    1  N   UNL     1      66.130   4.507   8.314  1.00  0.00    -0.354 N 
HETATM    2  C   UNL     1      65.983   5.671   7.598  1.00  0.00     0.059 A 
HETATM    3  C   UNL     1      67.445   4.309   8.666  1.00  0.00     0.043 A 
HETATM    4  C   UNL     1      68.169   5.393   8.170  1.00  0.00     0.003 A 
HETATM    5  C   UNL     1      67.248   6.246   7.485  1.00  0.00     0.006 A 
HETATM    6  N   UNL     1      64.976   7.415   6.363  1.00  0.00    -0.373 N 
ATOM      7  HN  UNL     1      64.159   7.860   5.946  1.00  0.00     0.164 HD
HETATM    8  C   UNL     1      64.852   6.254   7.044  1.00  0.00     0.117 A 
HETATM    9  C   UNL     1      67.367   7.452   6.778  1.00  0.00     0.031 A 
HETATM   10  C   UNL     1      69.558   5.439   8.409  1.00  0.00     0.014 A 
HETATM   11  C   UNL     1      68.039   3.262   9.380  1.00  0.00     0.030 A 
HETATM   12  C   UNL     1      66.200   7.976   6.244  1.00  0.00     0.088 A 
HETATM   13  C   UNL     1      70.169   4.402   9.124  1.00  0.00     0.001 A 
HETATM   14  C   UNL     1      69.419   3.329   9.598  1.00  0.00     0.002 A 
HETATM   15  H   UNL     1      65.392   3.896   8.546  1.00  0.00     0.166 HD
ENDROOT
TORSDOF 0
ENDMDL
MODEL 5
REMARK VINA RESULT:      -5.1     18.726     20.408
REMARK  0 active torsions:
REMARK  status: ('A' for Active; 'I' for Inactive)
ROOT
HETATM    1  N   UNL     1      67.425   6.857   8.084  1.00  0.00    -0.354 N 
HETATM    2  C   UNL     1      67.053   6.998   6.768  1.00  0.00     0.059 A 
HETATM    3  C   UNL     1      68.017   5.635   8.298  1.00  0.00     0.043 A 
HETATM    4  C   UNL     1      68.040   4.969   7.073  1.00  0.00     0.003 A 
HETATM    5  C   UNL     1      67.420   5.826   6.109  1.00  0.00     0.006 A 
HETATM    6  N   UNL     1      66.154   7.936   4.795  1.00  0.00    -0.373 N 
ATOM      7  HN  UNL     1      65.693   8.695   4.295  1.00  0.00     0.164 HD
HETATM    8  C   UNL     1      66.427   8.050   6.114  1.00  0.00     0.117 A 
HETATM    9  C   UNL     1      67.134   5.717   4.740  1.00  0.00     0.031 A 
HETATM   10  C   UNL     1      68.615   3.683   7.016  1.00  0.00     0.014 A 
HETATM   11  C   UNL     1      68.529   5.075   9.475  1.00  0.00     0.030 A 
HETATM   12  C   UNL     1      66.501   6.800   4.150  1.00  0.00     0.088 A 
HETATM   13  C   UNL     1      69.135   3.109   8.183  1.00  0.00     0.001 A 
HETATM   14  C   UNL     1      69.088   3.796   9.393  1.00  0.00     0.002 A 
HETATM   15  H   UNL     1      67.287   7.541   8.780  1.00  0.00     0.166 HD
ENDROOT
TORSDOF 0
ENDMDL
MODEL 6
REMARK VINA RESULT:      -5.1     18.766     20.250
REMARK  0 active torsions:
REMARK  status: ('A' for Active; 'I' for Inactive)
ROOT
HETATM    1  N   UNL     1      64.331   9.337   5.598  1.00  0.00    -0.354 N 
HETATM    2  C   UNL     1      63.334   9.330   4.651  1.00  0.00     0.059 A 
HETATM    3  C   UNL     1      65.218   8.307   5.385  1.00  0.00     0.043 A 
HETATM    4  C   UNL     1      64.784   7.620   4.251  1.00  0.00     0.003 A 
HETATM    5  C   UNL     1      63.587   8.259   3.795  1.00  0.00     0.006 A 
HETATM    6  N   UNL     1      61.384   9.939   3.465  1.00  0.00    -0.373 N 
ATOM      7  HN  UNL     1      60.573  10.540   3.324  1.00  0.00     0.164 HD
HETATM    8  C   UNL     1      62.241  10.168   4.485  1.00  0.00     0.117 A 
HETATM    9  C   UNL     1      62.694   8.029   2.739  1.00  0.00     0.031 A 
HETATM   10  C   UNL     1      65.536   6.514   3.805  1.00  0.00     0.014 A 
HETATM   11  C   UNL     1      66.360   7.938   6.105  1.00  0.00     0.030 A 
HETATM   12  C   UNL     1      61.619   8.899   2.634  1.00  0.00     0.088 A 
HETATM   13  C   UNL     1      66.684   6.133   4.511  1.00  0.00     0.001 A 
HETATM   14  C   UNL     1      67.085   6.834   5.645  1.00  0.00     0.002 A 
HETATM   15  H   UNL     1      64.401   9.992   6.330  1.00  0.00     0.166 HD
ENDROOT
TORSDOF 0
ENDMDL
MODEL 7
REMARK VINA RESULT:      -4.9      2.185      3.721
REMARK  0 active torsions:
REMARK  status: ('A' for Active; 'I' for Inactive)
ROOT
HETATM    1  N   UNL     1      70.114  22.317  12.745  1.00  0.00    -0.354 N 
HETATM    2  C   UNL     1      70.933  21.752  11.798  1.00  0.00     0.059 A 
HETATM    3  C   UNL     1      70.792  23.260  13.482  1.00  0.00     0.043 A 
HETATM    4  C   UNL     1      72.093  23.313  12.981  1.00  0.00     0.003 A 
HETATM    5  C   UNL     1      72.185  22.351  11.926  1.00  0.00     0.006 A 
HETATM    6  N   UNL     1      71.673  20.370  10.030  1.00  0.00    -0.373 N 
ATOM      7  HN  UNL     1      71.508  19.648   9.329  1.00  0.00     0.164 HD
HETATM    8  C   UNL     1      70.677  20.769  10.852  1.00  0.00     0.117 A 
HETATM    9  C   UNL     1      73.212  21.932  11.068  1.00  0.00     0.031 A 
HETATM   10  C   UNL     1      73.001  24.222  13.563  1.00  0.00     0.014 A 
HETATM   11  C   UNL     1      70.355  24.061  14.543  1.00  0.00     0.030 A 
HETATM   12  C   UNL     1      72.891  20.942  10.152  1.00  0.00     0.088 A 
HETATM   13  C   UNL     1      72.580  25.033  14.623  1.00  0.00     0.001 A 
HETATM   14  C   UNL     1      71.276  24.949  15.106  1.00  0.00     0.002 A 
HETATM   15  H   UNL     1      69.167  22.081  12.878  1.00  0.00     0.166 HD
ENDROOT
TORSDOF 0
ENDMDL
MODEL 8
REMARK VINA RESULT:      -4.8     18.649     19.873
REMARK  0 active torsions:
REMARK  status: ('A' for Active; 'I' for Inactive)
ROOT
HETATM    1  N   UNL     1      64.127   7.173   3.340  1.00  0.00    -0.354 N 
HETATM    2  C   UNL     1      65.191   6.994   4.191  1.00  0.00     0.059 A 
HETATM    3  C   UNL     1      63.430   8.316   3.657  1.00  0.00     0.043 A 
HETATM    4  C   UNL     1      64.078   8.902   4.744  1.00  0.00     0.003 A 
HETATM    5  C   UNL     1      65.183   8.061   5.088  1.00  0.00     0.006 A 
HETATM    6  N   UNL     1      67.099   6.036   5.202  1.00  0.00    -0.373 N 
ATOM      7  HN  UNL     1      67.810   5.307   5.261  1.00  0.00     0.164 HD
HETATM    8  C   UNL     1      66.147   5.989   4.244  1.00  0.00     0.117 A 
HETATM    9  C   UNL     1      66.177   8.102   6.078  1.00  0.00     0.031 A 
HETATM   10  C   UNL     1      63.565  10.109   5.262  1.00  0.00     0.014 A 
HETATM   11  C   UNL     1      62.287   8.868   3.068  1.00  0.00     0.030 A 
HETATM   12  C   UNL     1      67.095   7.064   6.079  1.00  0.00     0.088 A 
HETATM   13  C   UNL     1      62.424  10.677   4.682  1.00  0.00     0.001 A 
HETATM   14  C   UNL     1      61.794  10.061   3.604  1.00  0.00     0.002 A 
HETATM   15  H   UNL     1      63.894   6.564   2.601  1.00  0.00     0.166 HD
ENDROOT
TORSDOF 0
ENDMDL
MODEL 9
REMARK VINA RESULT:      -4.7     19.552     20.624
REMARK  0 active torsions:
REMARK  status: ('A' for Active; 'I' for Inactive)
ROOT
HETATM    1  N   UNL     1      66.298   3.849   8.159  1.00  0.00    -0.354 N 
HETATM    2  C   UNL     1      67.590   3.820   8.627  1.00  0.00     0.059 A 
HETATM    3  C   UNL     1      66.052   5.012   7.468  1.00  0.00     0.043 A 
HETATM    4  C   UNL     1      67.232   5.754   7.479  1.00  0.00     0.003 A 
HETATM    5  C   UNL     1      68.201   5.007   8.222  1.00  0.00     0.006 A 
HETATM    6  N   UNL     1      69.548   3.078   9.721  1.00  0.00    -0.373 N 
ATOM      7  HN  UNL     1      70.060   2.386  10.267  1.00  0.00     0.164 HD
HETATM    8  C   UNL     1      68.261   2.858   9.368  1.00  0.00     0.117 A 
HETATM    9  C   UNL     1      69.536   5.225   8.591  1.00  0.00     0.031 A 
HETATM   10  C   UNL     1      67.251   7.000   6.819  1.00  0.00     0.014 A 
HETATM   11  C   UNL     1      64.882   5.457   6.839  1.00  0.00     0.030 A 
HETATM   12  C   UNL     1      70.145   4.228   9.338  1.00  0.00     0.088 A 
HETATM   13  C   UNL     1      66.091   7.459   6.183  1.00  0.00     0.001 A 
HETATM   14  C   UNL     1      64.925   6.698   6.197  1.00  0.00     0.002 A 
HETATM   15  H   UNL     1      65.638   3.131   8.298  1.00  0.00     0.166 HD
ENDROOT
TORSDOF 0
ENDMDL
