MODEL 1
REMARK VINA RESULT:      -5.1      0.000      0.000
REMARK  2 active torsions:
REMARK  status: ('A' for Active; 'I' for Inactive)
REMARK    1  A    between atoms: C_1  and  C_5 
REMARK    2  A    between atoms: C_5  and  C_7 
ROOT
HETATM    1  N   UNL     1      80.270  11.280  21.067  1.00  0.00    -0.375 N 
ATOM      2  HN  UNL     1      81.197  10.857  21.118  1.00  0.00     0.164 HD
HETATM    3  C   UNL     1      78.161  11.503  19.952  1.00  0.00    -0.033 A 
HETATM    4  C   UNL     1      79.443  10.938  20.043  1.00  0.00     0.095 A 
HETATM    5  C   UNL     1      79.895  12.170  22.024  1.00  0.00     0.087 A 
HETATM    6  C   UNL     1      77.762  12.424  20.932  1.00  0.00     0.010 A 
HETATM    7  C   UNL     1      78.631  12.759  21.972  1.00  0.00     0.018 A 
ENDROOT
BRANCH   3   8
HETATM    8  C   UNL     1      77.239  11.133  18.821  1.00  0.00     0.153 C 
BRANCH   8   9
HETATM    9  C   UNL     1      77.617   9.807  18.229  1.00  0.00     0.176 C 
HETATM   10  O   UNL     1      77.307   8.771  18.799  1.00  0.00    -0.648 OA
HETATM   11  O   UNL     1      78.305   9.761  17.070  1.00  0.00    -0.648 OA
ENDBRANCH   8   9
ENDBRANCH   3   8
TORSDOF 2
ENDMDL
MODEL 2
REMARK VINA RESULT:      -5.1     14.852     15.568
REMARK  2 active torsions:
REMARK  status: ('A' for Active; 'I' for Inactive)
REMARK    1  A    between atoms: C_1  and  C_5 
REMARK    2  A    between atoms: C_5  and  C_7 
ROOT
HETATM    1  N   UNL     1      70.378  25.550  15.282  1.00  0.00    -0.375 N 
ATOM      2  HN  UNL     1      70.166  26.381  15.833  1.00  0.00     0.164 HD
HETATM    3  C   UNL     1      71.994  24.118  14.241  1.00  0.00    -0.033 A 
HETATM    4  C   UNL     1      71.675  25.259  14.995  1.00  0.00     0.095 A 
HETATM    5  C   UNL     1      69.356  24.762  14.852  1.00  0.00     0.087 A 
HETATM    6  C   UNL     1      70.949  23.297  13.791  1.00  0.00     0.010 A 
HETATM    7  C   UNL     1      69.626  23.620  14.097  1.00  0.00     0.018 A 
ENDROOT
BRANCH   3   8
HETATM    8  C   UNL     1      73.426  23.788  13.917  1.00  0.00     0.153 C 
BRANCH   8   9
HETATM    9  C   UNL     1      73.954  22.723  14.833  1.00  0.00     0.176 C 
HETATM   10  O   UNL     1      73.332  22.418  15.841  1.00  0.00    -0.648 OA
HETATM   11  O   UNL     1      75.119  22.106  14.546  1.00  0.00    -0.648 OA
ENDBRANCH   8   9
ENDBRANCH   3   8
TORSDOF 2
ENDMDL
MODEL 3
REMARK VINA RESULT:      -4.9      1.941      2.632
REMARK  2 active torsions:
REMARK  status: ('A' for Active; 'I' for Inactive)
REMARK    1  A    between atoms: C_1  and  C_5 
REMARK    2  A    between atoms: C_5  and  C_7 
ROOT
HETATM    1  N   UNL     1      76.057  12.858  19.086  1.00  0.00    -0.375 N 
ATOM      2  HN  UNL     1      75.264  13.210  18.550  1.00  0.00     0.164 HD
HETATM    3  C   UNL     1      77.808  11.246  19.369  1.00  0.00    -0.033 A 
HETATM    4  C   UNL     1      76.711  11.749  18.650  1.00  0.00     0.095 A 
HETATM    5  C   UNL     1      76.433  13.511  20.219  1.00  0.00     0.087 A 
HETATM    6  C   UNL     1      78.205  11.909  20.540  1.00  0.00     0.010 A 
HETATM    7  C   UNL     1      77.515  13.046  20.967  1.00  0.00     0.018 A 
ENDROOT
BRANCH   3   8
HETATM    8  C   UNL     1      78.537  10.017  18.896  1.00  0.00     0.153 C 
BRANCH   8   9
HETATM    9  C   UNL     1      77.647   9.155  18.050  1.00  0.00     0.176 C 
HETATM   10  O   UNL     1      77.612   9.312  16.838  1.00  0.00    -0.648 OA
HETATM   11  O   UNL     1      76.880   8.209  18.630  1.00  0.00    -0.648 OA
ENDBRANCH   8   9
ENDBRANCH   3   8
TORSDOF 2
ENDMDL
MODEL 4
REMARK VINA RESULT:      -4.8     13.525     14.296
REMARK  2 active torsions:
REMARK  status: ('A' for Active; 'I' for Inactive)
REMARK    1  A    between atoms: C_1  and  C_5 
REMARK    2  A    between atoms: C_5  and  C_7 
ROOT
HETATM    1  N   UNL     1      72.754  22.695  11.949  1.00  0.00    -0.375 N 
ATOM      2  HN  UNL     1      73.176  22.578  11.028  1.00  0.00     0.164 HD
HETATM    3  C   UNL     1      73.006  22.987  14.315  1.00  0.00    -0.033 A 
HETATM    4  C   UNL     1      73.562  22.821  13.036  1.00  0.00     0.095 A 
HETATM    5  C   UNL     1      71.399  22.721  12.059  1.00  0.00     0.087 A 
HETATM    6  C   UNL     1      71.610  23.013  14.442  1.00  0.00     0.010 A 
HETATM    7  C   UNL     1      70.802  22.880  13.310  1.00  0.00     0.018 A 
ENDROOT
BRANCH   3   8
HETATM    8  C   UNL     1      73.892  23.125  15.524  1.00  0.00     0.153 C 
BRANCH   8   9
HETATM    9  C   UNL     1      74.740  21.901  15.714  1.00  0.00     0.176 C 
HETATM   10  O   UNL     1      74.346  20.987  16.425  1.00  0.00    -0.648 OA
HETATM   11  O   UNL     1      75.940  21.813  15.104  1.00  0.00    -0.648 OA
ENDBRANCH   8   9
ENDBRANCH   3   8
TORSDOF 2
ENDMDL
MODEL 5
REMARK VINA RESULT:      -4.7     14.421     14.819
REMARK  2 active torsions:
REMARK  status: ('A' for Active; 'I' for Inactive)
REMARK    1  A    between atoms: C_1  and  C_5 
REMARK    2  A    between atoms: C_5  and  C_7 
ROOT
HETATM    1  N   UNL     1      73.736  23.356  13.967  1.00  0.00    -0.375 N 
ATOM      2  HN  UNL     1      74.755  23.361  13.992  1.00  0.00     0.164 HD
HETATM    3  C   UNL     1      71.700  22.804  12.829  1.00  0.00    -0.033 A 
HETATM    4  C   UNL     1      73.103  22.825  12.887  1.00  0.00     0.095 A 
HETATM    5  C   UNL     1      73.045  23.881  15.015  1.00  0.00     0.087 A 
HETATM    6  C   UNL     1      70.975  23.343  13.903  1.00  0.00     0.010 A 
HETATM    7  C   UNL     1      71.649  23.883  14.999  1.00  0.00     0.018 A 
ENDROOT
BRANCH   3   8
HETATM    8  C   UNL     1      70.990  22.220  11.637  1.00  0.00     0.153 C 
BRANCH   8   9
HETATM    9  C   UNL     1      71.613  20.919  11.222  1.00  0.00     0.176 C 
HETATM   10  O   UNL     1      71.370  19.897  11.848  1.00  0.00    -0.648 OA
HETATM   11  O   UNL     1      72.446  20.880  10.162  1.00  0.00    -0.648 OA
ENDBRANCH   8   9
ENDBRANCH   3   8
TORSDOF 2
ENDMDL
MODEL 6
REMARK VINA RESULT:      -4.6      7.761      9.256
REMARK  2 active torsions:
REMARK  status: ('A' for Active; 'I' for Inactive)
REMARK    1  A    between atoms: C_1  and  C_5 
REMARK    2  A    between atoms: C_5  and  C_7 
ROOT
HETATM    1  N   UNL     1      77.302   4.042  18.234  1.00  0.00    -0.375 N 
ATOM      2  HN  UNL     1      78.130   3.954  18.824  1.00  0.00     0.164 HD
HETATM    3  C   UNL     1      75.424   3.029  17.144  1.00  0.00    -0.033 A 
HETATM    4  C   UNL     1      76.569   2.933  17.951  1.00  0.00     0.095 A 
HETATM    5  C   UNL     1      76.962   5.267  17.750  1.00  0.00     0.087 A 
HETATM    6  C   UNL     1      75.063   4.286  16.638  1.00  0.00     0.010 A 
HETATM    7  C   UNL     1      75.834   5.410  16.941  1.00  0.00     0.018 A 
ENDROOT
BRANCH   3   8
HETATM    8  C   UNL     1      74.606   1.806  16.824  1.00  0.00     0.153 C 
BRANCH   8   9
HETATM    9  C   UNL     1      74.864   0.711  17.817  1.00  0.00     0.176 C 
HETATM   10  O   UNL     1      74.320   0.736  18.912  1.00  0.00    -0.648 OA
HETATM   11  O   UNL     1      75.701  -0.299  17.502  1.00  0.00    -0.648 OA
ENDBRANCH   8   9
ENDBRANCH   3   8
TORSDOF 2
ENDMDL
MODEL 7
REMARK VINA RESULT:      -4.6     20.959     22.618
REMARK  2 active torsions:
REMARK  status: ('A' for Active; 'I' for Inactive)
REMARK    1  A    between atoms: C_1  and  C_5 
REMARK    2  A    between atoms: C_5  and  C_7 
ROOT
HETATM    1  N   UNL     1      61.743  11.299   3.042  1.00  0.00    -0.375 N 
ATOM      2  HN  UNL     1      61.415  12.254   3.186  1.00  0.00     0.164 HD
HETATM    3  C   UNL     1      62.647   9.268   3.936  1.00  0.00    -0.033 A 
HETATM    4  C   UNL     1      62.193  10.586   4.108  1.00  0.00     0.095 A 
HETATM    5  C   UNL     1      61.718  10.773   1.788  1.00  0.00     0.087 A 
HETATM    6  C   UNL     1      62.628   8.714   2.648  1.00  0.00     0.010 A 
HETATM    7  C   UNL     1      62.162   9.469   1.569  1.00  0.00     0.018 A 
ENDROOT
BRANCH   3   8
HETATM    8  C   UNL     1      63.150   8.471   5.110  1.00  0.00     0.153 C 
BRANCH   8   9
HETATM    9  C   UNL     1      64.647   8.527   5.197  1.00  0.00     0.176 C 
HETATM   10  O   UNL     1      65.191   9.420   5.832  1.00  0.00    -0.648 OA
HETATM   11  O   UNL     1      65.392   7.594   4.570  1.00  0.00    -0.648 OA
ENDBRANCH   8   9
ENDBRANCH   3   8
TORSDOF 2
ENDMDL
MODEL 8
REMARK VINA RESULT:      -4.5     20.964     22.381
REMARK  2 active torsions:
REMARK  status: ('A' for Active; 'I' for Inactive)
REMARK    1  A    between atoms: C_1  and  C_5 
REMARK    2  A    between atoms: C_5  and  C_7 
ROOT
HETATM    1  N   UNL     1      64.559   8.981   5.623  1.00  0.00    -0.375 N 
ATOM      2  HN  UNL     1      65.033   9.340   6.452  1.00  0.00     0.164 HD
HETATM    3  C   UNL     1      62.784   9.151   4.022  1.00  0.00    -0.033 A 
HETATM    4  C   UNL     1      63.452   9.623   5.164  1.00  0.00     0.095 A 
HETATM    5  C   UNL     1      65.052   7.874   5.006  1.00  0.00     0.087 A 
HETATM    6  C   UNL     1      63.281   8.009   3.377  1.00  0.00     0.010 A 
HETATM    7  C   UNL     1      64.419   7.367   3.870  1.00  0.00     0.018 A 
ENDROOT
BRANCH   3   8
HETATM    8  C   UNL     1      61.556   9.853   3.507  1.00  0.00     0.153 C 
BRANCH   8   9
HETATM    9  C   UNL     1      61.837  11.301   3.236  1.00  0.00     0.176 C 
HETATM   10  O   UNL     1      62.101  11.672   2.100  1.00  0.00    -0.648 OA
HETATM   11  O   UNL     1      61.805  12.194   4.247  1.00  0.00    -0.648 OA
ENDBRANCH   8   9
ENDBRANCH   3   8
TORSDOF 2
ENDMDL
MODEL 9
REMARK VINA RESULT:      -4.3     22.357     24.021
REMARK  2 active torsions:
REMARK  status: ('A' for Active; 'I' for Inactive)
REMARK    1  A    between atoms: C_1  and  C_5 
REMARK    2  A    between atoms: C_5  and  C_7 
ROOT
HETATM    1  N   UNL     1      59.942   8.036   2.520  1.00  0.00    -0.375 N 
ATOM      2  HN  UNL     1      59.037   7.635   2.765  1.00  0.00     0.164 HD
HETATM    3  C   UNL     1      62.060   8.924   3.203  1.00  0.00    -0.033 A 
HETATM    4  C   UNL     1      60.807   8.373   3.514  1.00  0.00     0.095 A 
HETATM    5  C   UNL     1      60.253   8.219   1.209  1.00  0.00     0.087 A 
HETATM    6  C   UNL     1      62.393   9.119   1.855  1.00  0.00     0.010 A 
HETATM    7  C   UNL     1      61.487   8.765   0.853  1.00  0.00     0.018 A 
ENDROOT
BRANCH   3   8
HETATM    8  C   UNL     1      63.023   9.303   4.297  1.00  0.00     0.153 C 
BRANCH   8   9
HETATM    9  C   UNL     1      62.658  10.628   4.901  1.00  0.00     0.176 C 
HETATM   10  O   UNL     1      63.046  10.917   6.024  1.00  0.00    -0.648 OA
HETATM   11  O   UNL     1      61.897  11.497   4.205  1.00  0.00    -0.648 OA
ENDBRANCH   8   9
ENDBRANCH   3   8
TORSDOF 2
ENDMDL
