MODEL 1
REMARK VINA RESULT:      -5.3      0.000      0.000
REMARK  1 active torsions:
REMARK  status: ('A' for Active; 'I' for Inactive)
REMARK    1  A    between atoms: N_1  and  C_2 
ROOT
HETATM    1  N   UNL     1      77.490  11.182  18.447  1.00  0.00    -0.378 N 
HETATM    2  N   UNL     1      76.483  13.013  20.495  1.00  0.00    -0.072 N 
HETATM    3  C   UNL     1      78.170  11.290  19.743  1.00  0.00     0.150 C 
HETATM    4  C   UNL     1      76.642  12.318  18.060  1.00  0.00     0.150 C 
HETATM    5  C   UNL     1      77.221  11.784  20.854  1.00  0.00     0.252 C 
HETATM    6  C   UNL     1      75.743  12.765  19.238  1.00  0.00     0.252 C 
HETATM    7  H   UNL     1      75.827  13.250  21.240  1.00  0.00     0.277 HD
HETATM    8  H   UNL     1      77.134  13.789  20.370  1.00  0.00     0.277 HD
ENDROOT
BRANCH   1   9
HETATM    9  C   UNL     1      77.368   9.974  17.793  1.00  0.00     0.030 A 
HETATM   10  C   UNL     1      77.609   9.866  16.416  1.00  0.00     0.032 A 
HETATM   11  C   UNL     1      77.517   8.653  15.749  1.00  0.00     0.044 A 
HETATM   12  C   UNL     1      77.151   7.513  16.455  1.00  0.00     0.116 A 
HETATM   13  C   UNL     1      76.881   7.581  17.814  1.00  0.00     0.044 A 
HETATM   14  F   UNL     1      77.066   6.343  15.817  1.00  0.00    -0.206 F 
HETATM   15  C   UNL     1      76.993   8.802  18.479  1.00  0.00     0.032 A 
ENDBRANCH   1   9
TORSDOF 1
ENDMDL
MODEL 2
REMARK VINA RESULT:      -5.2     19.535     20.770
REMARK  1 active torsions:
REMARK  status: ('A' for Active; 'I' for Inactive)
REMARK    1  A    between atoms: N_1  and  C_2 
ROOT
HETATM    1  N   UNL     1      62.952   7.735   4.054  1.00  0.00    -0.378 N 
HETATM    2  N   UNL     1      63.843   6.380   6.489  1.00  0.00    -0.072 N 
HETATM    3  C   UNL     1      62.010   6.927   4.839  1.00  0.00     0.150 C 
HETATM    4  C   UNL     1      64.379   7.445   4.250  1.00  0.00     0.150 C 
HETATM    5  C   UNL     1      62.440   6.812   6.315  1.00  0.00     0.252 C 
HETATM    6  C   UNL     1      64.717   7.321   5.755  1.00  0.00     0.252 C 
HETATM    7  H   UNL     1      64.084   6.387   7.481  1.00  0.00     0.277 HD
HETATM    8  H   UNL     1      63.965   5.434   6.127  1.00  0.00     0.277 HD
ENDROOT
BRANCH   1   9
HETATM    9  C   UNL     1      62.562   8.907   3.441  1.00  0.00     0.030 A 
HETATM   10  C   UNL     1      62.326  10.072   4.186  1.00  0.00     0.032 A 
HETATM   11  C   UNL     1      61.959  11.266   3.582  1.00  0.00     0.044 A 
HETATM   12  C   UNL     1      61.795  11.310   2.202  1.00  0.00     0.116 A 
HETATM   13  C   UNL     1      61.996  10.174   1.431  1.00  0.00     0.044 A 
HETATM   14  F   UNL     1      61.446  12.458   1.617  1.00  0.00    -0.206 F 
HETATM   15  C   UNL     1      62.382   8.983   2.046  1.00  0.00     0.032 A 
ENDBRANCH   1   9
TORSDOF 1
ENDMDL
MODEL 3
REMARK VINA RESULT:      -4.8      1.288      2.385
REMARK  1 active torsions:
REMARK  status: ('A' for Active; 'I' for Inactive)
REMARK    1  A    between atoms: N_1  and  C_2 
ROOT
HETATM    1  N   UNL     1      76.886  11.234  18.551  1.00  0.00    -0.378 N 
HETATM    2  N   UNL     1      77.626  13.391  20.384  1.00  0.00    -0.072 N 
HETATM    3  C   UNL     1      76.162  12.512  18.523  1.00  0.00     0.150 C 
HETATM    4  C   UNL     1      77.611  10.924  19.790  1.00  0.00     0.150 C 
HETATM    5  C   UNL     1      77.020  13.672  19.066  1.00  0.00     0.252 C 
HETATM    6  C   UNL     1      78.423  12.149  20.277  1.00  0.00     0.252 C 
HETATM    7  H   UNL     1      78.231  14.166  20.657  1.00  0.00     0.277 HD
HETATM    8  H   UNL     1      76.896  13.279  21.088  1.00  0.00     0.277 HD
ENDROOT
BRANCH   1   9
HETATM    9  C   UNL     1      77.159  10.533  17.395  1.00  0.00     0.030 A 
HETATM   10  C   UNL     1      77.274   9.135  17.404  1.00  0.00     0.032 A 
HETATM   11  C   UNL     1      77.522   8.414  16.246  1.00  0.00     0.044 A 
HETATM   12  C   UNL     1      77.687   9.090  15.042  1.00  0.00     0.116 A 
HETATM   13  C   UNL     1      77.604  10.475  14.994  1.00  0.00     0.044 A 
HETATM   14  F   UNL     1      77.920   8.398  13.925  1.00  0.00    -0.206 F 
HETATM   15  C   UNL     1      77.337  11.190  16.162  1.00  0.00     0.032 A 
ENDBRANCH   1   9
TORSDOF 1
ENDMDL
MODEL 4
REMARK VINA RESULT:      -4.8     19.602     20.940
REMARK  1 active torsions:
REMARK  status: ('A' for Active; 'I' for Inactive)
REMARK    1  A    between atoms: N_1  and  C_2 
ROOT
HETATM    1  N   UNL     1      63.238   7.898   4.220  1.00  0.00    -0.378 N 
HETATM    2  N   UNL     1      64.933   5.516   4.117  1.00  0.00    -0.072 N 
HETATM    3  C   UNL     1      64.560   7.901   4.860  1.00  0.00     0.150 C 
HETATM    4  C   UNL     1      62.635   6.581   3.979  1.00  0.00     0.150 C 
HETATM    5  C   UNL     1      65.513   6.871   4.220  1.00  0.00     0.252 C 
HETATM    6  C   UNL     1      63.665   5.605   3.361  1.00  0.00     0.252 C 
HETATM    7  H   UNL     1      65.583   4.900   3.628  1.00  0.00     0.277 HD
HETATM    8  H   UNL     1      64.759   5.138   5.049  1.00  0.00     0.277 HD
ENDROOT
BRANCH   1   9
HETATM    9  C   UNL     1      62.745   9.014   3.577  1.00  0.00     0.030 A 
HETATM   10  C   UNL     1      62.477  10.198   4.279  1.00  0.00     0.032 A 
HETATM   11  C   UNL     1      62.006  11.337   3.642  1.00  0.00     0.044 A 
HETATM   12  C   UNL     1      61.766  11.303   2.273  1.00  0.00     0.116 A 
HETATM   13  C   UNL     1      61.996  10.144   1.545  1.00  0.00     0.044 A 
HETATM   14  F   UNL     1      61.318  12.399   1.657  1.00  0.00    -0.206 F 
HETATM   15  C   UNL     1      62.486   9.010   2.192  1.00  0.00     0.032 A 
ENDBRANCH   1   9
TORSDOF 1
ENDMDL
MODEL 5
REMARK VINA RESULT:      -4.7     13.902     15.418
REMARK  1 active torsions:
REMARK  status: ('A' for Active; 'I' for Inactive)
REMARK    1  A    between atoms: N_1  and  C_2 
ROOT
HETATM    1  N   UNL     1      67.090   5.759   6.428  1.00  0.00    -0.378 N 
HETATM    2  N   UNL     1      65.245   8.017   6.190  1.00  0.00    -0.072 N 
HETATM    3  C   UNL     1      67.573   7.064   5.962  1.00  0.00     0.150 C 
HETATM    4  C   UNL     1      65.647   5.514   6.298  1.00  0.00     0.150 C 
HETATM    5  C   UNL     1      66.683   8.221   6.460  1.00  0.00     0.252 C 
HETATM    6  C   UNL     1      64.832   6.732   6.796  1.00  0.00     0.252 C 
HETATM    7  H   UNL     1      64.706   8.780   6.601  1.00  0.00     0.277 HD
HETATM    8  H   UNL     1      65.077   8.000   5.184  1.00  0.00     0.277 HD
ENDROOT
BRANCH   1   9
HETATM    9  C   UNL     1      67.857   4.954   7.243  1.00  0.00     0.030 A 
HETATM   10  C   UNL     1      68.307   5.404   8.493  1.00  0.00     0.032 A 
HETATM   11  C   UNL     1      69.057   4.597   9.335  1.00  0.00     0.044 A 
HETATM   12  C   UNL     1      69.397   3.313   8.926  1.00  0.00     0.116 A 
HETATM   13  C   UNL     1      68.992   2.837   7.687  1.00  0.00     0.044 A 
HETATM   14  F   UNL     1      70.115   2.532   9.737  1.00  0.00    -0.206 F 
HETATM   15  C   UNL     1      68.223   3.650   6.854  1.00  0.00     0.032 A 
ENDBRANCH   1   9
TORSDOF 1
ENDMDL
MODEL 6
REMARK VINA RESULT:      -4.6      4.495      6.596
REMARK  1 active torsions:
REMARK  status: ('A' for Active; 'I' for Inactive)
REMARK    1  A    between atoms: N_1  and  C_2 
ROOT
HETATM    1  N   UNL     1      78.879  12.408  20.703  1.00  0.00    -0.378 N 
HETATM    2  N   UNL     1      76.644  11.568  19.012  1.00  0.00    -0.072 N 
HETATM    3  C   UNL     1      77.821  13.361  20.347  1.00  0.00     0.150 C 
HETATM    4  C   UNL     1      79.024  11.238  19.826  1.00  0.00     0.150 C 
HETATM    5  C   UNL     1      76.495  12.651  20.007  1.00  0.00     0.252 C 
HETATM    6  C   UNL     1      77.647  10.604  19.516  1.00  0.00     0.252 C 
HETATM    7  H   UNL     1      75.749  11.097  18.881  1.00  0.00     0.277 HD
HETATM    8  H   UNL     1      76.947  11.954  18.118  1.00  0.00     0.277 HD
ENDROOT
BRANCH   1   9
HETATM    9  C   UNL     1      79.467  12.414  21.950  1.00  0.00     0.030 A 
HETATM   10  C   UNL     1      80.771  12.895  22.136  1.00  0.00     0.032 A 
HETATM   11  C   UNL     1      81.367  12.933  23.389  1.00  0.00     0.044 A 
HETATM   12  C   UNL     1      80.666  12.460  24.492  1.00  0.00     0.116 A 
HETATM   13  C   UNL     1      79.382  11.954  24.348  1.00  0.00     0.044 A 
HETATM   14  F   UNL     1      81.234  12.499  25.699  1.00  0.00    -0.206 F 
HETATM   15  C   UNL     1      78.785  11.936  23.087  1.00  0.00     0.032 A 
ENDBRANCH   1   9
TORSDOF 1
ENDMDL
MODEL 7
REMARK VINA RESULT:      -4.6     18.659     19.892
REMARK  1 active torsions:
REMARK  status: ('A' for Active; 'I' for Inactive)
REMARK    1  A    between atoms: N_1  and  C_2 
ROOT
HETATM    1  N   UNL     1      62.710   8.613   3.569  1.00  0.00    -0.378 N 
HETATM    2  N   UNL     1      61.322  10.778   2.173  1.00  0.00    -0.072 N 
HETATM    3  C   UNL     1      62.149   8.392   2.231  1.00  0.00     0.150 C 
HETATM    4  C   UNL     1      62.146   9.734   4.334  1.00  0.00     0.150 C 
HETATM    5  C   UNL     1      62.021   9.706   1.434  1.00  0.00     0.252 C 
HETATM    6  C   UNL     1      62.029  11.002   3.453  1.00  0.00     0.252 C 
HETATM    7  H   UNL     1      61.328  11.636   1.621  1.00  0.00     0.277 HD
HETATM    8  H   UNL     1      60.354  10.507   2.350  1.00  0.00     0.277 HD
ENDROOT
BRANCH   1   9
HETATM    9  C   UNL     1      63.905   8.045   3.954  1.00  0.00     0.030 A 
HETATM   10  C   UNL     1      64.686   8.613   4.971  1.00  0.00     0.032 A 
HETATM   11  C   UNL     1      65.877   8.039   5.389  1.00  0.00     0.044 A 
HETATM   12  C   UNL     1      66.330   6.880   4.768  1.00  0.00     0.116 A 
HETATM   13  C   UNL     1      65.600   6.298   3.742  1.00  0.00     0.044 A 
HETATM   14  F   UNL     1      67.474   6.322   5.171  1.00  0.00    -0.206 F 
HETATM   15  C   UNL     1      64.394   6.874   3.341  1.00  0.00     0.032 A 
ENDBRANCH   1   9
TORSDOF 1
ENDMDL
MODEL 8
REMARK VINA RESULT:      -4.5      2.428      3.565
REMARK  1 active torsions:
REMARK  status: ('A' for Active; 'I' for Inactive)
REMARK    1  A    between atoms: N_1  and  C_2 
ROOT
HETATM    1  N   UNL     1      78.603  12.220  21.061  1.00  0.00    -0.378 N 
HETATM    2  N   UNL     1      79.812  12.398  23.719  1.00  0.00    -0.072 N 
HETATM    3  C   UNL     1      79.918  12.848  21.236  1.00  0.00     0.150 C 
HETATM    4  C   UNL     1      77.754  12.144  22.257  1.00  0.00     0.150 C 
HETATM    5  C   UNL     1      80.640  12.332  22.497  1.00  0.00     0.252 C 
HETATM    6  C   UNL     1      78.562  11.643  23.479  1.00  0.00     0.252 C 
HETATM    7  H   UNL     1      80.319  11.984  24.501  1.00  0.00     0.277 HD
HETATM    8  H   UNL     1      79.596  13.370  23.944  1.00  0.00     0.277 HD
ENDROOT
BRANCH   1   9
HETATM    9  C   UNL     1      78.311  11.450  19.956  1.00  0.00     0.030 A 
HETATM   10  C   UNL     1      79.168  10.418  19.542  1.00  0.00     0.032 A 
HETATM   11  C   UNL     1      78.876   9.617  18.449  1.00  0.00     0.044 A 
HETATM   12  C   UNL     1      77.715   9.853  17.721  1.00  0.00     0.116 A 
HETATM   13  C   UNL     1      76.852  10.878  18.082  1.00  0.00     0.044 A 
HETATM   14  F   UNL     1      77.428   9.080  16.671  1.00  0.00    -0.206 F 
HETATM   15  C   UNL     1      77.146  11.667  19.194  1.00  0.00     0.032 A 
ENDBRANCH   1   9
TORSDOF 1
ENDMDL
MODEL 9
REMARK VINA RESULT:      -4.5      8.661     10.397
REMARK  1 active torsions:
REMARK  status: ('A' for Active; 'I' for Inactive)
REMARK    1  A    between atoms: N_1  and  C_2 
ROOT
HETATM    1  N   UNL     1      76.033   0.292  16.462  1.00  0.00    -0.378 N 
HETATM    2  N   UNL     1      75.571   2.414  18.423  1.00  0.00    -0.072 N 
HETATM    3  C   UNL     1      74.667   0.731  16.770  1.00  0.00     0.150 C 
HETATM    4  C   UNL     1      77.056   0.589  17.474  1.00  0.00     0.150 C 
HETATM    5  C   UNL     1      74.632   2.177  17.307  1.00  0.00     0.252 C 
HETATM    6  C   UNL     1      76.933   2.048  17.975  1.00  0.00     0.252 C 
HETATM    7  H   UNL     1      75.549   3.399  18.687  1.00  0.00     0.277 HD
HETATM    8  H   UNL     1      75.305   1.850  19.230  1.00  0.00     0.277 HD
ENDROOT
BRANCH   1   9
HETATM    9  C   UNL     1      76.408  -0.059  15.183  1.00  0.00     0.030 A 
HETATM   10  C   UNL     1      77.675  -0.600  14.919  1.00  0.00     0.032 A 
HETATM   11  C   UNL     1      78.057  -0.983  13.642  1.00  0.00     0.044 A 
HETATM   12  C   UNL     1      77.173  -0.806  12.584  1.00  0.00     0.116 A 
HETATM   13  C   UNL     1      75.918  -0.253  12.797  1.00  0.00     0.044 A 
HETATM   14  F   UNL     1      77.536  -1.179  11.354  1.00  0.00    -0.206 F 
HETATM   15  C   UNL     1      75.537   0.113  14.088  1.00  0.00     0.032 A 
ENDBRANCH   1   9
TORSDOF 1
ENDMDL
