MODEL 1
REMARK VINA RESULT:      -4.7      0.000      0.000
REMARK  0 active torsions:
REMARK  status: ('A' for Active; 'I' for Inactive)
ROOT
HETATM    1  C   UNL     1      65.415   8.240   5.506  1.00  0.00     0.222 A 
HETATM    2  N   UNL     1      64.785   7.676   4.415  1.00  0.00    -0.320 N 
HETATM    3  O   UNL     1      64.811   9.431   5.910  1.00  0.00    -0.282 OA
HETATM    4  C   UNL     1      63.737   8.512   4.087  1.00  0.00     0.070 A 
HETATM    5  C   UNL     1      63.776   9.552   4.996  1.00  0.00     0.105 A 
HETATM    6  S   UNL     1      66.735   7.716   6.363  1.00  0.00    -0.032 SA
HETATM    7  C   UNL     1      65.097   6.461   3.702  1.00  0.00     0.159 C 
HETATM    8  C   UNL     1      62.783   8.443   3.094  1.00  0.00     0.033 A 
HETATM    9  C   UNL     1      62.860  10.582   4.961  1.00  0.00     0.040 A 
HETATM   10  C   UNL     1      61.843   9.477   3.040  1.00  0.00     0.002 A 
HETATM   11  C   UNL     1      61.881  10.539   3.965  1.00  0.00     0.003 A 
ENDROOT
TORSDOF 0
ENDMDL
MODEL 2
REMARK VINA RESULT:      -4.7      1.701      1.837
REMARK  0 active torsions:
REMARK  status: ('A' for Active; 'I' for Inactive)
ROOT
HETATM    1  C   UNL     1      63.252   7.875   5.177  1.00  0.00     0.222 A 
HETATM    2  N   UNL     1      63.067   7.675   3.824  1.00  0.00    -0.320 N 
HETATM    3  O   UNL     1      62.948   9.178   5.567  1.00  0.00    -0.282 OA
HETATM    4  C   UNL     1      62.627   8.875   3.303  1.00  0.00     0.070 A 
HETATM    5  C   UNL     1      62.565   9.755   4.366  1.00  0.00     0.105 A 
HETATM    6  S   UNL     1      63.767   6.819   6.349  1.00  0.00    -0.032 SA
HETATM    7  C   UNL     1      63.270   6.483   3.036  1.00  0.00     0.159 C 
HETATM    8  C   UNL     1      62.288   9.250   2.020  1.00  0.00     0.033 A 
HETATM    9  C   UNL     1      62.159  11.063   4.204  1.00  0.00     0.040 A 
HETATM   10  C   UNL     1      61.872  10.573   1.832  1.00  0.00     0.002 A 
HETATM   11  C   UNL     1      61.809  11.472   2.915  1.00  0.00     0.003 A 
ENDROOT
TORSDOF 0
ENDMDL
MODEL 3
REMARK VINA RESULT:      -4.5     17.934     19.020
REMARK  0 active torsions:
REMARK  status: ('A' for Active; 'I' for Inactive)
ROOT
HETATM    1  C   UNL     1      71.072  22.497  12.602  1.00  0.00     0.222 A 
HETATM    2  N   UNL     1      71.843  23.344  13.372  1.00  0.00    -0.320 N 
HETATM    3  O   UNL     1      69.708  22.654  12.845  1.00  0.00    -0.282 OA
HETATM    4  C   UNL     1      70.970  24.082  14.145  1.00  0.00     0.070 A 
HETATM    5  C   UNL     1      69.701  23.649  13.809  1.00  0.00     0.105 A 
HETATM    6  S   UNL     1      71.530  21.368  11.475  1.00  0.00    -0.032 SA
HETATM    7  C   UNL     1      73.278  23.490  13.420  1.00  0.00     0.159 C 
HETATM    8  C   UNL     1      71.183  25.067  15.085  1.00  0.00     0.033 A 
HETATM    9  C   UNL     1      68.573  24.179  14.399  1.00  0.00     0.040 A 
HETATM   10  C   UNL     1      70.052  25.621  15.696  1.00  0.00     0.002 A 
HETATM   11  C   UNL     1      68.758  25.180  15.356  1.00  0.00     0.003 A 
ENDROOT
TORSDOF 0
ENDMDL
MODEL 4
REMARK VINA RESULT:      -4.5      3.338      5.510
REMARK  0 active torsions:
REMARK  status: ('A' for Active; 'I' for Inactive)
ROOT
HETATM    1  C   UNL     1      64.768   7.122   6.095  1.00  0.00     0.222 A 
HETATM    2  N   UNL     1      65.963   6.643   5.597  1.00  0.00    -0.320 N 
HETATM    3  O   UNL     1      64.736   7.120   7.489  1.00  0.00    -0.282 OA
HETATM    4  C   UNL     1      66.743   6.316   6.687  1.00  0.00     0.070 A 
HETATM    5  C   UNL     1      65.985   6.612   7.805  1.00  0.00     0.105 A 
HETATM    6  S   UNL     1      63.425   7.675   5.292  1.00  0.00    -0.032 SA
HETATM    7  C   UNL     1      66.389   6.483   4.227  1.00  0.00     0.159 C 
HETATM    8  C   UNL     1      68.018   5.799   6.783  1.00  0.00     0.033 A 
HETATM    9  C   UNL     1      66.462   6.405   9.082  1.00  0.00     0.040 A 
HETATM   10  C   UNL     1      68.524   5.582   8.070  1.00  0.00     0.002 A 
HETATM   11  C   UNL     1      67.752   5.882   9.210  1.00  0.00     0.003 A 
ENDROOT
TORSDOF 0
ENDMDL
MODEL 5
REMARK VINA RESULT:      -4.4      2.553      3.212
REMARK  0 active torsions:
REMARK  status: ('A' for Active; 'I' for Inactive)
ROOT
HETATM    1  C   UNL     1      62.869   7.051   3.488  1.00  0.00     0.222 A 
HETATM    2  N   UNL     1      62.736   8.024   4.457  1.00  0.00    -0.320 N 
HETATM    3  O   UNL     1      62.653   7.549   2.203  1.00  0.00    -0.282 OA
HETATM    4  C   UNL     1      62.424   9.197   3.801  1.00  0.00     0.070 A 
HETATM    5  C   UNL     1      62.382   8.884   2.455  1.00  0.00     0.105 A 
HETATM    6  S   UNL     1      63.236   5.440   3.639  1.00  0.00    -0.032 SA
HETATM    7  C   UNL     1      62.876   7.918   5.890  1.00  0.00     0.159 C 
HETATM    8  C   UNL     1      62.183  10.474   4.264  1.00  0.00     0.033 A 
HETATM    9  C   UNL     1      62.094   9.833   1.497  1.00  0.00     0.040 A 
HETATM   10  C   UNL     1      61.890  11.454   3.309  1.00  0.00     0.002 A 
HETATM   11  C   UNL     1      61.845  11.136   1.937  1.00  0.00     0.003 A 
ENDROOT
TORSDOF 0
ENDMDL
MODEL 6
REMARK VINA RESULT:      -4.3     18.504     19.521
REMARK  0 active torsions:
REMARK  status: ('A' for Active; 'I' for Inactive)
ROOT
HETATM    1  C   UNL     1      72.141  23.747  14.027  1.00  0.00     0.222 A 
HETATM    2  N   UNL     1      70.922  23.286  13.573  1.00  0.00    -0.320 N 
HETATM    3  O   UNL     1      72.005  24.768  14.967  1.00  0.00    -0.282 OA
HETATM    4  C   UNL     1      69.953  24.017  14.228  1.00  0.00     0.070 A 
HETATM    5  C   UNL     1      70.628  24.895  15.055  1.00  0.00     0.105 A 
HETATM    6  S   UNL     1      73.678  23.271  13.622  1.00  0.00    -0.032 SA
HETATM    7  C   UNL     1      70.634  22.251  12.609  1.00  0.00     0.159 C 
HETATM    8  C   UNL     1      68.576  23.982  14.166  1.00  0.00     0.033 A 
HETATM    9  C   UNL     1      69.960  25.789  15.865  1.00  0.00     0.040 A 
HETATM   10  C   UNL     1      67.877  24.879  14.981  1.00  0.00     0.002 A 
HETATM   11  C   UNL     1      68.564  25.776  15.823  1.00  0.00     0.003 A 
ENDROOT
TORSDOF 0
ENDMDL
MODEL 7
REMARK VINA RESULT:      -4.2      2.596      3.241
REMARK  0 active torsions:
REMARK  status: ('A' for Active; 'I' for Inactive)
ROOT
HETATM    1  C   UNL     1      63.023   7.432   2.573  1.00  0.00     0.222 A 
HETATM    2  N   UNL     1      62.417   8.505   1.953  1.00  0.00    -0.320 N 
HETATM    3  O   UNL     1      63.380   7.714   3.892  1.00  0.00    -0.282 OA
HETATM    4  C   UNL     1      62.369   9.525   2.881  1.00  0.00     0.070 A 
HETATM    5  C   UNL     1      62.951   9.024   4.031  1.00  0.00     0.105 A 
HETATM    6  S   UNL     1      63.369   5.919   1.987  1.00  0.00    -0.032 SA
HETATM    7  C   UNL     1      61.908   8.620   0.607  1.00  0.00     0.159 C 
HETATM    8  C   UNL     1      61.876  10.810   2.810  1.00  0.00     0.033 A 
HETATM    9  C   UNL     1      63.072   9.785   5.174  1.00  0.00     0.040 A 
HETATM   10  C   UNL     1      61.987  11.601   3.959  1.00  0.00     0.002 A 
HETATM   11  C   UNL     1      62.581  11.093   5.132  1.00  0.00     0.003 A 
ENDROOT
TORSDOF 0
ENDMDL
MODEL 8
REMARK VINA RESULT:      -4.2      4.453      6.657
REMARK  0 active torsions:
REMARK  status: ('A' for Active; 'I' for Inactive)
ROOT
HETATM    1  C   UNL     1      66.726   6.839   6.314  1.00  0.00     0.222 A 
HETATM    2  N   UNL     1      67.260   5.647   5.869  1.00  0.00    -0.320 N 
HETATM    3  O   UNL     1      66.986   7.065   7.665  1.00  0.00    -0.282 OA
HETATM    4  C   UNL     1      67.890   5.067   6.950  1.00  0.00     0.070 A 
HETATM    5  C   UNL     1      67.711   5.935   8.010  1.00  0.00     0.105 A 
HETATM    6  S   UNL     1      65.856   7.989   5.493  1.00  0.00    -0.032 SA
HETATM    7  C   UNL     1      67.212   5.054   4.553  1.00  0.00     0.159 C 
HETATM    8  C   UNL     1      68.585   3.883   7.082  1.00  0.00     0.033 A 
HETATM    9  C   UNL     1      68.218   5.666   9.264  1.00  0.00     0.040 A 
HETATM   10  C   UNL     1      69.109   3.589   8.346  1.00  0.00     0.002 A 
HETATM   11  C   UNL     1      68.927   4.473   9.428  1.00  0.00     0.003 A 
ENDROOT
TORSDOF 0
ENDMDL
MODEL 9
REMARK VINA RESULT:      -4.2      2.022      4.028
REMARK  0 active torsions:
REMARK  status: ('A' for Active; 'I' for Inactive)
ROOT
HETATM    1  C   UNL     1      63.943   9.097   4.857  1.00  0.00     0.222 A 
HETATM    2  N   UNL     1      64.091   7.986   4.051  1.00  0.00    -0.320 N 
HETATM    3  O   UNL     1      65.006   9.252   5.746  1.00  0.00    -0.282 OA
HETATM    4  C   UNL     1      65.281   7.389   4.412  1.00  0.00     0.070 A 
HETATM    5  C   UNL     1      65.807   8.166   5.427  1.00  0.00     0.105 A 
HETATM    6  S   UNL     1      62.725  10.222   4.908  1.00  0.00    -0.032 SA
HETATM    7  C   UNL     1      63.221   7.481   3.015  1.00  0.00     0.159 C 
HETATM    8  C   UNL     1      65.923   6.262   3.945  1.00  0.00     0.033 A 
HETATM    9  C   UNL     1      67.007   7.857   6.032  1.00  0.00     0.040 A 
HETATM   10  C   UNL     1      67.143   5.929   4.543  1.00  0.00     0.002 A 
HETATM   11  C   UNL     1      67.681   6.719   5.579  1.00  0.00     0.003 A 
ENDROOT
TORSDOF 0
ENDMDL
