MODEL 1
REMARK VINA RESULT:      -6.1      0.000      0.000
REMARK  1 active torsions:
REMARK  status: ('A' for Active; 'I' for Inactive)
REMARK    1  A    between atoms: C_3  and  C_7 
ROOT
HETATM    1  N   UNL     1      80.378  11.632  21.431  1.00  0.00    -0.300 N 
ATOM      2  HN  UNL     1      80.613  11.049  20.628  1.00  0.00     0.187 HD
HETATM    3  C   UNL     1      79.244  12.322  21.641  1.00  0.00     0.059 A 
HETATM    4  N   UNL     1      81.132  11.880  22.513  1.00  0.00    -0.311 N 
HETATM    5  C   UNL     1      79.294  12.983  22.900  1.00  0.00     0.050 A 
HETATM    6  C   UNL     1      80.521  12.676  23.432  1.00  0.00     0.109 A 
HETATM    7  H   UNL     1      82.041  11.521  22.631  1.00  0.00     0.186 HD
ENDROOT
BRANCH   3   8
HETATM    8  C   UNL     1      78.159  12.341  20.660  1.00  0.00    -0.008 A 
HETATM    9  C   UNL     1      78.044  11.319  19.706  1.00  0.00     0.014 A 
HETATM   10  C   UNL     1      77.007  11.332  18.769  1.00  0.00     0.001 A 
HETATM   11  C   UNL     1      76.077  12.371  18.773  1.00  0.00     0.000 A 
HETATM   12  C   UNL     1      76.183  13.395  19.712  1.00  0.00     0.001 A 
HETATM   13  C   UNL     1      77.217  13.380  20.652  1.00  0.00     0.014 A 
ENDBRANCH   3   8
TORSDOF 1
ENDMDL
MODEL 2
REMARK VINA RESULT:      -5.9      3.483      5.128
REMARK  1 active torsions:
REMARK  status: ('A' for Active; 'I' for Inactive)
REMARK    1  A    between atoms: C_3  and  C_7 
ROOT
HETATM    1  N   UNL     1      79.147   9.826  18.936  1.00  0.00    -0.300 N 
ATOM      2  HN  UNL     1      79.892   9.148  18.778  1.00  0.00     0.187 HD
HETATM    3  C   UNL     1      77.996   9.954  18.255  1.00  0.00     0.059 A 
HETATM    4  N   UNL     1      79.097  10.787  19.871  1.00  0.00    -0.311 N 
HETATM    5  C   UNL     1      77.207  11.001  18.809  1.00  0.00     0.050 A 
HETATM    6  C   UNL     1      77.947  11.513  19.846  1.00  0.00     0.109 A 
HETATM    7  H   UNL     1      79.825  10.952  20.514  1.00  0.00     0.186 HD
ENDROOT
BRANCH   3   8
HETATM    8  C   UNL     1      77.675   9.098  17.113  1.00  0.00    -0.008 A 
HETATM    9  C   UNL     1      77.822   9.575  15.802  1.00  0.00     0.014 A 
HETATM   10  C   UNL     1      77.519   8.760  14.709  1.00  0.00     0.001 A 
HETATM   11  C   UNL     1      77.060   7.459  14.915  1.00  0.00     0.000 A 
HETATM   12  C   UNL     1      76.905   6.974  16.212  1.00  0.00     0.001 A 
HETATM   13  C   UNL     1      77.212   7.788  17.305  1.00  0.00     0.014 A 
ENDBRANCH   3   8
TORSDOF 1
ENDMDL
MODEL 3
REMARK VINA RESULT:      -5.7      3.090      4.848
REMARK  1 active torsions:
REMARK  status: ('A' for Active; 'I' for Inactive)
REMARK    1  A    between atoms: C_3  and  C_7 
ROOT
HETATM    1  N   UNL     1      77.532  10.088  16.663  1.00  0.00    -0.300 N 
ATOM      2  HN  UNL     1      77.702  10.931  16.116  1.00  0.00     0.187 HD
HETATM    3  C   UNL     1      77.297  10.000  17.983  1.00  0.00     0.059 A 
HETATM    4  N   UNL     1      77.495   8.820  16.225  1.00  0.00    -0.311 N 
HETATM    5  C   UNL     1      77.077   8.644  18.356  1.00  0.00     0.050 A 
HETATM    6  C   UNL     1      77.212   7.915  17.201  1.00  0.00     0.109 A 
HETATM    7  H   UNL     1      77.658   8.568  15.287  1.00  0.00     0.186 HD
ENDROOT
BRANCH   3   8
HETATM    8  C   UNL     1      77.287  11.181  18.846  1.00  0.00    -0.008 A 
HETATM    9  C   UNL     1      78.174  11.279  19.928  1.00  0.00     0.014 A 
HETATM   10  C   UNL     1      78.169  12.406  20.753  1.00  0.00     0.001 A 
HETATM   11  C   UNL     1      77.272  13.445  20.508  1.00  0.00     0.000 A 
HETATM   12  C   UNL     1      76.382  13.358  19.441  1.00  0.00     0.001 A 
HETATM   13  C   UNL     1      76.390  12.233  18.612  1.00  0.00     0.014 A 
ENDBRANCH   3   8
TORSDOF 1
ENDMDL
MODEL 4
REMARK VINA RESULT:      -5.2     21.818     23.318
REMARK  1 active torsions:
REMARK  status: ('A' for Active; 'I' for Inactive)
REMARK    1  A    between atoms: C_3  and  C_7 
ROOT
HETATM    1  N   UNL     1      64.138   8.621   5.665  1.00  0.00    -0.300 N 
ATOM      2  HN  UNL     1      64.785   9.406   5.604  1.00  0.00     0.187 HD
HETATM    3  C   UNL     1      63.034   8.408   4.930  1.00  0.00     0.059 A 
HETATM    4  N   UNL     1      64.199   7.570   6.498  1.00  0.00    -0.311 N 
HETATM    5  C   UNL     1      62.422   7.178   5.301  1.00  0.00     0.050 A 
HETATM    6  C   UNL     1      63.199   6.667   6.311  1.00  0.00     0.109 A 
HETATM    7  H   UNL     1      64.901   7.464   7.180  1.00  0.00     0.186 HD
ENDROOT
BRANCH   3   8
HETATM    8  C   UNL     1      62.589   9.359   3.910  1.00  0.00    -0.008 A 
HETATM    9  C   UNL     1      62.290  10.685   4.256  1.00  0.00     0.014 A 
HETATM   10  C   UNL     1      61.868  11.596   3.285  1.00  0.00     0.001 A 
HETATM   11  C   UNL     1      61.734  11.189   1.958  1.00  0.00     0.000 A 
HETATM   12  C   UNL     1      62.023   9.874   1.602  1.00  0.00     0.001 A 
HETATM   13  C   UNL     1      62.450   8.963   2.572  1.00  0.00     0.014 A 
ENDBRANCH   3   8
TORSDOF 1
ENDMDL
MODEL 5
REMARK VINA RESULT:      -5.1      8.883     10.220
REMARK  1 active torsions:
REMARK  status: ('A' for Active; 'I' for Inactive)
REMARK    1  A    between atoms: C_3  and  C_7 
ROOT
HETATM    1  N   UNL     1      78.003   2.593  19.895  1.00  0.00    -0.300 N 
ATOM      2  HN  UNL     1      77.953   3.507  20.343  1.00  0.00     0.187 HD
HETATM    3  C   UNL     1      77.424   2.209  18.745  1.00  0.00     0.059 A 
HETATM    4  N   UNL     1      78.661   1.505  20.324  1.00  0.00    -0.311 N 
HETATM    5  C   UNL     1      77.765   0.860  18.446  1.00  0.00     0.050 A 
HETATM    6  C   UNL     1      78.561   0.441  19.482  1.00  0.00     0.109 A 
HETATM    7  H   UNL     1      79.168   1.479  21.168  1.00  0.00     0.186 HD
ENDROOT
BRANCH   3   8
HETATM    8  C   UNL     1      76.575   3.113  17.969  1.00  0.00    -0.008 A 
HETATM    9  C   UNL     1      76.923   4.463  17.819  1.00  0.00     0.014 A 
HETATM   10  C   UNL     1      76.116   5.328  17.076  1.00  0.00     0.001 A 
HETATM   11  C   UNL     1      74.947   4.853  16.481  1.00  0.00     0.000 A 
HETATM   12  C   UNL     1      74.587   3.516  16.628  1.00  0.00     0.001 A 
HETATM   13  C   UNL     1      75.397   2.649  17.366  1.00  0.00     0.014 A 
ENDBRANCH   3   8
TORSDOF 1
ENDMDL
MODEL 6
REMARK VINA RESULT:      -5.0     10.113     11.657
REMARK  1 active torsions:
REMARK  status: ('A' for Active; 'I' for Inactive)
REMARK    1  A    between atoms: C_3  and  C_7 
ROOT
HETATM    1  N   UNL     1      76.487   3.020  18.720  1.00  0.00    -0.300 N 
ATOM      2  HN  UNL     1      76.637   2.314  19.441  1.00  0.00     0.187 HD
HETATM    3  C   UNL     1      75.759   2.904  17.597  1.00  0.00     0.059 A 
HETATM    4  N   UNL     1      76.973   4.270  18.684  1.00  0.00    -0.311 N 
HETATM    5  C   UNL     1      75.774   4.128  16.871  1.00  0.00     0.050 A 
HETATM    6  C   UNL     1      76.564   4.982  17.599  1.00  0.00     0.109 A 
HETATM    7  H   UNL     1      77.570   4.637  19.375  1.00  0.00     0.186 HD
ENDROOT
BRANCH   3   8
HETATM    8  C   UNL     1      75.078   1.659  17.242  1.00  0.00    -0.008 A 
HETATM    9  C   UNL     1      74.902   1.303  15.897  1.00  0.00     0.014 A 
HETATM   10  C   UNL     1      74.255   0.113  15.554  1.00  0.00     0.001 A 
HETATM   11  C   UNL     1      73.772  -0.731  16.554  1.00  0.00     0.000 A 
HETATM   12  C   UNL     1      73.936  -0.387  17.893  1.00  0.00     0.001 A 
HETATM   13  C   UNL     1      74.587   0.801  18.237  1.00  0.00     0.014 A 
ENDBRANCH   3   8
TORSDOF 1
ENDMDL
MODEL 7
REMARK VINA RESULT:      -5.0     20.441     22.175
REMARK  1 active torsions:
REMARK  status: ('A' for Active; 'I' for Inactive)
REMARK    1  A    between atoms: C_3  and  C_7 
ROOT
HETATM    1  N   UNL     1      65.339   8.561   6.027  1.00  0.00    -0.300 N 
ATOM      2  HN  UNL     1      65.864   9.411   5.821  1.00  0.00     0.187 HD
HETATM    3  C   UNL     1      64.118   8.222   5.582  1.00  0.00     0.059 A 
HETATM    4  N   UNL     1      65.715   7.533   6.803  1.00  0.00    -0.311 N 
HETATM    5  C   UNL     1      63.751   6.938   6.073  1.00  0.00     0.050 A 
HETATM    6  C   UNL     1      64.802   6.526   6.853  1.00  0.00     0.109 A 
HETATM    7  H   UNL     1      66.570   7.510   7.291  1.00  0.00     0.186 HD
ENDROOT
BRANCH   3   8
HETATM    8  C   UNL     1      63.337   9.108   4.717  1.00  0.00    -0.008 A 
HETATM    9  C   UNL     1      62.957   8.695   3.432  1.00  0.00     0.014 A 
HETATM   10  C   UNL     1      62.210   9.538   2.605  1.00  0.00     0.001 A 
HETATM   11  C   UNL     1      61.840  10.805   3.053  1.00  0.00     0.000 A 
HETATM   12  C   UNL     1      62.215  11.230   4.325  1.00  0.00     0.001 A 
HETATM   13  C   UNL     1      62.959  10.386   5.155  1.00  0.00     0.014 A 
ENDBRANCH   3   8
TORSDOF 1
ENDMDL
MODEL 8
REMARK VINA RESULT:      -4.9     17.193     18.633
REMARK  1 active torsions:
REMARK  status: ('A' for Active; 'I' for Inactive)
REMARK    1  A    between atoms: C_3  and  C_7 
ROOT
HETATM    1  N   UNL     1      67.211   7.393   7.911  1.00  0.00    -0.300 N 
ATOM      2  HN  UNL     1      67.143   7.453   8.927  1.00  0.00     0.187 HD
HETATM    3  C   UNL     1      67.703   6.379   7.180  1.00  0.00     0.059 A 
HETATM    4  N   UNL     1      66.828   8.309   7.008  1.00  0.00    -0.311 N 
HETATM    5  C   UNL     1      67.588   6.670   5.792  1.00  0.00     0.050 A 
HETATM    6  C   UNL     1      67.022   7.918   5.720  1.00  0.00     0.109 A 
HETATM    7  H   UNL     1      66.445   9.182   7.255  1.00  0.00     0.186 HD
ENDROOT
BRANCH   3   8
HETATM    8  C   UNL     1      68.263   5.179   7.802  1.00  0.00    -0.008 A 
HETATM    9  C   UNL     1      68.358   3.981   7.078  1.00  0.00     0.014 A 
HETATM   10  C   UNL     1      68.895   2.834   7.668  1.00  0.00     0.001 A 
HETATM   11  C   UNL     1      69.337   2.871   8.990  1.00  0.00     0.000 A 
HETATM   12  C   UNL     1      69.243   4.053   9.721  1.00  0.00     0.001 A 
HETATM   13  C   UNL     1      68.710   5.202   9.131  1.00  0.00     0.014 A 
ENDBRANCH   3   8
TORSDOF 1
ENDMDL
MODEL 9
REMARK VINA RESULT:      -4.8      9.750     10.891
REMARK  1 active torsions:
REMARK  status: ('A' for Active; 'I' for Inactive)
REMARK    1  A    between atoms: C_3  and  C_7 
ROOT
HETATM    1  N   UNL     1      77.790   0.172  17.991  1.00  0.00    -0.300 N 
ATOM      2  HN  UNL     1      77.330  -0.229  17.175  1.00  0.00     0.187 HD
HETATM    3  C   UNL     1      77.614   1.398  18.512  1.00  0.00     0.059 A 
HETATM    4  N   UNL     1      78.705  -0.406  18.784  1.00  0.00    -0.311 N 
HETATM    5  C   UNL     1      78.420   1.562  19.673  1.00  0.00     0.050 A 
HETATM    6  C   UNL     1      79.107   0.382  19.817  1.00  0.00     0.109 A 
HETATM    7  H   UNL     1      79.054  -1.314  18.631  1.00  0.00     0.186 HD
ENDROOT
BRANCH   3   8
HETATM    8  C   UNL     1      76.704   2.371  17.907  1.00  0.00    -0.008 A 
HETATM    9  C   UNL     1      75.481   1.957  17.360  1.00  0.00     0.014 A 
HETATM   10  C   UNL     1      74.608   2.884  16.784  1.00  0.00     0.001 A 
HETATM   11  C   UNL     1      74.953   4.235  16.744  1.00  0.00     0.000 A 
HETATM   12  C   UNL     1      76.167   4.658  17.279  1.00  0.00     0.001 A 
HETATM   13  C   UNL     1      77.038   3.733  17.860  1.00  0.00     0.014 A 
ENDBRANCH   3   8
TORSDOF 1
ENDMDL
