MODEL 1
REMARK VINA RESULT:      -4.7      0.000      0.000
REMARK  1 active torsions:
REMARK  status: ('A' for Active; 'I' for Inactive)
REMARK    1  A    between atoms: C_9  and  N_10 
ROOT
HETATM    1  N   UNL     1      75.808   4.772  17.517  1.00  0.00    -0.311 N 
ATOM      2  HN  UNL     1      75.423   3.904  17.888  1.00  0.00     0.186 HD
HETATM    3  C   UNL     1      76.577   6.395  16.097  1.00  0.00     0.011 A 
HETATM    4  N   UNL     1      76.203   5.866  18.192  1.00  0.00    -0.300 N 
HETATM    5  C   UNL     1      76.671   6.879  17.396  1.00  0.00     0.059 A 
HETATM    6  C   UNL     1      76.044   5.095  16.242  1.00  0.00     0.120 A 
HETATM    7  C   UNL     1      77.002   7.206  15.029  1.00  0.00     0.044 A 
HETATM    8  C   UNL     1      77.178   8.144  17.697  1.00  0.00     0.034 A 
HETATM    9  C   UNL     1      77.466   8.504  15.292  1.00  0.00     0.026 A 
HETATM   10  C   UNL     1      77.593   8.934  16.616  1.00  0.00     0.031 A 
HETATM   11  H   UNL     1      76.159   5.935  19.174  1.00  0.00     0.187 HD
ENDROOT
BRANCH   9  12
HETATM   12  N   UNL     1      78.016   9.269  14.252  1.00  0.00    -0.399 N 
HETATM   13  H   UNL     1      78.499   8.828  13.517  1.00  0.00     0.156 HD
HETATM   14  H   UNL     1      77.919  10.249  14.259  1.00  0.00     0.156 HD
ENDBRANCH   9  12
TORSDOF 1
ENDMDL
MODEL 2
REMARK VINA RESULT:      -4.7      0.894      4.135
REMARK  1 active torsions:
REMARK  status: ('A' for Active; 'I' for Inactive)
REMARK    1  A    between atoms: C_9  and  N_10 
ROOT
HETATM    1  N   UNL     1      77.855  10.220  15.781  1.00  0.00    -0.311 N 
ATOM      2  HN  UNL     1      78.141  11.175  15.564  1.00  0.00     0.186 HD
HETATM    3  C   UNL     1      77.242   8.319  16.899  1.00  0.00     0.011 A 
HETATM    4  N   UNL     1      77.603   9.210  14.929  1.00  0.00    -0.300 N 
HETATM    5  C   UNL     1      77.226   8.042  15.538  1.00  0.00     0.059 A 
HETATM    6  C   UNL     1      77.641   9.672  16.980  1.00  0.00     0.120 A 
HETATM    7  C   UNL     1      76.911   7.301  17.811  1.00  0.00     0.044 A 
HETATM    8  C   UNL     1      76.898   6.786  15.025  1.00  0.00     0.034 A 
HETATM    9  C   UNL     1      76.525   6.042  17.329  1.00  0.00     0.026 A 
HETATM   10  C   UNL     1      76.571   5.788  15.954  1.00  0.00     0.031 A 
HETATM   11  H   UNL     1      77.682   9.302  13.951  1.00  0.00     0.187 HD
ENDROOT
BRANCH   9  12
HETATM   12  N   UNL     1      76.324   4.983  18.228  1.00  0.00    -0.399 N 
HETATM   13  H   UNL     1      76.051   4.098  17.894  1.00  0.00     0.156 HD
HETATM   14  H   UNL     1      76.454   5.127  19.193  1.00  0.00     0.156 HD
ENDBRANCH   9  12
TORSDOF 1
ENDMDL
MODEL 3
REMARK VINA RESULT:      -4.7      5.227      6.397
REMARK  1 active torsions:
REMARK  status: ('A' for Active; 'I' for Inactive)
REMARK    1  A    between atoms: C_9  and  N_10 
ROOT
HETATM    1  N   UNL     1      77.698   2.909  19.576  1.00  0.00    -0.311 N 
ATOM      2  HN  UNL     1      78.193   3.363  20.344  1.00  0.00     0.186 HD
HETATM    3  C   UNL     1      77.092   1.444  17.925  1.00  0.00     0.011 A 
HETATM    4  N   UNL     1      76.566   3.302  18.964  1.00  0.00    -0.300 N 
HETATM    5  C   UNL     1      76.147   2.461  17.966  1.00  0.00     0.059 A 
HETATM    6  C   UNL     1      78.019   1.781  18.936  1.00  0.00     0.120 A 
HETATM    7  C   UNL     1      76.952   0.414  16.978  1.00  0.00     0.044 A 
HETATM    8  C   UNL     1      75.055   2.515  17.099  1.00  0.00     0.034 A 
HETATM    9  C   UNL     1      75.837   0.407  16.126  1.00  0.00     0.026 A 
HETATM   10  C   UNL     1      74.936   1.476  16.165  1.00  0.00     0.031 A 
HETATM   11  H   UNL     1      76.080   4.121  19.212  1.00  0.00     0.187 HD
ENDROOT
BRANCH   9  12
HETATM   12  N   UNL     1      75.757  -0.538  15.092  1.00  0.00    -0.399 N 
HETATM   13  H   UNL     1      76.506  -1.155  14.929  1.00  0.00     0.156 HD
HETATM   14  H   UNL     1      74.951  -0.582  14.528  1.00  0.00     0.156 HD
ENDBRANCH   9  12
TORSDOF 1
ENDMDL
MODEL 4
REMARK VINA RESULT:      -4.6     19.026     19.919
REMARK  1 active torsions:
REMARK  status: ('A' for Active; 'I' for Inactive)
REMARK    1  A    between atoms: C_9  and  N_10 
ROOT
HETATM    1  N   UNL     1      62.778  11.375   5.689  1.00  0.00    -0.311 N 
ATOM      2  HN  UNL     1      62.918  11.886   6.561  1.00  0.00     0.186 HD
HETATM    3  C   UNL     1      62.735   9.728   4.100  1.00  0.00     0.011 A 
HETATM    4  N   UNL     1      62.245  11.820   4.537  1.00  0.00    -0.300 N 
HETATM    5  C   UNL     1      62.186  10.877   3.544  1.00  0.00     0.059 A 
HETATM    6  C   UNL     1      63.081  10.103   5.417  1.00  0.00     0.120 A 
HETATM    7  C   UNL     1      62.835   8.565   3.315  1.00  0.00     0.044 A 
HETATM    8  C   UNL     1      61.729  10.936   2.227  1.00  0.00     0.034 A 
HETATM    9  C   UNL     1      62.336   8.574   2.004  1.00  0.00     0.026 A 
HETATM   10  C   UNL     1      61.838   9.764   1.465  1.00  0.00     0.031 A 
HETATM   11  H   UNL     1      61.924  12.743   4.417  1.00  0.00     0.187 HD
ENDROOT
BRANCH   9  12
HETATM   12  N   UNL     1      62.550   7.465   1.170  1.00  0.00    -0.399 N 
HETATM   13  H   UNL     1      62.472   6.554   1.533  1.00  0.00     0.156 HD
HETATM   14  H   UNL     1      62.779   7.600   0.222  1.00  0.00     0.156 HD
ENDBRANCH   9  12
TORSDOF 1
ENDMDL
MODEL 5
REMARK VINA RESULT:      -4.5     18.225     18.841
REMARK  1 active torsions:
REMARK  status: ('A' for Active; 'I' for Inactive)
REMARK    1  A    between atoms: C_9  and  N_10 
ROOT
HETATM    1  N   UNL     1      63.687   7.087   5.388  1.00  0.00    -0.311 N 
ATOM      2  HN  UNL     1      64.040   6.209   5.770  1.00  0.00     0.186 HD
HETATM    3  C   UNL     1      62.784   8.661   3.992  1.00  0.00     0.011 A 
HETATM    4  N   UNL     1      63.614   8.289   5.987  1.00  0.00    -0.300 N 
HETATM    5  C   UNL     1      63.077   9.276   5.203  1.00  0.00     0.059 A 
HETATM    6  C   UNL     1      63.187   7.319   4.171  1.00  0.00     0.120 A 
HETATM    7  C   UNL     1      62.225   9.424   2.951  1.00  0.00     0.044 A 
HETATM    8  C   UNL     1      62.845  10.632   5.438  1.00  0.00     0.034 A 
HETATM    9  C   UNL     1      61.930  10.778   3.171  1.00  0.00     0.026 A 
HETATM   10  C   UNL     1      62.287  11.371   4.386  1.00  0.00     0.031 A 
HETATM   11  H   UNL     1      63.920   8.446   6.910  1.00  0.00     0.187 HD
ENDROOT
BRANCH   9  12
HETATM   12  N   UNL     1      61.499  11.578   2.102  1.00  0.00    -0.399 N 
HETATM   13  H   UNL     1      62.127  12.198   1.667  1.00  0.00     0.156 HD
HETATM   14  H   UNL     1      60.567  11.520   1.790  1.00  0.00     0.156 HD
ENDBRANCH   9  12
TORSDOF 1
ENDMDL
MODEL 6
REMARK VINA RESULT:      -4.5     18.947     19.788
REMARK  1 active torsions:
REMARK  status: ('A' for Active; 'I' for Inactive)
REMARK    1  A    between atoms: C_9  and  N_10 
ROOT
HETATM    1  N   UNL     1      62.420   7.902   1.307  1.00  0.00    -0.311 N 
ATOM      2  HN  UNL     1      62.408   7.212   0.556  1.00  0.00     0.186 HD
HETATM    3  C   UNL     1      62.758   8.947   3.315  1.00  0.00     0.011 A 
HETATM    4  N   UNL     1      61.951   9.163   1.288  1.00  0.00    -0.300 N 
HETATM    5  C   UNL     1      62.128   9.846   2.463  1.00  0.00     0.059 A 
HETATM    6  C   UNL     1      62.904   7.772   2.545  1.00  0.00     0.120 A 
HETATM    7  C   UNL     1      63.068   9.346   4.628  1.00  0.00     0.044 A 
HETATM    8  C   UNL     1      61.779  11.139   2.852  1.00  0.00     0.034 A 
HETATM    9  C   UNL     1      62.779  10.657   5.036  1.00  0.00     0.026 A 
HETATM   10  C   UNL     1      62.099  11.514   4.165  1.00  0.00     0.031 A 
HETATM   11  H   UNL     1      61.519   9.563   0.498  1.00  0.00     0.187 HD
ENDROOT
BRANCH   9  12
HETATM   12  N   UNL     1      62.961  11.024   6.378  1.00  0.00    -0.399 N 
HETATM   13  H   UNL     1      62.206  11.386   6.896  1.00  0.00     0.156 HD
HETATM   14  H   UNL     1      63.843  10.921   6.801  1.00  0.00     0.156 HD
ENDBRANCH   9  12
TORSDOF 1
ENDMDL
MODEL 7
REMARK VINA RESULT:      -4.5     10.957     11.823
REMARK  1 active torsions:
REMARK  status: ('A' for Active; 'I' for Inactive)
REMARK    1  A    between atoms: C_9  and  N_10 
ROOT
HETATM    1  N   UNL     1      69.851   2.150  10.858  1.00  0.00    -0.311 N 
ATOM      2  HN  UNL     1      70.206   1.612  11.649  1.00  0.00     0.186 HD
HETATM    3  C   UNL     1      68.961   2.736   8.832  1.00  0.00     0.011 A 
HETATM    4  N   UNL     1      69.748   3.486  10.737  1.00  0.00    -0.300 N 
HETATM    5  C   UNL     1      69.216   3.902   9.544  1.00  0.00     0.059 A 
HETATM    6  C   UNL     1      69.377   1.697   9.695  1.00  0.00     0.120 A 
HETATM    7  C   UNL     1      68.417   2.826   7.538  1.00  0.00     0.044 A 
HETATM    8  C   UNL     1      68.962   5.173   9.029  1.00  0.00     0.034 A 
HETATM    9  C   UNL     1      68.099   4.087   7.011  1.00  0.00     0.026 A 
HETATM   10  C   UNL     1      68.419   5.237   7.738  1.00  0.00     0.031 A 
HETATM   11  H   UNL     1      70.030   4.111  11.443  1.00  0.00     0.187 HD
ENDROOT
BRANCH   9  12
HETATM   12  N   UNL     1      67.683   4.197   5.675  1.00  0.00    -0.399 N 
HETATM   13  H   UNL     1      68.077   3.615   4.987  1.00  0.00     0.156 HD
HETATM   14  H   UNL     1      66.997   4.859   5.427  1.00  0.00     0.156 HD
ENDBRANCH   9  12
TORSDOF 1
ENDMDL
MODEL 8
REMARK VINA RESULT:      -4.4     18.531     19.384
REMARK  1 active torsions:
REMARK  status: ('A' for Active; 'I' for Inactive)
REMARK    1  A    between atoms: C_9  and  N_10 
ROOT
HETATM    1  N   UNL     1      61.191   9.383   1.383  1.00  0.00    -0.311 N 
ATOM      2  HN  UNL     1      60.635   9.361   0.529  1.00  0.00     0.186 HD
HETATM    3  C   UNL     1      62.666   8.847   3.050  1.00  0.00     0.011 A 
HETATM    4  N   UNL     1      61.220  10.333   2.336  1.00  0.00    -0.300 N 
HETATM    5  C   UNL     1      62.090  10.072   3.363  1.00  0.00     0.059 A 
HETATM    6  C   UNL     1      62.068   8.478   1.825  1.00  0.00     0.120 A 
HETATM    7  C   UNL     1      63.608   8.286   3.932  1.00  0.00     0.044 A 
HETATM    8  C   UNL     1      62.399  10.779   4.525  1.00  0.00     0.034 A 
HETATM    9  C   UNL     1      63.982   8.995   5.083  1.00  0.00     0.026 A 
HETATM   10  C   UNL     1      63.341  10.200   5.387  1.00  0.00     0.031 A 
HETATM   11  H   UNL     1      60.665  11.145   2.299  1.00  0.00     0.187 HD
ENDROOT
BRANCH   9  12
HETATM   12  N   UNL     1      64.817   8.388   6.034  1.00  0.00    -0.399 N 
HETATM   13  H   UNL     1      65.783   8.577   6.033  1.00  0.00     0.156 HD
HETATM   14  H   UNL     1      64.435   7.772   6.700  1.00  0.00     0.156 HD
ENDBRANCH   9  12
TORSDOF 1
ENDMDL
MODEL 9
REMARK VINA RESULT:      -4.4      4.637      5.871
REMARK  1 active torsions:
REMARK  status: ('A' for Active; 'I' for Inactive)
REMARK    1  A    between atoms: C_9  and  N_10 
ROOT
HETATM    1  N   UNL     1      77.916   9.253  17.479  1.00  0.00    -0.311 N 
ATOM      2  HN  UNL     1      78.003   8.472  16.829  1.00  0.00     0.186 HD
HETATM    3  C   UNL     1      78.267  10.713  19.207  1.00  0.00     0.011 A 
HETATM    4  N   UNL     1      77.008  10.246  17.473  1.00  0.00    -0.300 N 
HETATM    5  C   UNL     1      77.167  11.158  18.484  1.00  0.00     0.059 A 
HETATM    6  C   UNL     1      78.677   9.537  18.539  1.00  0.00     0.120 A 
HETATM    7  C   UNL     1      78.685  11.437  20.338  1.00  0.00     0.044 A 
HETATM    8  C   UNL     1      76.445  12.300  18.832  1.00  0.00     0.034 A 
HETATM    9  C   UNL     1      78.015  12.619  20.685  1.00  0.00     0.026 A 
HETATM   10  C   UNL     1      76.882  13.006  19.962  1.00  0.00     0.031 A 
HETATM   11  H   UNL     1      76.291  10.312  16.802  1.00  0.00     0.187 HD
ENDROOT
BRANCH   9  12
HETATM   12  N   UNL     1      78.337  13.275  21.883  1.00  0.00    -0.399 N 
HETATM   13  H   UNL     1      77.916  14.139  22.100  1.00  0.00     0.156 HD
HETATM   14  H   UNL     1      78.984  12.872  22.506  1.00  0.00     0.156 HD
ENDBRANCH   9  12
TORSDOF 1
ENDMDL
