MODEL 1
REMARK VINA RESULT:      -4.9      0.000      0.000
REMARK  1 active torsions:
REMARK  status: ('A' for Active; 'I' for Inactive)
REMARK    1  A    between atoms: C_1  and  C_2 
ROOT
HETATM    1  C   UNL     1      77.261   8.358  17.337  1.00  0.00     0.071 A 
HETATM    2  C   UNL     1      77.638   9.378  16.477  1.00  0.00     0.065 A 
HETATM    3  C   UNL     1      77.208   8.958  18.633  1.00  0.00     0.045 A 
HETATM    4  O   UNL     1      77.812  10.542  17.171  1.00  0.00    -0.326 OA
HETATM    5  C   UNL     1      77.549  10.277  18.474  1.00  0.00     0.143 A 
HETATM    6  C   UNL     1      77.884   9.483  15.023  1.00  0.00     0.078 C 
ENDROOT
BRANCH   1   7
HETATM    7  C   UNL     1      76.985   6.984  16.984  1.00  0.00     0.211 C 
HETATM    8  O   UNL     1      76.826   6.542  15.858  1.00  0.00    -0.644 OA
HETATM    9  O   UNL     1      76.906   6.154  18.050  1.00  0.00    -0.644 OA
ENDBRANCH   1   7
TORSDOF 1
ENDMDL
MODEL 2
REMARK VINA RESULT:      -4.8     14.670     15.774
REMARK  1 active torsions:
REMARK  status: ('A' for Active; 'I' for Inactive)
REMARK    1  A    between atoms: C_1  and  C_2 
ROOT
HETATM    1  C   UNL     1      72.153  23.028  14.371  1.00  0.00     0.071 A 
HETATM    2  C   UNL     1      71.310  22.645  13.339  1.00  0.00     0.065 A 
HETATM    3  C   UNL     1      71.417  23.996  15.119  1.00  0.00     0.045 A 
HETATM    4  O   UNL     1      70.124  23.318  13.423  1.00  0.00    -0.326 OA
HETATM    5  C   UNL     1      70.199  24.133  14.504  1.00  0.00     0.143 A 
HETATM    6  C   UNL     1      71.405  21.700  12.206  1.00  0.00     0.078 C 
ENDROOT
BRANCH   1   7
HETATM    7  C   UNL     1      73.491  22.542  14.622  1.00  0.00     0.211 C 
HETATM    8  O   UNL     1      74.410  22.497  13.820  1.00  0.00    -0.644 OA
HETATM    9  O   UNL     1      73.682  22.106  15.889  1.00  0.00    -0.644 OA
ENDBRANCH   1   7
TORSDOF 1
ENDMDL
MODEL 3
REMARK VINA RESULT:      -4.7      3.119      4.635
REMARK  1 active torsions:
REMARK  status: ('A' for Active; 'I' for Inactive)
REMARK    1  A    between atoms: C_1  and  C_2 
ROOT
HETATM    1  C   UNL     1      77.472  11.514  19.424  1.00  0.00     0.071 A 
HETATM    2  C   UNL     1      77.744  12.361  20.488  1.00  0.00     0.065 A 
HETATM    3  C   UNL     1      76.482  12.191  18.648  1.00  0.00     0.045 A 
HETATM    4  O   UNL     1      76.985  13.493  20.398  1.00  0.00    -0.326 OA
HETATM    5  C   UNL     1      76.225  13.381  19.281  1.00  0.00     0.143 A 
HETATM    6  C   UNL     1      78.645  12.312  21.660  1.00  0.00     0.078 C 
ENDROOT
BRANCH   1   7
HETATM    7  C   UNL     1      78.070  10.224  19.169  1.00  0.00     0.211 C 
HETATM    8  O   UNL     1      77.493   9.148  19.139  1.00  0.00    -0.644 OA
HETATM    9  O   UNL     1      79.404  10.276  18.950  1.00  0.00    -0.644 OA
ENDBRANCH   1   7
TORSDOF 1
ENDMDL
MODEL 4
REMARK VINA RESULT:      -4.6      2.927      4.156
REMARK  1 active torsions:
REMARK  status: ('A' for Active; 'I' for Inactive)
REMARK    1  A    between atoms: C_1  and  C_2 
ROOT
HETATM    1  C   UNL     1      77.768  11.418  19.636  1.00  0.00     0.071 A 
HETATM    2  C   UNL     1      77.033  12.502  19.180  1.00  0.00     0.065 A 
HETATM    3  C   UNL     1      78.314  11.834  20.889  1.00  0.00     0.045 A 
HETATM    4  O   UNL     1      77.104  13.532  20.075  1.00  0.00    -0.326 OA
HETATM    5  C   UNL     1      77.881  13.118  21.105  1.00  0.00     0.143 A 
HETATM    6  C   UNL     1      76.214  12.780  17.980  1.00  0.00     0.078 C 
ENDROOT
BRANCH   1   7
HETATM    7  C   UNL     1      77.937  10.145  18.974  1.00  0.00     0.211 C 
HETATM    8  O   UNL     1      77.383   9.096  19.262  1.00  0.00    -0.644 OA
HETATM    9  O   UNL     1      78.810  10.181  17.940  1.00  0.00    -0.644 OA
ENDBRANCH   1   7
TORSDOF 1
ENDMDL
MODEL 5
REMARK VINA RESULT:      -4.5      3.807      5.262
REMARK  1 active torsions:
REMARK  status: ('A' for Active; 'I' for Inactive)
REMARK    1  A    between atoms: C_1  and  C_2 
ROOT
HETATM    1  C   UNL     1      76.621   4.048  17.890  1.00  0.00     0.071 A 
HETATM    2  C   UNL     1      75.550   3.860  17.030  1.00  0.00     0.065 A 
HETATM    3  C   UNL     1      77.136   5.342  17.573  1.00  0.00     0.045 A 
HETATM    4  O   UNL     1      75.393   4.952  16.225  1.00  0.00    -0.326 OA
HETATM    5  C   UNL     1      76.358   5.843  16.561  1.00  0.00     0.143 A 
HETATM    6  C   UNL     1      74.571   2.775  16.799  1.00  0.00     0.078 C 
ENDROOT
BRANCH   1   7
HETATM    7  C   UNL     1      77.103   3.121  18.889  1.00  0.00     0.211 C 
HETATM    8  O   UNL     1      77.364   1.941  18.720  1.00  0.00    -0.644 OA
HETATM    9  O   UNL     1      77.259   3.675  20.114  1.00  0.00    -0.644 OA
ENDBRANCH   1   7
TORSDOF 1
ENDMDL
MODEL 6
REMARK VINA RESULT:      -4.5     15.037     16.540
REMARK  1 active torsions:
REMARK  status: ('A' for Active; 'I' for Inactive)
REMARK    1  A    between atoms: C_1  and  C_2 
ROOT
HETATM    1  C   UNL     1      71.679  23.651  14.555  1.00  0.00     0.071 A 
HETATM    2  C   UNL     1      71.710  22.731  13.518  1.00  0.00     0.065 A 
HETATM    3  C   UNL     1      72.941  23.522  15.211  1.00  0.00     0.045 A 
HETATM    4  O   UNL     1      72.904  22.066  13.511  1.00  0.00    -0.326 OA
HETATM    5  C   UNL     1      73.641  22.551  14.540  1.00  0.00     0.143 A 
HETATM    6  C   UNL     1      70.770  22.325  12.450  1.00  0.00     0.078 C 
ENDROOT
BRANCH   1   7
HETATM    7  C   UNL     1      70.592  24.542  14.890  1.00  0.00     0.211 C 
HETATM    8  O   UNL     1      69.399  24.307  14.781  1.00  0.00    -0.644 OA
HETATM    9  O   UNL     1      70.999  25.742  15.364  1.00  0.00    -0.644 OA
ENDBRANCH   1   7
TORSDOF 1
ENDMDL
MODEL 7
REMARK VINA RESULT:      -4.4      5.158      6.964
REMARK  1 active torsions:
REMARK  status: ('A' for Active; 'I' for Inactive)
REMARK    1  A    between atoms: C_1  and  C_2 
ROOT
HETATM    1  C   UNL     1      76.800   2.509  18.169  1.00  0.00     0.071 A 
HETATM    2  C   UNL     1      75.747   2.196  17.322  1.00  0.00     0.065 A 
HETATM    3  C   UNL     1      77.627   1.345  18.188  1.00  0.00     0.045 A 
HETATM    4  O   UNL     1      75.892   0.927  16.837  1.00  0.00    -0.326 OA
HETATM    5  C   UNL     1      77.032   0.421  17.366  1.00  0.00     0.143 A 
HETATM    6  C   UNL     1      74.543   2.908  16.842  1.00  0.00     0.078 C 
ENDROOT
BRANCH   1   7
HETATM    7  C   UNL     1      77.003   3.753  18.875  1.00  0.00     0.211 C 
HETATM    8  O   UNL     1      76.975   4.875  18.395  1.00  0.00    -0.644 OA
HETATM    9  O   UNL     1      77.245   3.595  20.197  1.00  0.00    -0.644 OA
ENDBRANCH   1   7
TORSDOF 1
ENDMDL
MODEL 8
REMARK VINA RESULT:      -4.4     19.993     21.205
REMARK  1 active torsions:
REMARK  status: ('A' for Active; 'I' for Inactive)
REMARK    1  A    between atoms: C_1  and  C_2 
ROOT
HETATM    1  C   UNL     1      62.152   9.808   2.482  1.00  0.00     0.071 A 
HETATM    2  C   UNL     1      62.846   8.808   3.145  1.00  0.00     0.065 A 
HETATM    3  C   UNL     1      61.761   9.232   1.235  1.00  0.00     0.045 A 
HETATM    4  O   UNL     1      62.893   7.677   2.380  1.00  0.00    -0.326 OA
HETATM    5  C   UNL     1      62.234   7.944   1.226  1.00  0.00     0.143 A 
HETATM    6  C   UNL     1      63.522   8.696   4.456  1.00  0.00     0.078 C 
ENDROOT
BRANCH   1   7
HETATM    7  C   UNL     1      61.890  11.146   2.962  1.00  0.00     0.211 C 
HETATM    8  O   UNL     1      61.670  11.473   4.117  1.00  0.00    -0.644 OA
HETATM    9  O   UNL     1      61.901  12.085   1.988  1.00  0.00    -0.644 OA
ENDBRANCH   1   7
TORSDOF 1
ENDMDL
MODEL 9
REMARK VINA RESULT:      -4.3     19.809     20.885
REMARK  1 active torsions:
REMARK  status: ('A' for Active; 'I' for Inactive)
REMARK    1  A    between atoms: C_1  and  C_2 
ROOT
HETATM    1  C   UNL     1      62.270   9.958   3.341  1.00  0.00     0.071 A 
HETATM    2  C   UNL     1      62.172   8.971   2.372  1.00  0.00     0.065 A 
HETATM    3  C   UNL     1      62.706   9.284   4.522  1.00  0.00     0.045 A 
HETATM    4  O   UNL     1      62.521   7.758   2.895  1.00  0.00    -0.326 OA
HETATM    5  C   UNL     1      62.842   7.958   4.196  1.00  0.00     0.143 A 
HETATM    6  C   UNL     1      61.788   8.942   0.944  1.00  0.00     0.078 C 
ENDROOT
BRANCH   1   7
HETATM    7  C   UNL     1      61.985  11.365   3.177  1.00  0.00     0.211 C 
HETATM    8  O   UNL     1      61.916  11.974   2.121  1.00  0.00    -0.644 OA
HETATM    9  O   UNL     1      61.788  12.020   4.345  1.00  0.00    -0.644 OA
ENDBRANCH   1   7
TORSDOF 1
ENDMDL
