MODEL 1
REMARK VINA RESULT:      -5.8      0.000      0.000
REMARK  1 active torsions:
REMARK  status: ('A' for Active; 'I' for Inactive)
REMARK    1  A    between atoms: C_8  and  N_9 
ROOT
HETATM    1  N   UNL     1      80.101  11.417  21.345  1.00  0.00    -0.359 N 
HETATM    2  C   UNL     1      78.231  12.608  21.126  1.00  0.00    -0.005 A 
HETATM    3  C   UNL     1      80.163  12.408  22.295  1.00  0.00     0.006 A 
HETATM    4  C   UNL     1      78.985  13.123  22.215  1.00  0.00     0.038 A 
HETATM    5  C   UNL     1      78.954  11.542  20.593  1.00  0.00     0.042 A 
HETATM    6  C   UNL     1      77.015  12.976  20.512  1.00  0.00     0.042 A 
HETATM    7  C   UNL     1      78.521  10.822  19.478  1.00  0.00     0.033 A 
HETATM    8  C   UNL     1      76.544  12.259  19.402  1.00  0.00     0.026 A 
HETATM    9  C   UNL     1      77.320  11.224  18.877  1.00  0.00     0.031 A 
HETATM   10  C   UNL     1      81.345  12.595  23.169  1.00  0.00     0.068 C 
HETATM   11  H   UNL     1      80.782  10.717  21.219  1.00  0.00     0.166 HD
ENDROOT
BRANCH   8  12
HETATM   12  N   UNL     1      75.439  12.739  18.684  1.00  0.00    -0.399 N 
HETATM   13  H   UNL     1      74.534  12.662  19.063  1.00  0.00     0.156 HD
HETATM   14  H   UNL     1      75.568  13.154  17.800  1.00  0.00     0.156 HD
ENDBRANCH   8  12
TORSDOF 1
ENDMDL
MODEL 2
REMARK VINA RESULT:      -5.1      8.703     10.135
REMARK  1 active torsions:
REMARK  status: ('A' for Active; 'I' for Inactive)
REMARK    1  A    between atoms: C_8  and  N_9 
ROOT
HETATM    1  N   UNL     1      77.243   4.627  18.014  1.00  0.00    -0.359 N 
HETATM    2  C   UNL     1      75.482   3.654  17.057  1.00  0.00    -0.005 A 
HETATM    3  C   UNL     1      76.541   5.631  17.392  1.00  0.00     0.006 A 
HETATM    4  C   UNL     1      75.412   5.057  16.842  1.00  0.00     0.038 A 
HETATM    5  C   UNL     1      76.642   3.409  17.790  1.00  0.00     0.042 A 
HETATM    6  C   UNL     1      74.688   2.558  16.660  1.00  0.00     0.042 A 
HETATM    7  C   UNL     1      77.047   2.121  18.150  1.00  0.00     0.033 A 
HETATM    8  C   UNL     1      75.057   1.254  17.023  1.00  0.00     0.026 A 
HETATM    9  C   UNL     1      76.248   1.052  17.724  1.00  0.00     0.031 A 
HETATM   10  C   UNL     1      77.021   7.032  17.359  1.00  0.00     0.068 C 
HETATM   11  H   UNL     1      78.062   4.761  18.543  1.00  0.00     0.166 HD
ENDROOT
BRANCH   8  12
HETATM   12  N   UNL     1      74.373   0.160  16.473  1.00  0.00    -0.399 N 
HETATM   13  H   UNL     1      74.520  -0.744  16.833  1.00  0.00     0.156 HD
HETATM   14  H   UNL     1      73.744   0.296  15.727  1.00  0.00     0.156 HD
ENDBRANCH   8  12
TORSDOF 1
ENDMDL
MODEL 3
REMARK VINA RESULT:      -5.0      1.689      4.433
REMARK  1 active torsions:
REMARK  status: ('A' for Active; 'I' for Inactive)
REMARK    1  A    between atoms: C_8  and  N_9 
ROOT
HETATM    1  N   UNL     1      76.753  11.017  17.914  1.00  0.00    -0.359 N 
HETATM    2  C   UNL     1      78.191  11.026  19.616  1.00  0.00    -0.005 A 
HETATM    3  C   UNL     1      77.612   9.966  17.697  1.00  0.00     0.006 A 
HETATM    4  C   UNL     1      78.475   9.918  18.773  1.00  0.00     0.038 A 
HETATM    5  C   UNL     1      77.109  11.703  19.053  1.00  0.00     0.042 A 
HETATM    6  C   UNL     1      78.779  11.546  20.788  1.00  0.00     0.042 A 
HETATM    7  C   UNL     1      76.583  12.872  19.606  1.00  0.00     0.033 A 
HETATM    8  C   UNL     1      78.261  12.708  21.378  1.00  0.00     0.026 A 
HETATM    9  C   UNL     1      77.202  13.375  20.759  1.00  0.00     0.031 A 
HETATM   10  C   UNL     1      77.544   9.126  16.479  1.00  0.00     0.068 C 
HETATM   11  H   UNL     1      75.991  11.247  17.334  1.00  0.00     0.166 HD
ENDROOT
BRANCH   8  12
HETATM   12  N   UNL     1      78.958  13.323  22.429  1.00  0.00    -0.399 N 
HETATM   13  H   UNL     1      79.826  13.756  22.258  1.00  0.00     0.156 HD
HETATM   14  H   UNL     1      78.579  13.323  23.338  1.00  0.00     0.156 HD
ENDBRANCH   8  12
TORSDOF 1
ENDMDL
MODEL 4
REMARK VINA RESULT:      -4.9     21.619     23.532
REMARK  1 active torsions:
REMARK  status: ('A' for Active; 'I' for Inactive)
REMARK    1  A    between atoms: C_8  and  N_9 
ROOT
HETATM    1  N   UNL     1      62.363   8.159   2.009  1.00  0.00    -0.359 N 
HETATM    2  C   UNL     1      63.350   8.557   3.966  1.00  0.00    -0.005 A 
HETATM    3  C   UNL     1      63.197   7.092   2.242  1.00  0.00     0.006 A 
HETATM    4  C   UNL     1      63.775   7.291   3.480  1.00  0.00     0.038 A 
HETATM    5  C   UNL     1      62.468   9.083   3.024  1.00  0.00     0.042 A 
HETATM    6  C   UNL     1      63.665   9.328   5.105  1.00  0.00     0.042 A 
HETATM    7  C   UNL     1      61.881  10.343   3.164  1.00  0.00     0.033 A 
HETATM    8  C   UNL     1      63.077  10.588   5.283  1.00  0.00     0.026 A 
HETATM    9  C   UNL     1      62.230  11.094   4.295  1.00  0.00     0.031 A 
HETATM   10  C   UNL     1      63.384   6.002   1.256  1.00  0.00     0.068 C 
HETATM   11  H   UNL     1      61.773   8.249   1.225  1.00  0.00     0.166 HD
ENDROOT
BRANCH   8  12
HETATM   12  N   UNL     1      63.530  11.427   6.313  1.00  0.00    -0.399 N 
HETATM   13  H   UNL     1      64.370  11.930   6.204  1.00  0.00     0.156 HD
HETATM   14  H   UNL     1      63.009  11.512   7.144  1.00  0.00     0.156 HD
ENDBRANCH   8  12
TORSDOF 1
ENDMDL
MODEL 5
REMARK VINA RESULT:      -4.6     21.564     23.524
REMARK  1 active torsions:
REMARK  status: ('A' for Active; 'I' for Inactive)
REMARK    1  A    between atoms: C_8  and  N_9 
ROOT
HETATM    1  N   UNL     1      63.179   7.290   4.028  1.00  0.00    -0.359 N 
HETATM    2  C   UNL     1      62.569   9.426   4.200  1.00  0.00    -0.005 A 
HETATM    3  C   UNL     1      63.393   7.646   5.337  1.00  0.00     0.006 A 
HETATM    4  C   UNL     1      62.965   8.951   5.479  1.00  0.00     0.038 A 
HETATM    5  C   UNL     1      62.715   8.367   3.306  1.00  0.00     0.042 A 
HETATM    6  C   UNL     1      62.135  10.674   3.706  1.00  0.00     0.042 A 
HETATM    7  C   UNL     1      62.447   8.492   1.941  1.00  0.00     0.033 A 
HETATM    8  C   UNL     1      61.839  10.827   2.344  1.00  0.00     0.026 A 
HETATM    9  C   UNL     1      62.039   9.750   1.477  1.00  0.00     0.031 A 
HETATM   10  C   UNL     1      64.006   6.722   6.320  1.00  0.00     0.068 C 
HETATM   11  H   UNL     1      63.335   6.391   3.658  1.00  0.00     0.166 HD
ENDROOT
BRANCH   8  12
HETATM   12  N   UNL     1      61.591  12.106   1.826  1.00  0.00    -0.399 N 
HETATM   13  H   UNL     1      61.483  12.872   2.435  1.00  0.00     0.156 HD
HETATM   14  H   UNL     1      61.524  12.239   0.852  1.00  0.00     0.156 HD
ENDBRANCH   8  12
TORSDOF 1
ENDMDL
MODEL 6
REMARK VINA RESULT:      -4.6     21.563     24.123
REMARK  1 active torsions:
REMARK  status: ('A' for Active; 'I' for Inactive)
REMARK    1  A    between atoms: C_8  and  N_9 
ROOT
HETATM    1  N   UNL     1      62.665   7.603   2.025  1.00  0.00    -0.359 N 
HETATM    2  C   UNL     1      62.200   9.575   2.951  1.00  0.00    -0.005 A 
HETATM    3  C   UNL     1      61.695   8.177   1.239  1.00  0.00     0.006 A 
HETATM    4  C   UNL     1      61.435   9.428   1.763  1.00  0.00     0.038 A 
HETATM    5  C   UNL     1      62.960   8.416   3.096  1.00  0.00     0.042 A 
HETATM    6  C   UNL     1      62.289  10.572   3.945  1.00  0.00     0.042 A 
HETATM    7  C   UNL     1      63.808   8.204   4.186  1.00  0.00     0.033 A 
HETATM    8  C   UNL     1      63.146  10.398   5.041  1.00  0.00     0.026 A 
HETATM    9  C   UNL     1      63.859   9.204   5.167  1.00  0.00     0.031 A 
HETATM   10  C   UNL     1      61.093   7.473   0.083  1.00  0.00     0.068 C 
HETATM   11  H   UNL     1      63.088   6.732   1.848  1.00  0.00     0.166 HD
ENDROOT
BRANCH   8  12
HETATM   12  N   UNL     1      63.093  11.299   6.115  1.00  0.00    -0.399 N 
HETATM   13  H   UNL     1      63.846  11.357   6.746  1.00  0.00     0.156 HD
HETATM   14  H   UNL     1      62.303  11.874   6.237  1.00  0.00     0.156 HD
ENDBRANCH   8  12
TORSDOF 1
ENDMDL
MODEL 7
REMARK VINA RESULT:      -4.6     20.775     22.591
REMARK  1 active torsions:
REMARK  status: ('A' for Active; 'I' for Inactive)
REMARK    1  A    between atoms: C_8  and  N_9 
ROOT
HETATM    1  N   UNL     1      64.271   8.301   6.012  1.00  0.00    -0.359 N 
HETATM    2  C   UNL     1      63.407   8.420   3.962  1.00  0.00    -0.005 A 
HETATM    3  C   UNL     1      64.530   7.091   5.416  1.00  0.00     0.006 A 
HETATM    4  C   UNL     1      64.054   7.165   4.122  1.00  0.00     0.038 A 
HETATM    5  C   UNL     1      63.553   9.113   5.163  1.00  0.00     0.042 A 
HETATM    6  C   UNL     1      62.671   9.020   2.919  1.00  0.00     0.042 A 
HETATM    7  C   UNL     1      63.002  10.379   5.372  1.00  0.00     0.033 A 
HETATM    8  C   UNL     1      62.122  10.298   3.092  1.00  0.00     0.026 A 
HETATM    9  C   UNL     1      62.258  10.940   4.324  1.00  0.00     0.031 A 
HETATM   10  C   UNL     1      65.182   5.974   6.140  1.00  0.00     0.068 C 
HETATM   11  H   UNL     1      64.558   8.553   6.920  1.00  0.00     0.166 HD
ENDROOT
BRANCH   8  12
HETATM   12  N   UNL     1      61.239  10.811   2.129  1.00  0.00    -0.399 N 
HETATM   13  H   UNL     1      61.476  10.776   1.174  1.00  0.00     0.156 HD
HETATM   14  H   UNL     1      60.381  11.206   2.409  1.00  0.00     0.156 HD
ENDBRANCH   8  12
TORSDOF 1
ENDMDL
MODEL 8
REMARK VINA RESULT:      -4.5     16.618     18.409
REMARK  1 active torsions:
REMARK  status: ('A' for Active; 'I' for Inactive)
REMARK    1  A    between atoms: C_8  and  N_9 
ROOT
HETATM    1  N   UNL     1      67.110   5.640   6.162  1.00  0.00    -0.359 N 
HETATM    2  C   UNL     1      67.832   5.726   8.268  1.00  0.00    -0.005 A 
HETATM    3  C   UNL     1      66.549   6.766   6.714  1.00  0.00     0.006 A 
HETATM    4  C   UNL     1      67.032   6.871   8.004  1.00  0.00     0.038 A 
HETATM    5  C   UNL     1      67.862   4.968   7.099  1.00  0.00     0.042 A 
HETATM    6  C   UNL     1      68.504   5.239   9.409  1.00  0.00     0.042 A 
HETATM    7  C   UNL     1      68.533   3.746   7.012  1.00  0.00     0.033 A 
HETATM    8  C   UNL     1      69.202   4.025   9.347  1.00  0.00     0.026 A 
HETATM    9  C   UNL     1      69.173   3.278   8.168  1.00  0.00     0.031 A 
HETATM   10  C   UNL     1      65.591   7.620   5.973  1.00  0.00     0.068 C 
HETATM   11  H   UNL     1      66.990   5.354   5.228  1.00  0.00     0.166 HD
ENDROOT
BRANCH   8  12
HETATM   12  N   UNL     1      69.709   3.454  10.525  1.00  0.00    -0.399 N 
HETATM   13  H   UNL     1      69.133   2.881  11.081  1.00  0.00     0.156 HD
HETATM   14  H   UNL     1      70.640   3.626  10.795  1.00  0.00     0.156 HD
ENDBRANCH   8  12
TORSDOF 1
ENDMDL
MODEL 9
REMARK VINA RESULT:      -4.4     16.832     19.069
REMARK  1 active torsions:
REMARK  status: ('A' for Active; 'I' for Inactive)
REMARK    1  A    between atoms: C_8  and  N_9 
ROOT
HETATM    1  N   UNL     1      65.390   7.454   7.134  1.00  0.00    -0.359 N 
HETATM    2  C   UNL     1      67.135   6.135   6.708  1.00  0.00    -0.005 A 
HETATM    3  C   UNL     1      65.486   7.373   5.766  1.00  0.00     0.006 A 
HETATM    4  C   UNL     1      66.526   6.511   5.481  1.00  0.00     0.038 A 
HETATM    5  C   UNL     1      66.406   6.742   7.731  1.00  0.00     0.042 A 
HETATM    6  C   UNL     1      68.267   5.365   7.049  1.00  0.00     0.042 A 
HETATM    7  C   UNL     1      66.752   6.615   9.078  1.00  0.00     0.033 A 
HETATM    8  C   UNL     1      68.628   5.203   8.394  1.00  0.00     0.026 A 
HETATM    9  C   UNL     1      67.893   5.861   9.383  1.00  0.00     0.031 A 
HETATM   10  C   UNL     1      64.597   8.140   4.862  1.00  0.00     0.068 C 
HETATM   11  H   UNL     1      64.693   7.951   7.619  1.00  0.00     0.166 HD
ENDROOT
BRANCH   8  12
HETATM   12  N   UNL     1      69.851   4.597   8.717  1.00  0.00    -0.399 N 
HETATM   13  H   UNL     1      69.941   3.617   8.679  1.00  0.00     0.156 HD
HETATM   14  H   UNL     1      70.621   5.152   8.982  1.00  0.00     0.156 HD
ENDBRANCH   8  12
TORSDOF 1
ENDMDL
