MODEL 1
REMARK VINA RESULT:      -4.6      0.000      0.000
REMARK  2 active torsions:
REMARK  status: ('A' for Active; 'I' for Inactive)
REMARK    1  A    between atoms: C_2  and  C_6 
REMARK    2  A    between atoms: C_6  and  O_7 
ROOT
HETATM    1  O   UNL     1      72.826  22.067  13.411  1.00  0.00    -0.318 OA
HETATM    2  C   UNL     1      72.972  22.698  14.617  1.00  0.00     0.076 A 
HETATM    3  C   UNL     1      71.601  22.418  12.926  1.00  0.00     0.049 A 
HETATM    4  C   UNL     1      70.965  23.264  13.806  1.00  0.00     0.035 A 
HETATM    5  C   UNL     1      71.849  23.447  14.896  1.00  0.00     0.037 A 
HETATM    6  C   UNL     1      71.219  21.851  11.617  1.00  0.00     0.076 C 
ENDROOT
BRANCH   2   7
HETATM    7  C   UNL     1      74.241  22.464  15.342  1.00  0.00     0.229 C 
BRANCH   7   8
HETATM    8  O   UNL     1      74.087  21.293  16.134  1.00  0.00    -0.394 OA
HETATM    9  H   UNL     1      73.150  21.045  16.166  1.00  0.00     0.209 HD
ENDBRANCH   7   8
ENDBRANCH   2   7
TORSDOF 2
ENDMDL
MODEL 2
REMARK VINA RESULT:      -4.6      1.936      3.787
REMARK  2 active torsions:
REMARK  status: ('A' for Active; 'I' for Inactive)
REMARK    1  A    between atoms: C_2  and  C_6 
REMARK    2  A    between atoms: C_6  and  O_7 
ROOT
HETATM    1  O   UNL     1      72.686  21.887  12.070  1.00  0.00    -0.318 OA
HETATM    2  C   UNL     1      71.428  21.562  11.643  1.00  0.00     0.076 A 
HETATM    3  C   UNL     1      72.539  22.762  13.107  1.00  0.00     0.049 A 
HETATM    4  C   UNL     1      71.203  22.997  13.345  1.00  0.00     0.035 A 
HETATM    5  C   UNL     1      70.486  22.223  12.403  1.00  0.00     0.037 A 
HETATM    6  C   UNL     1      73.780  23.256  13.738  1.00  0.00     0.076 C 
ENDROOT
BRANCH   2   7
HETATM    7  C   UNL     1      71.333  20.615  10.510  1.00  0.00     0.229 C 
BRANCH   7   8
HETATM    8  O   UNL     1      72.627  20.479   9.938  1.00  0.00    -0.394 OA
HETATM    9  H   UNL     1      72.544  20.197   9.015  1.00  0.00     0.209 HD
ENDBRANCH   7   8
ENDBRANCH   2   7
TORSDOF 2
ENDMDL
MODEL 3
REMARK VINA RESULT:      -4.5     16.158     17.159
REMARK  2 active torsions:
REMARK  status: ('A' for Active; 'I' for Inactive)
REMARK    1  A    between atoms: C_2  and  C_6 
REMARK    2  A    between atoms: C_6  and  O_7 
ROOT
HETATM    1  O   UNL     1      76.986   6.671  18.210  1.00  0.00    -0.318 OA
HETATM    2  C   UNL     1      76.836   5.711  17.247  1.00  0.00     0.076 A 
HETATM    3  C   UNL     1      77.147   7.860  17.562  1.00  0.00     0.049 A 
HETATM    4  C   UNL     1      77.100   7.669  16.199  1.00  0.00     0.035 A 
HETATM    5  C   UNL     1      76.898   6.284  15.995  1.00  0.00     0.037 A 
HETATM    6  C   UNL     1      77.328   9.057  18.408  1.00  0.00     0.076 C 
ENDROOT
BRANCH   2   7
HETATM    7  C   UNL     1      76.645   4.320  17.717  1.00  0.00     0.229 C 
BRANCH   7   8
HETATM    8  O   UNL     1      77.067   4.250  19.073  1.00  0.00    -0.394 OA
HETATM    9  H   UNL     1      77.084   3.324  19.359  1.00  0.00     0.209 HD
ENDBRANCH   7   8
ENDBRANCH   2   7
TORSDOF 2
ENDMDL
MODEL 4
REMARK VINA RESULT:      -4.4     13.298     14.193
REMARK  2 active torsions:
REMARK  status: ('A' for Active; 'I' for Inactive)
REMARK    1  A    between atoms: C_2  and  C_6 
REMARK    2  A    between atoms: C_6  and  O_7 
ROOT
HETATM    1  O   UNL     1      77.705  10.696  17.295  1.00  0.00    -0.318 OA
HETATM    2  C   UNL     1      77.618   9.628  16.445  1.00  0.00     0.076 A 
HETATM    3  C   UNL     1      77.503  10.217  18.556  1.00  0.00     0.049 A 
HETATM    4  C   UNL     1      77.289   8.857  18.519  1.00  0.00     0.035 A 
HETATM    5  C   UNL     1      77.364   8.476  17.160  1.00  0.00     0.037 A 
HETATM    6  C   UNL     1      77.554  11.202  19.656  1.00  0.00     0.076 C 
ENDROOT
BRANCH   2   7
HETATM    7  C   UNL     1      77.805   9.906  15.004  1.00  0.00     0.229 C 
BRANCH   7   8
HETATM    8  O   UNL     1      77.582  11.294  14.790  1.00  0.00    -0.394 OA
HETATM    9  H   UNL     1      77.900  11.540  13.907  1.00  0.00     0.209 HD
ENDBRANCH   7   8
ENDBRANCH   2   7
TORSDOF 2
ENDMDL
MODEL 5
REMARK VINA RESULT:      -4.4     14.527     15.470
REMARK  2 active torsions:
REMARK  status: ('A' for Active; 'I' for Inactive)
REMARK    1  A    between atoms: C_2  and  C_6 
REMARK    2  A    between atoms: C_6  and  O_7 
ROOT
HETATM    1  O   UNL     1      77.125   7.560  15.844  1.00  0.00    -0.318 OA
HETATM    2  C   UNL     1      77.566   8.832  15.598  1.00  0.00     0.076 A 
HETATM    3  C   UNL     1      76.954   7.454  17.193  1.00  0.00     0.049 A 
HETATM    4  C   UNL     1      77.280   8.642  17.808  1.00  0.00     0.035 A 
HETATM    5  C   UNL     1      77.673   9.532  16.781  1.00  0.00     0.037 A 
HETATM    6  C   UNL     1      76.476   6.153  17.701  1.00  0.00     0.076 C 
ENDROOT
BRANCH   2   7
HETATM    7  C   UNL     1      77.825   9.185  14.184  1.00  0.00     0.229 C 
BRANCH   7   8
HETATM    8  O   UNL     1      77.367   8.113  13.370  1.00  0.00    -0.394 OA
HETATM    9  H   UNL     1      77.553   8.311  12.440  1.00  0.00     0.209 HD
ENDBRANCH   7   8
ENDBRANCH   2   7
TORSDOF 2
ENDMDL
MODEL 6
REMARK VINA RESULT:      -4.3     14.835     15.763
REMARK  2 active torsions:
REMARK  status: ('A' for Active; 'I' for Inactive)
REMARK    1  A    between atoms: C_2  and  C_6 
REMARK    2  A    between atoms: C_6  and  O_7 
ROOT
HETATM    1  O   UNL     1      77.243   7.769  15.854  1.00  0.00    -0.318 OA
HETATM    2  C   UNL     1      76.945   7.238  17.079  1.00  0.00     0.076 A 
HETATM    3  C   UNL     1      77.539   9.085  16.053  1.00  0.00     0.049 A 
HETATM    4  C   UNL     1      77.434   9.399  17.389  1.00  0.00     0.035 A 
HETATM    5  C   UNL     1      77.053   8.209  18.052  1.00  0.00     0.037 A 
HETATM    6  C   UNL     1      77.897   9.873  14.856  1.00  0.00     0.076 C 
ENDROOT
BRANCH   2   7
HETATM    7  C   UNL     1      76.587   5.803  17.115  1.00  0.00     0.229 C 
BRANCH   7   8
HETATM    8  O   UNL     1      77.270   5.204  18.208  1.00  0.00    -0.394 OA
HETATM    9  H   UNL     1      78.224   5.209  18.034  1.00  0.00     0.209 HD
ENDBRANCH   7   8
ENDBRANCH   2   7
TORSDOF 2
ENDMDL
MODEL 7
REMARK VINA RESULT:      -4.3     16.565     18.054
REMARK  2 active torsions:
REMARK  status: ('A' for Active; 'I' for Inactive)
REMARK    1  A    between atoms: C_2  and  C_6 
REMARK    2  A    between atoms: C_6  and  O_7 
ROOT
HETATM    1  O   UNL     1      64.773   9.410   5.577  1.00  0.00    -0.318 OA
HETATM    2  C   UNL     1      63.547   9.901   5.222  1.00  0.00     0.076 A 
HETATM    3  C   UNL     1      64.944   8.240   4.896  1.00  0.00     0.049 A 
HETATM    4  C   UNL     1      63.842   7.982   4.112  1.00  0.00     0.035 A 
HETATM    5  C   UNL     1      62.942   9.053   4.320  1.00  0.00     0.037 A 
HETATM    6  C   UNL     1      66.214   7.520   5.121  1.00  0.00     0.076 C 
ENDROOT
BRANCH   2   7
HETATM    7  C   UNL     1      63.137  11.180   5.844  1.00  0.00     0.229 C 
BRANCH   7   8
HETATM    8  O   UNL     1      64.260  11.718   6.529  1.00  0.00    -0.394 OA
HETATM    9  H   UNL     1      64.047  11.820   7.470  1.00  0.00     0.209 HD
ENDBRANCH   7   8
ENDBRANCH   2   7
TORSDOF 2
ENDMDL
MODEL 8
REMARK VINA RESULT:      -4.3     13.641     14.247
REMARK  2 active torsions:
REMARK  status: ('A' for Active; 'I' for Inactive)
REMARK    1  A    between atoms: C_2  and  C_6 
REMARK    2  A    between atoms: C_6  and  O_7 
ROOT
HETATM    1  O   UNL     1      77.848  10.483  17.052  1.00  0.00    -0.318 OA
HETATM    2  C   UNL     1      77.560  10.052  18.318  1.00  0.00     0.076 A 
HETATM    3  C   UNL     1      77.669   9.417  16.220  1.00  0.00     0.049 A 
HETATM    4  C   UNL     1      77.270   8.313  16.941  1.00  0.00     0.035 A 
HETATM    5  C   UNL     1      77.198   8.722  18.293  1.00  0.00     0.037 A 
HETATM    6  C   UNL     1      77.923   9.646  14.784  1.00  0.00     0.076 C 
ENDROOT
BRANCH   2   7
HETATM    7  C   UNL     1      77.687  11.048  19.406  1.00  0.00     0.229 C 
BRANCH   7   8
HETATM    8  O   UNL     1      78.969  10.892  20.000  1.00  0.00    -0.394 OA
HETATM    9  H   UNL     1      79.556  10.429  19.384  1.00  0.00     0.209 HD
ENDBRANCH   7   8
ENDBRANCH   2   7
TORSDOF 2
ENDMDL
MODEL 9
REMARK VINA RESULT:      -4.3     12.292     13.502
REMARK  2 active torsions:
REMARK  status: ('A' for Active; 'I' for Inactive)
REMARK    1  A    between atoms: C_2  and  C_6 
REMARK    2  A    between atoms: C_6  and  O_7 
ROOT
HETATM    1  O   UNL     1      78.134  11.467  20.136  1.00  0.00    -0.318 OA
HETATM    2  C   UNL     1      77.325  11.359  19.039  1.00  0.00     0.076 A 
HETATM    3  C   UNL     1      77.905  12.698  20.678  1.00  0.00     0.049 A 
HETATM    4  C   UNL     1      76.960  13.374  19.940  1.00  0.00     0.035 A 
HETATM    5  C   UNL     1      76.584  12.511  18.884  1.00  0.00     0.037 A 
HETATM    6  C   UNL     1      78.676  13.043  21.890  1.00  0.00     0.076 C 
ENDROOT
BRANCH   2   7
HETATM    7  C   UNL     1      77.401  10.093  18.277  1.00  0.00     0.229 C 
BRANCH   7   8
HETATM    8  O   UNL     1      77.488   9.022  19.208  1.00  0.00    -0.394 OA
HETATM    9  H   UNL     1      76.981   8.264  18.877  1.00  0.00     0.209 HD
ENDBRANCH   7   8
ENDBRANCH   2   7
TORSDOF 2
ENDMDL
