MODEL 1
REMARK VINA RESULT:      -6.2      0.000      0.000
REMARK  2 active torsions:
REMARK  status: ('A' for Active; 'I' for Inactive)
REMARK    1  A    between atoms: C_1  and  N_6 
REMARK    2  A    between atoms: C_2  and  C_3 
ROOT
HETATM    1  C   UNL     1      79.622  11.890  21.434  1.00  0.00     0.104 A 
HETATM    2  C   UNL     1      78.459  10.646  19.233  1.00  0.00     0.065 A 
HETATM    3  N   UNL     1      80.285  10.887  20.805  1.00  0.00    -0.354 N 
ATOM      4  HN  UNL     1      81.202  10.582  21.132  1.00  0.00     0.166 HD
HETATM    5  C   UNL     1      78.346  12.295  20.993  1.00  0.00     0.073 A 
HETATM    6  C   UNL     1      77.768  11.664  19.890  1.00  0.00     0.044 A 
HETATM    7  C   UNL     1      79.701  10.300  19.732  1.00  0.00     0.105 A 
HETATM    8 CL   UNL     1      77.472  13.596  21.722  1.00  0.00    -0.081 Cl
ENDROOT
BRANCH   1   9
HETATM    9  N   UNL     1      80.249  12.545  22.510  1.00  0.00    -0.266 NA
HETATM   10  C   UNL     1      81.714  12.572  22.446  1.00  0.00     0.098 C 
HETATM   11  C   UNL     1      82.236  13.952  22.835  1.00  0.00     0.042 C 
HETATM   12  C   UNL     1      81.669  14.594  24.105  1.00  0.00     0.233 C 
HETATM   13  N   UNL     1      81.184  13.700  25.154  1.00  0.00    -0.074 N 
HETATM   14  C   UNL     1      79.819  13.221  24.861  1.00  0.00     0.247 C 
HETATM   15  H   UNL     1      81.810  12.898  25.224  1.00  0.00     0.277 HD
HETATM   16  H   UNL     1      81.162  14.217  26.033  1.00  0.00     0.277 HD
HETATM   17  C   UNL     1      79.723  12.093  23.815  1.00  0.00     0.124 C 
ENDBRANCH   1   9
BRANCH   2  18
HETATM   18  C   UNL     1      77.919   9.948  18.026  1.00  0.00     0.418 C 
HETATM   19  F   UNL     1      78.883   9.548  17.154  1.00  0.00    -0.166 F 
HETATM   20  F   UNL     1      77.214   8.829  18.345  1.00  0.00    -0.166 F 
HETATM   21  F   UNL     1      77.069  10.734  17.308  1.00  0.00    -0.166 F 
ENDBRANCH   2  18
TORSDOF 2
ENDMDL
MODEL 2
REMARK VINA RESULT:      -5.9     19.188     21.504
REMARK  2 active torsions:
REMARK  status: ('A' for Active; 'I' for Inactive)
REMARK    1  A    between atoms: C_1  and  N_6 
REMARK    2  A    between atoms: C_2  and  C_3 
ROOT
HETATM    1  C   UNL     1      65.406   6.973   6.409  1.00  0.00     0.104 A 
HETATM    2  C   UNL     1      63.529   8.412   4.941  1.00  0.00     0.065 A 
HETATM    3  N   UNL     1      64.102   6.946   6.782  1.00  0.00    -0.354 N 
ATOM      4  HN  UNL     1      63.803   6.409   7.596  1.00  0.00     0.166 HD
HETATM    5  C   UNL     1      65.819   7.735   5.297  1.00  0.00     0.073 A 
HETATM    6  C   UNL     1      64.872   8.456   4.567  1.00  0.00     0.044 A 
HETATM    7  C   UNL     1      63.205   7.650   6.048  1.00  0.00     0.105 A 
HETATM    8 CL   UNL     1      67.457   7.772   4.743  1.00  0.00    -0.081 Cl
ENDROOT
BRANCH   1   9
HETATM    9  N   UNL     1      66.332   6.197   7.129  1.00  0.00    -0.266 NA
HETATM   10  C   UNL     1      66.368   4.779   6.757  1.00  0.00     0.098 C 
HETATM   11  C   UNL     1      67.811   4.291   6.664  1.00  0.00     0.042 C 
HETATM   12  C   UNL     1      68.754   4.643   7.819  1.00  0.00     0.233 C 
HETATM   13  N   UNL     1      68.160   4.847   9.138  1.00  0.00    -0.074 N 
HETATM   14  C   UNL     1      67.597   6.205   9.267  1.00  0.00     0.247 C 
HETATM   15  H   UNL     1      67.416   4.164   9.277  1.00  0.00     0.277 HD
HETATM   16  H   UNL     1      68.890   4.733   9.842  1.00  0.00     0.277 HD
HETATM   17  C   UNL     1      66.230   6.423   8.586  1.00  0.00     0.124 C 
ENDBRANCH   1   9
BRANCH   2  18
HETATM   18  C   UNL     1      62.455   9.130   4.188  1.00  0.00     0.418 C 
HETATM   19  F   UNL     1      62.153  10.350   4.707  1.00  0.00    -0.166 F 
HETATM   20  F   UNL     1      62.788   9.348   2.888  1.00  0.00    -0.166 F 
HETATM   21  F   UNL     1      61.284   8.434   4.164  1.00  0.00    -0.166 F 
ENDBRANCH   2  18
TORSDOF 2
ENDMDL
MODEL 3
REMARK VINA RESULT:      -5.7      2.423      3.417
REMARK  2 active torsions:
REMARK  status: ('A' for Active; 'I' for Inactive)
REMARK    1  A    between atoms: C_1  and  N_6 
REMARK    2  A    between atoms: C_2  and  C_3 
ROOT
HETATM    1  C   UNL     1      79.492  12.235  23.836  1.00  0.00     0.104 A 
HETATM    2  C   UNL     1      78.297  12.169  21.324  1.00  0.00     0.065 A 
HETATM    3  N   UNL     1      78.254  11.697  23.699  1.00  0.00    -0.354 N 
ATOM      4  HN  UNL     1      77.756  11.321  24.505  1.00  0.00     0.166 HD
HETATM    5  C   UNL     1      80.169  12.774  22.724  1.00  0.00     0.073 A 
HETATM    6  C   UNL     1      79.562  12.740  21.467  1.00  0.00     0.044 A 
HETATM    7  C   UNL     1      77.696  11.671  22.464  1.00  0.00     0.105 A 
HETATM    8 CL   UNL     1      81.766  13.431  22.826  1.00  0.00    -0.081 Cl
ENDROOT
BRANCH   1   9
HETATM    9  N   UNL     1      80.104  12.210  25.104  1.00  0.00    -0.266 NA
HETATM   10  C   UNL     1      79.483  11.297  26.069  1.00  0.00     0.098 C 
HETATM   11  C   UNL     1      80.555  10.531  26.839  1.00  0.00     0.042 C 
HETATM   12  C   UNL     1      81.722  11.334  27.421  1.00  0.00     0.233 C 
HETATM   13  N   UNL     1      81.476  12.735  27.757  1.00  0.00    -0.074 N 
HETATM   14  C   UNL     1      81.561  13.596  26.562  1.00  0.00     0.247 C 
HETATM   15  H   UNL     1      80.544  12.822  28.162  1.00  0.00     0.277 HD
HETATM   16  H   UNL     1      82.187  13.037  28.423  1.00  0.00     0.277 HD
HETATM   17  C   UNL     1      80.328  13.570  25.636  1.00  0.00     0.124 C 
ENDBRANCH   1   9
BRANCH   2  18
HETATM   18  C   UNL     1      77.600  12.066  20.005  1.00  0.00     0.418 C 
HETATM   19  F   UNL     1      78.048  11.039  19.234  1.00  0.00    -0.166 F 
HETATM   20  F   UNL     1      76.260  11.877  20.140  1.00  0.00    -0.166 F 
HETATM   21  F   UNL     1      77.746  13.191  19.251  1.00  0.00    -0.166 F 
ENDBRANCH   2  18
TORSDOF 2
ENDMDL
MODEL 4
REMARK VINA RESULT:      -5.6     20.216     22.174
REMARK  2 active torsions:
REMARK  status: ('A' for Active; 'I' for Inactive)
REMARK    1  A    between atoms: C_1  and  N_6 
REMARK    2  A    between atoms: C_2  and  C_3 
ROOT
HETATM    1  C   UNL     1      65.079   7.202   5.780  1.00  0.00     0.104 A 
HETATM    2  C   UNL     1      63.169   8.721   4.443  1.00  0.00     0.065 A 
HETATM    3  N   UNL     1      65.145   8.556   5.834  1.00  0.00    -0.354 N 
ATOM      4  HN  UNL     1      65.887   9.022   6.355  1.00  0.00     0.166 HD
HETATM    5  C   UNL     1      64.065   6.560   5.041  1.00  0.00     0.073 A 
HETATM    6  C   UNL     1      63.112   7.329   4.371  1.00  0.00     0.044 A 
HETATM    7  C   UNL     1      64.200   9.274   5.180  1.00  0.00     0.105 A 
HETATM    8 CL   UNL     1      63.901   4.840   4.972  1.00  0.00    -0.081 Cl
ENDROOT
BRANCH   1   9
HETATM    9  N   UNL     1      66.021   6.449   6.507  1.00  0.00    -0.266 NA
HETATM   10  C   UNL     1      66.456   7.059   7.768  1.00  0.00     0.098 C 
HETATM   11  C   UNL     1      66.515   6.009   8.873  1.00  0.00     0.042 C 
HETATM   12  C   UNL     1      67.222   4.687   8.558  1.00  0.00     0.233 C 
HETATM   13  N   UNL     1      68.277   4.710   7.547  1.00  0.00    -0.074 N 
HETATM   14  C   UNL     1      67.713   4.660   6.185  1.00  0.00     0.247 C 
HETATM   15  H   UNL     1      68.820   5.567   7.651  1.00  0.00     0.277 HD
HETATM   16  H   UNL     1      68.869   3.890   7.681  1.00  0.00     0.277 HD
HETATM   17  C   UNL     1      67.138   5.990   5.656  1.00  0.00     0.124 C 
ENDBRANCH   1   9
BRANCH   2  18
HETATM   18  C   UNL     1      62.165   9.609   3.780  1.00  0.00     0.418 C 
HETATM   19  F   UNL     1      62.053  10.832   4.365  1.00  0.00    -0.166 F 
HETATM   20  F   UNL     1      62.462   9.844   2.474  1.00  0.00    -0.166 F 
HETATM   21  F   UNL     1      60.912   9.074   3.789  1.00  0.00    -0.166 F 
ENDBRANCH   2  18
TORSDOF 2
ENDMDL
MODEL 5
REMARK VINA RESULT:      -5.5     21.353     24.547
REMARK  2 active torsions:
REMARK  status: ('A' for Active; 'I' for Inactive)
REMARK    1  A    between atoms: C_1  and  N_6 
REMARK    2  A    between atoms: C_2  and  C_3 
ROOT
HETATM    1  C   UNL     1      63.381   7.949   3.586  1.00  0.00     0.104 A 
HETATM    2  C   UNL     1      65.733   7.822   5.069  1.00  0.00     0.065 A 
HETATM    3  N   UNL     1      63.628   8.893   4.528  1.00  0.00    -0.354 N 
ATOM      4  HN  UNL     1      62.962   9.644   4.702  1.00  0.00     0.166 HD
HETATM    5  C   UNL     1      64.294   6.899   3.363  1.00  0.00     0.073 A 
HETATM    6  C   UNL     1      65.471   6.840   4.113  1.00  0.00     0.044 A 
HETATM    7  C   UNL     1      64.783   8.813   5.234  1.00  0.00     0.105 A 
HETATM    8 CL   UNL     1      64.059   5.693   2.145  1.00  0.00    -0.081 Cl
ENDROOT
BRANCH   1   9
HETATM    9  N   UNL     1      62.214   8.059   2.807  1.00  0.00    -0.266 NA
HETATM   10  C   UNL     1      62.270   9.079   1.755  1.00  0.00     0.098 C 
HETATM   11  C   UNL     1      61.669   8.540   0.460  1.00  0.00     0.042 C 
HETATM   12  C   UNL     1      60.315   7.828   0.549  1.00  0.00     0.233 C 
HETATM   13  N   UNL     1      59.420   8.213   1.638  1.00  0.00    -0.074 N 
HETATM   14  C   UNL     1      59.787   7.539   2.897  1.00  0.00     0.247 C 
HETATM   15  H   UNL     1      59.476   9.223   1.772  1.00  0.00     0.277 HD
HETATM   16  H   UNL     1      58.471   7.936   1.388  1.00  0.00     0.277 HD
HETATM   17  C   UNL     1      60.997   8.138   3.642  1.00  0.00     0.124 C 
ENDBRANCH   1   9
BRANCH   2  18
HETATM   18  C   UNL     1      66.985   7.844   5.885  1.00  0.00     0.418 C 
HETATM   19  F   UNL     1      67.315   6.630   6.404  1.00  0.00    -0.166 F 
HETATM   20  F   UNL     1      68.066   8.251   5.167  1.00  0.00    -0.166 F 
HETATM   21  F   UNL     1      66.899   8.693   6.947  1.00  0.00    -0.166 F 
ENDBRANCH   2  18
TORSDOF 2
ENDMDL
MODEL 6
REMARK VINA RESULT:      -5.4     18.561     21.448
REMARK  2 active torsions:
REMARK  status: ('A' for Active; 'I' for Inactive)
REMARK    1  A    between atoms: C_1  and  N_6 
REMARK    2  A    between atoms: C_2  and  C_3 
ROOT
HETATM    1  C   UNL     1      65.626   6.221   6.418  1.00  0.00     0.104 A 
HETATM    2  C   UNL     1      67.903   5.358   7.765  1.00  0.00     0.065 A 
HETATM    3  N   UNL     1      65.665   6.284   7.773  1.00  0.00    -0.354 N 
ATOM      4  HN  UNL     1      64.870   6.640   8.302  1.00  0.00     0.166 HD
HETATM    5  C   UNL     1      66.719   5.708   5.691  1.00  0.00     0.073 A 
HETATM    6  C   UNL     1      67.857   5.275   6.373  1.00  0.00     0.044 A 
HETATM    7  C   UNL     1      66.788   5.864   8.406  1.00  0.00     0.105 A 
HETATM    8 CL   UNL     1      66.748   5.645   3.962  1.00  0.00    -0.081 Cl
ENDROOT
BRANCH   1   9
HETATM    9  N   UNL     1      64.488   6.712   5.750  1.00  0.00    -0.266 NA
HETATM   10  C   UNL     1      64.467   8.166   5.558  1.00  0.00     0.098 C 
HETATM   11  C   UNL     1      63.992   8.508   4.149  1.00  0.00     0.042 C 
HETATM   12  C   UNL     1      62.731   7.805   3.636  1.00  0.00     0.233 C 
HETATM   13  N   UNL     1      61.749   7.371   4.628  1.00  0.00    -0.074 N 
HETATM   14  C   UNL     1      62.139   6.087   5.240  1.00  0.00     0.247 C 
HETATM   15  H   UNL     1      61.678   8.079   5.358  1.00  0.00     0.277 HD
HETATM   16  H   UNL     1      60.852   7.245   4.159  1.00  0.00     0.277 HD
HETATM   17  C   UNL     1      63.236   6.173   6.321  1.00  0.00     0.124 C 
ENDBRANCH   1   9
BRANCH   2  18
HETATM   18  C   UNL     1      69.100   4.946   8.562  1.00  0.00     0.418 C 
HETATM   19  F   UNL     1      69.655   3.778   8.140  1.00  0.00    -0.166 F 
HETATM   20  F   UNL     1      70.095   5.871   8.520  1.00  0.00    -0.166 F 
HETATM   21  F   UNL     1      68.809   4.766   9.880  1.00  0.00    -0.166 F 
ENDBRANCH   2  18
TORSDOF 2
ENDMDL
MODEL 7
REMARK VINA RESULT:      -5.3      4.543      6.468
REMARK  2 active torsions:
REMARK  status: ('A' for Active; 'I' for Inactive)
REMARK    1  A    between atoms: C_1  and  N_6 
REMARK    2  A    between atoms: C_2  and  C_3 
ROOT
HETATM    1  C   UNL     1      78.661  11.876  22.742  1.00  0.00     0.104 A 
HETATM    2  C   UNL     1      79.580  11.601  25.354  1.00  0.00     0.065 A 
HETATM    3  N   UNL     1      77.928  11.167  23.636  1.00  0.00    -0.354 N 
ATOM      4  HN  UNL     1      77.048  10.731  23.362  1.00  0.00     0.166 HD
HETATM    5  C   UNL     1      79.888  12.458  23.118  1.00  0.00     0.073 A 
HETATM    6  C   UNL     1      80.344  12.314  24.430  1.00  0.00     0.044 A 
HETATM    7  C   UNL     1      78.393  11.052  24.905  1.00  0.00     0.105 A 
HETATM    8 CL   UNL     1      80.844  13.412  22.038  1.00  0.00    -0.081 Cl
ENDROOT
BRANCH   1   9
HETATM    9  N   UNL     1      78.155  12.051  21.440  1.00  0.00    -0.266 NA
HETATM   10  C   UNL     1      78.992  11.492  20.374  1.00  0.00     0.098 C 
HETATM   11  C   UNL     1      78.129  10.768  19.345  1.00  0.00     0.042 C 
HETATM   12  C   UNL     1      76.884  11.496  18.826  1.00  0.00     0.233 C 
HETATM   13  N   UNL     1      76.907  12.957  18.829  1.00  0.00    -0.074 N 
HETATM   14  C   UNL     1      76.587  13.495  20.165  1.00  0.00     0.247 C 
HETATM   15  H   UNL     1      77.836  13.277  18.556  1.00  0.00     0.277 HD
HETATM   16  H   UNL     1      76.203  13.291  18.170  1.00  0.00     0.277 HD
HETATM   17  C   UNL     1      77.737  13.446  21.192  1.00  0.00     0.124 C 
ENDBRANCH   1   9
BRANCH   2  18
HETATM   18  C   UNL     1      79.986  11.434  26.784  1.00  0.00     0.418 C 
HETATM   19  F   UNL     1      80.557  12.546  27.319  1.00  0.00    -0.166 F 
HETATM   20  F   UNL     1      78.934  11.128  27.590  1.00  0.00    -0.166 F 
HETATM   21  F   UNL     1      80.892  10.430  26.952  1.00  0.00    -0.166 F 
ENDBRANCH   2  18
TORSDOF 2
ENDMDL
MODEL 8
REMARK VINA RESULT:      -5.1     20.987     23.594
REMARK  2 active torsions:
REMARK  status: ('A' for Active; 'I' for Inactive)
REMARK    1  A    between atoms: C_1  and  N_6 
REMARK    2  A    between atoms: C_2  and  C_3 
ROOT
HETATM    1  C   UNL     1      64.105   7.526   4.246  1.00  0.00     0.104 A 
HETATM    2  C   UNL     1      62.518   8.376   2.124  1.00  0.00     0.065 A 
HETATM    3  N   UNL     1      63.931   6.713   3.175  1.00  0.00    -0.354 N 
ATOM      4  HN  UNL     1      64.371   5.793   3.140  1.00  0.00     0.166 HD
HETATM    5  C   UNL     1      63.477   8.786   4.301  1.00  0.00     0.073 A 
HETATM    6  C   UNL     1      62.681   9.205   3.234  1.00  0.00     0.044 A 
HETATM    7  C   UNL     1      63.159   7.151   2.150  1.00  0.00     0.105 A 
HETATM    8 CL   UNL     1      63.697   9.887   5.617  1.00  0.00    -0.081 Cl
ENDROOT
BRANCH   1   9
HETATM    9  N   UNL     1      64.955   7.103   5.286  1.00  0.00    -0.266 NA
HETATM   10  C   UNL     1      66.330   7.603   5.198  1.00  0.00     0.098 C 
HETATM   11  C   UNL     1      66.819   8.057   6.571  1.00  0.00     0.042 C 
HETATM   12  C   UNL     1      66.586   7.112   7.754  1.00  0.00     0.233 C 
HETATM   13  N   UNL     1      66.505   5.681   7.470  1.00  0.00    -0.074 N 
HETATM   14  C   UNL     1      65.162   5.306   6.988  1.00  0.00     0.247 C 
HETATM   15  H   UNL     1      67.193   5.444   6.755  1.00  0.00     0.277 HD
HETATM   16  H   UNL     1      66.692   5.170   8.333  1.00  0.00     0.277 HD
HETATM   17  C   UNL     1      64.869   5.645   5.513  1.00  0.00     0.124 C 
ENDBRANCH   1   9
BRANCH   2  18
HETATM   18  C   UNL     1      61.709   8.770   0.930  1.00  0.00     0.418 C 
HETATM   19  F   UNL     1      60.615   7.985   0.734  1.00  0.00    -0.166 F 
HETATM   20  F   UNL     1      61.244  10.045   1.016  1.00  0.00    -0.166 F 
HETATM   21  F   UNL     1      62.425   8.708  -0.227  1.00  0.00    -0.166 F 
ENDBRANCH   2  18
TORSDOF 2
ENDMDL
MODEL 9
REMARK VINA RESULT:      -5.1     18.055     20.828
REMARK  2 active torsions:
REMARK  status: ('A' for Active; 'I' for Inactive)
REMARK    1  A    between atoms: C_1  and  N_6 
REMARK    2  A    between atoms: C_2  and  C_3 
ROOT
HETATM    1  C   UNL     1      66.619   5.520   6.812  1.00  0.00     0.104 A 
HETATM    2  C   UNL     1      68.624   4.440   8.412  1.00  0.00     0.065 A 
HETATM    3  N   UNL     1      67.150   6.267   7.813  1.00  0.00    -0.354 N 
ATOM      4  HN  UNL     1      66.821   7.216   7.987  1.00  0.00     0.166 HD
HETATM    5  C   UNL     1      67.061   4.201   6.588  1.00  0.00     0.073 A 
HETATM    6  C   UNL     1      68.065   3.665   7.396  1.00  0.00     0.044 A 
HETATM    7  C   UNL     1      68.129   5.721   8.575  1.00  0.00     0.105 A 
HETATM    8 CL   UNL     1      66.457   3.216   5.300  1.00  0.00    -0.081 Cl
ENDROOT
BRANCH   1   9
HETATM    9  N   UNL     1      65.645   6.101   5.978  1.00  0.00    -0.266 NA
HETATM   10  C   UNL     1      66.177   6.788   4.797  1.00  0.00     0.098 C 
HETATM   11  C   UNL     1      65.338   6.455   3.567  1.00  0.00     0.042 C 
HETATM   12  C   UNL     1      63.815   6.556   3.698  1.00  0.00     0.233 C 
HETATM   13  N   UNL     1      63.283   7.495   4.684  1.00  0.00    -0.074 N 
HETATM   14  C   UNL     1      63.299   6.914   6.040  1.00  0.00     0.247 C 
HETATM   15  H   UNL     1      63.853   8.341   4.678  1.00  0.00     0.277 HD
HETATM   16  H   UNL     1      62.317   7.710   4.436  1.00  0.00     0.277 HD
HETATM   17  C   UNL     1      64.672   6.908   6.743  1.00  0.00     0.124 C 
ENDBRANCH   1   9
BRANCH   2  18
HETATM   18  C   UNL     1      69.725   3.947   9.296  1.00  0.00     0.418 C 
HETATM   19  F   UNL     1      69.445   4.055  10.622  1.00  0.00    -0.166 F 
HETATM   20  F   UNL     1      70.015   2.636   9.080  1.00  0.00    -0.166 F 
HETATM   21  F   UNL     1      70.890   4.626   9.102  1.00  0.00    -0.166 F 
ENDBRANCH   2  18
TORSDOF 2
ENDMDL
