MODEL 1
REMARK VINA RESULT:      -5.9      0.000      0.000
REMARK  0 active torsions:
REMARK  status: ('A' for Active; 'I' for Inactive)
ROOT
HETATM    1  C   UNL     1      65.019   6.500   6.188  1.00  0.00     0.147 A 
HETATM    2  N   UNL     1      64.463   7.678   6.384  1.00  0.00    -0.336 N 
ATOM      3  HN  UNL     1      64.493   8.187   7.268  1.00  0.00     0.168 HD
HETATM    4  S   UNL     1      64.783   5.888   4.583  1.00  0.00    -0.052 SA
HETATM    5  C   UNL     1      63.887   7.277   4.149  1.00  0.00     0.036 A 
HETATM    6  N   UNL     1      65.702   5.817   7.153  1.00  0.00    -0.360 N 
HETATM    7  C   UNL     1      63.834   8.137   5.242  1.00  0.00     0.051 A 
HETATM    8  C   UNL     1      63.284   7.583   2.919  1.00  0.00     0.045 A 
HETATM    9  N   UNL     1      68.168   5.695   8.927  1.00  0.00    -0.074 N 
HETATM   10  C   UNL     1      63.167   9.372   5.098  1.00  0.00     0.032 A 
HETATM   11  C   UNL     1      62.639   8.814   2.802  1.00  0.00     0.035 A 
HETATM   12  C   UNL     1      62.582   9.704   3.871  1.00  0.00     0.026 A 
HETATM   13  C   UNL     1      66.369   4.548   6.910  1.00  0.00     0.126 C 
HETATM   14 CL   UNL     1      61.908   9.233   1.300  1.00  0.00    -0.084 Cl
HETATM   15  C   UNL     1      65.726   6.328   8.527  1.00  0.00     0.152 C 
HETATM   16  C   UNL     1      67.847   4.726   6.583  1.00  0.00     0.047 C 
HETATM   17  C   UNL     1      68.693   5.532   7.576  1.00  0.00     0.234 C 
HETATM   18  C   UNL     1      67.138   6.749   8.981  1.00  0.00     0.252 C 
HETATM   19  H   UNL     1      67.756   4.814   9.233  1.00  0.00     0.277 HD
HETATM   20  H   UNL     1      68.937   5.968   9.539  1.00  0.00     0.277 HD
ENDROOT
TORSDOF 0
ENDMDL
MODEL 2
REMARK VINA RESULT:      -5.6      3.359      6.424
REMARK  0 active torsions:
REMARK  status: ('A' for Active; 'I' for Inactive)
ROOT
HETATM    1  C   UNL     1      65.484   6.988   5.573  1.00  0.00     0.147 A 
HETATM    2  N   UNL     1      65.760   7.491   6.759  1.00  0.00    -0.336 N 
ATOM      3  HN  UNL     1      65.394   8.378   7.107  1.00  0.00     0.168 HD
HETATM    4  S   UNL     1      66.269   5.472   5.271  1.00  0.00    -0.052 SA
HETATM    5  C   UNL     1      67.013   5.512   6.808  1.00  0.00     0.036 A 
HETATM    6  N   UNL     1      64.672   7.602   4.663  1.00  0.00    -0.360 N 
HETATM    7  C   UNL     1      66.609   6.665   7.474  1.00  0.00     0.051 A 
HETATM    8  C   UNL     1      67.887   4.577   7.384  1.00  0.00     0.045 A 
HETATM    9  N   UNL     1      61.854   8.497   3.958  1.00  0.00    -0.074 N 
HETATM   10  C   UNL     1      67.079   6.888   8.785  1.00  0.00     0.032 A 
HETATM   11  C   UNL     1      68.330   4.818   8.684  1.00  0.00     0.035 A 
HETATM   12  C   UNL     1      67.930   5.954   9.384  1.00  0.00     0.026 A 
HETATM   13  C   UNL     1      64.320   7.010   3.384  1.00  0.00     0.126 C 
HETATM   14 CL   UNL     1      69.384   3.680   9.432  1.00  0.00    -0.084 Cl
HETATM   15  C   UNL     1      64.171   8.954   4.932  1.00  0.00     0.152 C 
HETATM   16  C   UNL     1      62.990   6.266   3.438  1.00  0.00     0.047 C 
HETATM   17  C   UNL     1      61.775   7.040   3.961  1.00  0.00     0.234 C 
HETATM   18  C   UNL     1      62.639   8.997   5.102  1.00  0.00     0.252 C 
HETATM   19  H   UNL     1      62.298   8.804   3.093  1.00  0.00     0.277 HD
HETATM   20  H   UNL     1      60.907   8.870   4.032  1.00  0.00     0.277 HD
ENDROOT
TORSDOF 0
ENDMDL
MODEL 3
REMARK VINA RESULT:      -5.4      4.028      7.014
REMARK  0 active torsions:
REMARK  status: ('A' for Active; 'I' for Inactive)
ROOT
HETATM    1  C   UNL     1      67.268   5.654   5.916  1.00  0.00     0.147 A 
HETATM    2  N   UNL     1      67.696   6.084   7.085  1.00  0.00    -0.336 N 
ATOM      3  HN  UNL     1      67.621   7.051   7.404  1.00  0.00     0.168 HD
HETATM    4  S   UNL     1      67.551   3.962   5.661  1.00  0.00    -0.052 SA
HETATM    5  C   UNL     1      68.288   3.820   7.196  1.00  0.00     0.036 A 
HETATM    6  N   UNL     1      66.672   6.458   4.987  1.00  0.00    -0.360 N 
HETATM    7  C   UNL     1      68.261   5.062   7.825  1.00  0.00     0.051 A 
HETATM    8  C   UNL     1      68.841   2.681   7.801  1.00  0.00     0.045 A 
HETATM    9  N   UNL     1      64.253   8.147   4.255  1.00  0.00    -0.074 N 
HETATM   10  C   UNL     1      68.790   5.170   9.128  1.00  0.00     0.032 A 
HETATM   11  C   UNL     1      69.350   2.815   9.093  1.00  0.00     0.035 A 
HETATM   12  C   UNL     1      69.322   4.039   9.756  1.00  0.00     0.026 A 
HETATM   13  C   UNL     1      66.143   5.963   3.727  1.00  0.00     0.126 C 
HETATM   14 CL   UNL     1      70.015   1.433   9.876  1.00  0.00    -0.084 Cl
HETATM   15  C   UNL     1      66.609   7.905   5.212  1.00  0.00     0.152 C 
HETATM   16  C   UNL     1      64.651   5.661   3.806  1.00  0.00     0.047 C 
HETATM   17  C   UNL     1      63.735   6.784   4.305  1.00  0.00     0.234 C 
HETATM   18  C   UNL     1      65.164   8.418   5.381  1.00  0.00     0.252 C 
HETATM   19  H   UNL     1      64.761   8.277   3.380  1.00  0.00     0.277 HD
HETATM   20  H   UNL     1      63.466   8.793   4.317  1.00  0.00     0.277 HD
ENDROOT
TORSDOF 0
ENDMDL
MODEL 4
REMARK VINA RESULT:      -5.4     15.577     17.257
REMARK  0 active torsions:
REMARK  status: ('A' for Active; 'I' for Inactive)
ROOT
HETATM    1  C   UNL     1      75.180   0.635  17.639  1.00  0.00     0.147 A 
HETATM    2  N   UNL     1      74.405   1.527  17.057  1.00  0.00    -0.336 N 
ATOM      3  HN  UNL     1      73.497   1.315  16.641  1.00  0.00     0.168 HD
HETATM    4  S   UNL     1      76.665   1.301  18.237  1.00  0.00    -0.052 SA
HETATM    5  C   UNL     1      76.233   2.856  17.673  1.00  0.00     0.036 A 
HETATM    6  N   UNL     1      74.858  -0.687  17.752  1.00  0.00    -0.360 N 
HETATM    7  C   UNL     1      74.976   2.786  17.080  1.00  0.00     0.051 A 
HETATM    8  C   UNL     1      76.958   4.054  17.764  1.00  0.00     0.045 A 
HETATM    9  N   UNL     1      73.028  -2.767  19.004  1.00  0.00    -0.074 N 
HETATM   10  C   UNL     1      74.403   3.970  16.572  1.00  0.00     0.032 A 
HETATM   11  C   UNL     1      76.364   5.211  17.260  1.00  0.00     0.035 A 
HETATM   12  C   UNL     1      75.101   5.178  16.676  1.00  0.00     0.026 A 
HETATM   13  C   UNL     1      75.688  -1.652  18.453  1.00  0.00     0.126 C 
HETATM   14 CL   UNL     1      77.215   6.704  17.375  1.00  0.00    -0.084 Cl
HETATM   15  C   UNL     1      73.658  -1.202  17.085  1.00  0.00     0.152 C 
HETATM   16  C   UNL     1      75.243  -1.855  19.897  1.00  0.00     0.047 C 
HETATM   17  C   UNL     1      73.774  -2.222  20.133  1.00  0.00     0.234 C 
HETATM   18  C   UNL     1      72.592  -1.702  18.082  1.00  0.00     0.252 C 
HETATM   19  H   UNL     1      73.624  -3.420  18.496  1.00  0.00     0.277 HD
HETATM   20  H   UNL     1      72.198  -3.237  19.364  1.00  0.00     0.277 HD
ENDROOT
TORSDOF 0
ENDMDL
MODEL 5
REMARK VINA RESULT:      -5.3      1.890      2.798
REMARK  0 active torsions:
REMARK  status: ('A' for Active; 'I' for Inactive)
ROOT
HETATM    1  C   UNL     1      66.688   5.999   5.969  1.00  0.00     0.147 A 
HETATM    2  N   UNL     1      65.876   5.619   5.004  1.00  0.00    -0.336 N 
ATOM      3  HN  UNL     1      65.899   4.699   4.563  1.00  0.00     0.168 HD
HETATM    4  S   UNL     1      66.408   7.625   6.501  1.00  0.00    -0.052 SA
HETATM    5  C   UNL     1      65.142   7.813   5.368  1.00  0.00     0.036 A 
HETATM    6  N   UNL     1      67.664   5.201   6.493  1.00  0.00    -0.360 N 
HETATM    7  C   UNL     1      64.989   6.623   4.663  1.00  0.00     0.051 A 
HETATM    8  C   UNL     1      64.335   8.937   5.134  1.00  0.00     0.045 A 
HETATM    9  N   UNL     1      68.327   2.720   8.120  1.00  0.00    -0.074 N 
HETATM   10  C   UNL     1      63.970   6.540   3.691  1.00  0.00     0.032 A 
HETATM   11  C   UNL     1      63.330   8.825   4.173  1.00  0.00     0.035 A 
HETATM   12  C   UNL     1      63.140   7.643   3.462  1.00  0.00     0.026 A 
HETATM   13  C   UNL     1      68.512   5.604   7.603  1.00  0.00     0.126 C 
HETATM   14 CL   UNL     1      62.306  10.176   3.875  1.00  0.00    -0.084 Cl
HETATM   15  C   UNL     1      67.940   3.896   5.886  1.00  0.00     0.152 C 
HETATM   16  C   UNL     1      67.978   5.115   8.945  1.00  0.00     0.047 C 
HETATM   17  C   UNL     1      67.690   3.616   9.080  1.00  0.00     0.234 C 
HETATM   18  C   UNL     1      67.615   2.719   6.829  1.00  0.00     0.252 C 
HETATM   19  H   UNL     1      69.288   3.025   7.968  1.00  0.00     0.277 HD
HETATM   20  H   UNL     1      68.302   1.773   8.500  1.00  0.00     0.277 HD
ENDROOT
TORSDOF 0
ENDMDL
MODEL 6
REMARK VINA RESULT:      -5.3      3.436      6.870
REMARK  0 active torsions:
REMARK  status: ('A' for Active; 'I' for Inactive)
ROOT
HETATM    1  C   UNL     1      62.693   7.903   4.653  1.00  0.00     0.147 A 
HETATM    2  N   UNL     1      62.686   6.681   5.143  1.00  0.00    -0.336 N 
ATOM      3  HN  UNL     1      61.913   6.024   5.038  1.00  0.00     0.168 HD
HETATM    4  S   UNL     1      64.146   8.778   5.010  1.00  0.00    -0.052 SA
HETATM    5  C   UNL     1      64.780   7.443   5.867  1.00  0.00     0.036 A 
HETATM    6  N   UNL     1      61.656   8.439   3.945  1.00  0.00    -0.360 N 
HETATM    7  C   UNL     1      63.860   6.399   5.818  1.00  0.00     0.051 A 
HETATM    8  C   UNL     1      66.014   7.330   6.527  1.00  0.00     0.045 A 
HETATM    9  N   UNL     1      60.014   8.376   1.388  1.00  0.00    -0.074 N 
HETATM   10  C   UNL     1      64.193   5.176   6.436  1.00  0.00     0.032 A 
HETATM   11  C   UNL     1      66.321   6.106   7.123  1.00  0.00     0.035 A 
HETATM   12  C   UNL     1      65.429   5.038   7.076  1.00  0.00     0.026 A 
HETATM   13  C   UNL     1      61.697   9.765   3.352  1.00  0.00     0.126 C 
HETATM   14 CL   UNL     1      67.835   5.923   7.921  1.00  0.00    -0.084 Cl
HETATM   15  C   UNL     1      60.400   7.692   3.819  1.00  0.00     0.152 C 
HETATM   16  C   UNL     1      62.124   9.730   1.889  1.00  0.00     0.047 C 
HETATM   17  C   UNL     1      61.337   8.807   0.951  1.00  0.00     0.234 C 
HETATM   18  C   UNL     1      60.101   7.274   2.364  1.00  0.00     0.252 C 
HETATM   19  H   UNL     1      59.533   9.164   1.820  1.00  0.00     0.277 HD
HETATM   20  H   UNL     1      59.500   8.040   0.572  1.00  0.00     0.277 HD
ENDROOT
TORSDOF 0
ENDMDL
MODEL 7
REMARK VINA RESULT:      -5.1     16.553     19.481
REMARK  0 active torsions:
REMARK  status: ('A' for Active; 'I' for Inactive)
ROOT
HETATM    1  C   UNL     1      77.511  -0.107  19.345  1.00  0.00     0.147 A 
HETATM    2  N   UNL     1      76.332  -0.163  18.759  1.00  0.00    -0.336 N 
ATOM      3  HN  UNL     1      75.736  -0.991  18.745  1.00  0.00     0.168 HD
HETATM    4  S   UNL     1      78.286   1.435  19.183  1.00  0.00    -0.052 SA
HETATM    5  C   UNL     1      76.969   2.039  18.277  1.00  0.00     0.036 A 
HETATM    6  N   UNL     1      78.077  -1.160  20.004  1.00  0.00    -0.360 N 
HETATM    7  C   UNL     1      76.005   1.042  18.165  1.00  0.00     0.051 A 
HETATM    8  C   UNL     1      76.802   3.315  17.716  1.00  0.00     0.045 A 
HETATM    9  N   UNL     1      77.962  -3.026  22.401  1.00  0.00    -0.074 N 
HETATM   10  C   UNL     1      74.807   1.335  17.480  1.00  0.00     0.032 A 
HETATM   11  C   UNL     1      75.605   3.580  17.051  1.00  0.00     0.035 A 
HETATM   12  C   UNL     1      74.614   2.609  16.936  1.00  0.00     0.026 A 
HETATM   13  C   UNL     1      79.348  -1.072  20.704  1.00  0.00     0.126 C 
HETATM   14 CL   UNL     1      75.356   5.142  16.371  1.00  0.00    -0.084 Cl
HETATM   15  C   UNL     1      77.430  -2.475  19.964  1.00  0.00     0.152 C 
HETATM   16  C   UNL     1      79.169  -0.782  22.190  1.00  0.00     0.047 C 
HETATM   17  C   UNL     1      78.249  -1.718  22.980  1.00  0.00     0.234 C 
HETATM   18  C   UNL     1      76.932  -2.936  21.350  1.00  0.00     0.252 C 
HETATM   19  H   UNL     1      78.818  -3.404  21.995  1.00  0.00     0.277 HD
HETATM   20  H   UNL     1      77.611  -3.635  23.140  1.00  0.00     0.277 HD
ENDROOT
TORSDOF 0
ENDMDL
MODEL 8
REMARK VINA RESULT:      -5.0      4.687      7.599
REMARK  0 active torsions:
REMARK  status: ('A' for Active; 'I' for Inactive)
ROOT
HETATM    1  C   UNL     1      66.978   5.040   7.908  1.00  0.00     0.147 A 
HETATM    2  N   UNL     1      66.544   3.797   7.942  1.00  0.00    -0.336 N 
ATOM      3  HN  UNL     1      65.621   3.501   7.623  1.00  0.00     0.168 HD
HETATM    4  S   UNL     1      68.584   5.224   8.532  1.00  0.00    -0.052 SA
HETATM    5  C   UNL     1      68.683   3.551   8.865  1.00  0.00     0.036 A 
HETATM    6  N   UNL     1      66.235   6.087   7.442  1.00  0.00    -0.360 N 
HETATM    7  C   UNL     1      67.497   2.942   8.465  1.00  0.00     0.051 A 
HETATM    8  C   UNL     1      69.746   2.831   9.431  1.00  0.00     0.045 A 
HETATM    9  N   UNL     1      64.929   7.414   5.039  1.00  0.00    -0.074 N 
HETATM   10  C   UNL     1      67.371   1.546   8.615  1.00  0.00     0.032 A 
HETATM   11  C   UNL     1      69.598   1.450   9.561  1.00  0.00     0.035 A 
HETATM   12  C   UNL     1      68.431   0.808   9.155  1.00  0.00     0.026 A 
HETATM   13  C   UNL     1      66.744   7.445   7.346  1.00  0.00     0.126 C 
HETATM   14 CL   UNL     1      70.891   0.530  10.230  1.00  0.00    -0.084 Cl
HETATM   15  C   UNL     1      64.831   5.875   7.076  1.00  0.00     0.152 C 
HETATM   16  C   UNL     1      67.289   7.761   5.958  1.00  0.00     0.047 C 
HETATM   17  C   UNL     1      66.359   7.511   4.766  1.00  0.00     0.234 C 
HETATM   18  C   UNL     1      64.571   6.086   5.570  1.00  0.00     0.252 C 
HETATM   19  H   UNL     1      64.672   8.124   5.724  1.00  0.00     0.277 HD
HETATM   20  H   UNL     1      64.425   7.554   4.163  1.00  0.00     0.277 HD
ENDROOT
TORSDOF 0
ENDMDL
MODEL 9
REMARK VINA RESULT:      -4.9      9.961     11.189
REMARK  0 active torsions:
REMARK  status: ('A' for Active; 'I' for Inactive)
ROOT
HETATM    1  C   UNL     1      75.641  10.811   3.468  1.00  0.00     0.147 A 
HETATM    2  N   UNL     1      74.914   9.716   3.392  1.00  0.00    -0.336 N 
ATOM      3  HN  UNL     1      75.115   8.856   3.903  1.00  0.00     0.168 HD
HETATM    4  S   UNL     1      75.048  12.099   2.470  1.00  0.00    -0.052 SA
HETATM    5  C   UNL     1      73.762  11.121   1.913  1.00  0.00     0.036 A 
HETATM    6  N   UNL     1      76.759  10.924   4.243  1.00  0.00    -0.360 N 
HETATM    7  C   UNL     1      73.843   9.877   2.532  1.00  0.00     0.051 A 
HETATM    8  C   UNL     1      72.747  11.444   0.999  1.00  0.00     0.045 A 
HETATM    9  N   UNL     1      77.911  11.027   7.054  1.00  0.00    -0.074 N 
HETATM   10  C   UNL     1      72.854   8.915   2.243  1.00  0.00     0.032 A 
HETATM   11  C   UNL     1      71.777  10.476   0.738  1.00  0.00     0.035 A 
HETATM   12  C   UNL     1      71.820   9.228   1.354  1.00  0.00     0.026 A 
HETATM   13  C   UNL     1      77.518  12.156   4.372  1.00  0.00     0.126 C 
HETATM   14 CL   UNL     1      70.504  10.845  -0.360  1.00  0.00    -0.084 Cl
HETATM   15  C   UNL     1      77.284   9.743   4.937  1.00  0.00     0.152 C 
HETATM   16  C   UNL     1      77.102  12.965   5.596  1.00  0.00     0.047 C 
HETATM   17  C   UNL     1      77.117  12.246   6.949  1.00  0.00     0.234 C 
HETATM   18  C   UNL     1      77.204   9.872   6.472  1.00  0.00     0.252 C 
HETATM   19  H   UNL     1      78.792  11.161   6.558  1.00  0.00     0.277 HD
HETATM   20  H   UNL     1      78.077  10.836   8.042  1.00  0.00     0.277 HD
ENDROOT
TORSDOF 0
ENDMDL
