MODEL 1
REMARK VINA RESULT:      -6.2      0.000      0.000
REMARK  2 active torsions:
REMARK  status: ('A' for Active; 'I' for Inactive)
REMARK    1  A    between atoms: C_3  and  C_7 
REMARK    2  A    between atoms: C_10  and  N_11 
ROOT
HETATM    1  C   UNL     1      77.360   9.848  17.728  1.00  0.00    -0.009 A 
HETATM    2  C   UNL     1      77.638  10.037  16.368  1.00  0.00     0.016 A 
HETATM    3  C   UNL     1      77.009   8.563  18.163  1.00  0.00     0.016 A 
HETATM    4  C   UNL     1      77.271   7.676  15.913  1.00  0.00     0.025 A 
HETATM    5  C   UNL     1      77.573   8.965  15.470  1.00  0.00     0.030 A 
HETATM    6  C   UNL     1      76.949   7.494  17.260  1.00  0.00     0.030 A 
ENDROOT
BRANCH   1   7
HETATM    7  C   UNL     1      77.383  10.954  18.679  1.00  0.00     0.049 A 
HETATM    8  N   UNL     1      78.227  10.941  19.781  1.00  0.00    -0.353 N 
HETATM    9  C   UNL     1      78.048  12.028  20.500  1.00  0.00     0.047 A 
ATOM     10  HN  UNL     1      78.889  10.197  20.002  1.00  0.00     0.166 HD
HETATM   11  S   UNL     1      76.890  13.139  19.888  1.00  0.00    -0.087 SA
HETATM   12  C   UNL     1      78.773  12.334  21.763  1.00  0.00     0.076 C 
HETATM   13  C   UNL     1      76.597  12.086  18.568  1.00  0.00     0.081 A 
ENDBRANCH   1   7
BRANCH   4  14
HETATM   14  N   UNL     1      77.055   6.648  14.989  1.00  0.00    -0.399 N 
HETATM   15  H   UNL     1      76.869   5.734  15.304  1.00  0.00     0.156 HD
HETATM   16  H   UNL     1      77.091   6.838  14.024  1.00  0.00     0.156 HD
ENDBRANCH   4  14
TORSDOF 2
ENDMDL
MODEL 2
REMARK VINA RESULT:      -5.3     14.508     16.079
REMARK  2 active torsions:
REMARK  status: ('A' for Active; 'I' for Inactive)
REMARK    1  A    between atoms: C_3  and  C_7 
REMARK    2  A    between atoms: C_10  and  N_11 
ROOT
HETATM    1  C   UNL     1      70.960  22.868  13.004  1.00  0.00    -0.009 A 
HETATM    2  C   UNL     1      69.607  23.139  13.242  1.00  0.00     0.016 A 
HETATM    3  C   UNL     1      71.920  23.582  13.733  1.00  0.00     0.016 A 
HETATM    4  C   UNL     1      70.182  24.769  14.953  1.00  0.00     0.025 A 
HETATM    5  C   UNL     1      69.226  24.094  14.192  1.00  0.00     0.030 A 
HETATM    6  C   UNL     1      71.532  24.535  14.685  1.00  0.00     0.030 A 
ENDROOT
BRANCH   1   7
HETATM    7  C   UNL     1      71.386  21.907  11.994  1.00  0.00     0.049 A 
HETATM    8  N   UNL     1      72.516  22.127  11.218  1.00  0.00    -0.353 N 
HETATM    9  C   UNL     1      72.680  21.139  10.365  1.00  0.00     0.047 A 
ATOM     10  HN  UNL     1      73.130  22.938  11.297  1.00  0.00     0.166 HD
HETATM   11  S   UNL     1      71.517  19.878  10.461  1.00  0.00    -0.087 SA
HETATM   12  C   UNL     1      73.779  21.058   9.366  1.00  0.00     0.076 C 
HETATM   13  C   UNL     1      70.730  20.719  11.730  1.00  0.00     0.081 A 
ENDBRANCH   1   7
BRANCH   4  14
HETATM   14  N   UNL     1      69.799  25.828  15.783  1.00  0.00    -0.399 N 
HETATM   15  H   UNL     1      69.571  26.703  15.392  1.00  0.00     0.156 HD
HETATM   16  H   UNL     1      69.759  25.700  16.758  1.00  0.00     0.156 HD
ENDBRANCH   4  14
TORSDOF 2
ENDMDL
MODEL 3
REMARK VINA RESULT:      -5.3      3.754      5.116
REMARK  2 active torsions:
REMARK  status: ('A' for Active; 'I' for Inactive)
REMARK    1  A    between atoms: C_3  and  C_7 
REMARK    2  A    between atoms: C_10  and  N_11 
ROOT
HETATM    1  C   UNL     1      78.299  12.545  21.099  1.00  0.00    -0.009 A 
HETATM    2  C   UNL     1      77.330  13.551  20.997  1.00  0.00     0.016 A 
HETATM    3  C   UNL     1      78.288  11.512  20.153  1.00  0.00     0.016 A 
HETATM    4  C   UNL     1      76.402  12.524  18.998  1.00  0.00     0.025 A 
HETATM    5  C   UNL     1      76.381  13.527  19.968  1.00  0.00     0.030 A 
HETATM    6  C   UNL     1      77.337  11.495  19.124  1.00  0.00     0.030 A 
ENDROOT
BRANCH   1   7
HETATM    7  C   UNL     1      79.275  12.525  22.182  1.00  0.00     0.049 A 
HETATM    8  N   UNL     1      78.953  12.023  23.436  1.00  0.00    -0.353 N 
HETATM    9  C   UNL     1      79.983  12.135  24.247  1.00  0.00     0.047 A 
ATOM     10  HN  UNL     1      78.049  11.625  23.691  1.00  0.00     0.166 HD
HETATM   11  S   UNL     1      81.401  12.815  23.554  1.00  0.00    -0.087 SA
HETATM   12  C   UNL     1      79.983  11.716  25.674  1.00  0.00     0.076 C 
HETATM   13  C   UNL     1      80.575  12.981  22.062  1.00  0.00     0.081 A 
ENDBRANCH   1   7
BRANCH   4  14
HETATM   14  N   UNL     1      75.359  12.421  18.071  1.00  0.00    -0.399 N 
HETATM   15  H   UNL     1      75.524  12.024  17.185  1.00  0.00     0.156 HD
HETATM   16  H   UNL     1      74.459  12.746  18.304  1.00  0.00     0.156 HD
ENDBRANCH   4  14
TORSDOF 2
ENDMDL
MODEL 4
REMARK VINA RESULT:      -5.3     17.920     19.563
REMARK  2 active torsions:
REMARK  status: ('A' for Active; 'I' for Inactive)
REMARK    1  A    between atoms: C_3  and  C_7 
REMARK    2  A    between atoms: C_10  and  N_11 
ROOT
HETATM    1  C   UNL     1      63.296   8.633   4.637  1.00  0.00    -0.009 A 
HETATM    2  C   UNL     1      62.940   8.364   3.309  1.00  0.00     0.016 A 
HETATM    3  C   UNL     1      63.001   9.898   5.161  1.00  0.00     0.016 A 
HETATM    4  C   UNL     1      61.961  10.577   3.070  1.00  0.00     0.025 A 
HETATM    5  C   UNL     1      62.298   9.335   2.531  1.00  0.00     0.030 A 
HETATM    6  C   UNL     1      62.356  10.864   4.378  1.00  0.00     0.030 A 
ENDROOT
BRANCH   1   7
HETATM    7  C   UNL     1      64.000   7.655   5.458  1.00  0.00     0.049 A 
HETATM    8  N   UNL     1      65.082   8.019   6.248  1.00  0.00    -0.353 N 
HETATM    9  C   UNL     1      65.562   6.965   6.872  1.00  0.00     0.047 A 
ATOM     10  HN  UNL     1      65.451   8.966   6.332  1.00  0.00     0.166 HD
HETATM   11  S   UNL     1      64.734   5.489   6.577  1.00  0.00    -0.087 SA
HETATM   12  C   UNL     1      66.736   6.987   7.786  1.00  0.00     0.076 C 
HETATM   13  C   UNL     1      63.659   6.316   5.531  1.00  0.00     0.081 A 
ENDBRANCH   1   7
BRANCH   4  14
HETATM   14  N   UNL     1      61.465  11.590   2.243  1.00  0.00    -0.399 N 
HETATM   15  H   UNL     1      62.086  12.168   1.744  1.00  0.00     0.156 HD
HETATM   16  H   UNL     1      60.493  11.727   2.161  1.00  0.00     0.156 HD
ENDBRANCH   4  14
TORSDOF 2
ENDMDL
MODEL 5
REMARK VINA RESULT:      -5.1     17.189     18.860
REMARK  2 active torsions:
REMARK  status: ('A' for Active; 'I' for Inactive)
REMARK    1  A    between atoms: C_3  and  C_7 
REMARK    2  A    between atoms: C_10  and  N_11 
ROOT
HETATM    1  C   UNL     1      64.166   8.448   4.810  1.00  0.00    -0.009 A 
HETATM    2  C   UNL     1      63.698   7.943   3.590  1.00  0.00     0.016 A 
HETATM    3  C   UNL     1      63.628   9.652   5.281  1.00  0.00     0.016 A 
HETATM    4  C   UNL     1      62.141   9.797   3.362  1.00  0.00     0.025 A 
HETATM    5  C   UNL     1      62.711   8.623   2.867  1.00  0.00     0.030 A 
HETATM    6  C   UNL     1      62.638  10.327   4.555  1.00  0.00     0.030 A 
ENDROOT
BRANCH   1   7
HETATM    7  C   UNL     1      65.220   7.780   5.565  1.00  0.00     0.049 A 
HETATM    8  N   UNL     1      65.034   7.407   6.890  1.00  0.00    -0.353 N 
HETATM    9  C   UNL     1      66.128   6.850   7.360  1.00  0.00     0.047 A 
ATOM     10  HN  UNL     1      64.174   7.546   7.421  1.00  0.00     0.166 HD
HETATM   11  S   UNL     1      67.428   6.710   6.245  1.00  0.00    -0.087 SA
HETATM   12  C   UNL     1      66.290   6.350   8.753  1.00  0.00     0.076 C 
HETATM   13  C   UNL     1      66.460   7.459   5.045  1.00  0.00     0.081 A 
ENDBRANCH   1   7
BRANCH   4  14
HETATM   14  N   UNL     1      61.274  10.549   2.563  1.00  0.00    -0.399 N 
HETATM   15  H   UNL     1      61.597  11.367   2.119  1.00  0.00     0.156 HD
HETATM   16  H   UNL     1      60.340  10.261   2.443  1.00  0.00     0.156 HD
ENDBRANCH   4  14
TORSDOF 2
ENDMDL
MODEL 6
REMARK VINA RESULT:      -5.0      7.160      9.610
REMARK  2 active torsions:
REMARK  status: ('A' for Active; 'I' for Inactive)
REMARK    1  A    between atoms: C_3  and  C_7 
REMARK    2  A    between atoms: C_10  and  N_11 
ROOT
HETATM    1  C   UNL     1      75.220   2.512  17.409  1.00  0.00    -0.009 A 
HETATM    2  C   UNL     1      74.624   3.546  16.676  1.00  0.00     0.016 A 
HETATM    3  C   UNL     1      76.429   2.773  18.066  1.00  0.00     0.016 A 
HETATM    4  C   UNL     1      76.399   5.084  17.306  1.00  0.00     0.025 A 
HETATM    5  C   UNL     1      75.220   4.811  16.610  1.00  0.00     0.030 A 
HETATM    6  C   UNL     1      77.020   4.042  17.999  1.00  0.00     0.030 A 
ENDROOT
BRANCH   1   7
HETATM    7  C   UNL     1      74.641   1.174  17.463  1.00  0.00     0.049 A 
HETATM    8  N   UNL     1      74.432   0.526  18.673  1.00  0.00    -0.353 N 
HETATM    9  C   UNL     1      73.928  -0.671  18.464  1.00  0.00     0.047 A 
ATOM     10  HN  UNL     1      74.640   0.920  19.591  1.00  0.00     0.166 HD
HETATM   11  S   UNL     1      73.644  -1.079  16.819  1.00  0.00    -0.087 SA
HETATM   12  C   UNL     1      73.598  -1.648  19.537  1.00  0.00     0.076 C 
HETATM   13  C   UNL     1      74.250   0.454  16.349  1.00  0.00     0.081 A 
ENDBRANCH   1   7
BRANCH   4  14
HETATM   14  N   UNL     1      77.067   6.297  17.108  1.00  0.00    -0.399 N 
HETATM   15  H   UNL     1      76.888   7.061  17.703  1.00  0.00     0.156 HD
HETATM   16  H   UNL     1      77.715   6.388  16.373  1.00  0.00     0.156 HD
ENDBRANCH   4  14
TORSDOF 2
ENDMDL
MODEL 7
REMARK VINA RESULT:      -5.0     20.414     22.332
REMARK  2 active torsions:
REMARK  status: ('A' for Active; 'I' for Inactive)
REMARK    1  A    between atoms: C_3  and  C_7 
REMARK    2  A    between atoms: C_10  and  N_11 
ROOT
HETATM    1  C   UNL     1      62.178   9.247   3.046  1.00  0.00    -0.009 A 
HETATM    2  C   UNL     1      61.790  10.577   3.251  1.00  0.00     0.016 A 
HETATM    3  C   UNL     1      63.036   8.653   3.980  1.00  0.00     0.016 A 
HETATM    4  C   UNL     1      63.059  10.681   5.323  1.00  0.00     0.025 A 
HETATM    5  C   UNL     1      62.244  11.290   4.367  1.00  0.00     0.030 A 
HETATM    6  C   UNL     1      63.485   9.370   5.097  1.00  0.00     0.030 A 
ENDROOT
BRANCH   1   7
HETATM    7  C   UNL     1      61.752   8.494   1.872  1.00  0.00     0.049 A 
HETATM    8  N   UNL     1      62.663   8.077   0.911  1.00  0.00    -0.353 N 
HETATM    9  C   UNL     1      62.040   7.442  -0.058  1.00  0.00     0.047 A 
ATOM     10  HN  UNL     1      63.669   8.239   0.951  1.00  0.00     0.166 HD
HETATM   11  S   UNL     1      60.340   7.280   0.135  1.00  0.00    -0.087 SA
HETATM   12  C   UNL     1      62.706   6.877  -1.263  1.00  0.00     0.076 C 
HETATM   13  C   UNL     1      60.442   8.128   1.620  1.00  0.00     0.081 A 
ENDBRANCH   1   7
BRANCH   4  14
HETATM   14  N   UNL     1      63.632  11.443   6.346  1.00  0.00    -0.399 N 
HETATM   15  H   UNL     1      63.761  12.412   6.226  1.00  0.00     0.156 HD
HETATM   16  H   UNL     1      63.907  11.011   7.187  1.00  0.00     0.156 HD
ENDBRANCH   4  14
TORSDOF 2
ENDMDL
MODEL 8
REMARK VINA RESULT:      -4.9     13.341     15.440
REMARK  2 active torsions:
REMARK  status: ('A' for Active; 'I' for Inactive)
REMARK    1  A    between atoms: C_3  and  C_7 
REMARK    2  A    between atoms: C_10  and  N_11 
ROOT
HETATM    1  C   UNL     1      68.185   4.777   8.139  1.00  0.00    -0.009 A 
HETATM    2  C   UNL     1      67.516   3.626   8.573  1.00  0.00     0.016 A 
HETATM    3  C   UNL     1      69.468   5.030   8.641  1.00  0.00     0.016 A 
HETATM    4  C   UNL     1      69.418   2.976   9.941  1.00  0.00     0.025 A 
HETATM    5  C   UNL     1      68.120   2.748   9.480  1.00  0.00     0.030 A 
HETATM    6  C   UNL     1      70.069   4.146   9.546  1.00  0.00     0.030 A 
ENDROOT
BRANCH   1   7
HETATM    7  C   UNL     1      67.564   5.729   7.224  1.00  0.00     0.049 A 
HETATM    8  N   UNL     1      67.535   5.502   5.855  1.00  0.00    -0.353 N 
HETATM    9  C   UNL     1      66.949   6.507   5.242  1.00  0.00     0.047 A 
ATOM     10  HN  UNL     1      67.913   4.675   5.392  1.00  0.00     0.166 HD
HETATM   11  S   UNL     1      66.372   7.763   6.262  1.00  0.00    -0.087 SA
HETATM   12  C   UNL     1      66.763   6.605   3.768  1.00  0.00     0.076 C 
HETATM   13  C   UNL     1      66.957   6.905   7.625  1.00  0.00     0.081 A 
ENDBRANCH   1   7
BRANCH   4  14
HETATM   14  N   UNL     1      69.950   2.181  10.962  1.00  0.00    -0.399 N 
HETATM   15  H   UNL     1      70.609   1.481  10.749  1.00  0.00     0.156 HD
HETATM   16  H   UNL     1      69.666   2.322  11.894  1.00  0.00     0.156 HD
ENDBRANCH   4  14
TORSDOF 2
ENDMDL
MODEL 9
REMARK VINA RESULT:      -4.9     13.857     16.039
REMARK  2 active torsions:
REMARK  status: ('A' for Active; 'I' for Inactive)
REMARK    1  A    between atoms: C_3  and  C_7 
REMARK    2  A    between atoms: C_10  and  N_11 
ROOT
HETATM    1  C   UNL     1      67.961   5.122   7.261  1.00  0.00    -0.009 A 
HETATM    2  C   UNL     1      68.499   3.834   7.147  1.00  0.00     0.016 A 
HETATM    3  C   UNL     1      68.074   5.784   8.491  1.00  0.00     0.016 A 
HETATM    4  C   UNL     1      69.295   3.908   9.443  1.00  0.00     0.025 A 
HETATM    5  C   UNL     1      69.140   3.229   8.234  1.00  0.00     0.030 A 
HETATM    6  C   UNL     1      68.720   5.174   9.574  1.00  0.00     0.030 A 
ENDROOT
BRANCH   1   7
HETATM    7  C   UNL     1      67.254   5.762   6.157  1.00  0.00     0.049 A 
HETATM    8  N   UNL     1      66.460   6.883   6.360  1.00  0.00    -0.353 N 
HETATM    9  C   UNL     1      65.910   7.259   5.227  1.00  0.00     0.047 A 
ATOM     10  HN  UNL     1      66.324   7.347   7.259  1.00  0.00     0.166 HD
HETATM   11  S   UNL     1      66.331   6.320   3.851  1.00  0.00    -0.087 SA
HETATM   12  C   UNL     1      64.983   8.413   5.080  1.00  0.00     0.076 C 
HETATM   13  C   UNL     1      67.315   5.330   4.845  1.00  0.00     0.081 A 
ENDBRANCH   1   7
BRANCH   4  14
HETATM   14  N   UNL     1      69.795   3.239  10.566  1.00  0.00    -0.399 N 
HETATM   15  H   UNL     1      69.228   3.122  11.362  1.00  0.00     0.156 HD
HETATM   16  H   UNL     1      70.714   2.886  10.560  1.00  0.00     0.156 HD
ENDBRANCH   4  14
TORSDOF 2
ENDMDL
