MODEL 1
REMARK VINA RESULT:      -5.6      0.000      0.000
REMARK  2 active torsions:
REMARK  status: ('A' for Active; 'I' for Inactive)
REMARK    1  A    between atoms: N_1  and  C_3 
REMARK    2  A    between atoms: C_3  and  C_4 
ROOT
HETATM    1  N   UNL     1      64.635   7.460   5.435  1.00  0.00    -0.066 N 
HETATM    2  N   UNL     1      67.284   6.334   6.663  1.00  0.00    -0.073 N 
HETATM    3  C   UNL     1      65.496   6.905   4.386  1.00  0.00     0.237 C 
HETATM    4  C   UNL     1      66.936   7.422   4.391  1.00  0.00     0.055 C 
HETATM    5  C   UNL     1      67.768   7.276   5.664  1.00  0.00     0.234 C 
HETATM    6  C   UNL     1      64.784   6.758   6.721  1.00  0.00     0.262 C 
HETATM    7  C   UNL     1      66.155   6.895   7.410  1.00  0.00     0.260 C 
HETATM    8  H   UNL     1      64.954   8.417   5.580  1.00  0.00     0.280 HD
HETATM    9  H   UNL     1      66.983   5.477   6.197  1.00  0.00     0.277 HD
HETATM   10  H   UNL     1      68.042   6.135   7.318  1.00  0.00     0.277 HD
ENDROOT
BRANCH   1  11
HETATM   11  C   UNL     1      63.218   7.522   5.018  1.00  0.00     0.273 C 
BRANCH  11  12
HETATM   12  C   UNL     1      62.785   8.722   4.193  1.00  0.00    -0.032 A 
HETATM   13  C   UNL     1      62.494   8.588   2.824  1.00  0.00     0.012 A 
HETATM   14  C   UNL     1      62.075   9.689   2.074  1.00  0.00     0.043 A 
HETATM   15  C   UNL     1      61.939  10.926   2.688  1.00  0.00     0.116 A 
HETATM   16  C   UNL     1      62.219  11.086   4.039  1.00  0.00     0.043 A 
HETATM   17  F   UNL     1      61.523  11.978   1.972  1.00  0.00    -0.206 F 
HETATM   18  C   UNL     1      62.643   9.987   4.791  1.00  0.00     0.012 A 
ENDBRANCH  11  12
ENDBRANCH   1  11
TORSDOF 2
ENDMDL
MODEL 2
REMARK VINA RESULT:      -5.2      1.076      1.935
REMARK  2 active torsions:
REMARK  status: ('A' for Active; 'I' for Inactive)
REMARK    1  A    between atoms: N_1  and  C_3 
REMARK    2  A    between atoms: C_3  and  C_4 
ROOT
HETATM    1  N   UNL     1      64.746   7.227   5.390  1.00  0.00    -0.066 N 
HETATM    2  N   UNL     1      67.816   6.641   5.556  1.00  0.00    -0.073 N 
HETATM    3  C   UNL     1      64.998   6.011   6.169  1.00  0.00     0.237 C 
HETATM    4  C   UNL     1      65.893   4.977   5.482  1.00  0.00     0.055 C 
HETATM    5  C   UNL     1      67.281   5.404   5.006  1.00  0.00     0.234 C 
HETATM    6  C   UNL     1      65.828   8.217   5.517  1.00  0.00     0.262 C 
HETATM    7  C   UNL     1      67.190   7.808   4.925  1.00  0.00     0.260 C 
HETATM    8  H   UNL     1      64.724   6.933   4.413  1.00  0.00     0.280 HD
HETATM    9  H   UNL     1      67.634   6.667   6.559  1.00  0.00     0.277 HD
HETATM   10  H   UNL     1      68.820   6.672   5.375  1.00  0.00     0.277 HD
ENDROOT
BRANCH   1  11
HETATM   11  C   UNL     1      63.430   7.826   5.702  1.00  0.00     0.273 C 
BRANCH  11  12
HETATM   12  C   UNL     1      62.897   8.877   4.743  1.00  0.00    -0.032 A 
HETATM   13  C   UNL     1      62.699  10.204   5.166  1.00  0.00     0.012 A 
HETATM   14  C   UNL     1      62.230  11.172   4.276  1.00  0.00     0.043 A 
HETATM   15  C   UNL     1      61.963  10.822   2.959  1.00  0.00     0.116 A 
HETATM   16  C   UNL     1      62.150   9.519   2.516  1.00  0.00     0.043 A 
HETATM   17  F   UNL     1      61.527  11.754   2.102  1.00  0.00    -0.206 F 
HETATM   18  C   UNL     1      62.615   8.548   3.406  1.00  0.00     0.012 A 
ENDBRANCH  11  12
ENDBRANCH   1  11
TORSDOF 2
ENDMDL
MODEL 3
REMARK VINA RESULT:      -5.2      3.094      6.038
REMARK  2 active torsions:
REMARK  status: ('A' for Active; 'I' for Inactive)
REMARK    1  A    between atoms: N_1  and  C_3 
REMARK    2  A    between atoms: C_3  and  C_4 
ROOT
HETATM    1  N   UNL     1      63.273   8.386   3.337  1.00  0.00    -0.066 N 
HETATM    2  N   UNL     1      61.188  10.352   2.079  1.00  0.00    -0.073 N 
HETATM    3  C   UNL     1      62.428   8.978   4.379  1.00  0.00     0.237 C 
HETATM    4  C   UNL     1      62.335  10.505   4.344  1.00  0.00     0.055 C 
HETATM    5  C   UNL     1      61.867  11.187   3.060  1.00  0.00     0.234 C 
HETATM    6  C   UNL     1      62.564   8.221   2.056  1.00  0.00     0.262 C 
HETATM    7  C   UNL     1      62.146   9.522   1.345  1.00  0.00     0.260 C 
HETATM    8  H   UNL     1      64.027   9.054   3.176  1.00  0.00     0.280 HD
HETATM    9  H   UNL     1      60.522   9.746   2.560  1.00  0.00     0.277 HD
HETATM   10  H   UNL     1      60.704  10.957   1.415  1.00  0.00     0.277 HD
ENDROOT
BRANCH   1  11
HETATM   11  C   UNL     1      63.892   7.116   3.775  1.00  0.00     0.273 C 
BRANCH  11  12
HETATM   12  C   UNL     1      64.778   7.161   5.009  1.00  0.00    -0.032 A 
HETATM   13  C   UNL     1      65.907   7.998   5.054  1.00  0.00     0.012 A 
HETATM   14  C   UNL     1      66.707   8.053   6.198  1.00  0.00     0.043 A 
HETATM   15  C   UNL     1      66.378   7.280   7.303  1.00  0.00     0.116 A 
HETATM   16  C   UNL     1      65.267   6.446   7.285  1.00  0.00     0.043 A 
HETATM   17  F   UNL     1      67.136   7.344   8.405  1.00  0.00    -0.206 F 
HETATM   18  C   UNL     1      64.469   6.386   6.140  1.00  0.00     0.012 A 
ENDBRANCH  11  12
ENDBRANCH   1  11
TORSDOF 2
ENDMDL
MODEL 4
REMARK VINA RESULT:      -4.8     17.896     20.554
REMARK  2 active torsions:
REMARK  status: ('A' for Active; 'I' for Inactive)
REMARK    1  A    between atoms: N_1  and  C_3 
REMARK    2  A    between atoms: C_3  and  C_4 
ROOT
HETATM    1  N   UNL     1      76.969  -0.229  19.634  1.00  0.00    -0.066 N 
HETATM    2  N   UNL     1      76.380  -2.205  21.988  1.00  0.00    -0.073 N 
HETATM    3  C   UNL     1      78.185  -0.479  20.414  1.00  0.00     0.237 C 
HETATM    4  C   UNL     1      78.037  -0.276  21.924  1.00  0.00     0.055 C 
HETATM    5  C   UNL     1      76.954  -1.055  22.670  1.00  0.00     0.234 C 
HETATM    6  C   UNL     1      76.063  -1.390  19.607  1.00  0.00     0.262 C 
HETATM    7  C   UNL     1      75.430  -1.783  20.955  1.00  0.00     0.260 C 
HETATM    8  H   UNL     1      76.477   0.522  20.117  1.00  0.00     0.280 HD
HETATM    9  H   UNL     1      77.130  -2.743  21.552  1.00  0.00     0.277 HD
HETATM   10  H   UNL     1      75.884  -2.777  22.673  1.00  0.00     0.277 HD
ENDROOT
BRANCH   1  11
HETATM   11  C   UNL     1      77.273   0.247  18.267  1.00  0.00     0.273 C 
BRANCH  11  12
HETATM   12  C   UNL     1      76.534   1.481  17.778  1.00  0.00    -0.032 A 
HETATM   13  C   UNL     1      75.277   1.369  17.158  1.00  0.00     0.012 A 
HETATM   14  C   UNL     1      74.590   2.508  16.730  1.00  0.00     0.043 A 
HETATM   15  C   UNL     1      75.152   3.762  16.925  1.00  0.00     0.116 A 
HETATM   16  C   UNL     1      76.392   3.901  17.535  1.00  0.00     0.043 A 
HETATM   17  F   UNL     1      74.488   4.854  16.528  1.00  0.00    -0.206 F 
HETATM   18  C   UNL     1      77.083   2.762  17.961  1.00  0.00     0.012 A 
ENDBRANCH  11  12
ENDBRANCH   1  11
TORSDOF 2
ENDMDL
MODEL 5
REMARK VINA RESULT:      -4.7      5.315      8.445
REMARK  2 active torsions:
REMARK  status: ('A' for Active; 'I' for Inactive)
REMARK    1  A    between atoms: N_1  and  C_3 
REMARK    2  A    between atoms: C_3  and  C_4 
ROOT
HETATM    1  N   UNL     1      67.541   6.129   7.010  1.00  0.00    -0.066 N 
HETATM    2  N   UNL     1      64.972   7.629   6.039  1.00  0.00    -0.073 N 
HETATM    3  C   UNL     1      67.865   7.054   5.920  1.00  0.00     0.237 C 
HETATM    4  C   UNL     1      66.992   6.910   4.670  1.00  0.00     0.055 C 
HETATM    5  C   UNL     1      65.476   7.026   4.813  1.00  0.00     0.234 C 
HETATM    6  C   UNL     1      66.427   6.606   7.847  1.00  0.00     0.262 C 
HETATM    7  C   UNL     1      65.052   6.686   7.158  1.00  0.00     0.260 C 
HETATM    8  H   UNL     1      67.230   5.268   6.563  1.00  0.00     0.280 HD
HETATM    9  H   UNL     1      65.529   8.455   6.258  1.00  0.00     0.277 HD
HETATM   10  H   UNL     1      63.994   7.886   5.898  1.00  0.00     0.277 HD
ENDROOT
BRANCH   1  11
HETATM   11  C   UNL     1      68.727   5.799   7.831  1.00  0.00     0.273 C 
BRANCH  11  12
HETATM   12  C   UNL     1      68.880   4.358   8.288  1.00  0.00    -0.032 A 
HETATM   13  C   UNL     1      68.714   3.295   7.383  1.00  0.00     0.012 A 
HETATM   14  C   UNL     1      68.878   1.972   7.801  1.00  0.00     0.043 A 
HETATM   15  C   UNL     1      69.214   1.707   9.122  1.00  0.00     0.116 A 
HETATM   16  C   UNL     1      69.384   2.739  10.035  1.00  0.00     0.043 A 
HETATM   17  F   UNL     1      69.385   0.440   9.519  1.00  0.00    -0.206 F 
HETATM   18  C   UNL     1      69.217   4.063   9.620  1.00  0.00     0.012 A 
ENDBRANCH  11  12
ENDBRANCH   1  11
TORSDOF 2
ENDMDL
MODEL 6
REMARK VINA RESULT:      -4.6      1.823      3.222
REMARK  2 active torsions:
REMARK  status: ('A' for Active; 'I' for Inactive)
REMARK    1  A    between atoms: N_1  and  C_3 
REMARK    2  A    between atoms: C_3  and  C_4 
ROOT
HETATM    1  N   UNL     1      66.489   6.952   6.370  1.00  0.00    -0.066 N 
HETATM    2  N   UNL     1      68.167   4.691   7.735  1.00  0.00    -0.073 N 
HETATM    3  C   UNL     1      66.753   7.281   7.774  1.00  0.00     0.237 C 
HETATM    4  C   UNL     1      66.388   6.182   8.774  1.00  0.00     0.055 C 
HETATM    5  C   UNL     1      67.001   4.794   8.601  1.00  0.00     0.234 C 
HETATM    6  C   UNL     1      67.573   6.164   5.758  1.00  0.00     0.262 C 
HETATM    7  C   UNL     1      67.778   4.746   6.323  1.00  0.00     0.260 C 
HETATM    8  H   UNL     1      65.657   6.362   6.373  1.00  0.00     0.280 HD
HETATM    9  H   UNL     1      68.802   5.463   7.937  1.00  0.00     0.277 HD
HETATM   10  H   UNL     1      68.627   3.797   7.911  1.00  0.00     0.277 HD
ENDROOT
BRANCH   1  11
HETATM   11  C   UNL     1      66.178   8.153   5.565  1.00  0.00     0.273 C 
BRANCH  11  12
HETATM   12  C   UNL     1      64.849   8.174   4.828  1.00  0.00    -0.032 A 
HETATM   13  C   UNL     1      63.906   9.187   5.073  1.00  0.00     0.012 A 
HETATM   14  C   UNL     1      62.695   9.216   4.377  1.00  0.00     0.043 A 
HETATM   15  C   UNL     1      62.424   8.238   3.430  1.00  0.00     0.116 A 
HETATM   16  C   UNL     1      63.339   7.226   3.168  1.00  0.00     0.043 A 
HETATM   17  F   UNL     1      61.270   8.274   2.753  1.00  0.00    -0.206 F 
HETATM   18  C   UNL     1      64.550   7.193   3.866  1.00  0.00     0.012 A 
ENDBRANCH  11  12
ENDBRANCH   1  11
TORSDOF 2
ENDMDL
MODEL 7
REMARK VINA RESULT:      -4.5      1.809      2.515
REMARK  2 active torsions:
REMARK  status: ('A' for Active; 'I' for Inactive)
REMARK    1  A    between atoms: N_1  and  C_3 
REMARK    2  A    between atoms: C_3  and  C_4 
ROOT
HETATM    1  N   UNL     1      63.765   6.264   3.629  1.00  0.00    -0.066 N 
HETATM    2  N   UNL     1      64.980   3.972   5.380  1.00  0.00    -0.073 N 
HETATM    3  C   UNL     1      65.195   6.100   3.346  1.00  0.00     0.237 C 
HETATM    4  C   UNL     1      66.103   6.109   4.578  1.00  0.00     0.055 C 
HETATM    5  C   UNL     1      65.833   5.107   5.700  1.00  0.00     0.234 C 
HETATM    6  C   UNL     1      63.112   4.999   4.004  1.00  0.00     0.262 C 
HETATM    7  C   UNL     1      63.571   4.371   5.334  1.00  0.00     0.260 C 
HETATM    8  H   UNL     1      63.711   6.879   4.441  1.00  0.00     0.280 HD
HETATM    9  H   UNL     1      65.250   3.597   4.470  1.00  0.00     0.277 HD
HETATM   10  H   UNL     1      65.095   3.263   6.105  1.00  0.00     0.277 HD
ENDROOT
BRANCH   1  11
HETATM   11  C   UNL     1      63.050   6.930   2.519  1.00  0.00     0.273 C 
BRANCH  11  12
HETATM   12  C   UNL     1      62.652   8.383   2.717  1.00  0.00    -0.032 A 
HETATM   13  C   UNL     1      62.735   8.986   3.985  1.00  0.00     0.012 A 
HETATM   14  C   UNL     1      62.390  10.328   4.158  1.00  0.00     0.043 A 
HETATM   15  C   UNL     1      61.966  11.074   3.067  1.00  0.00     0.116 A 
HETATM   16  C   UNL     1      61.876  10.503   1.804  1.00  0.00     0.043 A 
HETATM   17  F   UNL     1      61.649  12.365   3.231  1.00  0.00    -0.206 F 
HETATM   18  C   UNL     1      62.217   9.159   1.629  1.00  0.00     0.012 A 
ENDBRANCH  11  12
ENDBRANCH   1  11
TORSDOF 2
ENDMDL
MODEL 8
REMARK VINA RESULT:      -4.5      3.013      4.751
REMARK  2 active torsions:
REMARK  status: ('A' for Active; 'I' for Inactive)
REMARK    1  A    between atoms: N_1  and  C_3 
REMARK    2  A    between atoms: C_3  and  C_4 
ROOT
HETATM    1  N   UNL     1      67.761   5.213   7.083  1.00  0.00    -0.066 N 
HETATM    2  N   UNL     1      68.806   2.458   8.136  1.00  0.00    -0.073 N 
HETATM    3  C   UNL     1      68.806   5.409   8.092  1.00  0.00     0.237 C 
HETATM    4  C   UNL     1      68.588   4.652   9.404  1.00  0.00     0.055 C 
HETATM    5  C   UNL     1      68.401   3.137   9.358  1.00  0.00     0.234 C 
HETATM    6  C   UNL     1      67.954   3.983   6.297  1.00  0.00     0.262 C 
HETATM    7  C   UNL     1      67.818   2.659   7.073  1.00  0.00     0.260 C 
HETATM    8  H   UNL     1      66.890   5.102   7.602  1.00  0.00     0.280 HD
HETATM    9  H   UNL     1      69.706   2.829   7.830  1.00  0.00     0.277 HD
HETATM   10  H   UNL     1      68.881   1.458   8.327  1.00  0.00     0.277 HD
ENDROOT
BRANCH   1  11
HETATM   11  C   UNL     1      67.606   6.393   6.204  1.00  0.00     0.273 C 
BRANCH  11  12
HETATM   12  C   UNL     1      66.199   6.926   5.994  1.00  0.00    -0.032 A 
HETATM   13  C   UNL     1      65.958   7.992   5.109  1.00  0.00     0.012 A 
HETATM   14  C   UNL     1      64.660   8.464   4.901  1.00  0.00     0.043 A 
HETATM   15  C   UNL     1      63.598   7.871   5.569  1.00  0.00     0.116 A 
HETATM   16  C   UNL     1      63.809   6.816   6.448  1.00  0.00     0.043 A 
HETATM   17  F   UNL     1      62.352   8.314   5.359  1.00  0.00    -0.206 F 
HETATM   18  C   UNL     1      65.107   6.344   6.661  1.00  0.00     0.012 A 
ENDBRANCH  11  12
ENDBRANCH   1  11
TORSDOF 2
ENDMDL
MODEL 9
REMARK VINA RESULT:      -4.5      5.044      8.201
REMARK  2 active torsions:
REMARK  status: ('A' for Active; 'I' for Inactive)
REMARK    1  A    between atoms: N_1  and  C_3 
REMARK    2  A    between atoms: C_3  and  C_4 
ROOT
HETATM    1  N   UNL     1      66.606   5.664   6.100  1.00  0.00    -0.066 N 
HETATM    2  N   UNL     1      64.514   7.868   5.354  1.00  0.00    -0.073 N 
HETATM    3  C   UNL     1      65.375   5.055   5.589  1.00  0.00     0.237 C 
HETATM    4  C   UNL     1      64.088   5.533   6.267  1.00  0.00     0.055 C 
HETATM    5  C   UNL     1      63.777   7.028   6.287  1.00  0.00     0.234 C 
HETATM    6  C   UNL     1      66.884   6.977   5.493  1.00  0.00     0.262 C 
HETATM    7  C   UNL     1      65.882   8.099   5.824  1.00  0.00     0.260 C 
HETATM    8  H   UNL     1      66.447   5.824   7.095  1.00  0.00     0.280 HD
HETATM    9  H   UNL     1      64.546   7.407   4.444  1.00  0.00     0.277 HD
HETATM   10  H   UNL     1      64.038   8.768   5.279  1.00  0.00     0.277 HD
ENDROOT
BRANCH   1  11
HETATM   11  C   UNL     1      67.769   4.758   5.977  1.00  0.00     0.273 C 
BRANCH  11  12
HETATM   12  C   UNL     1      68.320   4.153   7.257  1.00  0.00    -0.032 A 
HETATM   13  C   UNL     1      68.559   4.954   8.388  1.00  0.00     0.012 A 
HETATM   14  C   UNL     1      69.044   4.390   9.570  1.00  0.00     0.043 A 
HETATM   15  C   UNL     1      69.287   3.024   9.630  1.00  0.00     0.116 A 
HETATM   16  C   UNL     1      69.060   2.211   8.527  1.00  0.00     0.043 A 
HETATM   17  F   UNL     1      69.739   2.482  10.767  1.00  0.00    -0.206 F 
HETATM   18  C   UNL     1      68.578   2.774   7.342  1.00  0.00     0.012 A 
ENDBRANCH  11  12
ENDBRANCH   1  11
TORSDOF 2
ENDMDL
