MODEL 1
REMARK VINA RESULT:      -5.6      0.000      0.000
REMARK  2 active torsions:
REMARK  status: ('A' for Active; 'I' for Inactive)
REMARK    1  A    between atoms: C_1  and  C_2 
REMARK    2  A    between atoms: C_2  and  N_3 
ROOT
HETATM    1  N   UNL     1      64.290   7.587   5.387  1.00  0.00    -0.065 N 
HETATM    2  N   UNL     1      66.800   6.146   6.633  1.00  0.00    -0.073 N 
HETATM    3  C   UNL     1      65.258   7.205   4.356  1.00  0.00     0.237 C 
HETATM    4  C   UNL     1      66.705   7.646   4.580  1.00  0.00     0.055 C 
HETATM    5  C   UNL     1      67.445   7.171   5.827  1.00  0.00     0.234 C 
HETATM    6  C   UNL     1      64.335   6.719   6.577  1.00  0.00     0.262 C 
HETATM    7  C   UNL     1      65.658   6.699   7.365  1.00  0.00     0.260 C 
HETATM    8  H   UNL     1      64.569   8.518   5.696  1.00  0.00     0.280 HD
HETATM    9  H   UNL     1      66.475   5.397   6.023  1.00  0.00     0.277 HD
HETATM   10  H   UNL     1      67.477   5.789   7.307  1.00  0.00     0.277 HD
ENDROOT
BRANCH   1  11
HETATM   11  C   UNL     1      62.905   7.681   4.843  1.00  0.00     0.278 C 
BRANCH  11  12
HETATM   12  C   UNL     1      62.605   8.838   3.907  1.00  0.00     0.028 A 
HETATM   13  C   UNL     1      62.452   8.701   2.516  1.00  0.00     0.045 A 
HETATM   14 CL   UNL     1      62.800   7.232   1.674  1.00  0.00    -0.084 Cl
HETATM   15  C   UNL     1      62.042   9.785   1.729  1.00  0.00     0.024 A 
HETATM   16  C   UNL     1      61.828  11.036   2.300  1.00  0.00     0.005 A 
HETATM   17  C   UNL     1      62.055  11.211   3.659  1.00  0.00     0.043 A 
HETATM   18  C   UNL     1      62.441  10.122   4.441  1.00  0.00     0.126 A 
HETATM   19  F   UNL     1      62.644  10.334   5.751  1.00  0.00    -0.205 F 
ENDBRANCH  11  12
ENDBRANCH   1  11
TORSDOF 2
ENDMDL
MODEL 2
REMARK VINA RESULT:      -5.0      2.085      2.699
REMARK  2 active torsions:
REMARK  status: ('A' for Active; 'I' for Inactive)
REMARK    1  A    between atoms: C_1  and  C_2 
REMARK    2  A    between atoms: C_2  and  N_3 
ROOT
HETATM    1  N   UNL     1      64.797   7.212   5.685  1.00  0.00    -0.065 N 
HETATM    2  N   UNL     1      67.858   6.967   6.394  1.00  0.00    -0.073 N 
HETATM    3  C   UNL     1      65.038   6.162   6.679  1.00  0.00     0.237 C 
HETATM    4  C   UNL     1      66.105   5.123   6.332  1.00  0.00     0.055 C 
HETATM    5  C   UNL     1      67.538   5.583   6.081  1.00  0.00     0.234 C 
HETATM    6  C   UNL     1      65.806   8.286   5.720  1.00  0.00     0.262 C 
HETATM    7  C   UNL     1      67.258   7.877   5.416  1.00  0.00     0.260 C 
HETATM    8  H   UNL     1      64.887   6.757   4.777  1.00  0.00     0.280 HD
HETATM    9  H   UNL     1      67.498   7.191   7.322  1.00  0.00     0.277 HD
HETATM   10  H   UNL     1      68.871   7.081   6.368  1.00  0.00     0.277 HD
ENDROOT
BRANCH   1  11
HETATM   11  C   UNL     1      63.417   7.767   5.785  1.00  0.00     0.278 C 
BRANCH  11  12
HETATM   12  C   UNL     1      62.801   8.323   4.513  1.00  0.00     0.028 A 
HETATM   13  C   UNL     1      62.617   9.695   4.267  1.00  0.00     0.045 A 
HETATM   14 CL   UNL     1      62.869  10.907   5.473  1.00  0.00    -0.084 Cl
HETATM   15  C   UNL     1      62.169  10.146   3.018  1.00  0.00     0.024 A 
HETATM   16  C   UNL     1      61.847   9.241   2.010  1.00  0.00     0.005 A 
HETATM   17  C   UNL     1      61.944   7.879   2.263  1.00  0.00     0.043 A 
HETATM   18  C   UNL     1      62.412   7.437   3.501  1.00  0.00     0.126 A 
HETATM   19  F   UNL     1      62.495   6.113   3.701  1.00  0.00    -0.205 F 
ENDBRANCH  11  12
ENDBRANCH   1  11
TORSDOF 2
ENDMDL
MODEL 3
REMARK VINA RESULT:      -5.0      2.863      4.195
REMARK  2 active torsions:
REMARK  status: ('A' for Active; 'I' for Inactive)
REMARK    1  A    between atoms: C_1  and  C_2 
REMARK    2  A    between atoms: C_2  and  N_3 
ROOT
HETATM    1  N   UNL     1      61.331   6.832   4.557  1.00  0.00    -0.065 N 
HETATM    2  N   UNL     1      59.338   4.521   5.341  1.00  0.00    -0.073 N 
HETATM    3  C   UNL     1      61.740   6.166   5.796  1.00  0.00     0.237 C 
HETATM    4  C   UNL     1      60.675   6.036   6.887  1.00  0.00     0.055 C 
HETATM    5  C   UNL     1      59.390   5.271   6.586  1.00  0.00     0.234 C 
HETATM    6  C   UNL     1      60.560   5.958   3.654  1.00  0.00     0.262 C 
HETATM    7  C   UNL     1      59.221   5.421   4.192  1.00  0.00     0.260 C 
HETATM    8  H   UNL     1      60.701   7.582   4.842  1.00  0.00     0.280 HD
HETATM    9  H   UNL     1      60.190   3.969   5.248  1.00  0.00     0.277 HD
HETATM   10  H   UNL     1      58.520   3.912   5.363  1.00  0.00     0.277 HD
ENDROOT
BRANCH   1  11
HETATM   11  C   UNL     1      62.488   7.450   3.848  1.00  0.00     0.278 C 
BRANCH  11  12
HETATM   12  C   UNL     1      62.332   8.889   3.392  1.00  0.00     0.028 A 
HETATM   13  C   UNL     1      62.127   9.269   2.054  1.00  0.00     0.045 A 
HETATM   14 CL   UNL     1      62.244   8.159   0.734  1.00  0.00    -0.084 Cl
HETATM   15  C   UNL     1      61.856  10.603   1.720  1.00  0.00     0.024 A 
HETATM   16  C   UNL     1      61.835  11.590   2.702  1.00  0.00     0.005 A 
HETATM   17  C   UNL     1      62.117  11.247   4.017  1.00  0.00     0.043 A 
HETATM   18  C   UNL     1      62.365   9.914   4.346  1.00  0.00     0.126 A 
HETATM   19  F   UNL     1      62.627   9.625   5.630  1.00  0.00    -0.205 F 
ENDBRANCH  11  12
ENDBRANCH   1  11
TORSDOF 2
ENDMDL
MODEL 4
REMARK VINA RESULT:      -4.9      4.793      6.440
REMARK  2 active torsions:
REMARK  status: ('A' for Active; 'I' for Inactive)
REMARK    1  A    between atoms: C_1  and  C_2 
REMARK    2  A    between atoms: C_2  and  N_3 
ROOT
HETATM    1  N   UNL     1      67.817   3.660   8.313  1.00  0.00    -0.065 N 
HETATM    2  N   UNL     1      69.759   2.616  10.565  1.00  0.00    -0.073 N 
HETATM    3  C   UNL     1      67.468   2.302   8.738  1.00  0.00     0.237 C 
HETATM    4  C   UNL     1      68.600   1.274   8.740  1.00  0.00     0.055 C 
HETATM    5  C   UNL     1      69.827   1.518   9.614  1.00  0.00     0.234 C 
HETATM    6  C   UNL     1      68.484   4.445   9.368  1.00  0.00     0.262 C 
HETATM    7  C   UNL     1      69.833   3.907   9.878  1.00  0.00     0.260 C 
HETATM    8  H   UNL     1      68.497   3.548   7.561  1.00  0.00     0.280 HD
HETATM    9  H   UNL     1      68.879   2.560  11.077  1.00  0.00     0.277 HD
HETATM   10  H   UNL     1      70.550   2.541  11.205  1.00  0.00     0.277 HD
ENDROOT
BRANCH   1  11
HETATM   11  C   UNL     1      66.641   4.391   7.762  1.00  0.00     0.278 C 
BRANCH  11  12
HETATM   12  C   UNL     1      66.917   5.467   6.727  1.00  0.00     0.028 A 
HETATM   13  C   UNL     1      67.216   5.200   5.379  1.00  0.00     0.045 A 
HETATM   14 CL   UNL     1      67.520   3.606   4.784  1.00  0.00    -0.084 Cl
HETATM   15  C   UNL     1      67.326   6.242   4.448  1.00  0.00     0.024 A 
HETATM   16  C   UNL     1      67.192   7.568   4.849  1.00  0.00     0.005 A 
HETATM   17  C   UNL     1      66.978   7.856   6.190  1.00  0.00     0.043 A 
HETATM   18  C   UNL     1      66.848   6.813   7.108  1.00  0.00     0.126 A 
HETATM   19  F   UNL     1      66.636   7.136   8.394  1.00  0.00    -0.205 F 
ENDBRANCH  11  12
ENDBRANCH   1  11
TORSDOF 2
ENDMDL
MODEL 5
REMARK VINA RESULT:      -4.9      4.611      8.059
REMARK  2 active torsions:
REMARK  status: ('A' for Active; 'I' for Inactive)
REMARK    1  A    between atoms: C_1  and  C_2 
REMARK    2  A    between atoms: C_2  and  N_3 
ROOT
HETATM    1  N   UNL     1      66.853   5.522   6.711  1.00  0.00    -0.065 N 
HETATM    2  N   UNL     1      65.162   8.015   5.785  1.00  0.00    -0.073 N 
HETATM    3  C   UNL     1      65.677   5.117   5.936  1.00  0.00     0.237 C 
HETATM    4  C   UNL     1      64.331   5.687   6.388  1.00  0.00     0.055 C 
HETATM    5  C   UNL     1      64.130   7.199   6.405  1.00  0.00     0.234 C 
HETATM    6  C   UNL     1      67.343   6.867   6.362  1.00  0.00     0.262 C 
HETATM    7  C   UNL     1      66.374   8.038   6.607  1.00  0.00     0.260 C 
HETATM    8  H   UNL     1      66.542   5.568   7.681  1.00  0.00     0.280 HD
HETATM    9  H   UNL     1      65.388   7.628   4.868  1.00  0.00     0.277 HD
HETATM   10  H   UNL     1      64.811   8.968   5.692  1.00  0.00     0.277 HD
ENDROOT
BRANCH   1  11
HETATM   11  C   UNL     1      67.948   4.513   6.629  1.00  0.00     0.278 C 
BRANCH  11  12
HETATM   12  C   UNL     1      68.339   3.810   7.916  1.00  0.00     0.028 A 
HETATM   13  C   UNL     1      67.802   2.577   8.330  1.00  0.00     0.045 A 
HETATM   14 CL   UNL     1      66.471   1.818   7.531  1.00  0.00    -0.084 Cl
HETATM   15  C   UNL     1      68.307   1.918   9.459  1.00  0.00     0.024 A 
HETATM   16  C   UNL     1      69.315   2.495  10.226  1.00  0.00     0.005 A 
HETATM   17  C   UNL     1      69.800   3.749   9.880  1.00  0.00     0.043 A 
HETATM   18  C   UNL     1      69.310   4.390   8.742  1.00  0.00     0.126 A 
HETATM   19  F   UNL     1      69.810   5.599   8.441  1.00  0.00    -0.205 F 
ENDBRANCH  11  12
ENDBRANCH   1  11
TORSDOF 2
ENDMDL
MODEL 6
REMARK VINA RESULT:      -4.7     18.120     19.506
REMARK  2 active torsions:
REMARK  status: ('A' for Active; 'I' for Inactive)
REMARK    1  A    between atoms: C_1  and  C_2 
REMARK    2  A    between atoms: C_2  and  N_3 
ROOT
HETATM    1  N   UNL     1      76.174   0.456  16.099  1.00  0.00    -0.065 N 
HETATM    2  N   UNL     1      75.151   2.572  18.199  1.00  0.00    -0.073 N 
HETATM    3  C   UNL     1      76.839   0.294  17.395  1.00  0.00     0.237 C 
HETATM    4  C   UNL     1      77.472   1.548  18.000  1.00  0.00     0.055 C 
HETATM    5  C   UNL     1      76.590   2.755  18.304  1.00  0.00     0.234 C 
HETATM    6  C   UNL     1      74.826   1.043  16.209  1.00  0.00     0.262 C 
HETATM    7  C   UNL     1      74.739   2.463  16.798  1.00  0.00     0.260 C 
HETATM    8  H   UNL     1      76.741   1.125  15.580  1.00  0.00     0.280 HD
HETATM    9  H   UNL     1      74.887   1.719  18.693  1.00  0.00     0.277 HD
HETATM   10  H   UNL     1      74.689   3.381  18.613  1.00  0.00     0.277 HD
ENDROOT
BRANCH   1  11
HETATM   11  C   UNL     1      76.144  -0.818  15.326  1.00  0.00     0.278 C 
BRANCH  11  12
HETATM   12  C   UNL     1      77.268  -1.053  14.333  1.00  0.00     0.028 A 
HETATM   13  C   UNL     1      78.356  -1.911  14.570  1.00  0.00     0.045 A 
HETATM   14 CL   UNL     1      78.660  -2.639  16.108  1.00  0.00    -0.084 Cl
HETATM   15  C   UNL     1      79.286  -2.186  13.558  1.00  0.00     0.024 A 
HETATM   16  C   UNL     1      79.182  -1.573  12.313  1.00  0.00     0.005 A 
HETATM   17  C   UNL     1      78.161  -0.659  12.088  1.00  0.00     0.043 A 
HETATM   18  C   UNL     1      77.226  -0.407  13.091  1.00  0.00     0.126 A 
HETATM   19  F   UNL     1      76.252   0.480  12.830  1.00  0.00    -0.205 F 
ENDBRANCH  11  12
ENDBRANCH   1  11
TORSDOF 2
ENDMDL
MODEL 7
REMARK VINA RESULT:      -4.7      5.006      8.389
REMARK  2 active torsions:
REMARK  status: ('A' for Active; 'I' for Inactive)
REMARK    1  A    between atoms: C_1  and  C_2 
REMARK    2  A    between atoms: C_2  and  N_3 
ROOT
HETATM    1  N   UNL     1      66.983   5.323   6.805  1.00  0.00    -0.065 N 
HETATM    2  N   UNL     1      65.250   7.823   5.982  1.00  0.00    -0.073 N 
HETATM    3  C   UNL     1      65.793   4.928   6.046  1.00  0.00     0.237 C 
HETATM    4  C   UNL     1      64.453   5.473   6.542  1.00  0.00     0.055 C 
HETATM    5  C   UNL     1      64.239   6.982   6.603  1.00  0.00     0.234 C 
HETATM    6  C   UNL     1      67.453   6.682   6.481  1.00  0.00     0.262 C 
HETATM    7  C   UNL     1      66.479   7.837   6.778  1.00  0.00     0.260 C 
HETATM    8  H   UNL     1      66.692   5.341   7.782  1.00  0.00     0.280 HD
HETATM    9  H   UNL     1      65.459   7.463   5.051  1.00  0.00     0.277 HD
HETATM   10  H   UNL     1      64.889   8.775   5.923  1.00  0.00     0.277 HD
ENDROOT
BRANCH   1  11
HETATM   11  C   UNL     1      68.084   4.327   6.673  1.00  0.00     0.278 C 
BRANCH  11  12
HETATM   12  C   UNL     1      68.442   3.522   7.909  1.00  0.00     0.028 A 
HETATM   13  C   UNL     1      69.376   3.939   8.873  1.00  0.00     0.045 A 
HETATM   14 CL   UNL     1      70.393   5.320   8.659  1.00  0.00    -0.084 Cl
HETATM   15  C   UNL     1      69.558   3.212  10.057  1.00  0.00     0.024 A 
HETATM   16  C   UNL     1      68.854   2.031  10.281  1.00  0.00     0.005 A 
HETATM   17  C   UNL     1      67.988   1.561   9.303  1.00  0.00     0.043 A 
HETATM   18  C   UNL     1      67.795   2.300   8.136  1.00  0.00     0.126 A 
HETATM   19  F   UNL     1      66.945   1.811   7.220  1.00  0.00    -0.205 F 
ENDBRANCH  11  12
ENDBRANCH   1  11
TORSDOF 2
ENDMDL
MODEL 8
REMARK VINA RESULT:      -4.5     18.163     19.895
REMARK  2 active torsions:
REMARK  status: ('A' for Active; 'I' for Inactive)
REMARK    1  A    between atoms: C_1  and  C_2 
REMARK    2  A    between atoms: C_2  and  N_3 
ROOT
HETATM    1  N   UNL     1      76.268   0.233  16.323  1.00  0.00    -0.065 N 
HETATM    2  N   UNL     1      75.073   2.506  18.150  1.00  0.00    -0.073 N 
HETATM    3  C   UNL     1      76.945   0.293  17.620  1.00  0.00     0.237 C 
HETATM    4  C   UNL     1      77.471   1.662  18.055  1.00  0.00     0.055 C 
HETATM    5  C   UNL     1      76.491   2.820  18.215  1.00  0.00     0.234 C 
HETATM    6  C   UNL     1      74.876   0.715  16.372  1.00  0.00     0.262 C 
HETATM    7  C   UNL     1      74.670   2.186  16.779  1.00  0.00     0.260 C 
HETATM    8  H   UNL     1      76.777   0.876  15.716  1.00  0.00     0.280 HD
HETATM    9  H   UNL     1      74.881   1.704  18.750  1.00  0.00     0.277 HD
HETATM   10  H   UNL     1      74.544   3.320  18.464  1.00  0.00     0.277 HD
ENDROOT
BRANCH   1  11
HETATM   11  C   UNL     1      76.344  -1.127  15.716  1.00  0.00     0.278 C 
BRANCH  11  12
HETATM   12  C   UNL     1      77.497  -1.397  14.766  1.00  0.00     0.028 A 
HETATM   13  C   UNL     1      77.634  -0.786  13.507  1.00  0.00     0.045 A 
HETATM   14 CL   UNL     1      76.394   0.186  12.795  1.00  0.00    -0.084 Cl
HETATM   15  C   UNL     1      78.791  -0.977  12.739  1.00  0.00     0.024 A 
HETATM   16  C   UNL     1      79.807  -1.818  13.183  1.00  0.00     0.005 A 
HETATM   17  C   UNL     1      79.652  -2.495  14.386  1.00  0.00     0.043 A 
HETATM   18  C   UNL     1      78.509  -2.284  15.156  1.00  0.00     0.126 A 
HETATM   19  F   UNL     1      78.402  -2.954  16.314  1.00  0.00    -0.205 F 
ENDBRANCH  11  12
ENDBRANCH   1  11
TORSDOF 2
ENDMDL
MODEL 9
REMARK VINA RESULT:      -4.5      3.421      4.947
REMARK  2 active torsions:
REMARK  status: ('A' for Active; 'I' for Inactive)
REMARK    1  A    between atoms: C_1  and  C_2 
REMARK    2  A    between atoms: C_2  and  N_3 
ROOT
HETATM    1  N   UNL     1      67.245   4.527   7.029  1.00  0.00    -0.065 N 
HETATM    2  N   UNL     1      69.342   3.162   8.946  1.00  0.00    -0.073 N 
HETATM    3  C   UNL     1      68.290   5.467   7.442  1.00  0.00     0.237 C 
HETATM    4  C   UNL     1      68.553   5.581   8.944  1.00  0.00     0.055 C 
HETATM    5  C   UNL     1      68.991   4.343   9.719  1.00  0.00     0.234 C 
HETATM    6  C   UNL     1      67.698   3.124   7.022  1.00  0.00     0.262 C 
HETATM    7  C   UNL     1      68.147   2.538   8.373  1.00  0.00     0.260 C 
HETATM    8  H   UNL     1      66.517   4.594   7.739  1.00  0.00     0.280 HD
HETATM    9  H   UNL     1      69.972   3.433   8.190  1.00  0.00     0.277 HD
HETATM   10  H   UNL     1      69.796   2.491   9.565  1.00  0.00     0.277 HD
ENDROOT
BRANCH   1  11
HETATM   11  C   UNL     1      66.643   4.903   5.718  1.00  0.00     0.278 C 
BRANCH  11  12
HETATM   12  C   UNL     1      65.683   6.079   5.710  1.00  0.00     0.028 A 
HETATM   13  C   UNL     1      65.998   7.345   5.183  1.00  0.00     0.045 A 
HETATM   14 CL   UNL     1      67.592   7.780   4.676  1.00  0.00    -0.084 Cl
HETATM   15  C   UNL     1      65.021   8.344   5.084  1.00  0.00     0.024 A 
HETATM   16  C   UNL     1      63.729   8.123   5.553  1.00  0.00     0.005 A 
HETATM   17  C   UNL     1      63.422   6.908   6.152  1.00  0.00     0.043 A 
HETATM   18  C   UNL     1      64.393   5.909   6.227  1.00  0.00     0.126 A 
HETATM   19  F   UNL     1      64.052   4.749   6.809  1.00  0.00    -0.205 F 
ENDBRANCH  11  12
ENDBRANCH   1  11
TORSDOF 2
ENDMDL
