MODEL 1
REMARK VINA RESULT:      -5.7      0.000      0.000
REMARK  5 active torsions:
REMARK  status: ('A' for Active; 'I' for Inactive)
REMARK    1  A    between atoms: N_1  and  C_4 
REMARK    2  A    between atoms: C_2  and  C_4 
REMARK    3  A    between atoms: N_3  and  C_11 
REMARK    4  A    between atoms: C_11  and  C_15 
REMARK    5  A    between atoms: O_13  and  C_15 
ROOT
HETATM    1  N   UNL     1      64.449   7.363   4.866  1.00  0.00    -0.064 N 
HETATM    2  N   UNL     1      66.491   6.965   7.099  1.00  0.00    -0.066 N 
HETATM    3  C   UNL     1      64.531   6.127   5.672  1.00  0.00     0.263 C 
HETATM    4  C   UNL     1      65.758   8.041   4.887  1.00  0.00     0.263 C 
HETATM    5  C   UNL     1      65.177   6.278   7.072  1.00  0.00     0.262 C 
HETATM    6  C   UNL     1      66.406   8.193   6.282  1.00  0.00     0.262 C 
HETATM    7  H   UNL     1      64.222   7.105   3.906  1.00  0.00     0.280 HD
HETATM    8  H   UNL     1      66.731   7.261   8.045  1.00  0.00     0.280 HD
ENDROOT
BRANCH   1   9
HETATM    9  C   UNL     1      63.353   8.253   5.289  1.00  0.00     0.276 C 
BRANCH   9  10
HETATM   10  C   UNL     1      62.864   9.144   4.162  1.00  0.00     0.006 A 
HETATM   11  C   UNL     1      62.498  10.472   4.401  1.00  0.00     0.124 A 
HETATM   12  F   UNL     1      62.667  11.004   5.622  1.00  0.00    -0.206 F 
HETATM   13  C   UNL     1      61.932  11.259   3.401  1.00  0.00     0.043 A 
HETATM   14  C   UNL     1      61.739  10.724   2.126  1.00  0.00     0.003 A 
HETATM   15  C   UNL     1      62.148   9.420   1.853  1.00  0.00     0.001 A 
HETATM   16  C   UNL     1      62.716   8.636   2.860  1.00  0.00     0.012 A 
ENDBRANCH   9  10
ENDBRANCH   1   9
BRANCH   2  17
HETATM   17  C   UNL     1      67.571   6.033   6.706  1.00  0.00     0.260 C 
BRANCH  17  18
HETATM   18  C   UNL     1      68.320   5.409   7.897  1.00  0.00     0.192 C 
BRANCH  18  19
HETATM   19  O   UNL     1      68.416   6.338   8.973  1.00  0.00    -0.399 OA
HETATM   20  H   UNL     1      68.220   7.231   8.648  1.00  0.00     0.209 HD
ENDBRANCH  18  19
ENDBRANCH  17  18
ENDBRANCH   2  17
TORSDOF 5
ENDMDL
MODEL 2
REMARK VINA RESULT:      -5.6      1.556      2.358
REMARK  5 active torsions:
REMARK  status: ('A' for Active; 'I' for Inactive)
REMARK    1  A    between atoms: N_1  and  C_4 
REMARK    2  A    between atoms: C_2  and  C_4 
REMARK    3  A    between atoms: N_3  and  C_11 
REMARK    4  A    between atoms: C_11  and  C_15 
REMARK    5  A    between atoms: O_13  and  C_15 
ROOT
HETATM    1  N   UNL     1      64.989   7.827   6.118  1.00  0.00    -0.064 N 
HETATM    2  N   UNL     1      67.064   5.767   6.991  1.00  0.00    -0.066 N 
HETATM    3  C   UNL     1      66.413   8.158   6.332  1.00  0.00     0.263 C 
HETATM    4  C   UNL     1      64.648   6.630   6.908  1.00  0.00     0.263 C 
HETATM    5  C   UNL     1      67.406   6.977   6.204  1.00  0.00     0.262 C 
HETATM    6  C   UNL     1      65.637   5.448   6.783  1.00  0.00     0.262 C 
HETATM    7  H   UNL     1      64.426   8.613   6.444  1.00  0.00     0.280 HD
HETATM    8  H   UNL     1      67.593   4.957   6.668  1.00  0.00     0.280 HD
ENDROOT
BRANCH   1   9
HETATM    9  C   UNL     1      64.642   7.675   4.694  1.00  0.00     0.276 C 
BRANCH   9  10
HETATM   10  C   UNL     1      63.598   8.680   4.243  1.00  0.00     0.006 A 
HETATM   11  C   UNL     1      62.973   8.559   2.998  1.00  0.00     0.124 A 
HETATM   12  F   UNL     1      63.224   7.491   2.223  1.00  0.00    -0.206 F 
HETATM   13  C   UNL     1      62.108   9.541   2.523  1.00  0.00     0.043 A 
HETATM   14  C   UNL     1      61.840  10.664   3.307  1.00  0.00     0.003 A 
HETATM   15  C   UNL     1      62.409  10.776   4.574  1.00  0.00     0.001 A 
HETATM   16  C   UNL     1      63.276   9.787   5.045  1.00  0.00     0.012 A 
ENDBRANCH   9  10
ENDBRANCH   1   9
BRANCH   2  17
HETATM   17  C   UNL     1      67.461   5.940   8.406  1.00  0.00     0.260 C 
BRANCH  17  18
HETATM   18  C   UNL     1      68.691   5.112   8.815  1.00  0.00     0.192 C 
BRANCH  18  19
HETATM   19  O   UNL     1      69.893   5.822   8.528  1.00  0.00    -0.399 OA
HETATM   20  H   UNL     1      69.675   6.711   8.207  1.00  0.00     0.209 HD
ENDBRANCH  18  19
ENDBRANCH  17  18
ENDBRANCH   2  17
TORSDOF 5
ENDMDL
MODEL 3
REMARK VINA RESULT:      -5.3      3.248      7.038
REMARK  5 active torsions:
REMARK  status: ('A' for Active; 'I' for Inactive)
REMARK    1  A    between atoms: N_1  and  C_4 
REMARK    2  A    between atoms: C_2  and  C_4 
REMARK    3  A    between atoms: N_3  and  C_11 
REMARK    4  A    between atoms: C_11  and  C_15 
REMARK    5  A    between atoms: O_13  and  C_15 
ROOT
HETATM    1  N   UNL     1      65.295   6.623   5.971  1.00  0.00    -0.064 N 
HETATM    2  N   UNL     1      63.025   8.567   5.354  1.00  0.00    -0.066 N 
HETATM    3  C   UNL     1      65.430   7.743   5.018  1.00  0.00     0.263 C 
HETATM    4  C   UNL     1      63.872   6.257   6.088  1.00  0.00     0.263 C 
HETATM    5  C   UNL     1      64.457   8.929   5.230  1.00  0.00     0.262 C 
HETATM    6  C   UNL     1      62.897   7.439   6.299  1.00  0.00     0.262 C 
HETATM    7  H   UNL     1      65.815   5.826   5.604  1.00  0.00     0.280 HD
HETATM    8  H   UNL     1      62.483   9.337   5.746  1.00  0.00     0.280 HD
ENDROOT
BRANCH   1   9
HETATM    9  C   UNL     1      65.908   6.906   7.281  1.00  0.00     0.276 C 
BRANCH   9  10
HETATM   10  C   UNL     1      66.958   5.878   7.663  1.00  0.00     0.006 A 
HETATM   11  C   UNL     1      67.552   5.893   8.929  1.00  0.00     0.124 A 
HETATM   12  F   UNL     1      67.129   6.765   9.858  1.00  0.00    -0.206 F 
HETATM   13  C   UNL     1      68.601   5.034   9.246  1.00  0.00     0.043 A 
HETATM   14  C   UNL     1      69.064   4.126   8.292  1.00  0.00     0.003 A 
HETATM   15  C   UNL     1      68.448   4.058   7.044  1.00  0.00     0.001 A 
HETATM   16  C   UNL     1      67.394   4.921   6.733  1.00  0.00     0.012 A 
ENDBRANCH   9  10
ENDBRANCH   1   9
BRANCH   2  17
HETATM   17  C   UNL     1      62.433   8.326   4.019  1.00  0.00     0.260 C 
BRANCH  17  18
HETATM   18  C   UNL     1      62.240   9.604   3.183  1.00  0.00     0.192 C 
BRANCH  18  19
HETATM   19  O   UNL     1      61.149  10.372   3.683  1.00  0.00    -0.399 OA
HETATM   20  H   UNL     1      60.956  10.104   4.595  1.00  0.00     0.209 HD
ENDBRANCH  18  19
ENDBRANCH  17  18
ENDBRANCH   2  17
TORSDOF 5
ENDMDL
MODEL 4
REMARK VINA RESULT:      -5.2      3.364      6.850
REMARK  5 active torsions:
REMARK  status: ('A' for Active; 'I' for Inactive)
REMARK    1  A    between atoms: N_1  and  C_4 
REMARK    2  A    between atoms: C_2  and  C_4 
REMARK    3  A    between atoms: N_3  and  C_11 
REMARK    4  A    between atoms: C_11  and  C_15 
REMARK    5  A    between atoms: O_13  and  C_15 
ROOT
HETATM    1  N   UNL     1      64.332   7.576   6.149  1.00  0.00    -0.064 N 
HETATM    2  N   UNL     1      62.379   7.886   3.825  1.00  0.00    -0.066 N 
HETATM    3  C   UNL     1      62.873   7.387   6.292  1.00  0.00     0.263 C 
HETATM    4  C   UNL     1      64.594   8.450   4.992  1.00  0.00     0.263 C 
HETATM    5  C   UNL     1      62.113   7.014   4.995  1.00  0.00     0.262 C 
HETATM    6  C   UNL     1      63.837   8.082   3.695  1.00  0.00     0.262 C 
HETATM    7  H   UNL     1      64.680   8.029   6.995  1.00  0.00     0.280 HD
HETATM    8  H   UNL     1      62.066   7.446   2.960  1.00  0.00     0.280 HD
ENDROOT
BRANCH   1   9
HETATM    9  C   UNL     1      65.072   6.304   6.068  1.00  0.00     0.276 C 
BRANCH   9  10
HETATM   10  C   UNL     1      66.206   6.228   7.073  1.00  0.00     0.006 A 
HETATM   11  C   UNL     1      67.462   5.736   6.706  1.00  0.00     0.124 A 
HETATM   12  F   UNL     1      67.706   5.410   5.426  1.00  0.00    -0.206 F 
HETATM   13  C   UNL     1      68.469   5.547   7.648  1.00  0.00     0.043 A 
HETATM   14  C   UNL     1      68.234   5.869   8.986  1.00  0.00     0.003 A 
HETATM   15  C   UNL     1      67.008   6.413   9.362  1.00  0.00     0.001 A 
HETATM   16  C   UNL     1      66.001   6.602   8.412  1.00  0.00     0.012 A 
ENDBRANCH   9  10
ENDBRANCH   1   9
BRANCH   2  17
HETATM   17  C   UNL     1      61.592   9.136   3.922  1.00  0.00     0.260 C 
BRANCH  17  18
HETATM   18  C   UNL     1      61.959  10.187   2.860  1.00  0.00     0.192 C 
BRANCH  18  19
HETATM   19  O   UNL     1      61.544  11.487   3.274  1.00  0.00    -0.399 OA
HETATM   20  H   UNL     1      60.584  11.491   3.413  1.00  0.00     0.209 HD
ENDBRANCH  18  19
ENDBRANCH  17  18
ENDBRANCH   2  17
TORSDOF 5
ENDMDL
MODEL 5
REMARK VINA RESULT:      -5.1      3.843      8.274
REMARK  5 active torsions:
REMARK  status: ('A' for Active; 'I' for Inactive)
REMARK    1  A    between atoms: N_1  and  C_4 
REMARK    2  A    between atoms: C_2  and  C_4 
REMARK    3  A    between atoms: N_3  and  C_11 
REMARK    4  A    between atoms: C_11  and  C_15 
REMARK    5  A    between atoms: O_13  and  C_15 
ROOT
HETATM    1  N   UNL     1      67.397   4.717   6.809  1.00  0.00    -0.064 N 
HETATM    2  N   UNL     1      65.982   7.419   6.899  1.00  0.00    -0.066 N 
HETATM    3  C   UNL     1      67.453   5.695   5.701  1.00  0.00     0.263 C 
HETATM    4  C   UNL     1      66.180   4.959   7.604  1.00  0.00     0.263 C 
HETATM    5  C   UNL     1      67.201   7.172   6.093  1.00  0.00     0.262 C 
HETATM    6  C   UNL     1      65.924   6.433   7.997  1.00  0.00     0.262 C 
HETATM    7  H   UNL     1      67.352   3.781   6.407  1.00  0.00     0.280 HD
HETATM    8  H   UNL     1      66.011   8.340   7.338  1.00  0.00     0.280 HD
ENDROOT
BRANCH   1   9
HETATM    9  C   UNL     1      68.615   4.717   7.638  1.00  0.00     0.276 C 
BRANCH   9  10
HETATM   10  C   UNL     1      68.866   3.374   8.298  1.00  0.00     0.006 A 
HETATM   11  C   UNL     1      69.194   3.288   9.654  1.00  0.00     0.124 A 
HETATM   12  F   UNL     1      69.198   4.395  10.413  1.00  0.00    -0.206 F 
HETATM   13  C   UNL     1      69.547   2.075  10.238  1.00  0.00     0.043 A 
HETATM   14  C   UNL     1      69.559   0.913   9.465  1.00  0.00     0.003 A 
HETATM   15  C   UNL     1      69.182   0.968   8.125  1.00  0.00     0.001 A 
HETATM   16  C   UNL     1      68.828   2.189   7.545  1.00  0.00     0.012 A 
ENDBRANCH   9  10
ENDBRANCH   1   9
BRANCH   2  17
HETATM   17  C   UNL     1      64.783   7.450   6.031  1.00  0.00     0.260 C 
BRANCH  17  18
HETATM   18  C   UNL     1      64.753   8.636   5.051  1.00  0.00     0.192 C 
BRANCH  18  19
HETATM   19  O   UNL     1      64.577   9.864   5.753  1.00  0.00    -0.399 OA
HETATM   20  H   UNL     1      65.076   9.836   6.585  1.00  0.00     0.209 HD
ENDBRANCH  18  19
ENDBRANCH  17  18
ENDBRANCH   2  17
TORSDOF 5
ENDMDL
MODEL 6
REMARK VINA RESULT:      -5.1      1.719      2.181
REMARK  5 active torsions:
REMARK  status: ('A' for Active; 'I' for Inactive)
REMARK    1  A    between atoms: N_1  and  C_4 
REMARK    2  A    between atoms: C_2  and  C_4 
REMARK    3  A    between atoms: N_3  and  C_11 
REMARK    4  A    between atoms: C_11  and  C_15 
REMARK    5  A    between atoms: O_13  and  C_15 
ROOT
HETATM    1  N   UNL     1      64.300   7.602   4.417  1.00  0.00    -0.064 N 
HETATM    2  N   UNL     1      65.181   5.462   6.407  1.00  0.00    -0.066 N 
HETATM    3  C   UNL     1      64.567   6.201   4.029  1.00  0.00     0.263 C 
HETATM    4  C   UNL     1      65.046   7.911   5.650  1.00  0.00     0.263 C 
HETATM    5  C   UNL     1      64.438   5.153   5.161  1.00  0.00     0.262 C 
HETATM    6  C   UNL     1      64.920   6.867   6.784  1.00  0.00     0.262 C 
HETATM    7  H   UNL     1      64.629   8.210   3.667  1.00  0.00     0.280 HD
HETATM    8  H   UNL     1      64.852   4.888   7.183  1.00  0.00     0.280 HD
ENDROOT
BRANCH   1   9
HETATM    9  C   UNL     1      62.862   7.899   4.544  1.00  0.00     0.276 C 
BRANCH   9  10
HETATM   10  C   UNL     1      62.428   9.049   3.653  1.00  0.00     0.006 A 
HETATM   11  C   UNL     1      62.324   8.886   2.269  1.00  0.00     0.124 A 
HETATM   12  F   UNL     1      62.518   7.677   1.719  1.00  0.00    -0.206 F 
HETATM   13  C   UNL     1      62.047   9.965   1.432  1.00  0.00     0.043 A 
HETATM   14  C   UNL     1      61.852  11.233   1.981  1.00  0.00     0.003 A 
HETATM   15  C   UNL     1      61.896  11.405   3.363  1.00  0.00     0.001 A 
HETATM   16  C   UNL     1      62.173  10.319   4.197  1.00  0.00     0.012 A 
ENDBRANCH   9  10
ENDBRANCH   1   9
BRANCH   2  17
HETATM   17  C   UNL     1      66.612   5.117   6.257  1.00  0.00     0.260 C 
BRANCH  17  18
HETATM   18  C   UNL     1      67.373   5.018   7.590  1.00  0.00     0.192 C 
BRANCH  18  19
HETATM   19  O   UNL     1      66.627   4.262   8.540  1.00  0.00    -0.399 OA
HETATM   20  H   UNL     1      66.578   4.751   9.377  1.00  0.00     0.209 HD
ENDBRANCH  18  19
ENDBRANCH  17  18
ENDBRANCH   2  17
TORSDOF 5
ENDMDL
MODEL 7
REMARK VINA RESULT:      -5.1      2.750      4.307
REMARK  5 active torsions:
REMARK  status: ('A' for Active; 'I' for Inactive)
REMARK    1  A    between atoms: N_1  and  C_4 
REMARK    2  A    between atoms: C_2  and  C_4 
REMARK    3  A    between atoms: N_3  and  C_11 
REMARK    4  A    between atoms: C_11  and  C_15 
REMARK    5  A    between atoms: O_13  and  C_15 
ROOT
HETATM    1  N   UNL     1      66.743   5.308   7.096  1.00  0.00    -0.064 N 
HETATM    2  N   UNL     1      68.978   3.736   8.455  1.00  0.00    -0.066 N 
HETATM    3  C   UNL     1      67.327   5.697   8.397  1.00  0.00     0.263 C 
HETATM    4  C   UNL     1      66.950   3.864   6.888  1.00  0.00     0.263 C 
HETATM    5  C   UNL     1      68.764   5.188   8.670  1.00  0.00     0.262 C 
HETATM    6  C   UNL     1      68.383   3.351   7.160  1.00  0.00     0.262 C 
HETATM    7  H   UNL     1      65.742   5.502   7.124  1.00  0.00     0.280 HD
HETATM    8  H   UNL     1      69.973   3.516   8.395  1.00  0.00     0.280 HD
ENDROOT
BRANCH   1   9
HETATM    9  C   UNL     1      67.255   6.114   5.973  1.00  0.00     0.276 C 
BRANCH   9  10
HETATM   10  C   UNL     1      66.148   6.836   5.228  1.00  0.00     0.006 A 
HETATM   11  C   UNL     1      65.716   8.103   5.632  1.00  0.00     0.124 A 
HETATM   12  F   UNL     1      66.346   8.737   6.634  1.00  0.00    -0.206 F 
HETATM   13  C   UNL     1      64.621   8.720   5.033  1.00  0.00     0.043 A 
HETATM   14  C   UNL     1      63.945   8.075   3.996  1.00  0.00     0.003 A 
HETATM   15  C   UNL     1      64.395   6.836   3.542  1.00  0.00     0.001 A 
HETATM   16  C   UNL     1      65.495   6.223   4.146  1.00  0.00     0.012 A 
ENDBRANCH   9  10
ENDBRANCH   1   9
BRANCH   2  17
HETATM   17  C   UNL     1      68.488   2.962   9.618  1.00  0.00     0.260 C 
BRANCH  17  18
HETATM   18  C   UNL     1      69.453   1.858  10.084  1.00  0.00     0.192 C 
BRANCH  18  19
HETATM   19  O   UNL     1      69.936   2.134  11.397  1.00  0.00    -0.399 OA
HETATM   20  H   UNL     1      70.627   1.495  11.628  1.00  0.00     0.209 HD
ENDBRANCH  18  19
ENDBRANCH  17  18
ENDBRANCH   2  17
TORSDOF 5
ENDMDL
MODEL 8
REMARK VINA RESULT:      -4.8     19.744     22.970
REMARK  5 active torsions:
REMARK  status: ('A' for Active; 'I' for Inactive)
REMARK    1  A    between atoms: N_1  and  C_4 
REMARK    2  A    between atoms: C_2  and  C_4 
REMARK    3  A    between atoms: N_3  and  C_11 
REMARK    4  A    between atoms: C_11  and  C_15 
REMARK    5  A    between atoms: O_13  and  C_15 
ROOT
HETATM    1  N   UNL     1      79.506  12.667  21.785  1.00  0.00    -0.064 N 
HETATM    2  N   UNL     1      80.922  12.650  24.488  1.00  0.00    -0.066 N 
HETATM    3  C   UNL     1      80.702  13.485  22.073  1.00  0.00     0.263 C 
HETATM    4  C   UNL     1      78.816  12.358  23.050  1.00  0.00     0.263 C 
HETATM    5  C   UNL     1      81.612  12.969  23.215  1.00  0.00     0.262 C 
HETATM    6  C   UNL     1      79.721  11.842  24.193  1.00  0.00     0.262 C 
HETATM    7  H   UNL     1      78.882  13.211  21.189  1.00  0.00     0.280 HD
HETATM    8  H   UNL     1      81.513  12.081  25.094  1.00  0.00     0.280 HD
ENDROOT
BRANCH   1   9
HETATM    9  C   UNL     1      79.814  11.454  21.006  1.00  0.00     0.276 C 
BRANCH   9  10
HETATM   10  C   UNL     1      78.764  11.163  19.950  1.00  0.00     0.006 A 
HETATM   11  C   UNL     1      78.922  10.104  19.051  1.00  0.00     0.124 A 
HETATM   12  F   UNL     1      79.967   9.270  19.174  1.00  0.00    -0.206 F 
HETATM   13  C   UNL     1      78.028   9.904  18.002  1.00  0.00     0.043 A 
HETATM   14  C   UNL     1      76.939  10.765  17.849  1.00  0.00     0.003 A 
HETATM   15  C   UNL     1      76.733  11.792  18.767  1.00  0.00     0.001 A 
HETATM   16  C   UNL     1      77.634  11.986  19.818  1.00  0.00     0.012 A 
ENDBRANCH   9  10
ENDBRANCH   1   9
BRANCH   2  17
HETATM   17  C   UNL     1      80.663  13.886  25.260  1.00  0.00     0.260 C 
BRANCH  17  18
HETATM   18  C   UNL     1      81.858  14.854  25.309  1.00  0.00     0.192 C 
BRANCH  18  19
HETATM   19  O   UNL     1      81.550  15.993  26.107  1.00  0.00    -0.399 OA
HETATM   20  H   UNL     1      81.343  16.746  25.531  1.00  0.00     0.209 HD
ENDBRANCH  18  19
ENDBRANCH  17  18
ENDBRANCH   2  17
TORSDOF 5
ENDMDL
MODEL 9
REMARK VINA RESULT:      -4.7     18.337     22.062
REMARK  5 active torsions:
REMARK  status: ('A' for Active; 'I' for Inactive)
REMARK    1  A    between atoms: N_1  and  C_4 
REMARK    2  A    between atoms: C_2  and  C_4 
REMARK    3  A    between atoms: N_3  and  C_11 
REMARK    4  A    between atoms: C_11  and  C_15 
REMARK    5  A    between atoms: O_13  and  C_15 
ROOT
HETATM    1  N   UNL     1      78.473  12.317  20.416  1.00  0.00    -0.064 N 
HETATM    2  N   UNL     1      76.853  10.695  18.401  1.00  0.00    -0.066 N 
HETATM    3  C   UNL     1      77.473  12.922  19.512  1.00  0.00     0.263 C 
HETATM    4  C   UNL     1      78.959  11.057  19.824  1.00  0.00     0.263 C 
HETATM    5  C   UNL     1      76.370  11.967  18.992  1.00  0.00     0.262 C 
HETATM    6  C   UNL     1      77.861  10.101  19.303  1.00  0.00     0.262 C 
HETATM    7  H   UNL     1      79.255  12.965  20.508  1.00  0.00     0.280 HD
HETATM    8  H   UNL     1      76.096  10.016  18.323  1.00  0.00     0.280 HD
ENDROOT
BRANCH   1   9
HETATM    9  C   UNL     1      77.970  12.132  21.789  1.00  0.00     0.276 C 
BRANCH   9  10
HETATM   10  C   UNL     1      79.064  12.274  22.830  1.00  0.00     0.006 A 
HETATM   11  C   UNL     1      78.939  11.684  24.091  1.00  0.00     0.124 A 
HETATM   12  F   UNL     1      77.883  10.901  24.363  1.00  0.00    -0.206 F 
HETATM   13  C   UNL     1      79.878  11.911  25.094  1.00  0.00     0.043 A 
HETATM   14  C   UNL     1      80.979  12.730  24.837  1.00  0.00     0.003 A 
HETATM   15  C   UNL     1      81.151  13.283  23.570  1.00  0.00     0.001 A 
HETATM   16  C   UNL     1      80.206  13.050  22.568  1.00  0.00     0.012 A 
ENDBRANCH   9  10
ENDBRANCH   1   9
BRANCH   2  17
HETATM   17  C   UNL     1      77.315  10.911  17.012  1.00  0.00     0.260 C 
BRANCH  17  18
HETATM   18  C   UNL     1      77.771   9.626  16.300  1.00  0.00     0.192 C 
BRANCH  18  19
HETATM   19  O   UNL     1      77.813   9.821  14.888  1.00  0.00    -0.399 OA
HETATM   20  H   UNL     1      78.616  10.311  14.653  1.00  0.00     0.209 HD
ENDBRANCH  18  19
ENDBRANCH  17  18
ENDBRANCH   2  17
TORSDOF 5
ENDMDL
