MODEL 1
REMARK VINA RESULT:      -5.9      0.000      0.000
REMARK  5 active torsions:
REMARK  status: ('A' for Active; 'I' for Inactive)
REMARK    1  A    between atoms: N_1  and  C_3 
REMARK    2  A    between atoms: N_2  and  C_15 
REMARK    3  A    between atoms: C_3  and  C_8 
REMARK    4  A    between atoms: C_15  and  C_17 
REMARK    5  A    between atoms: O_16  and  C_17 
ROOT
HETATM    1  N   UNL     1      63.833   8.119   5.594  1.00  0.00    -0.064 N 
HETATM    2  N   UNL     1      66.108   6.134   6.123  1.00  0.00    -0.066 N 
HETATM    3  C   UNL     1      65.258   8.482   5.475  1.00  0.00     0.263 C 
HETATM    4  C   UNL     1      63.710   6.980   6.525  1.00  0.00     0.263 C 
HETATM    5  C   UNL     1      66.232   7.300   5.218  1.00  0.00     0.262 C 
HETATM    6  C   UNL     1      64.680   5.791   6.281  1.00  0.00     0.262 C 
HETATM    7  H   UNL     1      63.328   8.927   5.959  1.00  0.00     0.280 HD
HETATM    8  H   UNL     1      66.577   5.329   5.709  1.00  0.00     0.280 HD
ENDROOT
BRANCH   1   9
HETATM    9  C   UNL     1      63.202   7.819   4.297  1.00  0.00     0.273 C 
BRANCH   9  10
HETATM   10  C   UNL     1      62.608   9.025   3.578  1.00  0.00    -0.032 A 
HETATM   11  C   UNL     1      62.352  10.213   4.280  1.00  0.00     0.012 A 
HETATM   12  C   UNL     1      61.938  11.369   3.611  1.00  0.00     0.043 A 
HETATM   13  C   UNL     1      61.782  11.344   2.231  1.00  0.00     0.116 A 
HETATM   14  C   UNL     1      62.013  10.177   1.512  1.00  0.00     0.043 A 
HETATM   15  F   UNL     1      61.424  12.461   1.584  1.00  0.00    -0.206 F 
HETATM   16  C   UNL     1      62.419   9.019   2.182  1.00  0.00     0.012 A 
ENDBRANCH   9  10
ENDBRANCH   1   9
BRANCH   2  17
HETATM   17  C   UNL     1      66.803   6.363   7.408  1.00  0.00     0.260 C 
BRANCH  17  18
HETATM   18  C   UNL     1      67.945   5.355   7.661  1.00  0.00     0.192 C 
BRANCH  18  19
HETATM   19  O   UNL     1      69.106   6.027   8.147  1.00  0.00    -0.399 OA
HETATM   20  H   UNL     1      68.850   6.885   8.518  1.00  0.00     0.209 HD
ENDBRANCH  18  19
ENDBRANCH  17  18
ENDBRANCH   2  17
TORSDOF 5
ENDMDL
MODEL 2
REMARK VINA RESULT:      -5.8      0.938      1.920
REMARK  5 active torsions:
REMARK  status: ('A' for Active; 'I' for Inactive)
REMARK    1  A    between atoms: N_1  and  C_3 
REMARK    2  A    between atoms: N_2  and  C_15 
REMARK    3  A    between atoms: C_3  and  C_8 
REMARK    4  A    between atoms: C_15  and  C_17 
REMARK    5  A    between atoms: O_16  and  C_17 
ROOT
HETATM    1  N   UNL     1      64.314   7.114   4.955  1.00  0.00    -0.064 N 
HETATM    2  N   UNL     1      66.547   7.038   7.053  1.00  0.00    -0.066 N 
HETATM    3  C   UNL     1      64.542   5.957   5.842  1.00  0.00     0.263 C 
HETATM    4  C   UNL     1      65.581   7.859   4.813  1.00  0.00     0.263 C 
HETATM    5  C   UNL     1      65.287   6.267   7.169  1.00  0.00     0.262 C 
HETATM    6  C   UNL     1      66.339   8.174   6.132  1.00  0.00     0.262 C 
HETATM    7  H   UNL     1      64.010   6.762   4.046  1.00  0.00     0.280 HD
HETATM    8  H   UNL     1      66.798   7.420   7.965  1.00  0.00     0.280 HD
ENDROOT
BRANCH   1   9
HETATM    9  C   UNL     1      63.226   7.992   5.416  1.00  0.00     0.273 C 
BRANCH   9  10
HETATM   10  C   UNL     1      62.836   9.098   4.443  1.00  0.00    -0.032 A 
HETATM   11  C   UNL     1      62.568   8.796   3.098  1.00  0.00     0.012 A 
HETATM   12  C   UNL     1      62.076   9.773   2.226  1.00  0.00     0.043 A 
HETATM   13  C   UNL     1      61.844  11.059   2.697  1.00  0.00     0.116 A 
HETATM   14  C   UNL     1      62.116  11.390   4.020  1.00  0.00     0.043 A 
HETATM   15  F   UNL     1      61.336  11.985   1.874  1.00  0.00    -0.206 F 
HETATM   16  C   UNL     1      62.615  10.416   4.890  1.00  0.00     0.012 A 
ENDBRANCH   9  10
ENDBRANCH   1   9
BRANCH   2  17
HETATM   17  C   UNL     1      67.684   6.174   6.673  1.00  0.00     0.260 C 
BRANCH  17  18
HETATM   18  C   UNL     1      68.346   5.483   7.886  1.00  0.00     0.192 C 
BRANCH  18  19
HETATM   19  O   UNL     1      68.392   6.372   9.001  1.00  0.00    -0.399 OA
HETATM   20  H   UNL     1      67.666   6.166   9.609  1.00  0.00     0.209 HD
ENDBRANCH  18  19
ENDBRANCH  17  18
ENDBRANCH   2  17
TORSDOF 5
ENDMDL
MODEL 3
REMARK VINA RESULT:      -5.3      4.426      7.806
REMARK  5 active torsions:
REMARK  status: ('A' for Active; 'I' for Inactive)
REMARK    1  A    between atoms: N_1  and  C_3 
REMARK    2  A    between atoms: N_2  and  C_15 
REMARK    3  A    between atoms: C_3  and  C_8 
REMARK    4  A    between atoms: C_15  and  C_17 
REMARK    5  A    between atoms: O_16  and  C_17 
ROOT
HETATM    1  N   UNL     1      65.362   6.711   5.924  1.00  0.00    -0.064 N 
HETATM    2  N   UNL     1      63.024   8.638   5.461  1.00  0.00    -0.066 N 
HETATM    3  C   UNL     1      65.423   7.830   4.965  1.00  0.00     0.263 C 
HETATM    4  C   UNL     1      63.949   6.327   6.115  1.00  0.00     0.263 C 
HETATM    5  C   UNL     1      64.442   9.003   5.239  1.00  0.00     0.262 C 
HETATM    6  C   UNL     1      62.956   7.490   6.388  1.00  0.00     0.262 C 
HETATM    7  H   UNL     1      65.889   5.929   5.534  1.00  0.00     0.280 HD
HETATM    8  H   UNL     1      62.535   9.419   5.898  1.00  0.00     0.280 HD
ENDROOT
BRANCH   1   9
HETATM    9  C   UNL     1      66.011   7.016   7.211  1.00  0.00     0.273 C 
BRANCH   9  10
HETATM   10  C   UNL     1      67.000   5.963   7.696  1.00  0.00    -0.032 A 
HETATM   11  C   UNL     1      67.420   4.935   6.837  1.00  0.00     0.012 A 
HETATM   12  C   UNL     1      68.428   4.044   7.219  1.00  0.00     0.043 A 
HETATM   13  C   UNL     1      69.028   4.180   8.464  1.00  0.00     0.116 A 
HETATM   14  C   UNL     1      68.621   5.179   9.342  1.00  0.00     0.043 A 
HETATM   15  F   UNL     1      70.021   3.353   8.816  1.00  0.00    -0.206 F 
HETATM   16  C   UNL     1      67.608   6.064   8.963  1.00  0.00     0.012 A 
ENDBRANCH   9  10
ENDBRANCH   1   9
BRANCH   2  17
HETATM   17  C   UNL     1      62.313   8.407   4.186  1.00  0.00     0.260 C 
BRANCH  17  18
HETATM   18  C   UNL     1      62.239   9.671   3.302  1.00  0.00     0.192 C 
BRANCH  18  19
HETATM   19  O   UNL     1      61.211  10.545   3.767  1.00  0.00    -0.399 OA
HETATM   20  H   UNL     1      60.800  10.167   4.559  1.00  0.00     0.209 HD
ENDBRANCH  18  19
ENDBRANCH  17  18
ENDBRANCH   2  17
TORSDOF 5
ENDMDL
MODEL 4
REMARK VINA RESULT:      -5.2      1.698      2.601
REMARK  5 active torsions:
REMARK  status: ('A' for Active; 'I' for Inactive)
REMARK    1  A    between atoms: N_1  and  C_3 
REMARK    2  A    between atoms: N_2  and  C_15 
REMARK    3  A    between atoms: C_3  and  C_8 
REMARK    4  A    between atoms: C_15  and  C_17 
REMARK    5  A    between atoms: O_16  and  C_17 
ROOT
HETATM    1  N   UNL     1      65.467   6.587   6.068  1.00  0.00    -0.064 N 
HETATM    2  N   UNL     1      67.947   6.213   7.829  1.00  0.00    -0.066 N 
HETATM    3  C   UNL     1      65.402   6.522   7.540  1.00  0.00     0.263 C 
HETATM    4  C   UNL     1      66.679   5.877   5.615  1.00  0.00     0.263 C 
HETATM    5  C   UNL     1      66.713   6.894   8.286  1.00  0.00     0.262 C 
HETATM    6  C   UNL     1      67.997   6.237   6.352  1.00  0.00     0.262 C 
HETATM    7  H   UNL     1      64.633   6.134   5.693  1.00  0.00     0.280 HD
HETATM    8  H   UNL     1      68.763   6.718   8.175  1.00  0.00     0.280 HD
ENDROOT
BRANCH   1   9
HETATM    9  C   UNL     1      65.428   7.965   5.547  1.00  0.00     0.273 C 
BRANCH   9  10
HETATM   10  C   UNL     1      64.223   8.287   4.673  1.00  0.00    -0.032 A 
HETATM   11  C   UNL     1      63.453   9.434   4.922  1.00  0.00     0.012 A 
HETATM   12  C   UNL     1      62.430   9.819   4.048  1.00  0.00     0.043 A 
HETATM   13  C   UNL     1      62.174   9.058   2.915  1.00  0.00     0.116 A 
HETATM   14  C   UNL     1      62.910   7.908   2.652  1.00  0.00     0.043 A 
HETATM   15  F   UNL     1      61.222   9.446   2.057  1.00  0.00    -0.206 F 
HETATM   16  C   UNL     1      63.927   7.520   3.528  1.00  0.00     0.012 A 
ENDBRANCH   9  10
ENDBRANCH   1   9
BRANCH   2  17
HETATM   17  C   UNL     1      68.065   4.855   8.400  1.00  0.00     0.260 C 
BRANCH  17  18
HETATM   18  C   UNL     1      69.440   4.596   9.054  1.00  0.00     0.192 C 
BRANCH  18  19
HETATM   19  O   UNL     1      69.281   3.908  10.294  1.00  0.00    -0.399 OA
HETATM   20  H   UNL     1      68.450   4.183  10.711  1.00  0.00     0.209 HD
ENDBRANCH  18  19
ENDBRANCH  17  18
ENDBRANCH   2  17
TORSDOF 5
ENDMDL
MODEL 5
REMARK VINA RESULT:      -5.2      5.128      8.583
REMARK  5 active torsions:
REMARK  status: ('A' for Active; 'I' for Inactive)
REMARK    1  A    between atoms: N_1  and  C_3 
REMARK    2  A    between atoms: N_2  and  C_15 
REMARK    3  A    between atoms: C_3  and  C_8 
REMARK    4  A    between atoms: C_15  and  C_17 
REMARK    5  A    between atoms: O_16  and  C_17 
ROOT
HETATM    1  N   UNL     1      67.345   5.608   6.046  1.00  0.00    -0.064 N 
HETATM    2  N   UNL     1      65.099   7.655   6.446  1.00  0.00    -0.066 N 
HETATM    3  C   UNL     1      67.193   6.808   5.201  1.00  0.00     0.263 C 
HETATM    4  C   UNL     1      66.028   5.261   6.616  1.00  0.00     0.263 C 
HETATM    5  C   UNL     1      66.411   7.986   5.844  1.00  0.00     0.262 C 
HETATM    6  C   UNL     1      65.233   6.430   7.261  1.00  0.00     0.262 C 
HETATM    7  H   UNL     1      67.685   4.846   5.459  1.00  0.00     0.280 HD
HETATM    8  H   UNL     1      64.809   8.410   7.068  1.00  0.00     0.280 HD
ENDROOT
BRANCH   1   9
HETATM    9  C   UNL     1      68.359   5.768   7.102  1.00  0.00     0.273 C 
BRANCH   9  10
HETATM   10  C   UNL     1      68.645   4.511   7.914  1.00  0.00    -0.032 A 
HETATM   11  C   UNL     1      68.758   3.265   7.276  1.00  0.00     0.012 A 
HETATM   12  C   UNL     1      69.155   2.127   7.985  1.00  0.00     0.043 A 
HETATM   13  C   UNL     1      69.448   2.230   9.339  1.00  0.00     0.116 A 
HETATM   14  C   UNL     1      69.329   3.447  10.000  1.00  0.00     0.043 A 
HETATM   15  F   UNL     1      69.867   1.149  10.011  1.00  0.00    -0.206 F 
HETATM   16  C   UNL     1      68.924   4.583   9.294  1.00  0.00     0.012 A 
ENDBRANCH   9  10
ENDBRANCH   1   9
BRANCH   2  17
HETATM   17  C   UNL     1      64.034   7.569   5.425  1.00  0.00     0.260 C 
BRANCH  17  18
HETATM   18  C   UNL     1      62.640   7.296   6.031  1.00  0.00     0.192 C 
BRANCH  18  19
HETATM   19  O   UNL     1      62.435   8.100   7.192  1.00  0.00    -0.399 OA
HETATM   20  H   UNL     1      61.583   8.557   7.121  1.00  0.00     0.209 HD
ENDBRANCH  18  19
ENDBRANCH  17  18
ENDBRANCH   2  17
TORSDOF 5
ENDMDL
MODEL 6
REMARK VINA RESULT:      -5.0      4.513      7.870
REMARK  5 active torsions:
REMARK  status: ('A' for Active; 'I' for Inactive)
REMARK    1  A    between atoms: N_1  and  C_3 
REMARK    2  A    between atoms: N_2  and  C_15 
REMARK    3  A    between atoms: C_3  and  C_8 
REMARK    4  A    between atoms: C_15  and  C_17 
REMARK    5  A    between atoms: O_16  and  C_17 
ROOT
HETATM    1  N   UNL     1      65.245   6.575   6.587  1.00  0.00    -0.064 N 
HETATM    2  N   UNL     1      63.488   7.540   4.269  1.00  0.00    -0.066 N 
HETATM    3  C   UNL     1      63.864   6.101   6.376  1.00  0.00     0.263 C 
HETATM    4  C   UNL     1      65.389   7.907   5.965  1.00  0.00     0.263 C 
HETATM    5  C   UNL     1      63.329   6.221   4.922  1.00  0.00     0.262 C 
HETATM    6  C   UNL     1      64.856   8.042   4.512  1.00  0.00     0.262 C 
HETATM    7  H   UNL     1      65.409   6.638   7.592  1.00  0.00     0.280 HD
HETATM    8  H   UNL     1      63.370   7.438   3.261  1.00  0.00     0.280 HD
ENDROOT
BRANCH   1   9
HETATM    9  C   UNL     1      66.263   5.637   6.084  1.00  0.00     0.273 C 
BRANCH   9  10
HETATM   10  C   UNL     1      67.355   5.278   7.083  1.00  0.00    -0.032 A 
HETATM   11  C   UNL     1      67.472   5.985   8.291  1.00  0.00     0.012 A 
HETATM   12  C   UNL     1      68.377   5.580   9.277  1.00  0.00     0.043 A 
HETATM   13  C   UNL     1      69.169   4.459   9.063  1.00  0.00     0.116 A 
HETATM   14  C   UNL     1      69.086   3.750   7.871  1.00  0.00     0.043 A 
HETATM   15  F   UNL     1      70.008   4.047  10.022  1.00  0.00    -0.206 F 
HETATM   16  C   UNL     1      68.187   4.159   6.881  1.00  0.00     0.012 A 
ENDBRANCH   9  10
ENDBRANCH   1   9
BRANCH   2  17
HETATM   17  C   UNL     1      62.431   8.487   4.684  1.00  0.00     0.260 C 
BRANCH  17  18
HETATM   18  C   UNL     1      62.460   9.808   3.885  1.00  0.00     0.192 C 
BRANCH  18  19
HETATM   19  O   UNL     1      61.144  10.346   3.763  1.00  0.00    -0.399 OA
HETATM   20  H   UNL     1      60.591   9.735   3.251  1.00  0.00     0.209 HD
ENDBRANCH  18  19
ENDBRANCH  17  18
ENDBRANCH   2  17
TORSDOF 5
ENDMDL
MODEL 7
REMARK VINA RESULT:      -5.0      2.534      3.889
REMARK  5 active torsions:
REMARK  status: ('A' for Active; 'I' for Inactive)
REMARK    1  A    between atoms: N_1  and  C_3 
REMARK    2  A    between atoms: N_2  and  C_15 
REMARK    3  A    between atoms: C_3  and  C_8 
REMARK    4  A    between atoms: C_15  and  C_17 
REMARK    5  A    between atoms: O_16  and  C_17 
ROOT
HETATM    1  N   UNL     1      65.716   5.844   7.689  1.00  0.00    -0.064 N 
HETATM    2  N   UNL     1      68.404   4.473   8.225  1.00  0.00    -0.066 N 
HETATM    3  C   UNL     1      66.439   5.970   8.969  1.00  0.00     0.263 C 
HETATM    4  C   UNL     1      66.125   4.585   7.036  1.00  0.00     0.263 C 
HETATM    5  C   UNL     1      67.971   5.718   8.901  1.00  0.00     0.262 C 
HETATM    6  C   UNL     1      67.653   4.319   6.962  1.00  0.00     0.262 C 
HETATM    7  H   UNL     1      64.715   5.827   7.890  1.00  0.00     0.280 HD
HETATM    8  H   UNL     1      69.395   4.540   7.990  1.00  0.00     0.280 HD
ENDROOT
BRANCH   1   9
HETATM    9  C   UNL     1      65.914   6.999   6.797  1.00  0.00     0.273 C 
BRANCH   9  10
HETATM   10  C   UNL     1      64.697   7.384   5.964  1.00  0.00    -0.032 A 
HETATM   11  C   UNL     1      63.434   6.851   6.267  1.00  0.00     0.012 A 
HETATM   12  C   UNL     1      62.287   7.298   5.604  1.00  0.00     0.043 A 
HETATM   13  C   UNL     1      62.396   8.287   4.634  1.00  0.00     0.116 A 
HETATM   14  C   UNL     1      63.637   8.821   4.303  1.00  0.00     0.043 A 
HETATM   15  F   UNL     1      61.294   8.744   4.026  1.00  0.00    -0.206 F 
HETATM   16  C   UNL     1      64.784   8.369   4.960  1.00  0.00     0.012 A 
ENDBRANCH   9  10
ENDBRANCH   1   9
BRANCH   2  17
HETATM   17  C   UNL     1      68.301   3.301   9.119  1.00  0.00     0.260 C 
BRANCH  17  18
HETATM   18  C   UNL     1      69.673   2.812   9.630  1.00  0.00     0.192 C 
BRANCH  18  19
HETATM   19  O   UNL     1      69.916   3.299  10.950  1.00  0.00    -0.399 OA
HETATM   20  H   UNL     1      70.079   4.254  10.916  1.00  0.00     0.209 HD
ENDBRANCH  18  19
ENDBRANCH  17  18
ENDBRANCH   2  17
TORSDOF 5
ENDMDL
MODEL 8
REMARK VINA RESULT:      -4.9      3.349      5.212
REMARK  5 active torsions:
REMARK  status: ('A' for Active; 'I' for Inactive)
REMARK    1  A    between atoms: N_1  and  C_3 
REMARK    2  A    between atoms: N_2  and  C_15 
REMARK    3  A    between atoms: C_3  and  C_8 
REMARK    4  A    between atoms: C_15  and  C_17 
REMARK    5  A    between atoms: O_16  and  C_17 
ROOT
HETATM    1  N   UNL     1      68.201   5.826   7.478  1.00  0.00    -0.064 N 
HETATM    2  N   UNL     1      68.216   3.324   9.249  1.00  0.00    -0.066 N 
HETATM    3  C   UNL     1      67.684   4.520   7.026  1.00  0.00     0.263 C 
HETATM    4  C   UNL     1      69.196   5.597   8.546  1.00  0.00     0.263 C 
HETATM    5  C   UNL     1      67.244   3.546   8.154  1.00  0.00     0.262 C 
HETATM    6  C   UNL     1      68.770   4.625   9.679  1.00  0.00     0.262 C 
HETATM    7  H   UNL     1      68.641   6.287   6.681  1.00  0.00     0.280 HD
HETATM    8  H   UNL     1      67.738   2.911  10.050  1.00  0.00     0.280 HD
ENDROOT
BRANCH   1   9
HETATM    9  C   UNL     1      67.141   6.746   7.924  1.00  0.00     0.273 C 
BRANCH   9  10
HETATM   10  C   UNL     1      66.079   7.057   6.876  1.00  0.00    -0.032 A 
HETATM   11  C   UNL     1      64.776   6.556   7.016  1.00  0.00     0.012 A 
HETATM   12  C   UNL     1      63.757   6.944   6.140  1.00  0.00     0.043 A 
HETATM   13  C   UNL     1      64.036   7.843   5.118  1.00  0.00     0.116 A 
HETATM   14  C   UNL     1      65.322   8.343   4.946  1.00  0.00     0.043 A 
HETATM   15  F   UNL     1      63.053   8.246   4.303  1.00  0.00    -0.206 F 
HETATM   16  C   UNL     1      66.342   7.949   5.816  1.00  0.00     0.012 A 
ENDBRANCH   9  10
ENDBRANCH   1   9
BRANCH   2  17
HETATM   17  C   UNL     1      69.251   2.340   8.871  1.00  0.00     0.260 C 
BRANCH  17  18
HETATM   18  C   UNL     1      69.767   1.518  10.072  1.00  0.00     0.192 C 
BRANCH  18  19
HETATM   19  O   UNL     1      68.897   1.673  11.193  1.00  0.00    -0.399 OA
HETATM   20  H   UNL     1      68.672   0.801  11.550  1.00  0.00     0.209 HD
ENDBRANCH  18  19
ENDBRANCH  17  18
ENDBRANCH   2  17
TORSDOF 5
ENDMDL
MODEL 9
REMARK VINA RESULT:      -4.4      4.746      7.019
REMARK  5 active torsions:
REMARK  status: ('A' for Active; 'I' for Inactive)
REMARK    1  A    between atoms: N_1  and  C_3 
REMARK    2  A    between atoms: N_2  and  C_15 
REMARK    3  A    between atoms: C_3  and  C_8 
REMARK    4  A    between atoms: C_15  and  C_17 
REMARK    5  A    between atoms: O_16  and  C_17 
ROOT
HETATM    1  N   UNL     1      68.888   3.896   8.195  1.00  0.00    -0.064 N 
HETATM    2  N   UNL     1      69.048   1.034   9.282  1.00  0.00    -0.066 N 
HETATM    3  C   UNL     1      68.731   2.704   7.341  1.00  0.00     0.263 C 
HETATM    4  C   UNL     1      69.685   3.526   9.383  1.00  0.00     0.263 C 
HETATM    5  C   UNL     1      68.280   1.409   8.072  1.00  0.00     0.262 C 
HETATM    6  C   UNL     1      69.246   2.233  10.123  1.00  0.00     0.262 C 
HETATM    7  H   UNL     1      69.375   4.612   7.655  1.00  0.00     0.280 HD
HETATM    8  H   UNL     1      68.514   0.357   9.828  1.00  0.00     0.280 HD
ENDROOT
BRANCH   1   9
HETATM    9  C   UNL     1      67.604   4.505   8.581  1.00  0.00     0.273 C 
BRANCH   9  10
HETATM   10  C   UNL     1      67.119   5.619   7.662  1.00  0.00    -0.032 A 
HETATM   11  C   UNL     1      67.997   6.206   6.736  1.00  0.00     0.012 A 
HETATM   12  C   UNL     1      67.535   7.130   5.793  1.00  0.00     0.043 A 
HETATM   13  C   UNL     1      66.188   7.469   5.767  1.00  0.00     0.116 A 
HETATM   14  C   UNL     1      65.300   6.915   6.682  1.00  0.00     0.043 A 
HETATM   15  F   UNL     1      65.737   8.323   4.840  1.00  0.00    -0.206 F 
HETATM   16  C   UNL     1      65.762   5.998   7.630  1.00  0.00     0.012 A 
ENDBRANCH   9  10
ENDBRANCH   1   9
BRANCH   2  17
HETATM   17  C   UNL     1      70.307   0.342   8.937  1.00  0.00     0.260 C 
BRANCH  17  18
HETATM   18  C   UNL     1      71.096  -0.124  10.180  1.00  0.00     0.192 C 
BRANCH  18  19
HETATM   19  O   UNL     1      72.475   0.221  10.054  1.00  0.00    -0.399 OA
HETATM   20  H   UNL     1      72.993  -0.275  10.706  1.00  0.00     0.209 HD
ENDBRANCH  18  19
ENDBRANCH  17  18
ENDBRANCH   2  17
TORSDOF 5
ENDMDL
