MODEL 1
REMARK VINA RESULT:      -4.8      0.000      0.000
REMARK  2 active torsions:
REMARK  status: ('A' for Active; 'I' for Inactive)
REMARK    1  A    between atoms: S_1  and  C_2 
REMARK    2  A    between atoms: S_1  and  N_9 
ROOT
HETATM    1  C   UNL     1      63.561   8.479   4.570  1.00  0.00     0.077 A 
HETATM    2  C   UNL     1      63.156   9.770   4.917  1.00  0.00     0.048 A 
HETATM    3  C   UNL     1      63.238   7.935   3.325  1.00  0.00     0.048 A 
HETATM    4  C   UNL     1      62.407  10.511   4.006  1.00  0.00     0.037 A 
HETATM    5  C   UNL     1      62.489   8.693   2.429  1.00  0.00     0.037 A 
HETATM    6  C   UNL     1      62.071   9.980   2.762  1.00  0.00     0.047 A 
HETATM    7 CL   UNL     1      61.896  12.100   4.420  1.00  0.00    -0.084 Cl
HETATM    8 CL   UNL     1      62.080   8.035   0.893  1.00  0.00    -0.084 Cl
ENDROOT
BRANCH   1   9
HETATM    9  S   UNL     1      64.556   7.549   5.695  1.00  0.00     0.239 S 
HETATM   10  O   UNL     1      65.199   6.474   4.978  1.00  0.00    -0.206 OA
HETATM   11  O   UNL     1      63.815   7.339   6.915  1.00  0.00    -0.206 OA
BRANCH   9  12
HETATM   12  N   UNL     1      65.764   8.652   6.067  1.00  0.00    -0.225 NA
HETATM   13  H   UNL     1      65.658   9.482   5.482  1.00  0.00     0.136 HD
HETATM   14  H   UNL     1      66.675   8.228   5.895  1.00  0.00     0.136 HD
ENDBRANCH   9  12
ENDBRANCH   1   9
TORSDOF 2
ENDMDL
MODEL 2
REMARK VINA RESULT:      -4.8      0.097      2.607
REMARK  2 active torsions:
REMARK  status: ('A' for Active; 'I' for Inactive)
REMARK    1  A    between atoms: S_1  and  C_2 
REMARK    2  A    between atoms: S_1  and  N_9 
ROOT
HETATM    1  C   UNL     1      63.549   8.547   4.531  1.00  0.00     0.077 A 
HETATM    2  C   UNL     1      63.196   8.000   3.294  1.00  0.00     0.048 A 
HETATM    3  C   UNL     1      63.139   9.833   4.890  1.00  0.00     0.048 A 
HETATM    4  C   UNL     1      62.438   8.763   2.409  1.00  0.00     0.037 A 
HETATM    5  C   UNL     1      62.381  10.578   3.991  1.00  0.00     0.037 A 
HETATM    6  C   UNL     1      62.027  10.050   2.750  1.00  0.00     0.047 A 
HETATM    7 CL   UNL     1      62.000   8.106   0.882  1.00  0.00    -0.084 Cl
HETATM    8 CL   UNL     1      61.873  12.165   4.418  1.00  0.00    -0.084 Cl
ENDROOT
BRANCH   1   9
HETATM    9  S   UNL     1      64.466   7.571   5.682  1.00  0.00     0.239 S 
HETATM   10  O   UNL     1      65.048   6.448   4.988  1.00  0.00    -0.206 OA
HETATM   11  O   UNL     1      63.697   7.425   6.894  1.00  0.00    -0.206 OA
BRANCH   9  12
HETATM   12  N   UNL     1      65.737   8.599   6.057  1.00  0.00    -0.225 NA
HETATM   13  H   UNL     1      66.560   8.048   6.302  1.00  0.00     0.136 HD
HETATM   14  H   UNL     1      65.475   9.190   6.845  1.00  0.00     0.136 HD
ENDBRANCH   9  12
ENDBRANCH   1   9
TORSDOF 2
ENDMDL
MODEL 3
REMARK VINA RESULT:      -4.6     25.863     26.823
REMARK  2 active torsions:
REMARK  status: ('A' for Active; 'I' for Inactive)
REMARK    1  A    between atoms: S_1  and  C_2 
REMARK    2  A    between atoms: S_1  and  N_9 
ROOT
HETATM    1  C   UNL     1      78.689  10.838  25.830  1.00  0.00     0.077 A 
HETATM    2  C   UNL     1      79.643  11.293  26.745  1.00  0.00     0.048 A 
HETATM    3  C   UNL     1      78.704  11.272  24.502  1.00  0.00     0.048 A 
HETATM    4  C   UNL     1      80.608  12.202  26.320  1.00  0.00     0.037 A 
HETATM    5  C   UNL     1      79.678  12.180  24.098  1.00  0.00     0.037 A 
HETATM    6  C   UNL     1      80.632  12.649  24.999  1.00  0.00     0.047 A 
HETATM    7 CL   UNL     1      81.786  12.775  27.434  1.00  0.00    -0.084 Cl
HETATM    8 CL   UNL     1      79.706  12.726  22.466  1.00  0.00    -0.084 Cl
ENDROOT
BRANCH   1   9
HETATM    9  S   UNL     1      77.492   9.646  26.345  1.00  0.00     0.239 S 
HETATM   10  O   UNL     1      76.172  10.142  26.039  1.00  0.00    -0.206 OA
HETATM   11  O   UNL     1      77.855   9.146  27.649  1.00  0.00    -0.206 OA
BRANCH   9  12
HETATM   12  N   UNL     1      77.781   8.393  25.267  1.00  0.00    -0.225 NA
HETATM   13  H   UNL     1      77.114   7.640  25.434  1.00  0.00     0.136 HD
HETATM   14  H   UNL     1      78.730   8.043  25.401  1.00  0.00     0.136 HD
ENDBRANCH   9  12
ENDBRANCH   1   9
TORSDOF 2
ENDMDL
MODEL 4
REMARK VINA RESULT:      -4.5      6.155      6.966
REMARK  2 active torsions:
REMARK  status: ('A' for Active; 'I' for Inactive)
REMARK    1  A    between atoms: S_1  and  C_2 
REMARK    2  A    between atoms: S_1  and  N_9 
ROOT
HETATM    1  C   UNL     1      67.207   6.184   6.626  1.00  0.00     0.077 A 
HETATM    2  C   UNL     1      67.768   5.942   7.883  1.00  0.00     0.048 A 
HETATM    3  C   UNL     1      67.214   5.201   5.634  1.00  0.00     0.048 A 
HETATM    4  C   UNL     1      68.352   4.703   8.135  1.00  0.00     0.037 A 
HETATM    5  C   UNL     1      67.803   3.970   5.907  1.00  0.00     0.037 A 
HETATM    6  C   UNL     1      68.374   3.713   7.154  1.00  0.00     0.047 A 
HETATM    7 CL   UNL     1      69.051   4.390   9.675  1.00  0.00    -0.084 Cl
HETATM    8 CL   UNL     1      67.824   2.749   4.694  1.00  0.00    -0.084 Cl
ENDROOT
BRANCH   1   9
HETATM    9  S   UNL     1      66.416   7.732   6.313  1.00  0.00     0.239 S 
HETATM   10  O   UNL     1      65.012   7.616   6.628  1.00  0.00    -0.206 OA
HETATM   11  O   UNL     1      66.891   8.258   5.056  1.00  0.00    -0.206 OA
BRANCH   9  12
HETATM   12  N   UNL     1      67.085   8.700   7.508  1.00  0.00    -0.225 NA
HETATM   13  H   UNL     1      67.108   9.668   7.189  1.00  0.00     0.136 HD
HETATM   14  H   UNL     1      68.034   8.384   7.708  1.00  0.00     0.136 HD
ENDBRANCH   9  12
ENDBRANCH   1   9
TORSDOF 2
ENDMDL
MODEL 5
REMARK VINA RESULT:      -4.5      6.112      7.319
REMARK  2 active torsions:
REMARK  status: ('A' for Active; 'I' for Inactive)
REMARK    1  A    between atoms: S_1  and  C_2 
REMARK    2  A    between atoms: S_1  and  N_9 
ROOT
HETATM    1  C   UNL     1      67.138   6.205   6.600  1.00  0.00     0.077 A 
HETATM    2  C   UNL     1      67.161   5.220   5.609  1.00  0.00     0.048 A 
HETATM    3  C   UNL     1      67.722   5.982   7.849  1.00  0.00     0.048 A 
HETATM    4  C   UNL     1      67.766   3.997   5.886  1.00  0.00     0.037 A 
HETATM    5  C   UNL     1      68.322   4.752   8.105  1.00  0.00     0.037 A 
HETATM    6  C   UNL     1      68.348   3.756   7.130  1.00  0.00     0.047 A 
HETATM    7 CL   UNL     1      67.799   2.773   4.679  1.00  0.00    -0.084 Cl
HETATM    8 CL   UNL     1      69.043   4.461   9.640  1.00  0.00    -0.084 Cl
ENDROOT
BRANCH   1   9
HETATM    9  S   UNL     1      66.420   7.779   6.243  1.00  0.00     0.239 S 
HETATM   10  O   UNL     1      65.003   7.723   6.514  1.00  0.00    -0.206 OA
HETATM   11  O   UNL     1      66.956   8.270   4.997  1.00  0.00    -0.206 OA
BRANCH   9  12
HETATM   12  N   UNL     1      67.088   8.735   7.449  1.00  0.00    -0.225 NA
HETATM   13  H   UNL     1      67.045   8.238   8.339  1.00  0.00     0.136 HD
HETATM   14  H   UNL     1      66.565   9.607   7.520  1.00  0.00     0.136 HD
ENDBRANCH   9  12
ENDBRANCH   1   9
TORSDOF 2
ENDMDL
MODEL 6
REMARK VINA RESULT:      -4.5      1.959      3.446
REMARK  2 active torsions:
REMARK  status: ('A' for Active; 'I' for Inactive)
REMARK    1  A    between atoms: S_1  and  C_2 
REMARK    2  A    between atoms: S_1  and  N_9 
ROOT
HETATM    1  C   UNL     1      65.012   7.821   5.004  1.00  0.00     0.077 A 
HETATM    2  C   UNL     1      64.922   6.844   4.009  1.00  0.00     0.048 A 
HETATM    3  C   UNL     1      64.122   8.897   5.037  1.00  0.00     0.048 A 
HETATM    4  C   UNL     1      63.935   6.963   3.033  1.00  0.00     0.037 A 
HETATM    5  C   UNL     1      63.143   8.996   4.053  1.00  0.00     0.037 A 
HETATM    6  C   UNL     1      63.043   8.034   3.048  1.00  0.00     0.047 A 
HETATM    7 CL   UNL     1      63.813   5.772   1.799  1.00  0.00    -0.084 Cl
HETATM    8 CL   UNL     1      62.042  10.318   4.078  1.00  0.00    -0.084 Cl
ENDROOT
BRANCH   1   9
HETATM    9  S   UNL     1      66.225   7.654   6.277  1.00  0.00     0.239 S 
HETATM   10  O   UNL     1      66.569   8.964   6.775  1.00  0.00    -0.206 OA
HETATM   11  O   UNL     1      67.217   6.694   5.859  1.00  0.00    -0.206 OA
BRANCH   9  12
HETATM   12  N   UNL     1      65.337   6.911   7.491  1.00  0.00    -0.225 NA
HETATM   13  H   UNL     1      65.231   5.919   7.276  1.00  0.00     0.136 HD
HETATM   14  H   UNL     1      64.418   7.347   7.555  1.00  0.00     0.136 HD
ENDBRANCH   9  12
ENDBRANCH   1   9
TORSDOF 2
ENDMDL
MODEL 7
REMARK VINA RESULT:      -4.2      2.690      3.204
REMARK  2 active torsions:
REMARK  status: ('A' for Active; 'I' for Inactive)
REMARK    1  A    between atoms: S_1  and  C_2 
REMARK    2  A    between atoms: S_1  and  N_9 
ROOT
HETATM    1  C   UNL     1      65.050   7.657   5.642  1.00  0.00     0.077 A 
HETATM    2  C   UNL     1      64.446   8.688   4.918  1.00  0.00     0.048 A 
HETATM    3  C   UNL     1      64.300   6.581   6.123  1.00  0.00     0.048 A 
HETATM    4  C   UNL     1      63.073   8.639   4.690  1.00  0.00     0.037 A 
HETATM    5  C   UNL     1      62.929   6.552   5.883  1.00  0.00     0.037 A 
HETATM    6  C   UNL     1      62.309   7.576   5.169  1.00  0.00     0.047 A 
HETATM    7 CL   UNL     1      62.313   9.902   3.805  1.00  0.00    -0.084 Cl
HETATM    8 CL   UNL     1      61.991   5.235   6.472  1.00  0.00    -0.084 Cl
ENDROOT
BRANCH   1   9
HETATM    9  S   UNL     1      66.798   7.681   5.893  1.00  0.00     0.239 S 
HETATM   10  O   UNL     1      67.433   8.253   4.729  1.00  0.00    -0.206 OA
HETATM   11  O   UNL     1      67.210   6.423   6.466  1.00  0.00    -0.206 OA
BRANCH   9  12
HETATM   12  N   UNL     1      66.947   8.822   7.114  1.00  0.00    -0.225 NA
HETATM   13  H   UNL     1      67.361   8.387   7.938  1.00  0.00     0.136 HD
HETATM   14  H   UNL     1      66.025   9.189   7.349  1.00  0.00     0.136 HD
ENDBRANCH   9  12
ENDBRANCH   1   9
TORSDOF 2
ENDMDL
MODEL 8
REMARK VINA RESULT:      -4.2      2.120      2.693
REMARK  2 active torsions:
REMARK  status: ('A' for Active; 'I' for Inactive)
REMARK    1  A    between atoms: S_1  and  C_2 
REMARK    2  A    between atoms: S_1  and  N_9 
ROOT
HETATM    1  C   UNL     1      62.984   7.843   4.554  1.00  0.00     0.077 A 
HETATM    2  C   UNL     1      61.789   7.221   4.929  1.00  0.00     0.048 A 
HETATM    3  C   UNL     1      63.097   8.501   3.328  1.00  0.00     0.048 A 
HETATM    4  C   UNL     1      60.707   7.253   4.052  1.00  0.00     0.037 A 
HETATM    5  C   UNL     1      62.004   8.521   2.467  1.00  0.00     0.037 A 
HETATM    6  C   UNL     1      60.807   7.900   2.821  1.00  0.00     0.047 A 
HETATM    7 CL   UNL     1      59.232   6.489   4.495  1.00  0.00    -0.084 Cl
HETATM    8 CL   UNL     1      62.129   9.325   0.951  1.00  0.00    -0.084 Cl
ENDROOT
BRANCH   1   9
HETATM    9  S   UNL     1      64.345   7.856   5.679  1.00  0.00     0.239 S 
HETATM   10  O   UNL     1      63.926   7.275   6.932  1.00  0.00    -0.206 OA
HETATM   11  O   UNL     1      65.014   9.131   5.596  1.00  0.00    -0.206 OA
BRANCH   9  12
HETATM   12  N   UNL     1      65.378   6.740   4.969  1.00  0.00    -0.225 NA
HETATM   13  H   UNL     1      66.295   6.795   5.413  1.00  0.00     0.136 HD
HETATM   14  H   UNL     1      65.467   6.946   3.975  1.00  0.00     0.136 HD
ENDBRANCH   9  12
ENDBRANCH   1   9
TORSDOF 2
ENDMDL
MODEL 9
REMARK VINA RESULT:      -4.1      8.338      9.301
REMARK  2 active torsions:
REMARK  status: ('A' for Active; 'I' for Inactive)
REMARK    1  A    between atoms: S_1  and  C_2 
REMARK    2  A    between atoms: S_1  and  N_9 
ROOT
HETATM    1  C   UNL     1      68.656   2.717   8.897  1.00  0.00     0.077 A 
HETATM    2  C   UNL     1      68.533   2.388   7.544  1.00  0.00     0.048 A 
HETATM    3  C   UNL     1      68.330   3.995   9.358  1.00  0.00     0.048 A 
HETATM    4  C   UNL     1      68.092   3.360   6.650  1.00  0.00     0.037 A 
HETATM    5  C   UNL     1      67.890   4.951   8.447  1.00  0.00     0.037 A 
HETATM    6  C   UNL     1      67.769   4.642   7.093  1.00  0.00     0.047 A 
HETATM    7 CL   UNL     1      67.940   2.973   4.982  1.00  0.00    -0.084 Cl
HETATM    8 CL   UNL     1      67.489   6.530   9.000  1.00  0.00    -0.084 Cl
ENDROOT
BRANCH   1   9
HETATM    9  S   UNL     1      69.164   1.479  10.049  1.00  0.00     0.239 S 
HETATM   10  O   UNL     1      70.250   1.995  10.847  1.00  0.00    -0.206 OA
HETATM   11  O   UNL     1      69.231   0.206   9.373  1.00  0.00    -0.206 OA
BRANCH   9  12
HETATM   12  N   UNL     1      67.833   1.399  11.066  1.00  0.00    -0.225 NA
HETATM   13  H   UNL     1      67.387   0.487  10.972  1.00  0.00     0.136 HD
HETATM   14  H   UNL     1      67.169   2.131  10.814  1.00  0.00     0.136 HD
ENDBRANCH   9  12
ENDBRANCH   1   9
TORSDOF 2
ENDMDL
