MODEL 1
REMARK VINA RESULT:      -4.6      0.000      0.000
REMARK  1 active torsions:
REMARK  status: ('A' for Active; 'I' for Inactive)
REMARK    1  A    between atoms: N_4  and  O_11 
ROOT
HETATM    1  C   UNL     1      69.083   3.528   9.766  1.00  0.00     0.040 C 
HETATM    2  N   UNL     1      67.057   3.513   8.404  1.00  0.00    -0.066 N 
HETATM    3  C   UNL     1      67.770   2.815   9.508  1.00  0.00     0.289 C 
HETATM    4  N   UNL     1      69.930   3.169  10.667  1.00  0.00    -0.275 N 
ATOM      5  HN  UNL     1      70.795   3.699  10.778  1.00  0.00     0.193 HD
HETATM    6  C   UNL     1      69.332   4.703   8.865  1.00  0.00     0.038 C 
HETATM    7  C   UNL     1      68.151   5.668   9.095  1.00  0.00     0.038 C 
HETATM    8  C   UNL     1      69.288   4.134   7.432  1.00  0.00     0.038 C 
HETATM    9  C   UNL     1      67.889   3.508   7.170  1.00  0.00     0.236 C 
HETATM   10  C   UNL     1      66.815   4.931   8.783  1.00  0.00     0.236 C 
HETATM   11  H   UNL     1      66.175   3.030   8.234  1.00  0.00     0.280 HD
ENDROOT
BRANCH   4  12
HETATM   12  O   UNL     1      69.703   2.137  11.446  1.00  0.00    -0.290 OA
HETATM   13  H   UNL     1      70.258   1.978  12.185  1.00  0.00     0.244 HD
ENDBRANCH   4  12
TORSDOF 1
ENDMDL
MODEL 2
REMARK VINA RESULT:      -4.3     10.843     11.952
REMARK  1 active torsions:
REMARK  status: ('A' for Active; 'I' for Inactive)
REMARK    1  A    between atoms: N_4  and  O_11 
ROOT
HETATM    1  C   UNL     1      76.087   2.197  18.102  1.00  0.00     0.040 C 
HETATM    2  N   UNL     1      76.751   0.001  17.267  1.00  0.00    -0.066 N 
HETATM    3  C   UNL     1      77.253   1.247  17.907  1.00  0.00     0.289 C 
HETATM    4  N   UNL     1      76.193   3.363  18.638  1.00  0.00    -0.275 N 
ATOM      5  HN  UNL     1      75.362   3.947  18.731  1.00  0.00     0.193 HD
HETATM    6  C   UNL     1      74.774   1.669  17.604  1.00  0.00     0.038 C 
HETATM    7  C   UNL     1      74.525   0.359  18.379  1.00  0.00     0.038 C 
HETATM    8  C   UNL     1      74.996   1.372  16.107  1.00  0.00     0.038 C 
HETATM    9  C   UNL     1      76.124   0.313  15.954  1.00  0.00     0.236 C 
HETATM   10  C   UNL     1      75.711  -0.620  18.131  1.00  0.00     0.236 C 
HETATM   11  H   UNL     1      77.539  -0.634  17.138  1.00  0.00     0.280 HD
ENDROOT
BRANCH   4  12
HETATM   12  O   UNL     1      77.349   3.817  19.066  1.00  0.00    -0.290 OA
HETATM   13  H   UNL     1      77.549   4.729  18.992  1.00  0.00     0.244 HD
ENDBRANCH   4  12
TORSDOF 1
ENDMDL
MODEL 3
REMARK VINA RESULT:      -4.3     10.831     11.565
REMARK  1 active torsions:
REMARK  status: ('A' for Active; 'I' for Inactive)
REMARK    1  A    between atoms: N_4  and  O_11 
ROOT
HETATM    1  C   UNL     1      79.486   3.114   7.265  1.00  0.00     0.040 C 
HETATM    2  N   UNL     1      78.989   0.794   6.690  1.00  0.00    -0.066 N 
HETATM    3  C   UNL     1      78.806   1.842   7.731  1.00  0.00     0.289 C 
HETATM    4  N   UNL     1      79.503   4.209   7.943  1.00  0.00    -0.275 N 
ATOM      5  HN  UNL     1      79.986   5.023   7.564  1.00  0.00     0.193 HD
HETATM    6  C   UNL     1      80.164   2.996   5.932  1.00  0.00     0.038 C 
HETATM    7  C   UNL     1      79.061   2.589   4.933  1.00  0.00     0.038 C 
HETATM    8  C   UNL     1      81.187   1.853   6.094  1.00  0.00     0.038 C 
HETATM    9  C   UNL     1      80.438   0.541   6.465  1.00  0.00     0.236 C 
HETATM   10  C   UNL     1      78.403   1.259   5.405  1.00  0.00     0.236 C 
HETATM   11  H   UNL     1      78.530  -0.059   7.009  1.00  0.00     0.280 HD
ENDROOT
BRANCH   4  12
HETATM   12  O   UNL     1      78.911   4.299   9.112  1.00  0.00    -0.290 OA
HETATM   13  H   UNL     1      79.424   4.370   9.892  1.00  0.00     0.244 HD
ENDBRANCH   4  12
TORSDOF 1
ENDMDL
MODEL 4
REMARK VINA RESULT:      -4.2      7.199      8.349
REMARK  1 active torsions:
REMARK  status: ('A' for Active; 'I' for Inactive)
REMARK    1  A    between atoms: N_4  and  O_11 
ROOT
HETATM    1  C   UNL     1      63.591   9.316   5.307  1.00  0.00     0.040 C 
HETATM    2  N   UNL     1      64.689   7.184   4.847  1.00  0.00    -0.066 N 
HETATM    3  C   UNL     1      64.903   8.559   5.376  1.00  0.00     0.289 C 
HETATM    4  N   UNL     1      63.445  10.535   5.696  1.00  0.00    -0.275 N 
ATOM      5  HN  UNL     1      62.530  10.978   5.614  1.00  0.00     0.193 HD
HETATM    6  C   UNL     1      62.455   8.526   4.728  1.00  0.00     0.038 C 
HETATM    7  C   UNL     1      62.303   7.284   5.630  1.00  0.00     0.038 C 
HETATM    8  C   UNL     1      62.923   8.110   3.319  1.00  0.00     0.038 C 
HETATM    9  C   UNL     1      64.210   7.244   3.439  1.00  0.00     0.236 C 
HETATM   10  C   UNL     1      63.646   6.496   5.654  1.00  0.00     0.236 C 
HETATM   11  H   UNL     1      65.574   6.680   4.896  1.00  0.00     0.280 HD
ENDROOT
BRANCH   4  12
HETATM   12  O   UNL     1      64.448  11.219   6.197  1.00  0.00    -0.290 OA
HETATM   13  H   UNL     1      65.037  11.671   5.625  1.00  0.00     0.244 HD
ENDBRANCH   4  12
TORSDOF 1
ENDMDL
MODEL 5
REMARK VINA RESULT:      -4.2      8.246      9.531
REMARK  1 active torsions:
REMARK  status: ('A' for Active; 'I' for Inactive)
REMARK    1  A    between atoms: N_4  and  O_11 
ROOT
HETATM    1  C   UNL     1      62.190   9.284   3.977  1.00  0.00     0.040 C 
HETATM    2  N   UNL     1      63.736   8.534   5.711  1.00  0.00    -0.066 N 
HETATM    3  C   UNL     1      63.057   9.728   5.138  1.00  0.00     0.289 C 
HETATM    4  N   UNL     1      61.468  10.085   3.272  1.00  0.00    -0.275 N 
ATOM      5  HN  UNL     1      60.913   9.710   2.503  1.00  0.00     0.193 HD
HETATM    6  C   UNL     1      62.246   7.811   3.695  1.00  0.00     0.038 C 
HETATM    7  C   UNL     1      61.789   7.116   4.994  1.00  0.00     0.038 C 
HETATM    8  C   UNL     1      63.733   7.505   3.420  1.00  0.00     0.038 C 
HETATM    9  C   UNL     1      64.575   7.873   4.675  1.00  0.00     0.236 C 
HETATM   10  C   UNL     1      62.717   7.551   6.167  1.00  0.00     0.236 C 
HETATM   11  H   UNL     1      64.318   8.839   6.492  1.00  0.00     0.280 HD
ENDROOT
BRANCH   4  12
HETATM   12  O   UNL     1      61.430  11.373   3.525  1.00  0.00    -0.290 OA
HETATM   13  H   UNL     1      61.033  11.958   2.910  1.00  0.00     0.244 HD
ENDBRANCH   4  12
TORSDOF 1
ENDMDL
MODEL 6
REMARK VINA RESULT:      -4.2      3.614      4.513
REMARK  1 active torsions:
REMARK  status: ('A' for Active; 'I' for Inactive)
REMARK    1  A    between atoms: N_4  and  O_11 
ROOT
HETATM    1  C   UNL     1      67.068   6.840   7.013  1.00  0.00     0.040 C 
HETATM    2  N   UNL     1      66.210   5.120   8.517  1.00  0.00    -0.066 N 
HETATM    3  C   UNL     1      66.004   6.515   8.043  1.00  0.00     0.289 C 
HETATM    4  N   UNL     1      67.159   7.973   6.407  1.00  0.00    -0.275 N 
ATOM      5  HN  UNL     1      67.906   8.118   5.729  1.00  0.00     0.193 HD
HETATM    6  C   UNL     1      68.035   5.723   6.755  1.00  0.00     0.038 C 
HETATM    7  C   UNL     1      67.183   4.529   6.277  1.00  0.00     0.038 C 
HETATM    8  C   UNL     1      68.673   5.411   8.124  1.00  0.00     0.038 C 
HETATM    9  C   UNL     1      67.562   4.977   9.122  1.00  0.00     0.236 C 
HETATM   10  C   UNL     1      66.125   4.182   7.366  1.00  0.00     0.236 C 
HETATM   11  H   UNL     1      65.491   4.906   9.210  1.00  0.00     0.280 HD
ENDROOT
BRANCH   4  12
HETATM   12  O   UNL     1      66.309   8.946   6.645  1.00  0.00    -0.290 OA
HETATM   13  H   UNL     1      65.387   8.780   6.612  1.00  0.00     0.244 HD
ENDBRANCH   4  12
TORSDOF 1
ENDMDL
MODEL 7
REMARK VINA RESULT:      -4.0      2.348      3.133
REMARK  1 active torsions:
REMARK  status: ('A' for Active; 'I' for Inactive)
REMARK    1  A    between atoms: N_4  and  O_11 
ROOT
HETATM    1  C   UNL     1      68.323   5.050   8.420  1.00  0.00     0.040 C 
HETATM    2  N   UNL     1      67.129   2.935   8.665  1.00  0.00    -0.066 N 
HETATM    3  C   UNL     1      66.972   4.415   8.683  1.00  0.00     0.289 C 
HETATM    4  N   UNL     1      68.521   6.322   8.366  1.00  0.00    -0.275 N 
ATOM      5  HN  UNL     1      69.462   6.673   8.189  1.00  0.00     0.193 HD
HETATM    6  C   UNL     1      69.440   4.065   8.233  1.00  0.00     0.038 C 
HETATM    7  C   UNL     1      69.028   3.183   7.037  1.00  0.00     0.038 C 
HETATM    8  C   UNL     1      69.468   3.231   9.530  1.00  0.00     0.038 C 
HETATM    9  C   UNL     1      68.102   2.509   9.707  1.00  0.00     0.236 C 
HETATM   10  C   UNL     1      67.659   2.505   7.343  1.00  0.00     0.236 C 
HETATM   11  H   UNL     1      66.217   2.513   8.842  1.00  0.00     0.280 HD
ENDROOT
BRANCH   4  12
HETATM   12  O   UNL     1      67.537   7.175   8.536  1.00  0.00    -0.290 OA
HETATM   13  H   UNL     1      67.651   7.914   9.100  1.00  0.00     0.244 HD
ENDBRANCH   4  12
TORSDOF 1
ENDMDL
MODEL 8
REMARK VINA RESULT:      -3.9      3.732      4.432
REMARK  1 active torsions:
REMARK  status: ('A' for Active; 'I' for Inactive)
REMARK    1  A    between atoms: N_4  and  O_11 
ROOT
HETATM    1  C   UNL     1      67.482   6.384   7.032  1.00  0.00     0.040 C 
HETATM    2  N   UNL     1      65.209   7.218   6.714  1.00  0.00    -0.066 N 
HETATM    3  C   UNL     1      66.255   6.934   7.733  1.00  0.00     0.289 C 
HETATM    4  N   UNL     1      68.565   6.044   7.640  1.00  0.00    -0.275 N 
ATOM      5  HN  UNL     1      69.347   5.677   7.098  1.00  0.00     0.193 HD
HETATM    6  C   UNL     1      67.332   6.251   5.545  1.00  0.00     0.038 C 
HETATM    7  C   UNL     1      67.016   7.669   5.025  1.00  0.00     0.038 C 
HETATM    8  C   UNL     1      66.118   5.322   5.339  1.00  0.00     0.038 C 
HETATM    9  C   UNL     1      64.858   5.973   5.978  1.00  0.00     0.236 C 
HETATM   10  C   UNL     1      65.729   8.200   5.724  1.00  0.00     0.236 C 
HETATM   11  H   UNL     1      64.387   7.588   7.191  1.00  0.00     0.280 HD
ENDROOT
BRANCH   4  12
HETATM   12  O   UNL     1      68.683   6.160   8.943  1.00  0.00    -0.290 OA
HETATM   13  H   UNL     1      68.993   5.436   9.451  1.00  0.00     0.244 HD
ENDBRANCH   4  12
TORSDOF 1
ENDMDL
MODEL 9
REMARK VINA RESULT:      -3.8     11.366     12.262
REMARK  1 active torsions:
REMARK  status: ('A' for Active; 'I' for Inactive)
REMARK    1  A    between atoms: N_4  and  O_11 
ROOT
HETATM    1  C   UNL     1      77.504  10.834   7.079  1.00  0.00     0.040 C 
HETATM    2  N   UNL     1      77.630  12.324   5.148  1.00  0.00    -0.066 N 
HETATM    3  C   UNL     1      77.277  12.252   6.592  1.00  0.00     0.289 C 
HETATM    4  N   UNL     1      77.295  10.448   8.289  1.00  0.00    -0.275 N 
ATOM      5  HN  UNL     1      77.468   9.475   8.539  1.00  0.00     0.193 HD
HETATM    6  C   UNL     1      77.992   9.891   6.018  1.00  0.00     0.038 C 
HETATM    7  C   UNL     1      79.314  10.491   5.496  1.00  0.00     0.038 C 
HETATM    8  C   UNL     1      76.915   9.927   4.914  1.00  0.00     0.038 C 
HETATM    9  C   UNL     1      76.789  11.377   4.366  1.00  0.00     0.236 C 
HETATM   10  C   UNL     1      79.052  11.930   4.961  1.00  0.00     0.236 C 
HETATM   11  H   UNL     1      77.475  13.279   4.826  1.00  0.00     0.280 HD
ENDROOT
BRANCH   4  12
HETATM   12  O   UNL     1      76.864  11.281   9.208  1.00  0.00    -0.290 OA
HETATM   13  H   UNL     1      75.968  11.557   9.206  1.00  0.00     0.244 HD
ENDBRANCH   4  12
TORSDOF 1
ENDMDL
