MODEL 1
REMARK VINA RESULT:      -4.4      0.000      0.000
REMARK  2 active torsions:
REMARK  status: ('A' for Active; 'I' for Inactive)
REMARK    1  A    between atoms: C_1  and  N_5 
REMARK    2  A    between atoms: C_4  and  N_6 
ROOT
HETATM    1  C   UNL     1      79.335  11.056  20.224  1.00  0.00     0.125 A 
HETATM    2  N   UNL     1      80.230  11.267  21.206  1.00  0.00    -0.351 N 
ATOM      3  HN  UNL     1      81.102  10.741  21.259  1.00  0.00     0.166 HD
HETATM    4  C   UNL     1      78.088  11.706  20.145  1.00  0.00     0.070 A 
HETATM    5  C   UNL     1      79.913  12.210  22.119  1.00  0.00     0.090 A 
HETATM    6  C   UNL     1      77.836  12.722  21.063  1.00  0.00     0.034 A 
HETATM    7  C   UNL     1      78.752  12.966  22.083  1.00  0.00     0.019 A 
ENDROOT
BRANCH   1   8
HETATM    8  N   UNL     1      79.683  10.110  19.246  1.00  0.00    -0.384 N 
HETATM    9  H   UNL     1      79.232  10.118  18.371  1.00  0.00     0.157 HD
HETATM   10  H   UNL     1      80.378   9.439  19.434  1.00  0.00     0.157 HD
ENDBRANCH   1   8
BRANCH   4  11
HETATM   11  N   UNL     1      77.230  11.503  19.041  1.00  0.00    -0.396 N 
HETATM   12  H   UNL     1      77.228  12.145  18.295  1.00  0.00     0.156 HD
HETATM   13  H   UNL     1      76.634  10.720  19.019  1.00  0.00     0.156 HD
ENDBRANCH   4  11
TORSDOF 2
ENDMDL
MODEL 2
REMARK VINA RESULT:      -4.2      8.448      9.504
REMARK  2 active torsions:
REMARK  status: ('A' for Active; 'I' for Inactive)
REMARK    1  A    between atoms: C_1  and  N_5 
REMARK    2  A    between atoms: C_4  and  N_6 
ROOT
HETATM    1  C   UNL     1      76.642   3.228  18.518  1.00  0.00     0.125 A 
HETATM    2  N   UNL     1      75.854   2.139  18.550  1.00  0.00    -0.351 N 
ATOM      3  HN  UNL     1      76.014   1.380  19.213  1.00  0.00     0.166 HD
HETATM    4  C   UNL     1      76.504   4.269  17.580  1.00  0.00     0.070 A 
HETATM    5  C   UNL     1      74.839   2.101  17.659  1.00  0.00     0.090 A 
HETATM    6  C   UNL     1      75.402   4.225  16.731  1.00  0.00     0.034 A 
HETATM    7  C   UNL     1      74.565   3.113  16.753  1.00  0.00     0.019 A 
ENDROOT
BRANCH   1   8
HETATM    8  N   UNL     1      77.668   3.293  19.475  1.00  0.00    -0.384 N 
HETATM    9  H   UNL     1      78.566   3.600  19.213  1.00  0.00     0.157 HD
HETATM   10  H   UNL     1      77.490   3.031  20.407  1.00  0.00     0.157 HD
ENDBRANCH   1   8
BRANCH   4  11
HETATM   11  N   UNL     1      77.311   5.427  17.653  1.00  0.00    -0.396 N 
HETATM   12  H   UNL     1      77.546   5.808  18.530  1.00  0.00     0.156 HD
HETATM   13  H   UNL     1      77.638   5.852  16.828  1.00  0.00     0.156 HD
ENDBRANCH   4  11
TORSDOF 2
ENDMDL
MODEL 3
REMARK VINA RESULT:      -4.1     21.719     22.880
REMARK  2 active torsions:
REMARK  status: ('A' for Active; 'I' for Inactive)
REMARK    1  A    between atoms: C_1  and  N_5 
REMARK    2  A    between atoms: C_4  and  N_6 
ROOT
HETATM    1  C   UNL     1      63.048  10.858   5.277  1.00  0.00     0.125 A 
HETATM    2  N   UNL     1      62.276  11.631   4.493  1.00  0.00    -0.351 N 
ATOM      3  HN  UNL     1      62.047  12.593   4.745  1.00  0.00     0.166 HD
HETATM    4  C   UNL     1      63.337   9.506   5.007  1.00  0.00     0.070 A 
HETATM    5  C   UNL     1      61.818  11.068   3.353  1.00  0.00     0.090 A 
HETATM    6  C   UNL     1      62.907   8.991   3.788  1.00  0.00     0.034 A 
HETATM    7  C   UNL     1      62.115   9.775   2.954  1.00  0.00     0.019 A 
ENDROOT
BRANCH   1   8
HETATM    8  N   UNL     1      63.566  11.455   6.438  1.00  0.00    -0.384 N 
HETATM    9  H   UNL     1      63.859  12.395   6.420  1.00  0.00     0.157 HD
HETATM   10  H   UNL     1      63.635  10.934   7.271  1.00  0.00     0.157 HD
ENDBRANCH   1   8
BRANCH   4  11
HETATM   11  N   UNL     1      64.225   8.773   5.827  1.00  0.00    -0.396 N 
HETATM   12  H   UNL     1      64.920   9.243   6.342  1.00  0.00     0.156 HD
HETATM   13  H   UNL     1      64.148   7.793   5.881  1.00  0.00     0.156 HD
ENDBRANCH   4  11
TORSDOF 2
ENDMDL
MODEL 4
REMARK VINA RESULT:      -4.0      8.383      9.373
REMARK  2 active torsions:
REMARK  status: ('A' for Active; 'I' for Inactive)
REMARK    1  A    between atoms: C_1  and  N_5 
REMARK    2  A    between atoms: C_4  and  N_6 
ROOT
HETATM    1  C   UNL     1      76.899   3.355  18.450  1.00  0.00     0.125 A 
HETATM    2  N   UNL     1      77.155   4.640  18.149  1.00  0.00    -0.351 N 
ATOM      3  HN  UNL     1      77.920   5.152  18.590  1.00  0.00     0.166 HD
HETATM    4  C   UNL     1      75.815   2.626  17.922  1.00  0.00     0.070 A 
HETATM    5  C   UNL     1      76.347   5.219  17.235  1.00  0.00     0.090 A 
HETATM    6  C   UNL     1      75.055   3.238  16.929  1.00  0.00     0.034 A 
HETATM    7  C   UNL     1      75.309   4.565  16.593  1.00  0.00     0.019 A 
ENDROOT
BRANCH   1   8
HETATM    8  N   UNL     1      77.766   2.735  19.365  1.00  0.00    -0.384 N 
HETATM    9  H   UNL     1      78.127   1.840  19.171  1.00  0.00     0.157 HD
HETATM   10  H   UNL     1      78.012   3.195  20.199  1.00  0.00     0.157 HD
ENDBRANCH   1   8
BRANCH   4  11
HETATM   11  N   UNL     1      75.650   1.253  18.212  1.00  0.00    -0.396 N 
HETATM   12  H   UNL     1      75.529   0.959  19.143  1.00  0.00     0.156 HD
HETATM   13  H   UNL     1      75.657   0.592  17.483  1.00  0.00     0.156 HD
ENDBRANCH   4  11
TORSDOF 2
ENDMDL
MODEL 5
REMARK VINA RESULT:      -3.9     21.888     22.947
REMARK  2 active torsions:
REMARK  status: ('A' for Active; 'I' for Inactive)
REMARK    1  A    between atoms: C_1  and  N_5 
REMARK    2  A    between atoms: C_4  and  N_6 
ROOT
HETATM    1  C   UNL     1      63.277   9.438   4.902  1.00  0.00     0.125 A 
HETATM    2  N   UNL     1      62.993   8.834   3.735  1.00  0.00    -0.351 N 
ATOM      3  HN  UNL     1      63.299   7.881   3.536  1.00  0.00     0.166 HD
HETATM    4  C   UNL     1      62.937  10.773   5.198  1.00  0.00     0.070 A 
HETATM    5  C   UNL     1      62.281   9.553   2.840  1.00  0.00     0.090 A 
HETATM    6  C   UNL     1      62.141  11.450   4.279  1.00  0.00     0.034 A 
HETATM    7  C   UNL     1      61.824  10.840   3.068  1.00  0.00     0.019 A 
ENDROOT
BRANCH   1   8
HETATM    8  N   UNL     1      63.975   8.677   5.854  1.00  0.00    -0.384 N 
HETATM    9  H   UNL     1      63.595   8.544   6.753  1.00  0.00     0.157 HD
HETATM   10  H   UNL     1      64.843   8.276   5.623  1.00  0.00     0.157 HD
ENDBRANCH   1   8
BRANCH   4  11
HETATM   11  N   UNL     1      63.189  11.322   6.476  1.00  0.00    -0.396 N 
HETATM   12  H   UNL     1      62.728  10.960   7.266  1.00  0.00     0.156 HD
HETATM   13  H   UNL     1      63.824  12.068   6.574  1.00  0.00     0.156 HD
ENDBRANCH   4  11
TORSDOF 2
ENDMDL
MODEL 6
REMARK VINA RESULT:      -3.8      9.067     10.284
REMARK  2 active torsions:
REMARK  status: ('A' for Active; 'I' for Inactive)
REMARK    1  A    between atoms: C_1  and  N_5 
REMARK    2  A    between atoms: C_4  and  N_6 
ROOT
HETATM    1  C   UNL     1      76.445   3.619  17.754  1.00  0.00     0.125 A 
HETATM    2  N   UNL     1      75.296   3.822  17.084  1.00  0.00    -0.351 N 
ATOM      3  HN  UNL     1      75.001   4.755  16.797  1.00  0.00     0.166 HD
HETATM    4  C   UNL     1      76.863   2.362  18.231  1.00  0.00     0.070 A 
HETATM    5  C   UNL     1      74.554   2.727  16.812  1.00  0.00     0.090 A 
HETATM    6  C   UNL     1      76.107   1.253  17.864  1.00  0.00     0.034 A 
HETATM    7  C   UNL     1      74.919   1.437  17.161  1.00  0.00     0.019 A 
ENDROOT
BRANCH   1   8
HETATM    8  N   UNL     1      77.243   4.749  17.996  1.00  0.00    -0.384 N 
HETATM    9  H   UNL     1      78.135   4.820  17.586  1.00  0.00     0.157 HD
HETATM   10  H   UNL     1      76.910   5.472  18.576  1.00  0.00     0.157 HD
ENDBRANCH   1   8
BRANCH   4  11
HETATM   11  N   UNL     1      78.122   2.201  18.854  1.00  0.00    -0.396 N 
HETATM   12  H   UNL     1      78.227   1.559  19.593  1.00  0.00     0.156 HD
HETATM   13  H   UNL     1      78.893   2.732  18.549  1.00  0.00     0.156 HD
ENDBRANCH   4  11
TORSDOF 2
ENDMDL
MODEL 7
REMARK VINA RESULT:      -3.8     16.298     17.601
REMARK  2 active torsions:
REMARK  status: ('A' for Active; 'I' for Inactive)
REMARK    1  A    between atoms: C_1  and  N_5 
REMARK    2  A    between atoms: C_4  and  N_6 
ROOT
HETATM    1  C   UNL     1      67.971   2.728   9.582  1.00  0.00     0.125 A 
HETATM    2  N   UNL     1      67.259   3.422   8.676  1.00  0.00    -0.351 N 
ATOM      3  HN  UNL     1      66.316   3.141   8.406  1.00  0.00     0.166 HD
HETATM    4  C   UNL     1      69.299   3.034   9.937  1.00  0.00     0.070 A 
HETATM    5  C   UNL     1      67.857   4.508   8.141  1.00  0.00     0.090 A 
HETATM    6  C   UNL     1      69.848   4.203   9.418  1.00  0.00     0.034 A 
HETATM    7  C   UNL     1      69.126   4.944   8.487  1.00  0.00     0.019 A 
ENDROOT
BRANCH   1   8
HETATM    8  N   UNL     1      67.335   1.626  10.176  1.00  0.00    -0.384 N 
HETATM    9  H   UNL     1      67.441   0.728   9.786  1.00  0.00     0.157 HD
HETATM   10  H   UNL     1      66.783   1.751  10.981  1.00  0.00     0.157 HD
ENDBRANCH   1   8
BRANCH   4  11
HETATM   11  N   UNL     1      69.963   2.318  10.959  1.00  0.00    -0.396 N 
HETATM   12  H   UNL     1      70.325   2.797  11.739  1.00  0.00     0.156 HD
HETATM   13  H   UNL     1      70.064   1.341  10.889  1.00  0.00     0.156 HD
ENDBRANCH   4  11
TORSDOF 2
ENDMDL
MODEL 8
REMARK VINA RESULT:      -3.7      9.352     10.346
REMARK  2 active torsions:
REMARK  status: ('A' for Active; 'I' for Inactive)
REMARK    1  A    between atoms: C_1  and  N_5 
REMARK    2  A    between atoms: C_4  and  N_6 
ROOT
HETATM    1  C   UNL     1      76.688   3.152  18.020  1.00  0.00     0.125 A 
HETATM    2  N   UNL     1      77.636   2.268  18.379  1.00  0.00    -0.351 N 
ATOM      3  HN  UNL     1      78.480   2.559  18.874  1.00  0.00     0.166 HD
HETATM    4  C   UNL     1      75.540   2.813  17.277  1.00  0.00     0.070 A 
HETATM    5  C   UNL     1      77.414   0.977  18.050  1.00  0.00     0.090 A 
HETATM    6  C   UNL     1      75.315   1.462  17.026  1.00  0.00     0.034 A 
HETATM    7  C   UNL     1      76.278   0.528  17.398  1.00  0.00     0.019 A 
ENDROOT
BRANCH   1   8
HETATM    8  N   UNL     1      76.892   4.488  18.402  1.00  0.00    -0.384 N 
HETATM    9  H   UNL     1      77.376   4.694  19.234  1.00  0.00     0.157 HD
HETATM   10  H   UNL     1      76.553   5.219  17.837  1.00  0.00     0.157 HD
ENDBRANCH   1   8
BRANCH   4  11
HETATM   11  N   UNL     1      74.539   3.773  17.005  1.00  0.00    -0.396 N 
HETATM   12  H   UNL     1      73.625   3.481  16.784  1.00  0.00     0.156 HD
HETATM   13  H   UNL     1      74.756   4.732  17.036  1.00  0.00     0.156 HD
ENDBRANCH   4  11
TORSDOF 2
ENDMDL
MODEL 9
REMARK VINA RESULT:      -3.6     16.222     17.193
REMARK  2 active torsions:
REMARK  status: ('A' for Active; 'I' for Inactive)
REMARK    1  A    between atoms: C_1  and  N_5 
REMARK    2  A    between atoms: C_4  and  N_6 
ROOT
HETATM    1  C   UNL     1      69.493   3.085   9.974  1.00  0.00     0.125 A 
HETATM    2  N   UNL     1      70.411   4.018   9.668  1.00  0.00    -0.351 N 
ATOM      3  HN  UNL     1      71.324   4.042  10.122  1.00  0.00     0.166 HD
HETATM    4  C   UNL     1      68.196   3.050   9.426  1.00  0.00     0.070 A 
HETATM    5  C   UNL     1      70.062   4.924   8.729  1.00  0.00     0.090 A 
HETATM    6  C   UNL     1      67.906   3.956   8.409  1.00  0.00     0.034 A 
HETATM    7  C   UNL     1      68.845   4.925   8.067  1.00  0.00     0.019 A 
ENDROOT
BRANCH   1   8
HETATM    8  N   UNL     1      69.870   2.113  10.915  1.00  0.00    -0.384 N 
HETATM    9  H   UNL     1      70.636   2.275  11.511  1.00  0.00     0.157 HD
HETATM   10  H   UNL     1      69.367   1.269  10.979  1.00  0.00     0.157 HD
ENDBRANCH   1   8
BRANCH   4  11
HETATM   11  N   UNL     1      67.307   1.993   9.724  1.00  0.00    -0.396 N 
HETATM   12  H   UNL     1      67.403   1.126   9.268  1.00  0.00     0.156 HD
HETATM   13  H   UNL     1      66.591   2.124  10.387  1.00  0.00     0.156 HD
ENDBRANCH   4  11
TORSDOF 2
ENDMDL
