MODEL 1
REMARK VINA RESULT:      -4.7      0.000      0.000
REMARK  1 active torsions:
REMARK  status: ('A' for Active; 'I' for Inactive)
REMARK    1  A    between atoms: C_4  and  N_6 
ROOT
HETATM    1  C   UNL     1      63.877   9.115   4.699  1.00  0.00     0.092 A 
HETATM    2  C   UNL     1      64.999   8.776   5.523  1.00  0.00     0.103 C 
HETATM    3  N   UNL     1      65.927   8.552   6.188  1.00  0.00    -0.191 NA
HETATM    4  C   UNL     1      63.188  10.328   4.914  1.00  0.00     0.048 A 
HETATM    5  C   UNL     1      63.483   8.264   3.653  1.00  0.00     0.057 A 
HETATM    6 CL   UNL     1      64.271   6.754   3.347  1.00  0.00    -0.083 Cl
HETATM    7  C   UNL     1      61.710   9.787   3.052  1.00  0.00     0.004 A 
HETATM    8  C   UNL     1      62.077  10.621   4.109  1.00  0.00     0.030 A 
HETATM    9  C   UNL     1      62.413   8.608   2.824  1.00  0.00     0.025 A 
ENDROOT
BRANCH   4  10
HETATM   10  N   UNL     1      63.420  11.140   6.039  1.00  0.00    -0.398 N 
HETATM   11  H   UNL     1      63.055  12.054   6.070  1.00  0.00     0.156 HD
HETATM   12  H   UNL     1      63.947  10.795   6.794  1.00  0.00     0.156 HD
ENDBRANCH   4  10
TORSDOF 1
ENDMDL
MODEL 2
REMARK VINA RESULT:      -4.5      2.171      2.630
REMARK  1 active torsions:
REMARK  status: ('A' for Active; 'I' for Inactive)
REMARK    1  A    between atoms: C_4  and  N_6 
ROOT
HETATM    1  C   UNL     1      62.751   8.865   3.187  1.00  0.00     0.092 A 
HETATM    2  C   UNL     1      63.237   7.517   3.150  1.00  0.00     0.103 C 
HETATM    3  N   UNL     1      63.673   6.438   3.150  1.00  0.00    -0.191 NA
HETATM    4  C   UNL     1      62.784   9.591   4.397  1.00  0.00     0.048 A 
HETATM    5  C   UNL     1      62.279   9.481   2.016  1.00  0.00     0.057 A 
HETATM    6 CL   UNL     1      62.194   8.643   0.504  1.00  0.00    -0.083 Cl
HETATM    7  C   UNL     1      61.839  11.515   3.236  1.00  0.00     0.004 A 
HETATM    8  C   UNL     1      62.277  10.899   4.409  1.00  0.00     0.030 A 
HETATM    9  C   UNL     1      61.840  10.806   2.039  1.00  0.00     0.025 A 
ENDROOT
BRANCH   4  10
HETATM   10  N   UNL     1      63.083   8.988   5.632  1.00  0.00    -0.398 N 
HETATM   11  H   UNL     1      63.885   8.425   5.724  1.00  0.00     0.156 HD
HETATM   12  H   UNL     1      62.490   9.129   6.405  1.00  0.00     0.156 HD
ENDBRANCH   4  10
TORSDOF 1
ENDMDL
MODEL 3
REMARK VINA RESULT:      -4.5      2.475      3.103
REMARK  1 active torsions:
REMARK  status: ('A' for Active; 'I' for Inactive)
REMARK    1  A    between atoms: C_4  and  N_6 
ROOT
HETATM    1  C   UNL     1      62.917   9.023   4.020  1.00  0.00     0.092 A 
HETATM    2  C   UNL     1      63.454   8.422   5.206  1.00  0.00     0.103 C 
HETATM    3  N   UNL     1      63.861   7.890   6.157  1.00  0.00    -0.191 NA
HETATM    4  C   UNL     1      62.807   8.263   2.835  1.00  0.00     0.048 A 
HETATM    5  C   UNL     1      62.463  10.352   4.042  1.00  0.00     0.057 A 
HETATM    6 CL   UNL     1      62.587  11.344   5.454  1.00  0.00    -0.083 Cl
HETATM    7  C   UNL     1      61.824  10.196   1.721  1.00  0.00     0.004 A 
HETATM    8  C   UNL     1      62.302   8.885   1.684  1.00  0.00     0.030 A 
HETATM    9  C   UNL     1      61.905  10.930   2.900  1.00  0.00     0.025 A 
ENDROOT
BRANCH   4  10
HETATM   10  N   UNL     1      63.390   6.991   2.696  1.00  0.00    -0.398 N 
HETATM   11  H   UNL     1      62.964   6.206   3.110  1.00  0.00     0.156 HD
HETATM   12  H   UNL     1      64.225   6.886   2.186  1.00  0.00     0.156 HD
ENDBRANCH   4  10
TORSDOF 1
ENDMDL
MODEL 4
REMARK VINA RESULT:      -4.5      1.731      2.562
REMARK  1 active torsions:
REMARK  status: ('A' for Active; 'I' for Inactive)
REMARK    1  A    between atoms: C_4  and  N_6 
ROOT
HETATM    1  C   UNL     1      62.622   9.529   3.668  1.00  0.00     0.092 A 
HETATM    2  C   UNL     1      62.828  10.227   4.902  1.00  0.00     0.103 C 
HETATM    3  N   UNL     1      63.014  10.836   5.876  1.00  0.00    -0.191 NA
HETATM    4  C   UNL     1      62.069  10.208   2.560  1.00  0.00     0.048 A 
HETATM    5  C   UNL     1      63.003   8.183   3.543  1.00  0.00     0.057 A 
HETATM    6 CL   UNL     1      63.667   7.287   4.865  1.00  0.00    -0.083 Cl
HETATM    7  C   UNL     1      62.263   8.164   1.246  1.00  0.00     0.004 A 
HETATM    8  C   UNL     1      61.854   9.492   1.374  1.00  0.00     0.030 A 
HETATM    9  C   UNL     1      62.838   7.509   2.331  1.00  0.00     0.025 A 
ENDROOT
BRANCH   4  10
HETATM   10  N   UNL     1      61.514  11.496   2.663  1.00  0.00    -0.398 N 
HETATM   11  H   UNL     1      61.725  12.063   3.440  1.00  0.00     0.156 HD
HETATM   12  H   UNL     1      60.913  11.831   1.959  1.00  0.00     0.156 HD
ENDBRANCH   4  10
TORSDOF 1
ENDMDL
MODEL 5
REMARK VINA RESULT:      -4.5      1.958      3.280
REMARK  1 active torsions:
REMARK  status: ('A' for Active; 'I' for Inactive)
REMARK    1  A    between atoms: C_4  and  N_6 
ROOT
HETATM    1  C   UNL     1      62.811   9.227   3.558  1.00  0.00     0.092 A 
HETATM    2  C   UNL     1      62.225  10.509   3.817  1.00  0.00     0.103 C 
HETATM    3  N   UNL     1      61.743  11.535   4.078  1.00  0.00    -0.191 NA
HETATM    4  C   UNL     1      63.710   8.664   4.489  1.00  0.00     0.048 A 
HETATM    5  C   UNL     1      62.464   8.510   2.401  1.00  0.00     0.057 A 
HETATM    6 CL   UNL     1      61.384   9.149   1.210  1.00  0.00    -0.083 Cl
HETATM    7  C   UNL     1      63.915   6.699   3.061  1.00  0.00     0.004 A 
HETATM    8  C   UNL     1      64.287   7.420   4.196  1.00  0.00     0.030 A 
HETATM    9  C   UNL     1      63.003   7.244   2.163  1.00  0.00     0.025 A 
ENDROOT
BRANCH   4  10
HETATM   10  N   UNL     1      64.227   9.392   5.576  1.00  0.00    -0.398 N 
HETATM   11  H   UNL     1      63.695   9.495   6.397  1.00  0.00     0.156 HD
HETATM   12  H   UNL     1      65.121   9.799   5.514  1.00  0.00     0.156 HD
ENDBRANCH   4  10
TORSDOF 1
ENDMDL
MODEL 6
REMARK VINA RESULT:      -4.4     18.958     20.388
REMARK  1 active torsions:
REMARK  status: ('A' for Active; 'I' for Inactive)
REMARK    1  A    between atoms: C_4  and  N_6 
ROOT
HETATM    1  C   UNL     1      77.108   1.371  18.117  1.00  0.00     0.092 A 
HETATM    2  C   UNL     1      78.202   1.198  19.026  1.00  0.00     0.103 C 
HETATM    3  N   UNL     1      79.107   1.107  19.752  1.00  0.00    -0.191 NA
HETATM    4  C   UNL     1      76.422   2.604  18.069  1.00  0.00     0.048 A 
HETATM    5  C   UNL     1      76.740   0.333  17.245  1.00  0.00     0.057 A 
HETATM    6 CL   UNL     1      77.526  -1.209  17.265  1.00  0.00    -0.083 Cl
HETATM    7  C   UNL     1      74.998   1.712  16.303  1.00  0.00     0.004 A 
HETATM    8  C   UNL     1      75.339   2.735  17.188  1.00  0.00     0.030 A 
HETATM    9  C   UNL     1      75.699   0.510  16.331  1.00  0.00     0.025 A 
ENDROOT
BRANCH   4  10
HETATM   10  N   UNL     1      76.625   3.620  19.021  1.00  0.00    -0.398 N 
HETATM   11  H   UNL     1      76.548   4.565  18.757  1.00  0.00     0.156 HD
HETATM   12  H   UNL     1      76.844   3.385  19.951  1.00  0.00     0.156 HD
ENDBRANCH   4  10
TORSDOF 1
ENDMDL
MODEL 7
REMARK VINA RESULT:      -4.3     18.445     19.568
REMARK  1 active torsions:
REMARK  status: ('A' for Active; 'I' for Inactive)
REMARK    1  A    between atoms: C_4  and  N_6 
ROOT
HETATM    1  C   UNL     1      76.130   2.619  17.711  1.00  0.00     0.092 A 
HETATM    2  C   UNL     1      76.648   3.870  18.182  1.00  0.00     0.103 C 
HETATM    3  N   UNL     1      77.057   4.907  18.516  1.00  0.00    -0.191 NA
HETATM    4  C   UNL     1      74.938   2.592  16.956  1.00  0.00     0.048 A 
HETATM    5  C   UNL     1      76.824   1.425  17.964  1.00  0.00     0.057 A 
HETATM    6 CL   UNL     1      78.280   1.384  18.899  1.00  0.00    -0.083 Cl
HETATM    7  C   UNL     1      75.151   0.171  16.759  1.00  0.00     0.004 A 
HETATM    8  C   UNL     1      74.441   1.351  16.532  1.00  0.00     0.030 A 
HETATM    9  C   UNL     1      76.343   0.208  17.476  1.00  0.00     0.025 A 
ENDROOT
BRANCH   4  10
HETATM   10  N   UNL     1      74.109   3.719  16.810  1.00  0.00    -0.398 N 
HETATM   11  H   UNL     1      74.106   4.222  15.964  1.00  0.00     0.156 HD
HETATM   12  H   UNL     1      73.534   4.007  17.555  1.00  0.00     0.156 HD
ENDBRANCH   4  10
TORSDOF 1
ENDMDL
MODEL 8
REMARK VINA RESULT:      -4.1     19.267     20.627
REMARK  1 active torsions:
REMARK  status: ('A' for Active; 'I' for Inactive)
REMARK    1  A    between atoms: C_4  and  N_6 
ROOT
HETATM    1  C   UNL     1      77.229   1.318  18.062  1.00  0.00     0.092 A 
HETATM    2  C   UNL     1      78.302   1.184  19.001  1.00  0.00     0.103 C 
HETATM    3  N   UNL     1      79.156   1.026  19.776  1.00  0.00    -0.191 NA
HETATM    4  C   UNL     1      76.884   0.232  17.228  1.00  0.00     0.048 A 
HETATM    5  C   UNL     1      76.492   2.512  17.994  1.00  0.00     0.057 A 
HETATM    6 CL   UNL     1      76.874   3.888  18.972  1.00  0.00    -0.083 Cl
HETATM    7  C   UNL     1      75.098   1.579  16.260  1.00  0.00     0.004 A 
HETATM    8  C   UNL     1      75.845   0.402  16.301  1.00  0.00     0.030 A 
HETATM    9  C   UNL     1      75.421   2.635  17.106  1.00  0.00     0.025 A 
ENDROOT
BRANCH   4  10
HETATM   10  N   UNL     1      77.678  -0.924  17.126  1.00  0.00    -0.398 N 
HETATM   11  H   UNL     1      77.318  -1.732  16.694  1.00  0.00     0.156 HD
HETATM   12  H   UNL     1      78.594  -0.925  17.486  1.00  0.00     0.156 HD
ENDBRANCH   4  10
TORSDOF 1
ENDMDL
MODEL 9
REMARK VINA RESULT:      -4.0      7.765      9.119
REMARK  1 active torsions:
REMARK  status: ('A' for Active; 'I' for Inactive)
REMARK    1  A    between atoms: C_4  and  N_6 
ROOT
HETATM    1  C   UNL     1      68.906   3.354   9.121  1.00  0.00     0.092 A 
HETATM    2  C   UNL     1      69.602   2.415   9.950  1.00  0.00     0.103 C 
HETATM    3  N   UNL     1      70.122   1.647  10.652  1.00  0.00    -0.191 NA
HETATM    4  C   UNL     1      67.565   3.108   8.752  1.00  0.00     0.048 A 
HETATM    5  C   UNL     1      69.538   4.537   8.706  1.00  0.00     0.057 A 
HETATM    6 CL   UNL     1      71.185   4.891   9.105  1.00  0.00    -0.083 Cl
HETATM    7  C   UNL     1      67.542   5.221   7.535  1.00  0.00     0.004 A 
HETATM    8  C   UNL     1      66.919   4.032   7.918  1.00  0.00     0.030 A 
HETATM    9  C   UNL     1      68.852   5.473   7.929  1.00  0.00     0.025 A 
ENDROOT
BRANCH   4  10
HETATM   10  N   UNL     1      66.930   1.876   8.989  1.00  0.00    -0.398 N 
HETATM   11  H   UNL     1      66.192   1.819   9.638  1.00  0.00     0.156 HD
HETATM   12  H   UNL     1      67.224   1.070   8.507  1.00  0.00     0.156 HD
ENDBRANCH   4  10
TORSDOF 1
ENDMDL
