MODEL 1
REMARK VINA RESULT:      -4.5      0.000      0.000
REMARK  1 active torsions:
REMARK  status: ('A' for Active; 'I' for Inactive)
REMARK    1  A    between atoms: C_1  and  C_3 
ROOT
HETATM    1  C   UNL     1      77.563   9.043  15.686  1.00  0.00     0.026 A 
HETATM    2  N   UNL     1      77.507   7.917  13.751  1.00  0.00    -0.374 N 
HETATM    3  C   UNL     1      77.264   7.824  15.098  1.00  0.00     0.102 A 
HETATM    4  C   UNL     1      78.007   9.891  14.630  1.00  0.00     0.033 A 
HETATM    5  C   UNL     1      77.962   9.174  13.456  1.00  0.00     0.088 A 
HETATM    6  H   UNL     1      77.375   7.193  13.098  1.00  0.00     0.164 HD
ENDROOT
BRANCH   1   7
HETATM    7  C   UNL     1      77.450   9.396  17.102  1.00  0.00     0.157 C 
HETATM    8  O   UNL     1      77.704  10.535  17.495  1.00  0.00    -0.293 OA
HETATM    9  C   UNL     1      77.016   8.335  18.080  1.00  0.00     0.097 C 
ENDBRANCH   1   7
TORSDOF 1
ENDMDL
MODEL 2
REMARK VINA RESULT:      -4.3      4.135      5.386
REMARK  1 active torsions:
REMARK  status: ('A' for Active; 'I' for Inactive)
REMARK    1  A    between atoms: C_1  and  C_3 
ROOT
HETATM    1  C   UNL     1      77.367  11.351  19.367  1.00  0.00     0.026 A 
HETATM    2  N   UNL     1      75.993  13.119  19.404  1.00  0.00    -0.374 N 
HETATM    3  C   UNL     1      76.545  12.157  18.596  1.00  0.00     0.102 A 
HETATM    4  C   UNL     1      77.296  11.869  20.693  1.00  0.00     0.033 A 
HETATM    5  C   UNL     1      76.446  12.952  20.685  1.00  0.00     0.088 A 
HETATM    6  H   UNL     1      75.369  13.820  19.109  1.00  0.00     0.164 HD
ENDROOT
BRANCH   1   7
HETATM    7  C   UNL     1      78.153  10.200  18.920  1.00  0.00     0.157 C 
HETATM    8  O   UNL     1      79.381  10.197  19.005  1.00  0.00    -0.293 OA
HETATM    9  C   UNL     1      77.429   9.009  18.345  1.00  0.00     0.097 C 
ENDBRANCH   1   7
TORSDOF 1
ENDMDL
MODEL 3
REMARK VINA RESULT:      -4.2      5.429      6.473
REMARK  1 active torsions:
REMARK  status: ('A' for Active; 'I' for Inactive)
REMARK    1  A    between atoms: C_1  and  C_3 
ROOT
HETATM    1  C   UNL     1      78.298  11.947  20.349  1.00  0.00     0.026 A 
HETATM    2  N   UNL     1      80.197  11.433  21.419  1.00  0.00    -0.374 N 
HETATM    3  C   UNL     1      79.463  11.200  20.283  1.00  0.00     0.102 A 
HETATM    4  C   UNL     1      78.351  12.652  21.587  1.00  0.00     0.033 A 
HETATM    5  C   UNL     1      79.526  12.316  22.221  1.00  0.00     0.088 A 
HETATM    6  H   UNL     1      81.070  11.028  21.625  1.00  0.00     0.164 HD
ENDROOT
BRANCH   1   7
HETATM    7  C   UNL     1      77.225  12.009  19.355  1.00  0.00     0.157 C 
HETATM    8  O   UNL     1      77.280  11.346  18.319  1.00  0.00    -0.293 OA
HETATM    9  C   UNL     1      76.043  12.906  19.620  1.00  0.00     0.097 C 
ENDBRANCH   1   7
TORSDOF 1
ENDMDL
MODEL 4
REMARK VINA RESULT:      -4.2      6.113      6.918
REMARK  1 active torsions:
REMARK  status: ('A' for Active; 'I' for Inactive)
REMARK    1  A    between atoms: C_1  and  C_3 
ROOT
HETATM    1  C   UNL     1      75.599   3.201  17.394  1.00  0.00     0.026 A 
HETATM    2  N   UNL     1      77.173   4.760  17.722  1.00  0.00    -0.374 N 
HETATM    3  C   UNL     1      76.813   3.466  18.007  1.00  0.00     0.102 A 
HETATM    4  C   UNL     1      75.228   4.399  16.718  1.00  0.00     0.033 A 
HETATM    5  C   UNL     1      76.211   5.337  16.938  1.00  0.00     0.088 A 
HETATM    6  H   UNL     1      77.994   5.204  18.034  1.00  0.00     0.164 HD
ENDROOT
BRANCH   1   7
HETATM    7  C   UNL     1      74.845   1.947  17.427  1.00  0.00     0.157 C 
HETATM    8  O   UNL     1      74.466   1.461  18.493  1.00  0.00    -0.293 OA
HETATM    9  C   UNL     1      74.538   1.252  16.124  1.00  0.00     0.097 C 
ENDBRANCH   1   7
TORSDOF 1
ENDMDL
MODEL 5
REMARK VINA RESULT:      -4.2      3.667      4.881
REMARK  1 active torsions:
REMARK  status: ('A' for Active; 'I' for Inactive)
REMARK    1  A    between atoms: C_1  and  C_3 
ROOT
HETATM    1  C   UNL     1      78.330  10.395  18.905  1.00  0.00     0.026 A 
HETATM    2  N   UNL     1      79.856  10.997  20.430  1.00  0.00    -0.374 N 
HETATM    3  C   UNL     1      79.612  10.155  19.374  1.00  0.00     0.102 A 
HETATM    4  C   UNL     1      77.795  11.428  19.729  1.00  0.00     0.033 A 
HETATM    5  C   UNL     1      78.753  11.776  20.654  1.00  0.00     0.088 A 
HETATM    6  H   UNL     1      80.693  11.036  20.945  1.00  0.00     0.164 HD
ENDROOT
BRANCH   1   7
HETATM    7  C   UNL     1      77.654   9.729  17.791  1.00  0.00     0.157 C 
HETATM    8  O   UNL     1      77.562  10.269  16.688  1.00  0.00    -0.293 OA
HETATM    9  C   UNL     1      77.065   8.359  18.017  1.00  0.00     0.097 C 
ENDBRANCH   1   7
TORSDOF 1
ENDMDL
MODEL 6
REMARK VINA RESULT:      -4.1     15.720     16.418
REMARK  1 active torsions:
REMARK  status: ('A' for Active; 'I' for Inactive)
REMARK    1  A    between atoms: C_1  and  C_3 
ROOT
HETATM    1  C   UNL     1      71.626  23.812  14.076  1.00  0.00     0.026 A 
HETATM    2  N   UNL     1      71.892  25.695  15.259  1.00  0.00    -0.374 N 
HETATM    3  C   UNL     1      72.545  24.760  14.496  1.00  0.00     0.102 A 
HETATM    4  C   UNL     1      70.372  24.209  14.624  1.00  0.00     0.033 A 
HETATM    5  C   UNL     1      70.566  25.366  15.344  1.00  0.00     0.088 A 
HETATM    6  H   UNL     1      72.311  26.479  15.681  1.00  0.00     0.164 HD
ENDROOT
BRANCH   1   7
HETATM    7  C   UNL     1      71.882  22.638  13.240  1.00  0.00     0.157 C 
HETATM    8  O   UNL     1      72.956  22.039  13.297  1.00  0.00    -0.293 OA
HETATM    9  C   UNL     1      70.801  22.172  12.298  1.00  0.00     0.097 C 
ENDBRANCH   1   7
TORSDOF 1
ENDMDL
MODEL 7
REMARK VINA RESULT:      -4.1      4.602      5.653
REMARK  1 active torsions:
REMARK  status: ('A' for Active; 'I' for Inactive)
REMARK    1  A    between atoms: C_1  and  C_3 
ROOT
HETATM    1  C   UNL     1      76.371   4.621  17.487  1.00  0.00     0.026 A 
HETATM    2  N   UNL     1      76.264   2.645  18.535  1.00  0.00    -0.374 N 
HETATM    3  C   UNL     1      76.870   3.876  18.544  1.00  0.00     0.102 A 
HETATM    4  C   UNL     1      75.428   3.782  16.824  1.00  0.00     0.033 A 
HETATM    5  C   UNL     1      75.384   2.578  17.489  1.00  0.00     0.088 A 
HETATM    6  H   UNL     1      76.435   1.922  19.181  1.00  0.00     0.164 HD
ENDROOT
BRANCH   1   7
HETATM    7  C   UNL     1      76.733   5.990  17.118  1.00  0.00     0.157 C 
HETATM    8  O   UNL     1      76.996   6.831  17.977  1.00  0.00    -0.293 OA
HETATM    9  C   UNL     1      76.776   6.358  15.656  1.00  0.00     0.097 C 
ENDBRANCH   1   7
TORSDOF 1
ENDMDL
MODEL 8
REMARK VINA RESULT:      -3.9     14.932     15.642
REMARK  1 active torsions:
REMARK  status: ('A' for Active; 'I' for Inactive)
REMARK    1  A    between atoms: C_1  and  C_3 
ROOT
HETATM    1  C   UNL     1      71.792  23.083  13.913  1.00  0.00     0.026 A 
HETATM    2  N   UNL     1      72.710  24.329  15.531  1.00  0.00    -0.374 N 
HETATM    3  C   UNL     1      71.639  24.227  14.679  1.00  0.00     0.102 A 
HETATM    4  C   UNL     1      73.016  22.487  14.334  1.00  0.00     0.033 A 
HETATM    5  C   UNL     1      73.556  23.273  15.327  1.00  0.00     0.088 A 
HETATM    6  H   UNL     1      72.849  25.050  16.186  1.00  0.00     0.164 HD
ENDROOT
BRANCH   1   7
HETATM    7  C   UNL     1      70.886  22.581  12.878  1.00  0.00     0.157 C 
HETATM    8  O   UNL     1      69.679  22.822  12.919  1.00  0.00    -0.293 OA
HETATM    9  C   UNL     1      71.458  21.755  11.754  1.00  0.00     0.097 C 
ENDBRANCH   1   7
TORSDOF 1
ENDMDL
MODEL 9
REMARK VINA RESULT:      -3.9      6.145      6.972
REMARK  1 active torsions:
REMARK  status: ('A' for Active; 'I' for Inactive)
REMARK    1  A    between atoms: C_1  and  C_3 
ROOT
HETATM    1  C   UNL     1      76.185   2.789  17.677  1.00  0.00     0.026 A 
HETATM    2  N   UNL     1      75.861   0.766  16.774  1.00  0.00    -0.374 N 
HETATM    3  C   UNL     1      76.724   1.522  17.526  1.00  0.00     0.102 A 
HETATM    4  C   UNL     1      74.944   2.776  16.977  1.00  0.00     0.033 A 
HETATM    5  C   UNL     1      74.772   1.522  16.434  1.00  0.00     0.088 A 
HETATM    6  H   UNL     1      76.001  -0.174  16.520  1.00  0.00     0.164 HD
ENDROOT
BRANCH   1   7
HETATM    7  C   UNL     1      76.764   3.919  18.407  1.00  0.00     0.157 C 
HETATM    8  O   UNL     1      77.117   3.803  19.580  1.00  0.00    -0.293 OA
HETATM    9  C   UNL     1      76.919   5.238  17.693  1.00  0.00     0.097 C 
ENDBRANCH   1   7
TORSDOF 1
ENDMDL
