MODEL 1
REMARK VINA RESULT:      -5.7      0.000      0.000
REMARK  1 active torsions:
REMARK  status: ('A' for Active; 'I' for Inactive)
REMARK    1  A    between atoms: N_1  and  C_2 
ROOT
HETATM    1  C   UNL     1      62.886   8.476   3.377  1.00  0.00     0.051 A 
HETATM    2  N   UNL     1      61.927  11.781   4.406  1.00  0.00    -0.191 NA
HETATM    3  C   UNL     1      62.101  10.831   3.755  1.00  0.00     0.102 C 
HETATM    4  C   UNL     1      62.254   9.665   2.935  1.00  0.00     0.071 A 
HETATM    5  C   UNL     1      62.992   7.446   2.419  1.00  0.00     0.031 A 
HETATM    6  C   UNL     1      61.765   9.788   1.617  1.00  0.00     0.025 A 
HETATM    7  C   UNL     1      62.507   7.571   1.111  1.00  0.00     0.002 A 
HETATM    8  C   UNL     1      61.891   8.745   0.710  1.00  0.00     0.002 A 
ENDROOT
BRANCH   1   9
HETATM    9  N   UNL     1      63.390   8.273   4.655  1.00  0.00    -0.380 N 
HETATM   10  C   UNL     1      62.592   7.667   5.729  1.00  0.00     0.123 C 
HETATM   11  C   UNL     1      63.326   6.431   6.257  1.00  0.00     0.020 C 
HETATM   12  C   UNL     1      64.763   6.753   6.669  1.00  0.00     0.003 C 
HETATM   13  C   UNL     1      65.514   7.478   5.552  1.00  0.00     0.020 C 
HETATM   14  C   UNL     1      64.728   8.701   5.077  1.00  0.00     0.123 C 
ENDBRANCH   1   9
TORSDOF 1
ENDMDL
MODEL 2
REMARK VINA RESULT:      -5.7      1.161      2.089
REMARK  1 active torsions:
REMARK  status: ('A' for Active; 'I' for Inactive)
REMARK    1  A    between atoms: N_1  and  C_2 
ROOT
HETATM    1  C   UNL     1      62.671   9.100   3.496  1.00  0.00     0.051 A 
HETATM    2  N   UNL     1      63.131  11.170   6.396  1.00  0.00    -0.191 NA
HETATM    3  C   UNL     1      62.872  10.819   5.316  1.00  0.00     0.102 C 
HETATM    4  C   UNL     1      62.497  10.417   3.991  1.00  0.00     0.071 A 
HETATM    5  C   UNL     1      62.292   8.896   2.153  1.00  0.00     0.031 A 
HETATM    6  C   UNL     1      61.973  11.442   3.177  1.00  0.00     0.025 A 
HETATM    7  C   UNL     1      61.771   9.917   1.346  1.00  0.00     0.002 A 
HETATM    8  C   UNL     1      61.611  11.192   1.860  1.00  0.00     0.002 A 
ENDROOT
BRANCH   1   9
HETATM    9  N   UNL     1      63.176   8.036   4.232  1.00  0.00    -0.380 N 
HETATM   10  C   UNL     1      64.606   7.703   4.254  1.00  0.00     0.123 C 
HETATM   11  C   UNL     1      65.099   7.721   5.704  1.00  0.00     0.020 C 
HETATM   12  C   UNL     1      64.247   6.829   6.608  1.00  0.00     0.003 C 
HETATM   13  C   UNL     1      62.759   7.148   6.465  1.00  0.00     0.020 C 
HETATM   14  C   UNL     1      62.336   7.107   4.996  1.00  0.00     0.123 C 
ENDBRANCH   1   9
TORSDOF 1
ENDMDL
MODEL 3
REMARK VINA RESULT:      -5.3      1.225      2.606
REMARK  1 active torsions:
REMARK  status: ('A' for Active; 'I' for Inactive)
REMARK    1  A    between atoms: N_1  and  C_2 
ROOT
HETATM    1  C   UNL     1      62.889   9.232   4.055  1.00  0.00     0.051 A 
HETATM    2  N   UNL     1      63.326   6.359   1.945  1.00  0.00    -0.191 NA
HETATM    3  C   UNL     1      63.030   7.420   2.323  1.00  0.00     0.102 C 
HETATM    4  C   UNL     1      62.694   8.751   2.736  1.00  0.00     0.071 A 
HETATM    5  C   UNL     1      62.455  10.553   4.296  1.00  0.00     0.031 A 
HETATM    6  C   UNL     1      62.105   9.559   1.741  1.00  0.00     0.025 A 
HETATM    7  C   UNL     1      61.869  11.353   3.306  1.00  0.00     0.002 A 
HETATM    8  C   UNL     1      61.696  10.855   2.026  1.00  0.00     0.002 A 
ENDROOT
BRANCH   1   9
HETATM    9  N   UNL     1      63.463   8.504   5.089  1.00  0.00    -0.380 N 
HETATM   10  C   UNL     1      62.661   7.773   6.078  1.00  0.00     0.123 C 
HETATM   11  C   UNL     1      63.074   6.299   6.063  1.00  0.00     0.020 C 
HETATM   12  C   UNL     1      64.582   6.126   6.249  1.00  0.00     0.003 C 
HETATM   13  C   UNL     1      65.369   6.992   5.265  1.00  0.00     0.020 C 
HETATM   14  C   UNL     1      64.908   8.448   5.336  1.00  0.00     0.123 C 
ENDBRANCH   1   9
TORSDOF 1
ENDMDL
MODEL 4
REMARK VINA RESULT:      -4.9      1.620      3.105
REMARK  1 active torsions:
REMARK  status: ('A' for Active; 'I' for Inactive)
REMARK    1  A    between atoms: N_1  and  C_2 
ROOT
HETATM    1  C   UNL     1      62.380   9.106   3.482  1.00  0.00     0.051 A 
HETATM    2  N   UNL     1      62.386   7.550   0.245  1.00  0.00    -0.191 NA
HETATM    3  C   UNL     1      62.298   8.347   1.090  1.00  0.00     0.102 C 
HETATM    4  C   UNL     1      62.228   9.365   2.097  1.00  0.00     0.071 A 
HETATM    5  C   UNL     1      62.232  10.221   4.334  1.00  0.00     0.031 A 
HETATM    6  C   UNL     1      61.951  10.664   1.621  1.00  0.00     0.025 A 
HETATM    7  C   UNL     1      61.956  11.510   3.859  1.00  0.00     0.002 A 
HETATM    8  C   UNL     1      61.817  11.731   2.499  1.00  0.00     0.002 A 
ENDROOT
BRANCH   1   9
HETATM    9  N   UNL     1      62.656   7.861   4.031  1.00  0.00    -0.380 N 
HETATM   10  C   UNL     1      63.993   7.255   3.975  1.00  0.00     0.123 C 
HETATM   11  C   UNL     1      64.459   6.946   5.401  1.00  0.00     0.020 C 
HETATM   12  C   UNL     1      63.437   6.106   6.167  1.00  0.00     0.003 C 
HETATM   13  C   UNL     1      62.042   6.728   6.102  1.00  0.00     0.020 C 
HETATM   14  C   UNL     1      61.640   7.005   4.653  1.00  0.00     0.123 C 
ENDBRANCH   1   9
TORSDOF 1
ENDMDL
MODEL 5
REMARK VINA RESULT:      -4.9      3.904      7.601
REMARK  1 active torsions:
REMARK  status: ('A' for Active; 'I' for Inactive)
REMARK    1  A    between atoms: N_1  and  C_2 
ROOT
HETATM    1  C   UNL     1      67.575   5.690   7.519  1.00  0.00     0.051 A 
HETATM    2  N   UNL     1      67.138   3.904   4.433  1.00  0.00    -0.191 NA
HETATM    3  C   UNL     1      67.508   4.202   5.497  1.00  0.00     0.102 C 
HETATM    4  C   UNL     1      67.948   4.511   6.826  1.00  0.00     0.071 A 
HETATM    5  C   UNL     1      68.143   5.853   8.800  1.00  0.00     0.031 A 
HETATM    6  C   UNL     1      68.830   3.571   7.401  1.00  0.00     0.025 A 
HETATM    7  C   UNL     1      69.019   4.918   9.368  1.00  0.00     0.002 A 
HETATM    8  C   UNL     1      69.362   3.775   8.667  1.00  0.00     0.002 A 
ENDROOT
BRANCH   1   9
HETATM    9  N   UNL     1      66.712   6.660   7.027  1.00  0.00    -0.380 N 
HETATM   10  C   UNL     1      67.185   7.814   6.252  1.00  0.00     0.123 C 
HETATM   11  C   UNL     1      66.473   7.829   4.896  1.00  0.00     0.020 C 
HETATM   12  C   UNL     1      64.952   7.774   5.048  1.00  0.00     0.003 C 
HETATM   13  C   UNL     1      64.523   6.618   5.952  1.00  0.00     0.020 C 
HETATM   14  C   UNL     1      65.268   6.668   7.286  1.00  0.00     0.123 C 
ENDBRANCH   1   9
TORSDOF 1
ENDMDL
MODEL 6
REMARK VINA RESULT:      -4.9      1.560      4.262
REMARK  1 active torsions:
REMARK  status: ('A' for Active; 'I' for Inactive)
REMARK    1  A    between atoms: N_1  and  C_2 
ROOT
HETATM    1  C   UNL     1      63.309   7.642   3.403  1.00  0.00     0.051 A 
HETATM    2  N   UNL     1      61.690  10.784   4.046  1.00  0.00    -0.191 NA
HETATM    3  C   UNL     1      62.433   9.888   4.105  1.00  0.00     0.102 C 
HETATM    4  C   UNL     1      63.395   8.828   4.176  1.00  0.00     0.071 A 
HETATM    5  C   UNL     1      64.318   6.684   3.638  1.00  0.00     0.031 A 
HETATM    6  C   UNL     1      64.433   9.018   5.112  1.00  0.00     0.025 A 
HETATM    7  C   UNL     1      65.347   6.876   4.569  1.00  0.00     0.002 A 
HETATM    8  C   UNL     1      65.405   8.046   5.306  1.00  0.00     0.002 A 
ENDROOT
BRANCH   1   9
HETATM    9  N   UNL     1      62.324   7.379   2.460  1.00  0.00    -0.380 N 
HETATM   10  C   UNL     1      61.078   6.680   2.798  1.00  0.00     0.123 C 
HETATM   11  C   UNL     1      59.890   7.567   2.417  1.00  0.00     0.020 C 
HETATM   12  C   UNL     1      59.961   8.023   0.959  1.00  0.00     0.003 C 
HETATM   13  C   UNL     1      61.319   8.647   0.635  1.00  0.00     0.020 C 
HETATM   14  C   UNL     1      62.456   7.707   1.036  1.00  0.00     0.123 C 
ENDBRANCH   1   9
TORSDOF 1
ENDMDL
MODEL 7
REMARK VINA RESULT:      -4.6      4.414      7.516
REMARK  1 active torsions:
REMARK  status: ('A' for Active; 'I' for Inactive)
REMARK    1  A    between atoms: N_1  and  C_2 
ROOT
HETATM    1  C   UNL     1      67.628   4.597   6.866  1.00  0.00     0.051 A 
HETATM    2  N   UNL     1      66.870   6.768   9.626  1.00  0.00    -0.191 NA
HETATM    3  C   UNL     1      67.262   5.866   9.003  1.00  0.00     0.102 C 
HETATM    4  C   UNL     1      67.800   4.761   8.264  1.00  0.00     0.071 A 
HETATM    5  C   UNL     1      68.184   3.424   6.313  1.00  0.00     0.031 A 
HETATM    6  C   UNL     1      68.491   3.802   9.034  1.00  0.00     0.025 A 
HETATM    7  C   UNL     1      68.870   2.473   7.081  1.00  0.00     0.002 A 
HETATM    8  C   UNL     1      69.024   2.664   8.444  1.00  0.00     0.002 A 
ENDROOT
BRANCH   1   9
HETATM    9  N   UNL     1      66.965   5.494   6.038  1.00  0.00    -0.380 N 
HETATM   10  C   UNL     1      65.511   5.452   5.835  1.00  0.00     0.123 C 
HETATM   11  C   UNL     1      64.916   6.810   6.217  1.00  0.00     0.020 C 
HETATM   12  C   UNL     1      65.604   7.962   5.484  1.00  0.00     0.003 C 
HETATM   13  C   UNL     1      67.124   7.895   5.641  1.00  0.00     0.020 C 
HETATM   14  C   UNL     1      67.649   6.517   5.239  1.00  0.00     0.123 C 
ENDBRANCH   1   9
TORSDOF 1
ENDMDL
MODEL 8
REMARK VINA RESULT:      -4.5      3.306      5.201
REMARK  1 active torsions:
REMARK  status: ('A' for Active; 'I' for Inactive)
REMARK    1  A    between atoms: N_1  and  C_2 
ROOT
HETATM    1  C   UNL     1      65.537   6.961   6.188  1.00  0.00     0.051 A 
HETATM    2  N   UNL     1      64.416   3.744   7.327  1.00  0.00    -0.191 NA
HETATM    3  C   UNL     1      64.445   4.787   6.809  1.00  0.00     0.102 C 
HETATM    4  C   UNL     1      64.459   6.043   6.117  1.00  0.00     0.071 A 
HETATM    5  C   UNL     1      65.359   8.170   5.482  1.00  0.00     0.031 A 
HETATM    6  C   UNL     1      63.294   6.337   5.378  1.00  0.00     0.025 A 
HETATM    7  C   UNL     1      64.200   8.459   4.750  1.00  0.00     0.002 A 
HETATM    8  C   UNL     1      63.166   7.540   4.697  1.00  0.00     0.002 A 
ENDROOT
BRANCH   1   9
HETATM    9  N   UNL     1      66.717   6.748   6.888  1.00  0.00    -0.380 N 
HETATM   10  C   UNL     1      66.934   7.270   8.243  1.00  0.00     0.123 C 
HETATM   11  C   UNL     1      67.266   6.104   9.179  1.00  0.00     0.020 C 
HETATM   12  C   UNL     1      68.429   5.262   8.653  1.00  0.00     0.003 C 
HETATM   13  C   UNL     1      68.199   4.836   7.203  1.00  0.00     0.020 C 
HETATM   14  C   UNL     1      67.878   6.047   6.327  1.00  0.00     0.123 C 
ENDBRANCH   1   9
TORSDOF 1
ENDMDL
MODEL 9
REMARK VINA RESULT:      -4.1     17.917     20.288
REMARK  1 active torsions:
REMARK  status: ('A' for Active; 'I' for Inactive)
REMARK    1  A    between atoms: N_1  and  C_2 
ROOT
HETATM    1  C   UNL     1      48.130  21.150   2.986  1.00  0.00     0.051 A 
HETATM    2  N   UNL     1      50.204  23.327   1.021  1.00  0.00    -0.191 NA
HETATM    3  C   UNL     1      49.716  22.368   1.467  1.00  0.00     0.102 C 
HETATM    4  C   UNL     1      49.104  21.167   1.956  1.00  0.00     0.071 A 
HETATM    5  C   UNL     1      47.672  19.873   3.376  1.00  0.00     0.031 A 
HETATM    6  C   UNL     1      49.570  19.972   1.370  1.00  0.00     0.025 A 
HETATM    7  C   UNL     1      48.138  18.688   2.791  1.00  0.00     0.002 A 
HETATM    8  C   UNL     1      49.088  18.738   1.785  1.00  0.00     0.002 A 
ENDROOT
BRANCH   1   9
HETATM    9  N   UNL     1      47.617  22.279   3.612  1.00  0.00    -0.380 N 
HETATM   10  C   UNL     1      48.242  22.872   4.801  1.00  0.00     0.123 C 
HETATM   11  C   UNL     1      48.580  24.337   4.507  1.00  0.00     0.020 C 
HETATM   12  C   UNL     1      47.363  25.113   4.002  1.00  0.00     0.003 C 
HETATM   13  C   UNL     1      46.689  24.395   2.833  1.00  0.00     0.020 C 
HETATM   14  C   UNL     1      46.377  22.944   3.196  1.00  0.00     0.123 C 
ENDBRANCH   1   9
TORSDOF 1
ENDMDL
