MODEL 1
REMARK VINA RESULT:      -5.9      0.000      0.000
REMARK  3 active torsions:
REMARK  status: ('A' for Active; 'I' for Inactive)
REMARK    1  A    between atoms: C_1  and  C_2 
REMARK    2  A    between atoms: C_1  and  C_5 
REMARK    3  A    between atoms: C_6  and  N_7 
ROOT
HETATM    1  C   UNL     1      64.582   7.473   4.597  1.00  0.00     0.017 A 
HETATM    2  C   UNL     1      65.118   8.002   5.779  1.00  0.00     0.044 A 
HETATM    3  C   UNL     1      66.476   7.857   6.074  1.00  0.00     0.026 A 
HETATM    4  C   UNL     1      65.404   6.757   3.721  1.00  0.00     0.015 A 
HETATM    5  C   UNL     1      66.765   6.637   3.992  1.00  0.00     0.003 A 
HETATM    6  C   UNL     1      67.300   7.215   5.145  1.00  0.00     0.029 A 
ENDROOT
BRANCH   1   7
HETATM    7  C   UNL     1      63.150   7.647   4.240  1.00  0.00     0.192 C 
HETATM    8  O   UNL     1      62.340   6.794   4.598  1.00  0.00    -0.287 OA
BRANCH   7   9
HETATM    9  C   UNL     1      62.671   8.818   3.454  1.00  0.00     0.015 A 
HETATM   10  C   UNL     1      62.382  10.004   4.141  1.00  0.00     0.015 A 
HETATM   11  C   UNL     1      61.939  11.130   3.443  1.00  0.00     0.001 A 
HETATM   12  C   UNL     1      61.779  11.074   2.059  1.00  0.00     0.000 A 
HETATM   13  C   UNL     1      62.039   9.889   1.373  1.00  0.00     0.001 A 
HETATM   14  C   UNL     1      62.469   8.757   2.069  1.00  0.00     0.015 A 
ENDBRANCH   7   9
ENDBRANCH   1   7
BRANCH   3  15
HETATM   15  N   UNL     1      67.036   8.552   7.150  1.00  0.00    -0.399 N 
HETATM   16  H   UNL     1      66.567   8.582   8.015  1.00  0.00     0.156 HD
HETATM   17  H   UNL     1      67.899   9.014   7.043  1.00  0.00     0.156 HD
ENDBRANCH   3  15
TORSDOF 3
ENDMDL
MODEL 2
REMARK VINA RESULT:      -5.9      1.359      1.979
REMARK  3 active torsions:
REMARK  status: ('A' for Active; 'I' for Inactive)
REMARK    1  A    between atoms: C_1  and  C_2 
REMARK    2  A    between atoms: C_1  and  C_5 
REMARK    3  A    between atoms: C_6  and  N_7 
ROOT
HETATM    1  C   UNL     1      64.979   7.299   5.396  1.00  0.00     0.017 A 
HETATM    2  C   UNL     1      66.212   7.947   5.544  1.00  0.00     0.044 A 
HETATM    3  C   UNL     1      67.401   7.311   5.177  1.00  0.00     0.026 A 
HETATM    4  C   UNL     1      64.938   5.986   4.914  1.00  0.00     0.015 A 
HETATM    5  C   UNL     1      66.115   5.359   4.515  1.00  0.00     0.003 A 
HETATM    6  C   UNL     1      67.334   6.034   4.615  1.00  0.00     0.029 A 
ENDROOT
BRANCH   1   7
HETATM    7  C   UNL     1      63.696   7.966   5.741  1.00  0.00     0.192 C 
HETATM    8  O   UNL     1      63.120   7.646   6.779  1.00  0.00    -0.287 OA
BRANCH   7   9
HETATM    9  C   UNL     1      63.086   9.001   4.862  1.00  0.00     0.015 A 
HETATM   10  C   UNL     1      62.723   8.636   3.560  1.00  0.00     0.015 A 
HETATM   11  C   UNL     1      62.139   9.572   2.704  1.00  0.00     0.001 A 
HETATM   12  C   UNL     1      61.920  10.877   3.143  1.00  0.00     0.000 A 
HETATM   13  C   UNL     1      62.304  11.255   4.428  1.00  0.00     0.001 A 
HETATM   14  C   UNL     1      62.900  10.325   5.282  1.00  0.00     0.015 A 
ENDBRANCH   7   9
ENDBRANCH   1   7
BRANCH   3  15
HETATM   15  N   UNL     1      68.599   8.034   5.145  1.00  0.00    -0.399 N 
HETATM   16  H   UNL     1      69.160   8.021   4.336  1.00  0.00     0.156 HD
HETATM   17  H   UNL     1      68.881   8.554   5.931  1.00  0.00     0.156 HD
ENDBRANCH   3  15
TORSDOF 3
ENDMDL
MODEL 3
REMARK VINA RESULT:      -5.6      2.297      5.406
REMARK  3 active torsions:
REMARK  status: ('A' for Active; 'I' for Inactive)
REMARK    1  A    between atoms: C_1  and  C_2 
REMARK    2  A    between atoms: C_1  and  C_5 
REMARK    3  A    between atoms: C_6  and  N_7 
ROOT
HETATM    1  C   UNL     1      63.020   9.111   4.735  1.00  0.00     0.017 A 
HETATM    2  C   UNL     1      62.619   8.798   3.429  1.00  0.00     0.044 A 
HETATM    3  C   UNL     1      62.032   9.767   2.611  1.00  0.00     0.026 A 
HETATM    4  C   UNL     1      62.795  10.395   5.241  1.00  0.00     0.015 A 
HETATM    5  C   UNL     1      62.242  11.375   4.420  1.00  0.00     0.003 A 
HETATM    6  C   UNL     1      61.897  11.068   3.102  1.00  0.00     0.029 A 
ENDROOT
BRANCH   1   7
HETATM    7  C   UNL     1      63.681   8.111   5.614  1.00  0.00     0.192 C 
HETATM    8  O   UNL     1      63.084   7.708   6.610  1.00  0.00    -0.287 OA
BRANCH   7   9
HETATM    9  C   UNL     1      65.047   7.592   5.326  1.00  0.00     0.015 A 
HETATM   10  C   UNL     1      66.133   8.182   5.984  1.00  0.00     0.015 A 
HETATM   11  C   UNL     1      67.431   7.721   5.753  1.00  0.00     0.001 A 
HETATM   12  C   UNL     1      67.649   6.673   4.858  1.00  0.00     0.000 A 
HETATM   13  C   UNL     1      66.576   6.099   4.179  1.00  0.00     0.001 A 
HETATM   14  C   UNL     1      65.278   6.567   4.399  1.00  0.00     0.015 A 
ENDBRANCH   7   9
ENDBRANCH   1   7
BRANCH   3  15
HETATM   15  N   UNL     1      61.818   9.499   1.255  1.00  0.00    -0.399 N 
HETATM   16  H   UNL     1      62.209   8.695   0.843  1.00  0.00     0.156 HD
HETATM   17  H   UNL     1      61.276  10.116   0.711  1.00  0.00     0.156 HD
ENDBRANCH   3  15
TORSDOF 3
ENDMDL
MODEL 4
REMARK VINA RESULT:      -5.6      1.507      1.700
REMARK  3 active torsions:
REMARK  status: ('A' for Active; 'I' for Inactive)
REMARK    1  A    between atoms: C_1  and  C_2 
REMARK    2  A    between atoms: C_1  and  C_5 
REMARK    3  A    between atoms: C_6  and  N_7 
ROOT
HETATM    1  C   UNL     1      64.849   7.528   5.865  1.00  0.00     0.017 A 
HETATM    2  C   UNL     1      65.308   6.541   6.748  1.00  0.00     0.044 A 
HETATM    3  C   UNL     1      66.640   6.123   6.721  1.00  0.00     0.026 A 
HETATM    4  C   UNL     1      65.722   8.072   4.917  1.00  0.00     0.015 A 
HETATM    5  C   UNL     1      67.060   7.684   4.906  1.00  0.00     0.003 A 
HETATM    6  C   UNL     1      67.520   6.741   5.828  1.00  0.00     0.029 A 
ENDROOT
BRANCH   1   7
HETATM    7  C   UNL     1      63.447   8.020   5.898  1.00  0.00     0.192 C 
HETATM    8  O   UNL     1      62.704   7.638   6.801  1.00  0.00    -0.287 OA
BRANCH   7   9
HETATM    9  C   UNL     1      62.914   8.952   4.866  1.00  0.00     0.015 A 
HETATM   10  C   UNL     1      62.767  10.302   5.205  1.00  0.00     0.015 A 
HETATM   11  C   UNL     1      62.281  11.214   4.266  1.00  0.00     0.001 A 
HETATM   12  C   UNL     1      61.936  10.780   2.987  1.00  0.00     0.000 A 
HETATM   13  C   UNL     1      62.054   9.432   2.650  1.00  0.00     0.001 A 
HETATM   14  C   UNL     1      62.527   8.516   3.592  1.00  0.00     0.015 A 
ENDBRANCH   7   9
ENDBRANCH   1   7
BRANCH   3  15
HETATM   15  N   UNL     1      67.131   5.287   7.730  1.00  0.00    -0.399 N 
HETATM   16  H   UNL     1      66.909   4.328   7.727  1.00  0.00     0.156 HD
HETATM   17  H   UNL     1      67.699   5.658   8.443  1.00  0.00     0.156 HD
ENDBRANCH   3  15
TORSDOF 3
ENDMDL
MODEL 5
REMARK VINA RESULT:      -5.5      2.334      5.372
REMARK  3 active torsions:
REMARK  status: ('A' for Active; 'I' for Inactive)
REMARK    1  A    between atoms: C_1  and  C_2 
REMARK    2  A    between atoms: C_1  and  C_5 
REMARK    3  A    between atoms: C_6  and  N_7 
ROOT
HETATM    1  C   UNL     1      63.098   8.358   4.320  1.00  0.00     0.017 A 
HETATM    2  C   UNL     1      62.640   9.665   4.102  1.00  0.00     0.044 A 
HETATM    3  C   UNL     1      62.144  10.047   2.853  1.00  0.00     0.026 A 
HETATM    4  C   UNL     1      63.096   7.437   3.268  1.00  0.00     0.015 A 
HETATM    5  C   UNL     1      62.571   7.801   2.030  1.00  0.00     0.003 A 
HETATM    6  C   UNL     1      62.066   9.089   1.839  1.00  0.00     0.029 A 
ENDROOT
BRANCH   1   7
HETATM    7  C   UNL     1      63.595   7.913   5.648  1.00  0.00     0.192 C 
HETATM    8  O   UNL     1      62.830   7.945   6.610  1.00  0.00    -0.287 OA
BRANCH   7   9
HETATM    9  C   UNL     1      64.993   7.439   5.847  1.00  0.00     0.015 A 
HETATM   10  C   UNL     1      65.212   6.370   6.726  1.00  0.00     0.015 A 
HETATM   11  C   UNL     1      66.505   5.887   6.935  1.00  0.00     0.001 A 
HETATM   12  C   UNL     1      67.584   6.472   6.273  1.00  0.00     0.000 A 
HETATM   13  C   UNL     1      67.376   7.553   5.419  1.00  0.00     0.001 A 
HETATM   14  C   UNL     1      66.086   8.048   5.217  1.00  0.00     0.015 A 
ENDBRANCH   7   9
ENDBRANCH   1   7
BRANCH   3  15
HETATM   15  N   UNL     1      61.512  11.287   2.703  1.00  0.00    -0.399 N 
HETATM   16  H   UNL     1      61.866  11.945   2.062  1.00  0.00     0.156 HD
HETATM   17  H   UNL     1      60.714  11.501   3.238  1.00  0.00     0.156 HD
ENDBRANCH   3  15
TORSDOF 3
ENDMDL
MODEL 6
REMARK VINA RESULT:      -5.4      1.853      5.231
REMARK  3 active torsions:
REMARK  status: ('A' for Active; 'I' for Inactive)
REMARK    1  A    between atoms: C_1  and  C_2 
REMARK    2  A    between atoms: C_1  and  C_5 
REMARK    3  A    between atoms: C_6  and  N_7 
ROOT
HETATM    1  C   UNL     1      63.577   8.534   4.044  1.00  0.00     0.017 A 
HETATM    2  C   UNL     1      63.817   9.381   5.135  1.00  0.00     0.044 A 
HETATM    3  C   UNL     1      63.125  10.587   5.266  1.00  0.00     0.026 A 
HETATM    4  C   UNL     1      62.667   8.917   3.054  1.00  0.00     0.015 A 
HETATM    5  C   UNL     1      61.949  10.102   3.196  1.00  0.00     0.003 A 
HETATM    6  C   UNL     1      62.154  10.912   4.315  1.00  0.00     0.029 A 
ENDROOT
BRANCH   1   7
HETATM    7  C   UNL     1      64.271   7.227   3.900  1.00  0.00     0.192 C 
HETATM    8  O   UNL     1      63.913   6.460   3.008  1.00  0.00    -0.287 OA
BRANCH   7   9
HETATM    9  C   UNL     1      65.377   6.818   4.809  1.00  0.00     0.015 A 
HETATM   10  C   UNL     1      66.679   7.224   4.492  1.00  0.00     0.015 A 
HETATM   11  C   UNL     1      67.747   6.872   5.321  1.00  0.00     0.001 A 
HETATM   12  C   UNL     1      67.518   6.109   6.465  1.00  0.00     0.000 A 
HETATM   13  C   UNL     1      66.228   5.678   6.772  1.00  0.00     0.001 A 
HETATM   14  C   UNL     1      65.161   6.018   5.938  1.00  0.00     0.015 A 
ENDBRANCH   7   9
ENDBRANCH   1   7
BRANCH   3  15
HETATM   15  N   UNL     1      63.227  11.326   6.450  1.00  0.00    -0.399 N 
HETATM   16  H   UNL     1      62.762  11.021   7.262  1.00  0.00     0.156 HD
HETATM   17  H   UNL     1      63.763  12.152   6.470  1.00  0.00     0.156 HD
ENDBRANCH   3  15
TORSDOF 3
ENDMDL
MODEL 7
REMARK VINA RESULT:      -5.2      1.713      2.315
REMARK  3 active torsions:
REMARK  status: ('A' for Active; 'I' for Inactive)
REMARK    1  A    between atoms: C_1  and  C_2 
REMARK    2  A    between atoms: C_1  and  C_5 
REMARK    3  A    between atoms: C_6  and  N_7 
ROOT
HETATM    1  C   UNL     1      65.547   7.798   5.391  1.00  0.00     0.017 A 
HETATM    2  C   UNL     1      66.208   7.550   6.602  1.00  0.00     0.044 A 
HETATM    3  C   UNL     1      67.247   6.619   6.670  1.00  0.00     0.026 A 
HETATM    4  C   UNL     1      65.902   7.079   4.246  1.00  0.00     0.015 A 
HETATM    5  C   UNL     1      66.959   6.173   4.298  1.00  0.00     0.003 A 
HETATM    6  C   UNL     1      67.648   5.973   5.497  1.00  0.00     0.029 A 
ENDROOT
BRANCH   1   7
HETATM    7  C   UNL     1      64.465   8.812   5.282  1.00  0.00     0.192 C 
HETATM    8  O   UNL     1      64.638   9.922   5.781  1.00  0.00    -0.287 OA
BRANCH   7   9
HETATM    9  C   UNL     1      63.177   8.517   4.595  1.00  0.00     0.015 A 
HETATM   10  C   UNL     1      62.405   7.447   5.064  1.00  0.00     0.015 A 
HETATM   11  C   UNL     1      61.186   7.141   4.456  1.00  0.00     0.001 A 
HETATM   12  C   UNL     1      60.736   7.898   3.375  1.00  0.00     0.000 A 
HETATM   13  C   UNL     1      61.512   8.947   2.886  1.00  0.00     0.001 A 
HETATM   14  C   UNL     1      62.738   9.248   3.483  1.00  0.00     0.015 A 
ENDBRANCH   7   9
ENDBRANCH   1   7
BRANCH   3  15
HETATM   15  N   UNL     1      68.025   6.522   7.829  1.00  0.00    -0.399 N 
HETATM   16  H   UNL     1      68.955   6.206   7.772  1.00  0.00     0.156 HD
HETATM   17  H   UNL     1      67.641   6.769   8.701  1.00  0.00     0.156 HD
ENDBRANCH   3  15
TORSDOF 3
ENDMDL
MODEL 8
REMARK VINA RESULT:      -5.1      2.829      6.200
REMARK  3 active torsions:
REMARK  status: ('A' for Active; 'I' for Inactive)
REMARK    1  A    between atoms: C_1  and  C_2 
REMARK    2  A    between atoms: C_1  and  C_5 
REMARK    3  A    between atoms: C_6  and  N_7 
ROOT
HETATM    1  C   UNL     1      65.716   7.647   4.760  1.00  0.00     0.017 A 
HETATM    2  C   UNL     1      64.790   8.671   5.005  1.00  0.00     0.044 A 
HETATM    3  C   UNL     1      63.549   8.678   4.364  1.00  0.00     0.026 A 
HETATM    4  C   UNL     1      65.413   6.644   3.834  1.00  0.00     0.015 A 
HETATM    5  C   UNL     1      64.164   6.626   3.217  1.00  0.00     0.003 A 
HETATM    6  C   UNL     1      63.228   7.620   3.509  1.00  0.00     0.029 A 
ENDROOT
BRANCH   1   7
HETATM    7  C   UNL     1      67.028   7.593   5.457  1.00  0.00     0.192 C 
HETATM    8  O   UNL     1      67.964   8.256   5.014  1.00  0.00    -0.287 OA
BRANCH   7   9
HETATM    9  C   UNL     1      67.241   6.754   6.669  1.00  0.00     0.015 A 
HETATM   10  C   UNL     1      67.889   5.522   6.516  1.00  0.00     0.015 A 
HETATM   11  C   UNL     1      68.119   4.706   7.626  1.00  0.00     0.001 A 
HETATM   12  C   UNL     1      67.698   5.116   8.891  1.00  0.00     0.000 A 
HETATM   13  C   UNL     1      67.029   6.329   9.046  1.00  0.00     0.001 A 
HETATM   14  C   UNL     1      66.786   7.140   7.936  1.00  0.00     0.015 A 
ENDBRANCH   7   9
ENDBRANCH   1   7
BRANCH   3  15
HETATM   15  N   UNL     1      62.563   9.588   4.760  1.00  0.00    -0.399 N 
HETATM   16  H   UNL     1      61.762   9.271   5.235  1.00  0.00     0.156 HD
HETATM   17  H   UNL     1      62.670  10.547   4.563  1.00  0.00     0.156 HD
ENDBRANCH   3  15
TORSDOF 3
ENDMDL
MODEL 9
REMARK VINA RESULT:      -5.1     17.308     19.153
REMARK  3 active torsions:
REMARK  status: ('A' for Active; 'I' for Inactive)
REMARK    1  A    between atoms: C_1  and  C_2 
REMARK    2  A    between atoms: C_1  and  C_5 
REMARK    3  A    between atoms: C_6  and  N_7 
ROOT
HETATM    1  C   UNL     1      75.627   2.323  17.615  1.00  0.00     0.017 A 
HETATM    2  C   UNL     1      76.627   3.290  17.784  1.00  0.00     0.044 A 
HETATM    3  C   UNL     1      76.442   4.595  17.322  1.00  0.00     0.026 A 
HETATM    4  C   UNL     1      74.447   2.654  16.941  1.00  0.00     0.015 A 
HETATM    5  C   UNL     1      74.242   3.962  16.508  1.00  0.00     0.003 A 
HETATM    6  C   UNL     1      75.222   4.932  16.731  1.00  0.00     0.029 A 
ENDROOT
BRANCH   1   7
HETATM    7  C   UNL     1      75.781   0.937  18.130  1.00  0.00     0.192 C 
HETATM    8  O   UNL     1      76.757   0.667  18.827  1.00  0.00    -0.287 OA
BRANCH   7   9
HETATM    9  C   UNL     1      74.792  -0.133  17.819  1.00  0.00     0.015 A 
HETATM   10  C   UNL     1      73.893  -0.516  18.822  1.00  0.00     0.015 A 
HETATM   11  C   UNL     1      72.943  -1.508  18.572  1.00  0.00     0.001 A 
HETATM   12  C   UNL     1      72.891  -2.124  17.322  1.00  0.00     0.000 A 
HETATM   13  C   UNL     1      73.800  -1.767  16.328  1.00  0.00     0.001 A 
HETATM   14  C   UNL     1      74.761  -0.784  16.580  1.00  0.00     0.015 A 
ENDBRANCH   7   9
ENDBRANCH   1   7
BRANCH   3  15
HETATM   15  N   UNL     1      77.358   5.595  17.669  1.00  0.00    -0.399 N 
HETATM   16  H   UNL     1      77.523   6.346  17.054  1.00  0.00     0.156 HD
HETATM   17  H   UNL     1      77.838   5.547  18.527  1.00  0.00     0.156 HD
ENDBRANCH   3  15
TORSDOF 3
ENDMDL
