MODEL 1
REMARK VINA RESULT:      -5.0      0.000      0.000
REMARK  1 active torsions:
REMARK  status: ('A' for Active; 'I' for Inactive)
REMARK    1  A    between atoms: C_4  and  N_6 
ROOT
HETATM    1  C   UNL     1      70.709  23.974  14.184  1.00  0.00     0.109 A 
HETATM    2  C   UNL     1      69.357  24.306  14.514  1.00  0.00     0.105 C 
HETATM    3  N   UNL     1      68.273  24.586  14.827  1.00  0.00    -0.191 NA
HETATM    4  C   UNL     1      71.795  24.664  14.754  1.00  0.00     0.049 A 
HETATM    5  C   UNL     1      70.943  22.917  13.302  1.00  0.00     0.139 A 
HETATM    6  F   UNL     1      69.915  22.241  12.763  1.00  0.00    -0.204 F 
HETATM    7  C   UNL     1      73.316  23.244  13.473  1.00  0.00     0.005 A 
HETATM    8  C   UNL     1      73.092  24.311  14.349  1.00  0.00     0.031 A 
HETATM    9  C   UNL     1      72.236  22.543  12.950  1.00  0.00     0.044 A 
ENDROOT
BRANCH   4  10
HETATM   10  N   UNL     1      71.632  25.828  15.525  1.00  0.00    -0.398 N 
HETATM   11  H   UNL     1      72.139  26.641  15.300  1.00  0.00     0.156 HD
HETATM   12  H   UNL     1      71.013  25.830  16.290  1.00  0.00     0.156 HD
ENDBRANCH   4  10
TORSDOF 1
ENDMDL
MODEL 2
REMARK VINA RESULT:      -4.8     18.781     19.878
REMARK  1 active torsions:
REMARK  status: ('A' for Active; 'I' for Inactive)
REMARK    1  A    between atoms: C_4  and  N_6 
ROOT
HETATM    1  C   UNL     1      62.600   9.481   4.057  1.00  0.00     0.109 A 
HETATM    2  C   UNL     1      63.001   8.810   5.255  1.00  0.00     0.105 C 
HETATM    3  N   UNL     1      63.302   8.226   6.213  1.00  0.00    -0.191 NA
HETATM    4  C   UNL     1      62.504   8.798   2.830  1.00  0.00     0.049 A 
HETATM    5  C   UNL     1      62.266  10.835   4.126  1.00  0.00     0.139 A 
HETATM    6  F   UNL     1      62.339  11.494   5.294  1.00  0.00    -0.204 F 
HETATM    7  C   UNL     1      61.804  10.885   1.770  1.00  0.00     0.005 A 
HETATM    8  C   UNL     1      62.146   9.532   1.687  1.00  0.00     0.031 A 
HETATM    9  C   UNL     1      61.863  11.538   2.996  1.00  0.00     0.044 A 
ENDROOT
BRANCH   4  10
HETATM   10  N   UNL     1      62.968   7.483   2.657  1.00  0.00    -0.398 N 
HETATM   11  H   UNL     1      62.371   6.796   2.283  1.00  0.00     0.156 HD
HETATM   12  H   UNL     1      63.889   7.247   2.912  1.00  0.00     0.156 HD
ENDBRANCH   4  10
TORSDOF 1
ENDMDL
MODEL 3
REMARK VINA RESULT:      -4.7     20.976     21.758
REMARK  1 active torsions:
REMARK  status: ('A' for Active; 'I' for Inactive)
REMARK    1  A    between atoms: C_4  and  N_6 
ROOT
HETATM    1  C   UNL     1      76.191   3.541  17.600  1.00  0.00     0.109 A 
HETATM    2  C   UNL     1      76.739   4.849  17.781  1.00  0.00     0.105 C 
HETATM    3  N   UNL     1      77.197   5.900  17.975  1.00  0.00    -0.191 NA
HETATM    4  C   UNL     1      76.796   2.406  18.170  1.00  0.00     0.049 A 
HETATM    5  C   UNL     1      75.010   3.405  16.866  1.00  0.00     0.139 A 
HETATM    6  F   UNL     1      74.415   4.482  16.329  1.00  0.00    -0.204 F 
HETATM    7  C   UNL     1      75.037   1.025  17.184  1.00  0.00     0.005 A 
HETATM    8  C   UNL     1      76.225   1.149  17.912  1.00  0.00     0.031 A 
HETATM    9  C   UNL     1      74.427   2.159  16.662  1.00  0.00     0.044 A 
ENDROOT
BRANCH   4  10
HETATM   10  N   UNL     1      78.058   2.449  18.786  1.00  0.00    -0.398 N 
HETATM   11  H   UNL     1      78.854   2.137  18.299  1.00  0.00     0.156 HD
HETATM   12  H   UNL     1      78.146   2.789  19.706  1.00  0.00     0.156 HD
ENDBRANCH   4  10
TORSDOF 1
ENDMDL
MODEL 4
REMARK VINA RESULT:      -4.6     18.671     19.701
REMARK  1 active torsions:
REMARK  status: ('A' for Active; 'I' for Inactive)
REMARK    1  A    between atoms: C_4  and  N_6 
ROOT
HETATM    1  C   UNL     1      62.847   9.383   4.102  1.00  0.00     0.109 A 
HETATM    2  C   UNL     1      63.420   8.646   5.186  1.00  0.00     0.105 C 
HETATM    3  N   UNL     1      63.911   8.088   6.079  1.00  0.00    -0.191 NA
HETATM    4  C   UNL     1      62.532  10.749   4.228  1.00  0.00     0.049 A 
HETATM    5  C   UNL     1      62.631   8.728   2.887  1.00  0.00     0.139 A 
HETATM    6  F   UNL     1      62.941   7.430   2.750  1.00  0.00    -0.204 F 
HETATM    7  C   UNL     1      61.729  10.733   1.920  1.00  0.00     0.005 A 
HETATM    8  C   UNL     1      61.931  11.395   3.136  1.00  0.00     0.031 A 
HETATM    9  C   UNL     1      62.083   9.395   1.796  1.00  0.00     0.044 A 
ENDROOT
BRANCH   4  10
HETATM   10  N   UNL     1      62.579  11.427   5.458  1.00  0.00    -0.398 N 
HETATM   11  H   UNL     1      62.943  10.978   6.254  1.00  0.00     0.156 HD
HETATM   12  H   UNL     1      62.246  12.351   5.524  1.00  0.00     0.156 HD
ENDBRANCH   4  10
TORSDOF 1
ENDMDL
MODEL 5
REMARK VINA RESULT:      -4.5     18.906     20.060
REMARK  1 active torsions:
REMARK  status: ('A' for Active; 'I' for Inactive)
REMARK    1  A    between atoms: C_4  and  N_6 
ROOT
HETATM    1  C   UNL     1      62.454   9.483   2.771  1.00  0.00     0.109 A 
HETATM    2  C   UNL     1      62.241   8.930   1.470  1.00  0.00     0.105 C 
HETATM    3  N   UNL     1      62.024   8.502   0.411  1.00  0.00    -0.191 NA
HETATM    4  C   UNL     1      61.971  10.759   3.115  1.00  0.00     0.049 A 
HETATM    5  C   UNL     1      63.129   8.715   3.723  1.00  0.00     0.139 A 
HETATM    6  F   UNL     1      63.582   7.490   3.411  1.00  0.00    -0.204 F 
HETATM    7  C   UNL     1      62.924  10.473   5.347  1.00  0.00     0.005 A 
HETATM    8  C   UNL     1      62.256  11.254   4.398  1.00  0.00     0.031 A 
HETATM    9  C   UNL     1      63.359   9.197   5.007  1.00  0.00     0.044 A 
ENDROOT
BRANCH   4  10
HETATM   10  N   UNL     1      61.422  11.642   2.169  1.00  0.00    -0.398 N 
HETATM   11  H   UNL     1      61.853  11.752   1.291  1.00  0.00     0.156 HD
HETATM   12  H   UNL     1      60.608  12.151   2.385  1.00  0.00     0.156 HD
ENDBRANCH   4  10
TORSDOF 1
ENDMDL
MODEL 6
REMARK VINA RESULT:      -4.5     19.146     20.310
REMARK  1 active torsions:
REMARK  status: ('A' for Active; 'I' for Inactive)
REMARK    1  A    between atoms: C_4  and  N_6 
ROOT
HETATM    1  C   UNL     1      62.633   9.443   3.567  1.00  0.00     0.109 A 
HETATM    2  C   UNL     1      62.848  10.076   4.831  1.00  0.00     0.105 C 
HETATM    3  N   UNL     1      63.034  10.632   5.835  1.00  0.00    -0.191 NA
HETATM    4  C   UNL     1      62.083  10.144   2.478  1.00  0.00     0.049 A 
HETATM    5  C   UNL     1      63.013   8.107   3.413  1.00  0.00     0.139 A 
HETATM    6  F   UNL     1      63.553   7.432   4.441  1.00  0.00    -0.204 F 
HETATM    7  C   UNL     1      62.255   8.110   1.135  1.00  0.00     0.005 A 
HETATM    8  C   UNL     1      61.861   9.444   1.281  1.00  0.00     0.031 A 
HETATM    9  C   UNL     1      62.836   7.441   2.206  1.00  0.00     0.044 A 
ENDROOT
BRANCH   4  10
HETATM   10  N   UNL     1      61.541  11.434   2.604  1.00  0.00    -0.398 N 
HETATM   11  H   UNL     1      61.575  11.900   3.470  1.00  0.00     0.156 HD
HETATM   12  H   UNL     1      61.125  11.872   1.826  1.00  0.00     0.156 HD
ENDBRANCH   4  10
TORSDOF 1
ENDMDL
MODEL 7
REMARK VINA RESULT:      -4.4     18.849     19.987
REMARK  1 active torsions:
REMARK  status: ('A' for Active; 'I' for Inactive)
REMARK    1  A    between atoms: C_4  and  N_6 
ROOT
HETATM    1  C   UNL     1      62.987   8.825   3.546  1.00  0.00     0.109 A 
HETATM    2  C   UNL     1      63.364   7.540   3.044  1.00  0.00     0.105 C 
HETATM    3  N   UNL     1      63.712   6.500   2.659  1.00  0.00    -0.191 NA
HETATM    4  C   UNL     1      63.355   9.245   4.838  1.00  0.00     0.049 A 
HETATM    5  C   UNL     1      62.267   9.686   2.714  1.00  0.00     0.139 A 
HETATM    6  F   UNL     1      61.923   9.302   1.474  1.00  0.00    -0.204 F 
HETATM    7  C   UNL     1      62.200  11.360   4.434  1.00  0.00     0.005 A 
HETATM    8  C   UNL     1      62.911  10.503   5.279  1.00  0.00     0.031 A 
HETATM    9  C   UNL     1      61.879  10.950   3.145  1.00  0.00     0.044 A 
ENDROOT
BRANCH   4  10
HETATM   10  N   UNL     1      63.942   8.381   5.777  1.00  0.00    -0.398 N 
HETATM   11  H   UNL     1      64.851   8.037   5.628  1.00  0.00     0.156 HD
HETATM   12  H   UNL     1      63.442   8.117   6.584  1.00  0.00     0.156 HD
ENDBRANCH   4  10
TORSDOF 1
ENDMDL
MODEL 8
REMARK VINA RESULT:      -4.2     22.874     23.723
REMARK  1 active torsions:
REMARK  status: ('A' for Active; 'I' for Inactive)
REMARK    1  A    between atoms: C_4  and  N_6 
ROOT
HETATM    1  C   UNL     1      77.157   1.396  18.058  1.00  0.00     0.109 A 
HETATM    2  C   UNL     1      78.219   1.325  19.013  1.00  0.00     0.105 C 
HETATM    3  N   UNL     1      79.073   1.218  19.795  1.00  0.00    -0.191 NA
HETATM    4  C   UNL     1      76.903   0.342  17.162  1.00  0.00     0.049 A 
HETATM    5  C   UNL     1      76.341   2.530  18.048  1.00  0.00     0.139 A 
HETATM    6  F   UNL     1      76.564   3.536  18.909  1.00  0.00    -0.204 F 
HETATM    7  C   UNL     1      75.053   1.636  16.228  1.00  0.00     0.005 A 
HETATM    8  C   UNL     1      75.872   0.502  16.223  1.00  0.00     0.031 A 
HETATM    9  C   UNL     1      75.288   2.653  17.147  1.00  0.00     0.044 A 
ENDROOT
BRANCH   4  10
HETATM   10  N   UNL     1      77.772  -0.752  17.014  1.00  0.00    -0.398 N 
HETATM   11  H   UNL     1      78.614  -0.784  17.522  1.00  0.00     0.156 HD
HETATM   12  H   UNL     1      77.540  -1.487  16.401  1.00  0.00     0.156 HD
ENDBRANCH   4  10
TORSDOF 1
ENDMDL
MODEL 9
REMARK VINA RESULT:      -4.2     19.530     20.574
REMARK  1 active torsions:
REMARK  status: ('A' for Active; 'I' for Inactive)
REMARK    1  A    between atoms: C_4  and  N_6 
ROOT
HETATM    1  C   UNL     1      62.638   8.818   2.970  1.00  0.00     0.109 A 
HETATM    2  C   UNL     1      63.056   7.451   2.943  1.00  0.00     0.105 C 
HETATM    3  N   UNL     1      63.361   6.330   2.888  1.00  0.00    -0.191 NA
HETATM    4  C   UNL     1      62.180   9.469   1.810  1.00  0.00     0.049 A 
HETATM    5  C   UNL     1      62.657   9.501   4.189  1.00  0.00     0.139 A 
HETATM    6  F   UNL     1      63.078   8.886   5.305  1.00  0.00    -0.204 F 
HETATM    7  C   UNL     1      61.841  11.496   3.131  1.00  0.00     0.005 A 
HETATM    8  C   UNL     1      61.827  10.825   1.904  1.00  0.00     0.031 A 
HETATM    9  C   UNL     1      62.255  10.829   4.278  1.00  0.00     0.044 A 
ENDROOT
BRANCH   4  10
HETATM   10  N   UNL     1      62.277   8.895   0.531  1.00  0.00    -0.398 N 
HETATM   11  H   UNL     1      61.467   8.583   0.068  1.00  0.00     0.156 HD
HETATM   12  H   UNL     1      63.157   8.802   0.098  1.00  0.00     0.156 HD
ENDBRANCH   4  10
TORSDOF 1
ENDMDL
