MODEL 1
REMARK VINA RESULT:      -5.7      0.000      0.000
REMARK  0 active torsions:
REMARK  status: ('A' for Active; 'I' for Inactive)
ROOT
HETATM    1  C   UNL     1      78.241  11.530  19.899  1.00  0.00     0.091 A 
HETATM    2  C   UNL     1      77.192  11.503  18.888  1.00  0.00     0.085 A 
HETATM    3  N   UNL     1      79.089  10.525  19.643  1.00  0.00    -0.239 N 
ATOM      4  HN  UNL     1      79.927  10.278  20.170  1.00  0.00     0.197 HD
HETATM    5  O   UNL     1      78.595   9.890  18.516  1.00  0.00    -0.156 OA
HETATM    6  N   UNL     1      77.435  10.487  18.053  1.00  0.00    -0.240 N 
ATOM      7  HN  UNL     1      76.881  10.209  17.243  1.00  0.00     0.197 HD
HETATM    8  C   UNL     1      78.276  12.491  20.936  1.00  0.00    -0.031 A 
HETATM    9  C   UNL     1      76.180  13.386  19.906  1.00  0.00     0.003 A 
HETATM   10  C   UNL     1      76.136  12.433  18.871  1.00  0.00     0.034 A 
HETATM   11  C   UNL     1      77.201  13.412  20.891  1.00  0.00     0.009 A 
HETATM   12  C   UNL     1      79.328  12.551  21.992  1.00  0.00     0.050 C 
ENDROOT
TORSDOF 0
ENDMDL
MODEL 2
REMARK VINA RESULT:      -5.7      0.935      2.749
REMARK  0 active torsions:
REMARK  status: ('A' for Active; 'I' for Inactive)
ROOT
HETATM    1  C   UNL     1      78.254  11.532  19.918  1.00  0.00     0.091 A 
HETATM    2  C   UNL     1      79.559  11.257  20.507  1.00  0.00     0.085 A 
HETATM    3  N   UNL     1      78.093  10.716  18.868  1.00  0.00    -0.239 N 
ATOM      4  HN  UNL     1      77.284  10.665  18.248  1.00  0.00     0.197 HD
HETATM    5  O   UNL     1      79.249   9.958  18.796  1.00  0.00    -0.156 OA
HETATM    6  N   UNL     1      80.147  10.287  19.797  1.00  0.00    -0.240 N 
ATOM      7  HN  UNL     1      81.065   9.875  19.959  1.00  0.00     0.197 HD
HETATM    8  C   UNL     1      77.375  12.511  20.438  1.00  0.00    -0.031 A 
HETATM    9  C   UNL     1      79.158  12.918  22.145  1.00  0.00     0.003 A 
HETATM   10  C   UNL     1      80.039  11.947  21.635  1.00  0.00     0.034 A 
HETATM   11  C   UNL     1      77.886  13.187  21.572  1.00  0.00     0.009 A 
HETATM   12  C   UNL     1      76.034  12.827  19.865  1.00  0.00     0.050 C 
ENDROOT
TORSDOF 0
ENDMDL
MODEL 3
REMARK VINA RESULT:      -5.3      1.977      3.157
REMARK  0 active torsions:
REMARK  status: ('A' for Active; 'I' for Inactive)
ROOT
HETATM    1  C   UNL     1      78.347  11.536  20.009  1.00  0.00     0.091 A 
HETATM    2  C   UNL     1      79.208  10.469  19.514  1.00  0.00     0.085 A 
HETATM    3  N   UNL     1      78.953  12.104  21.060  1.00  0.00    -0.239 N 
ATOM      4  HN  UNL     1      78.605  12.879  21.625  1.00  0.00     0.197 HD
HETATM    5  O   UNL     1      80.147  11.423  21.222  1.00  0.00    -0.156 OA
HETATM    6  N   UNL     1      80.306  10.423  20.278  1.00  0.00    -0.240 N 
ATOM      7  HN  UNL     1      81.095   9.784  20.185  1.00  0.00     0.197 HD
HETATM    8  C   UNL     1      77.101  11.846  19.416  1.00  0.00    -0.031 A 
HETATM    9  C   UNL     1      77.621   9.987  17.825  1.00  0.00     0.003 A 
HETATM   10  C   UNL     1      78.861   9.670  18.409  1.00  0.00     0.034 A 
HETATM   11  C   UNL     1      76.781  11.026  18.307  1.00  0.00     0.009 A 
HETATM   12  C   UNL     1      76.188  12.926  19.892  1.00  0.00     0.050 C 
ENDROOT
TORSDOF 0
ENDMDL
MODEL 4
REMARK VINA RESULT:      -5.3     21.273     22.456
REMARK  0 active torsions:
REMARK  status: ('A' for Active; 'I' for Inactive)
ROOT
HETATM    1  C   UNL     1      62.414  10.535   3.965  1.00  0.00     0.091 A 
HETATM    2  C   UNL     1      62.799   9.251   4.540  1.00  0.00     0.085 A 
HETATM    3  N   UNL     1      62.529  11.467   4.920  1.00  0.00    -0.239 N 
ATOM      4  HN  UNL     1      62.333  12.464   4.832  1.00  0.00     0.197 HD
HETATM    5  O   UNL     1      62.966  10.800   6.051  1.00  0.00    -0.156 OA
HETATM    6  N   UNL     1      63.132   9.444   5.821  1.00  0.00    -0.240 N 
ATOM      7  HN  UNL     1      63.444   8.740   6.490  1.00  0.00     0.197 HD
HETATM    8  C   UNL     1      62.005  10.674   2.619  1.00  0.00    -0.031 A 
HETATM    9  C   UNL     1      62.382   8.206   2.457  1.00  0.00     0.003 A 
HETATM   10  C   UNL     1      62.789   8.057   3.795  1.00  0.00     0.034 A 
HETATM   11  C   UNL     1      62.007   9.456   1.896  1.00  0.00     0.009 A 
HETATM   12  C   UNL     1      61.600  11.967   1.992  1.00  0.00     0.050 C 
ENDROOT
TORSDOF 0
ENDMDL
MODEL 5
REMARK VINA RESULT:      -5.3     21.040     22.651
REMARK  0 active torsions:
REMARK  status: ('A' for Active; 'I' for Inactive)
ROOT
HETATM    1  C   UNL     1      62.225  10.165   3.235  1.00  0.00     0.091 A 
HETATM    2  C   UNL     1      62.835  10.185   4.560  1.00  0.00     0.085 A 
HETATM    3  N   UNL     1      61.626  11.347   3.037  1.00  0.00    -0.239 N 
ATOM      4  HN  UNL     1      61.112  11.644   2.207  1.00  0.00     0.197 HD
HETATM    5  O   UNL     1      61.848  12.082   4.189  1.00  0.00    -0.156 OA
HETATM    6  N   UNL     1      62.587  11.374   5.121  1.00  0.00    -0.240 N 
ATOM      7  HN  UNL     1      62.881  11.693   6.044  1.00  0.00     0.197 HD
HETATM    8  C   UNL     1      62.306   9.045   2.377  1.00  0.00    -0.031 A 
HETATM    9  C   UNL     1      63.623   7.979   4.218  1.00  0.00     0.003 A 
HETATM   10  C   UNL     1      63.547   9.089   5.079  1.00  0.00     0.034 A 
HETATM   11  C   UNL     1      63.029   7.959   2.928  1.00  0.00     0.009 A 
HETATM   12  C   UNL     1      61.694   8.980   1.017  1.00  0.00     0.050 C 
ENDROOT
TORSDOF 0
ENDMDL
MODEL 6
REMARK VINA RESULT:      -5.2     21.314     22.240
REMARK  0 active torsions:
REMARK  status: ('A' for Active; 'I' for Inactive)
ROOT
HETATM    1  C   UNL     1      62.899   9.531   4.296  1.00  0.00     0.091 A 
HETATM    2  C   UNL     1      62.357  10.858   4.029  1.00  0.00     0.085 A 
HETATM    3  N   UNL     1      63.345   9.511   5.559  1.00  0.00    -0.239 N 
ATOM      4  HN  UNL     1      63.780   8.727   6.045  1.00  0.00     0.197 HD
HETATM    5  O   UNL     1      63.096  10.774   6.068  1.00  0.00    -0.156 OA
HETATM    6  N   UNL     1      62.491  11.599   5.135  1.00  0.00    -0.240 N 
ATOM      7  HN  UNL     1      62.207  12.570   5.264  1.00  0.00     0.197 HD
HETATM    8  C   UNL     1      62.909   8.503   3.325  1.00  0.00    -0.031 A 
HETATM    9  C   UNL     1      61.818  10.182   1.825  1.00  0.00     0.003 A 
HETATM   10  C   UNL     1      61.805  11.211   2.784  1.00  0.00     0.034 A 
HETATM   11  C   UNL     1      62.346   8.889   2.084  1.00  0.00     0.009 A 
HETATM   12  C   UNL     1      63.457   7.134   3.554  1.00  0.00     0.050 C 
ENDROOT
TORSDOF 0
ENDMDL
MODEL 7
REMARK VINA RESULT:      -5.1      9.384     10.572
REMARK  0 active torsions:
REMARK  status: ('A' for Active; 'I' for Inactive)
ROOT
HETATM    1  C   UNL     1      76.492   2.605  18.291  1.00  0.00     0.091 A 
HETATM    2  C   UNL     1      77.538   1.700  18.754  1.00  0.00     0.085 A 
HETATM    3  N   UNL     1      76.543   3.714  19.041  1.00  0.00    -0.239 N 
ATOM      4  HN  UNL     1      75.942   4.535  18.965  1.00  0.00     0.197 HD
HETATM    5  O   UNL     1      77.576   3.517  19.940  1.00  0.00    -0.156 OA
HETATM    6  N   UNL     1      78.186   2.285  19.766  1.00  0.00    -0.240 N 
ATOM      7  HN  UNL     1      78.968   1.905  20.299  1.00  0.00     0.197 HD
HETATM    8  C   UNL     1      75.622   2.282  17.225  1.00  0.00    -0.031 A 
HETATM    9  C   UNL     1      76.884   0.126  17.111  1.00  0.00     0.003 A 
HETATM   10  C   UNL     1      77.754   0.437  18.171  1.00  0.00     0.034 A 
HETATM   11  C   UNL     1      75.866   1.006  16.660  1.00  0.00     0.009 A 
HETATM   12  C   UNL     1      74.537   3.176  16.723  1.00  0.00     0.050 C 
ENDROOT
TORSDOF 0
ENDMDL
MODEL 8
REMARK VINA RESULT:      -5.1     21.484     23.036
REMARK  0 active torsions:
REMARK  status: ('A' for Active; 'I' for Inactive)
ROOT
HETATM    1  C   UNL     1      62.394   9.887   3.587  1.00  0.00     0.091 A 
HETATM    2  C   UNL     1      61.968  10.288   2.251  1.00  0.00     0.085 A 
HETATM    3  N   UNL     1      62.297  10.953   4.391  1.00  0.00    -0.239 N 
ATOM      4  HN  UNL     1      62.522  10.996   5.385  1.00  0.00     0.197 HD
HETATM    5  O   UNL     1      61.830  11.986   3.596  1.00  0.00    -0.156 OA
HETATM    6  N   UNL     1      61.628  11.581   2.287  1.00  0.00    -0.240 N 
ATOM      7  HN  UNL     1      61.289  12.151   1.512  1.00  0.00     0.197 HD
HETATM    8  C   UNL     1      62.820   8.572   3.887  1.00  0.00    -0.031 A 
HETATM    9  C   UNL     1      62.375   8.090   1.473  1.00  0.00     0.003 A 
HETATM   10  C   UNL     1      61.951   9.395   1.164  1.00  0.00     0.034 A 
HETATM   11  C   UNL     1      62.791   7.698   2.773  1.00  0.00     0.009 A 
HETATM   12  C   UNL     1      63.268   8.120   5.237  1.00  0.00     0.050 C 
ENDROOT
TORSDOF 0
ENDMDL
MODEL 9
REMARK VINA RESULT:      -4.8      8.742      9.749
REMARK  0 active torsions:
REMARK  status: ('A' for Active; 'I' for Inactive)
ROOT
HETATM    1  C   UNL     1      76.665   2.974  18.014  1.00  0.00     0.091 A 
HETATM    2  C   UNL     1      75.612   3.731  17.347  1.00  0.00     0.085 A 
HETATM    3  N   UNL     1      77.451   3.842  18.665  1.00  0.00    -0.239 N 
ATOM      4  HN  UNL     1      78.274   3.623  19.227  1.00  0.00     0.197 HD
HETATM    5  O   UNL     1      76.917   5.095  18.419  1.00  0.00    -0.156 OA
HETATM    6  N   UNL     1      75.793   5.030  17.613  1.00  0.00    -0.240 N 
ATOM      7  HN  UNL     1      75.221   5.810  17.291  1.00  0.00     0.197 HD
HETATM    8  C   UNL     1      76.759   1.565  17.931  1.00  0.00    -0.031 A 
HETATM    9  C   UNL     1      74.715   1.712  16.497  1.00  0.00     0.003 A 
HETATM   10  C   UNL     1      74.614   3.113  16.572  1.00  0.00     0.034 A 
HETATM   11  C   UNL     1      75.740   0.974  17.145  1.00  0.00     0.009 A 
HETATM   12  C   UNL     1      77.821   0.752  18.594  1.00  0.00     0.050 C 
ENDROOT
TORSDOF 0
ENDMDL
