MODEL 1
REMARK VINA RESULT:      -5.4      0.000      0.000
REMARK  2 active torsions:
REMARK  status: ('A' for Active; 'I' for Inactive)
REMARK    1  A    between atoms: C_1  and  C_6 
REMARK    2  A    between atoms: C_7  and  O_11 
ROOT
HETATM    1  C   UNL     1      77.609   8.936  15.952  1.00  0.00     0.138 A 
HETATM    2  N   UNL     1      77.174   7.719  16.417  1.00  0.00    -0.290 N 
HETATM    3  C   UNL     1      77.796   9.721  17.083  1.00  0.00     0.093 A 
HETATM    4  N   UNL     1      77.070   7.680  17.763  1.00  0.00    -0.278 N 
ATOM      5  HN  UNL     1      76.772   6.901  18.350  1.00  0.00     0.189 HD
HETATM    6  C   UNL     1      77.447   8.889  18.143  1.00  0.00     0.157 A 
HETATM    7  C   UNL     1      76.819   6.507  15.714  1.00  0.00     0.178 C 
ENDROOT
BRANCH   1   8
HETATM    8  C   UNL     1      77.823   9.301  14.538  1.00  0.00     0.434 C 
HETATM    9  F   UNL     1      77.214   8.488  13.644  1.00  0.00    -0.165 F 
HETATM   10  F   UNL     1      77.372  10.557  14.286  1.00  0.00    -0.165 F 
HETATM   11  F   UNL     1      79.144   9.295  14.228  1.00  0.00    -0.165 F 
ENDBRANCH   1   8
BRANCH   6  12
HETATM   12  O   UNL     1      77.440   9.139  19.453  1.00  0.00    -0.345 OA
HETATM   13  H   UNL     1      76.930   8.606  20.030  1.00  0.00     0.219 HD
ENDBRANCH   6  12
TORSDOF 2
ENDMDL
MODEL 2
REMARK VINA RESULT:      -5.1      2.786      3.395
REMARK  2 active torsions:
REMARK  status: ('A' for Active; 'I' for Inactive)
REMARK    1  A    between atoms: C_1  and  C_6 
REMARK    2  A    between atoms: C_7  and  O_11 
ROOT
HETATM    1  C   UNL     1      77.004   7.505  16.947  1.00  0.00     0.138 A 
HETATM    2  N   UNL     1      77.294   8.272  15.845  1.00  0.00    -0.290 N 
HETATM    3  C   UNL     1      77.143   8.352  18.039  1.00  0.00     0.093 A 
HETATM    4  N   UNL     1      77.610   9.546  16.165  1.00  0.00    -0.278 N 
ATOM      5  HN  UNL     1      77.862  10.309  15.536  1.00  0.00     0.189 HD
HETATM    6  C   UNL     1      77.514   9.574  17.483  1.00  0.00     0.157 A 
HETATM    7  C   UNL     1      77.316   7.942  14.439  1.00  0.00     0.178 C 
ENDROOT
BRANCH   1   8
HETATM    8  C   UNL     1      76.626   6.078  16.938  1.00  0.00     0.434 C 
HETATM    9  F   UNL     1      75.639   5.758  16.071  1.00  0.00    -0.165 F 
HETATM   10  F   UNL     1      77.689   5.296  16.616  1.00  0.00    -0.165 F 
HETATM   11  F   UNL     1      76.209   5.676  18.165  1.00  0.00    -0.165 F 
ENDBRANCH   1   8
BRANCH   6  12
HETATM   12  O   UNL     1      77.778  10.735  18.082  1.00  0.00    -0.345 OA
HETATM   13  H   UNL     1      77.088  11.348  18.243  1.00  0.00     0.219 HD
ENDBRANCH   6  12
TORSDOF 2
ENDMDL
MODEL 3
REMARK VINA RESULT:      -5.0      2.838      3.498
REMARK  2 active torsions:
REMARK  status: ('A' for Active; 'I' for Inactive)
REMARK    1  A    between atoms: C_1  and  C_6 
REMARK    2  A    between atoms: C_7  and  O_11 
ROOT
HETATM    1  C   UNL     1      77.244   8.127  17.238  1.00  0.00     0.138 A 
HETATM    2  N   UNL     1      77.248   7.947  15.875  1.00  0.00    -0.290 N 
HETATM    3  C   UNL     1      76.759   6.939  17.769  1.00  0.00     0.093 A 
HETATM    4  N   UNL     1      76.797   6.728  15.508  1.00  0.00    -0.278 N 
ATOM      5  HN  UNL     1      76.702   6.350  14.566  1.00  0.00     0.189 HD
HETATM    6  C   UNL     1      76.509   6.140  16.656  1.00  0.00     0.157 A 
HETATM    7  C   UNL     1      77.647   8.830  14.804  1.00  0.00     0.178 C 
ENDROOT
BRANCH   1   8
HETATM    8  C   UNL     1      77.672   9.344  17.955  1.00  0.00     0.434 C 
HETATM    9  F   UNL     1      77.052  10.481  17.564  1.00  0.00    -0.165 F 
HETATM   10  F   UNL     1      77.453   9.225  19.290  1.00  0.00    -0.165 F 
HETATM   11  F   UNL     1      79.004   9.557  17.800  1.00  0.00    -0.165 F 
ENDBRANCH   1   8
BRANCH   6  12
HETATM   12  O   UNL     1      76.031   4.896  16.593  1.00  0.00    -0.345 OA
HETATM   13  H   UNL     1      75.516   4.555  17.297  1.00  0.00     0.219 HD
ENDBRANCH   6  12
TORSDOF 2
ENDMDL
MODEL 4
REMARK VINA RESULT:      -4.9     18.880     19.539
REMARK  2 active torsions:
REMARK  status: ('A' for Active; 'I' for Inactive)
REMARK    1  A    between atoms: C_1  and  C_6 
REMARK    2  A    between atoms: C_7  and  O_11 
ROOT
HETATM    1  C   UNL     1      62.406  10.013   3.563  1.00  0.00     0.138 A 
HETATM    2  N   UNL     1      63.182   9.113   4.253  1.00  0.00    -0.290 N 
HETATM    3  C   UNL     1      62.290  11.119   4.395  1.00  0.00     0.093 A 
HETATM    4  N   UNL     1      63.563   9.573   5.465  1.00  0.00    -0.278 N 
ATOM      5  HN  UNL     1      64.137   9.103   6.165  1.00  0.00     0.189 HD
HETATM    6  C   UNL     1      63.018  10.776   5.530  1.00  0.00     0.157 A 
HETATM    7  C   UNL     1      63.641   7.790   3.899  1.00  0.00     0.178 C 
ENDROOT
BRANCH   1   8
HETATM    8  C   UNL     1      61.830   9.813   2.218  1.00  0.00     0.434 C 
HETATM    9  F   UNL     1      62.701   9.354   1.291  1.00  0.00    -0.165 F 
HETATM   10  F   UNL     1      60.803   8.925   2.256  1.00  0.00    -0.165 F 
HETATM   11  F   UNL     1      61.321  10.972   1.730  1.00  0.00    -0.165 F 
ENDBRANCH   1   8
BRANCH   6  12
HETATM   12  O   UNL     1      63.235  11.476   6.645  1.00  0.00    -0.345 OA
HETATM   13  H   UNL     1      62.536  11.959   7.039  1.00  0.00     0.219 HD
ENDBRANCH   6  12
TORSDOF 2
ENDMDL
MODEL 5
REMARK VINA RESULT:      -4.8      6.745      7.649
REMARK  2 active torsions:
REMARK  status: ('A' for Active; 'I' for Inactive)
REMARK    1  A    between atoms: C_1  and  C_6 
REMARK    2  A    between atoms: C_7  and  O_11 
ROOT
HETATM    1  C   UNL     1      76.787   1.692  17.670  1.00  0.00     0.138 A 
HETATM    2  N   UNL     1      77.648   1.826  18.732  1.00  0.00    -0.290 N 
HETATM    3  C   UNL     1      76.234   2.951  17.479  1.00  0.00     0.093 A 
HETATM    4  N   UNL     1      77.675   3.082  19.228  1.00  0.00    -0.278 N 
ATOM      5  HN  UNL     1      78.226   3.439  20.009  1.00  0.00     0.189 HD
HETATM    6  C   UNL     1      76.821   3.740  18.464  1.00  0.00     0.157 A 
HETATM    7  C   UNL     1      78.504   0.862  19.386  1.00  0.00     0.178 C 
ENDROOT
BRANCH   1   8
HETATM    8  C   UNL     1      76.528   0.452  16.911  1.00  0.00     0.434 C 
HETATM    9  F   UNL     1      76.256  -0.632  17.672  1.00  0.00    -0.165 F 
HETATM   10  F   UNL     1      75.473   0.608  16.070  1.00  0.00    -0.165 F 
HETATM   11  F   UNL     1      77.594   0.124  16.138  1.00  0.00    -0.165 F 
ENDBRANCH   1   8
BRANCH   6  12
HETATM   12  O   UNL     1      76.644   5.034  18.734  1.00  0.00    -0.345 OA
HETATM   13  H   UNL     1      76.727   5.671  18.053  1.00  0.00     0.219 HD
ENDBRANCH   6  12
TORSDOF 2
ENDMDL
MODEL 6
REMARK VINA RESULT:      -4.7     19.465     20.196
REMARK  2 active torsions:
REMARK  status: ('A' for Active; 'I' for Inactive)
REMARK    1  A    between atoms: C_1  and  C_6 
REMARK    2  A    between atoms: C_7  and  O_11 
ROOT
HETATM    1  C   UNL     1      62.270   9.721   3.134  1.00  0.00     0.138 A 
HETATM    2  N   UNL     1      62.045  11.076   3.163  1.00  0.00    -0.290 N 
HETATM    3  C   UNL     1      62.684   9.384   4.416  1.00  0.00     0.093 A 
HETATM    4  N   UNL     1      62.290  11.620   4.375  1.00  0.00    -0.278 N 
ATOM      5  HN  UNL     1      62.201  12.596   4.657  1.00  0.00     0.189 HD
HETATM    6  C   UNL     1      62.672  10.590   5.111  1.00  0.00     0.157 A 
HETATM    7  C   UNL     1      61.602  11.986   2.133  1.00  0.00     0.178 C 
ENDROOT
BRANCH   1   8
HETATM    8  C   UNL     1      62.099   8.836   1.964  1.00  0.00     0.434 C 
HETATM    9  F   UNL     1      62.632   9.307   0.814  1.00  0.00    -0.165 F 
HETATM   10  F   UNL     1      62.668   7.623   2.184  1.00  0.00    -0.165 F 
HETATM   11  F   UNL     1      60.784   8.607   1.716  1.00  0.00    -0.165 F 
ENDBRANCH   1   8
BRANCH   6  12
HETATM   12  O   UNL     1      62.984  10.841   6.383  1.00  0.00    -0.345 OA
HETATM   13  H   UNL     1      63.398  11.649   6.614  1.00  0.00     0.219 HD
ENDBRANCH   6  12
TORSDOF 2
ENDMDL
MODEL 7
REMARK VINA RESULT:      -4.7      5.669      6.661
REMARK  2 active torsions:
REMARK  status: ('A' for Active; 'I' for Inactive)
REMARK    1  A    between atoms: C_1  and  C_6 
REMARK    2  A    between atoms: C_7  and  O_11 
ROOT
HETATM    1  C   UNL     1      75.748   3.048  17.310  1.00  0.00     0.138 A 
HETATM    2  N   UNL     1      76.885   3.057  18.081  1.00  0.00    -0.290 N 
HETATM    3  C   UNL     1      75.531   4.373  16.952  1.00  0.00     0.093 A 
HETATM    4  N   UNL     1      77.400   4.296  18.238  1.00  0.00    -0.278 N 
ATOM      5  HN  UNL     1      78.232   4.570  18.761  1.00  0.00     0.189 HD
HETATM    6  C   UNL     1      76.574   5.069  17.555  1.00  0.00     0.157 A 
HETATM    7  C   UNL     1      77.596   1.982  18.733  1.00  0.00     0.178 C 
ENDROOT
BRANCH   1   8
HETATM    8  C   UNL     1      74.947   1.860  16.955  1.00  0.00     0.434 C 
HETATM    9  F   UNL     1      74.401   1.209  18.007  1.00  0.00    -0.165 F 
HETATM   10  F   UNL     1      73.920   2.193  16.132  1.00  0.00    -0.165 F 
HETATM   11  F   UNL     1      75.699   0.950  16.284  1.00  0.00    -0.165 F 
ENDBRANCH   1   8
BRANCH   6  12
HETATM   12  O   UNL     1      76.847   6.375  17.537  1.00  0.00    -0.345 OA
HETATM   13  H   UNL     1      77.532   6.718  18.077  1.00  0.00     0.219 HD
ENDBRANCH   6  12
TORSDOF 2
ENDMDL
MODEL 8
REMARK VINA RESULT:      -4.5     12.030     12.707
REMARK  2 active torsions:
REMARK  status: ('A' for Active; 'I' for Inactive)
REMARK    1  A    between atoms: C_1  and  C_6 
REMARK    2  A    between atoms: C_7  and  O_11 
ROOT
HETATM    1  C   UNL     1      68.571   4.165   8.991  1.00  0.00     0.138 A 
HETATM    2  N   UNL     1      67.480   3.430   8.596  1.00  0.00    -0.290 N 
HETATM    3  C   UNL     1      69.233   3.378   9.924  1.00  0.00     0.093 A 
HETATM    4  N   UNL     1      67.405   2.232   9.216  1.00  0.00    -0.278 N 
ATOM      5  HN  UNL     1      66.697   1.507   9.100  1.00  0.00     0.189 HD
HETATM    6  C   UNL     1      68.464   2.221  10.008  1.00  0.00     0.157 A 
HETATM    7  C   UNL     1      66.429   3.726   7.649  1.00  0.00     0.178 C 
ENDROOT
BRANCH   1   8
HETATM    8  C   UNL     1      68.935   5.511   8.505  1.00  0.00     0.434 C 
HETATM    9  F   UNL     1      68.643   5.743   7.205  1.00  0.00    -0.165 F 
HETATM   10  F   UNL     1      68.299   6.475   9.221  1.00  0.00    -0.165 F 
HETATM   11  F   UNL     1      70.265   5.737   8.649  1.00  0.00    -0.165 F 
ENDBRANCH   1   8
BRANCH   6  12
HETATM   12  O   UNL     1      68.644   1.132  10.756  1.00  0.00    -0.345 OA
HETATM   13  H   UNL     1      67.923   0.761  11.226  1.00  0.00     0.219 HD
ENDBRANCH   6  12
TORSDOF 2
ENDMDL
MODEL 9
REMARK VINA RESULT:      -4.5     20.258     20.887
REMARK  2 active torsions:
REMARK  status: ('A' for Active; 'I' for Inactive)
REMARK    1  A    between atoms: C_1  and  C_6 
REMARK    2  A    between atoms: C_7  and  O_11 
ROOT
HETATM    1  C   UNL     1      61.932   9.481   2.111  1.00  0.00     0.138 A 
HETATM    2  N   UNL     1      61.918   9.037   3.412  1.00  0.00    -0.290 N 
HETATM    3  C   UNL     1      61.968  10.867   2.191  1.00  0.00     0.093 A 
HETATM    4  N   UNL     1      61.941  10.048   4.308  1.00  0.00    -0.278 N 
ATOM      5  HN  UNL     1      61.936   9.986   5.326  1.00  0.00     0.189 HD
HETATM    6  C   UNL     1      61.970  11.135   3.557  1.00  0.00     0.157 A 
HETATM    7  C   UNL     1      61.884   7.700   3.957  1.00  0.00     0.178 C 
ENDROOT
BRANCH   1   8
HETATM    8  C   UNL     1      61.912   8.632   0.904  1.00  0.00     0.434 C 
HETATM    9  F   UNL     1      60.685   8.430   0.373  1.00  0.00    -0.165 F 
HETATM   10  F   UNL     1      62.675   9.170  -0.083  1.00  0.00    -0.165 F 
HETATM   11  F   UNL     1      62.428   7.404   1.163  1.00  0.00    -0.165 F 
ENDBRANCH   1   8
BRANCH   6  12
HETATM   12  O   UNL     1      61.996  12.307   4.193  1.00  0.00    -0.345 OA
HETATM   13  H   UNL     1      61.222  12.832   4.240  1.00  0.00     0.219 HD
ENDBRANCH   6  12
TORSDOF 2
ENDMDL
