MODEL 1
REMARK VINA RESULT:      -5.4      0.000      0.000
REMARK  3 active torsions:
REMARK  status: ('A' for Active; 'I' for Inactive)
REMARK    1  A    between atoms: C_1  and  C_2 
REMARK    2  A    between atoms: C_2  and  C_3 
REMARK    3  A    between atoms: C_2  and  O_10 
ROOT
HETATM    1  C   UNL     1      62.968   8.552   3.713  1.00  0.00    -0.013 A 
HETATM    2  C   UNL     1      62.874   7.662   2.623  1.00  0.00    -0.053 A 
HETATM    3  C   UNL     1      62.555   9.893   3.528  1.00  0.00     0.017 A 
HETATM    4  C   UNL     1      62.382   8.140   1.394  1.00  0.00     0.008 A 
HETATM    5  C   UNL     1      62.066  10.356   2.301  1.00  0.00    -0.061 A 
HETATM    6  C   UNL     1      61.985   9.467   1.233  1.00  0.00     0.007 A 
HETATM    7  C   UNL     1      63.268   6.209   2.662  1.00  0.00     0.049 C 
HETATM    8  C   UNL     1      61.638  11.783   2.127  1.00  0.00     0.048 C 
ENDROOT
BRANCH   1   9
HETATM    9  C   UNL     1      63.503   8.155   5.079  1.00  0.00     0.252 C 
BRANCH   9  10
HETATM   10  C   UNL     1      65.026   8.351   5.179  1.00  0.00     0.207 C 
HETATM   11  O   UNL     1      65.876   7.661   4.639  1.00  0.00    -0.646 OA
HETATM   12  O   UNL     1      65.387   9.388   5.965  1.00  0.00    -0.646 OA
ENDBRANCH   9  10
BRANCH   9  13
HETATM   13  O   UNL     1      62.781   8.882   6.075  1.00  0.00    -0.380 OA
HETATM   14  H   UNL     1      62.781   9.826   5.849  1.00  0.00     0.211 HD
ENDBRANCH   9  13
ENDBRANCH   1   9
TORSDOF 3
ENDMDL
MODEL 2
REMARK VINA RESULT:      -5.3      1.317      2.991
REMARK  3 active torsions:
REMARK  status: ('A' for Active; 'I' for Inactive)
REMARK    1  A    between atoms: C_1  and  C_2 
REMARK    2  A    between atoms: C_2  and  C_3 
REMARK    3  A    between atoms: C_2  and  O_10 
ROOT
HETATM    1  C   UNL     1      63.112   8.989   4.004  1.00  0.00    -0.013 A 
HETATM    2  C   UNL     1      62.629  10.296   4.221  1.00  0.00    -0.053 A 
HETATM    3  C   UNL     1      62.898   8.391   2.739  1.00  0.00     0.017 A 
HETATM    4  C   UNL     1      61.949  10.953   3.177  1.00  0.00     0.008 A 
HETATM    5  C   UNL     1      62.222   9.055   1.709  1.00  0.00    -0.061 A 
HETATM    6  C   UNL     1      61.746  10.343   1.940  1.00  0.00     0.007 A 
HETATM    7  C   UNL     1      62.780  11.067   5.506  1.00  0.00     0.049 C 
HETATM    8  C   UNL     1      62.004   8.400   0.377  1.00  0.00     0.048 C 
ENDROOT
BRANCH   1   9
HETATM    9  C   UNL     1      63.840   8.176   5.061  1.00  0.00     0.252 C 
BRANCH   9  10
HETATM   10  C   UNL     1      62.875   7.303   5.882  1.00  0.00     0.207 C 
HETATM   11  O   UNL     1      62.369   6.253   5.518  1.00  0.00    -0.646 OA
HETATM   12  O   UNL     1      62.589   7.811   7.100  1.00  0.00    -0.646 OA
ENDBRANCH   9  10
BRANCH   9  13
HETATM   13  O   UNL     1      64.867   7.417   4.418  1.00  0.00    -0.380 OA
HETATM   14  H   UNL     1      64.946   6.551   4.849  1.00  0.00     0.211 HD
ENDBRANCH   9  13
ENDBRANCH   1   9
TORSDOF 3
ENDMDL
MODEL 3
REMARK VINA RESULT:      -4.9      4.864      7.262
REMARK  3 active torsions:
REMARK  status: ('A' for Active; 'I' for Inactive)
REMARK    1  A    between atoms: C_1  and  C_2 
REMARK    2  A    between atoms: C_2  and  C_3 
REMARK    3  A    between atoms: C_2  and  O_10 
ROOT
HETATM    1  C   UNL     1      67.712   5.787   6.169  1.00  0.00    -0.013 A 
HETATM    2  C   UNL     1      67.574   4.601   5.420  1.00  0.00    -0.053 A 
HETATM    3  C   UNL     1      68.194   5.697   7.496  1.00  0.00     0.017 A 
HETATM    4  C   UNL     1      67.913   3.373   6.021  1.00  0.00     0.008 A 
HETATM    5  C   UNL     1      68.530   4.471   8.081  1.00  0.00    -0.061 A 
HETATM    6  C   UNL     1      68.383   3.307   7.331  1.00  0.00     0.007 A 
HETATM    7  C   UNL     1      67.079   4.532   3.999  1.00  0.00     0.049 C 
HETATM    8  C   UNL     1      69.037   4.398   9.492  1.00  0.00     0.048 C 
ENDROOT
BRANCH   1   9
HETATM    9  C   UNL     1      67.357   7.165   5.634  1.00  0.00     0.252 C 
BRANCH   9  10
HETATM   10  C   UNL     1      66.270   7.849   6.482  1.00  0.00     0.207 C 
HETATM   11  O   UNL     1      65.168   7.391   6.743  1.00  0.00    -0.646 OA
HETATM   12  O   UNL     1      66.625   9.070   6.936  1.00  0.00    -0.646 OA
ENDBRANCH   9  10
BRANCH   9  13
HETATM   13  O   UNL     1      68.557   7.936   5.541  1.00  0.00    -0.380 OA
HETATM   14  H   UNL     1      68.724   8.161   4.612  1.00  0.00     0.211 HD
ENDBRANCH   9  13
ENDBRANCH   1   9
TORSDOF 3
ENDMDL
MODEL 4
REMARK VINA RESULT:      -4.6      3.298      5.877
REMARK  3 active torsions:
REMARK  status: ('A' for Active; 'I' for Inactive)
REMARK    1  A    between atoms: C_1  and  C_2 
REMARK    2  A    between atoms: C_2  and  C_3 
REMARK    3  A    between atoms: C_2  and  O_10 
ROOT
HETATM    1  C   UNL     1      66.069   7.041   5.872  1.00  0.00    -0.013 A 
HETATM    2  C   UNL     1      66.618   6.057   5.025  1.00  0.00    -0.053 A 
HETATM    3  C   UNL     1      66.459   7.057   7.233  1.00  0.00     0.017 A 
HETATM    4  C   UNL     1      67.525   5.124   5.564  1.00  0.00     0.008 A 
HETATM    5  C   UNL     1      67.363   6.125   7.756  1.00  0.00    -0.061 A 
HETATM    6  C   UNL     1      67.893   5.155   6.908  1.00  0.00     0.007 A 
HETATM    7  C   UNL     1      66.307   5.913   3.559  1.00  0.00     0.049 C 
HETATM    8  C   UNL     1      67.760   6.158   9.202  1.00  0.00     0.048 C 
ENDROOT
BRANCH   1   9
HETATM    9  C   UNL     1      65.066   8.085   5.409  1.00  0.00     0.252 C 
BRANCH   9  10
HETATM   10  C   UNL     1      63.615   7.612   5.601  1.00  0.00     0.207 C 
HETATM   11  O   UNL     1      62.917   7.073   4.756  1.00  0.00    -0.646 OA
HETATM   12  O   UNL     1      63.123   7.860   6.833  1.00  0.00    -0.646 OA
ENDBRANCH   9  10
BRANCH   9  13
HETATM   13  O   UNL     1      65.346   9.312   6.087  1.00  0.00    -0.380 OA
HETATM   14  H   UNL     1      66.242   9.279   6.456  1.00  0.00     0.211 HD
ENDBRANCH   9  13
ENDBRANCH   1   9
TORSDOF 3
ENDMDL
MODEL 5
REMARK VINA RESULT:      -4.4      4.755      6.954
REMARK  3 active torsions:
REMARK  status: ('A' for Active; 'I' for Inactive)
REMARK    1  A    between atoms: C_1  and  C_2 
REMARK    2  A    between atoms: C_2  and  C_3 
REMARK    3  A    between atoms: C_2  and  O_10 
ROOT
HETATM    1  C   UNL     1      67.238   5.793   6.765  1.00  0.00    -0.013 A 
HETATM    2  C   UNL     1      68.060   5.128   7.698  1.00  0.00    -0.053 A 
HETATM    3  C   UNL     1      66.934   5.140   5.546  1.00  0.00     0.017 A 
HETATM    4  C   UNL     1      68.553   3.848   7.380  1.00  0.00     0.008 A 
HETATM    5  C   UNL     1      67.429   3.867   5.243  1.00  0.00    -0.061 A 
HETATM    6  C   UNL     1      68.244   3.225   6.172  1.00  0.00     0.007 A 
HETATM    7  C   UNL     1      68.469   5.686   9.035  1.00  0.00     0.049 C 
HETATM    8  C   UNL     1      67.096   3.195   3.943  1.00  0.00     0.048 C 
ENDROOT
BRANCH   1   9
HETATM    9  C   UNL     1      66.666   7.183   6.988  1.00  0.00     0.252 C 
BRANCH   9  10
HETATM   10  C   UNL     1      66.752   8.050   5.719  1.00  0.00     0.207 C 
HETATM   11  O   UNL     1      65.808   8.521   5.105  1.00  0.00    -0.646 OA
HETATM   12  O   UNL     1      68.015   8.258   5.291  1.00  0.00    -0.646 OA
ENDBRANCH   9  10
BRANCH   9  13
HETATM   13  O   UNL     1      65.331   7.049   7.481  1.00  0.00    -0.380 OA
HETATM   14  H   UNL     1      65.301   6.336   8.138  1.00  0.00     0.211 HD
ENDBRANCH   9  13
ENDBRANCH   1   9
TORSDOF 3
ENDMDL
MODEL 6
REMARK VINA RESULT:      -4.4      3.162      4.705
REMARK  3 active torsions:
REMARK  status: ('A' for Active; 'I' for Inactive)
REMARK    1  A    between atoms: C_1  and  C_2 
REMARK    2  A    between atoms: C_2  and  C_3 
REMARK    3  A    between atoms: C_2  and  O_10 
ROOT
HETATM    1  C   UNL     1      61.585   9.238   2.713  1.00  0.00    -0.013 A 
HETATM    2  C   UNL     1      61.944  10.564   3.028  1.00  0.00    -0.053 A 
HETATM    3  C   UNL     1      61.872   8.218   3.652  1.00  0.00     0.017 A 
HETATM    4  C   UNL     1      62.579  10.824   4.258  1.00  0.00     0.008 A 
HETATM    5  C   UNL     1      62.501   8.489   4.872  1.00  0.00    -0.061 A 
HETATM    6  C   UNL     1      62.855   9.803   5.167  1.00  0.00     0.007 A 
HETATM    7  C   UNL     1      61.704  11.755   2.139  1.00  0.00     0.049 C 
HETATM    8  C   UNL     1      62.798   7.392   5.851  1.00  0.00     0.048 C 
ENDROOT
BRANCH   1   9
HETATM    9  C   UNL     1      60.916   8.835   1.409  1.00  0.00     0.252 C 
BRANCH   9  10
HETATM   10  C   UNL     1      61.818   7.925   0.557  1.00  0.00     0.207 C 
HETATM   11  O   UNL     1      61.753   6.707   0.491  1.00  0.00    -0.646 OA
HETATM   12  O   UNL     1      62.757   8.596  -0.143  1.00  0.00    -0.646 OA
ENDBRANCH   9  10
BRANCH   9  13
HETATM   13  O   UNL     1      59.653   8.240   1.714  1.00  0.00    -0.380 OA
HETATM   14  H   UNL     1      59.115   8.195   0.908  1.00  0.00     0.211 HD
ENDBRANCH   9  13
ENDBRANCH   1   9
TORSDOF 3
ENDMDL
MODEL 7
REMARK VINA RESULT:      -4.3     18.167     19.681
REMARK  3 active torsions:
REMARK  status: ('A' for Active; 'I' for Inactive)
REMARK    1  A    between atoms: C_1  and  C_2 
REMARK    2  A    between atoms: C_2  and  C_3 
REMARK    3  A    between atoms: C_2  and  O_10 
ROOT
HETATM    1  C   UNL     1      74.754   0.833  16.910  1.00  0.00    -0.013 A 
HETATM    2  C   UNL     1      74.271  -0.387  17.425  1.00  0.00    -0.053 A 
HETATM    3  C   UNL     1      75.143   0.886  15.550  1.00  0.00     0.017 A 
HETATM    4  C   UNL     1      74.202  -1.507  16.573  1.00  0.00     0.008 A 
HETATM    5  C   UNL     1      75.068  -0.233  14.713  1.00  0.00    -0.061 A 
HETATM    6  C   UNL     1      74.594  -1.433  15.237  1.00  0.00     0.007 A 
HETATM    7  C   UNL     1      73.817  -0.602  18.845  1.00  0.00     0.049 C 
HETATM    8  C   UNL     1      75.489  -0.155  13.275  1.00  0.00     0.048 C 
ENDROOT
BRANCH   1   9
HETATM    9  C   UNL     1      74.893   2.100  17.738  1.00  0.00     0.252 C 
BRANCH   9  10
HETATM   10  C   UNL     1      76.364   2.415  18.062  1.00  0.00     0.207 C 
HETATM   11  O   UNL     1      76.982   3.406  17.705  1.00  0.00    -0.646 OA
HETATM   12  O   UNL     1      76.973   1.461  18.797  1.00  0.00    -0.646 OA
ENDBRANCH   9  10
BRANCH   9  13
HETATM   13  O   UNL     1      74.233   3.164  17.050  1.00  0.00    -0.380 OA
HETATM   14  H   UNL     1      73.454   2.816  16.590  1.00  0.00     0.211 HD
ENDBRANCH   9  13
ENDBRANCH   1   9
TORSDOF 3
ENDMDL
MODEL 8
REMARK VINA RESULT:      -4.3      2.536      3.826
REMARK  3 active torsions:
REMARK  status: ('A' for Active; 'I' for Inactive)
REMARK    1  A    between atoms: C_1  and  C_2 
REMARK    2  A    between atoms: C_2  and  C_3 
REMARK    3  A    between atoms: C_2  and  O_10 
ROOT
HETATM    1  C   UNL     1      62.381   8.395   3.344  1.00  0.00    -0.013 A 
HETATM    2  C   UNL     1      62.719   8.681   4.683  1.00  0.00    -0.053 A 
HETATM    3  C   UNL     1      62.032   9.468   2.491  1.00  0.00     0.017 A 
HETATM    4  C   UNL     1      62.689  10.019   5.121  1.00  0.00     0.008 A 
HETATM    5  C   UNL     1      62.008  10.794   2.938  1.00  0.00    -0.061 A 
HETATM    6  C   UNL     1      62.338  11.061   4.264  1.00  0.00     0.007 A 
HETATM    7  C   UNL     1      63.115   7.653   5.709  1.00  0.00     0.049 C 
HETATM    8  C   UNL     1      61.631  11.916   2.016  1.00  0.00     0.048 C 
ENDROOT
BRANCH   1   9
HETATM    9  C   UNL     1      62.357   6.990   2.765  1.00  0.00     0.252 C 
BRANCH   9  10
HETATM   10  C   UNL     1      60.927   6.431   2.672  1.00  0.00     0.207 C 
HETATM   11  O   UNL     1      60.278   6.283   1.648  1.00  0.00    -0.646 OA
HETATM   12  O   UNL     1      60.393   6.109   3.870  1.00  0.00    -0.646 OA
ENDBRANCH   9  10
BRANCH   9  13
HETATM   13  O   UNL     1      63.031   7.009   1.505  1.00  0.00    -0.380 OA
HETATM   14  H   UNL     1      62.817   6.201   1.012  1.00  0.00     0.211 HD
ENDBRANCH   9  13
ENDBRANCH   1   9
TORSDOF 3
ENDMDL
MODEL 9
REMARK VINA RESULT:      -4.1      6.395      8.954
REMARK  3 active torsions:
REMARK  status: ('A' for Active; 'I' for Inactive)
REMARK    1  A    between atoms: C_1  and  C_2 
REMARK    2  A    between atoms: C_2  and  C_3 
REMARK    3  A    between atoms: C_2  and  O_10 
ROOT
HETATM    1  C   UNL     1      68.344   4.217   7.647  1.00  0.00    -0.013 A 
HETATM    2  C   UNL     1      68.086   3.465   6.483  1.00  0.00    -0.053 A 
HETATM    3  C   UNL     1      68.913   3.560   8.765  1.00  0.00     0.017 A 
HETATM    4  C   UNL     1      68.396   2.091   6.477  1.00  0.00     0.008 A 
HETATM    5  C   UNL     1      69.219   2.195   8.746  1.00  0.00    -0.061 A 
HETATM    6  C   UNL     1      68.953   1.464   7.591  1.00  0.00     0.007 A 
HETATM    7  C   UNL     1      67.488   4.017   5.216  1.00  0.00     0.049 C 
HETATM    8  C   UNL     1      69.820   1.518   9.942  1.00  0.00     0.048 C 
ENDROOT
BRANCH   1   9
HETATM    9  C   UNL     1      68.031   5.699   7.778  1.00  0.00     0.252 C 
BRANCH   9  10
HETATM   10  C   UNL     1      66.534   5.950   8.028  1.00  0.00     0.207 C 
HETATM   11  O   UNL     1      65.864   6.846   7.538  1.00  0.00    -0.646 OA
HETATM   12  O   UNL     1      65.975   5.074   8.890  1.00  0.00    -0.646 OA
ENDBRANCH   9  10
BRANCH   9  13
HETATM   13  O   UNL     1      68.867   6.248   8.799  1.00  0.00    -0.380 OA
HETATM   14  H   UNL     1      69.689   6.575   8.401  1.00  0.00     0.211 HD
ENDBRANCH   9  13
ENDBRANCH   1   9
TORSDOF 3
ENDMDL
