MODEL 1
REMARK VINA RESULT:      -5.6      0.000      0.000
REMARK  4 active torsions:
REMARK  status: ('A' for Active; 'I' for Inactive)
REMARK    1  A    between atoms: C_1  and  C_4 
REMARK    2  A    between atoms: C_1  and  O_7 
REMARK    3  A    between atoms: C_3  and  C_4 
REMARK    4  A    between atoms: C_6  and  O_8 
ROOT
HETATM    1  C   UNL     1      71.633  22.687  13.223  1.00  0.00    -0.046 A 
HETATM    2  C   UNL     1      72.944  22.272  13.513  1.00  0.00     0.044 A 
HETATM    3  C   UNL     1      73.666  22.846  14.561  1.00  0.00     0.068 A 
HETATM    4  C   UNL     1      71.779  24.290  15.038  1.00  0.00     0.003 A 
HETATM    5  C   UNL     1      71.061  23.709  13.993  1.00  0.00     0.008 A 
HETATM    6  C   UNL     1      73.075  23.858  15.320  1.00  0.00     0.037 A 
ENDROOT
BRANCH   1   7
HETATM    7  C   UNL     1      70.875  22.077  12.066  1.00  0.00     0.149 C 
BRANCH   7   8
HETATM    8  C   UNL     1      71.632  21.019  11.287  1.00  0.00     0.262 C 
HETATM    9  O   UNL     1      72.406  21.211  10.360  1.00  0.00    -0.265 OA
BRANCH   8  10
HETATM   10  O   UNL     1      71.312  19.785  11.783  1.00  0.00    -0.326 OA
HETATM   11  C   UNL     1      71.261  18.755  10.794  1.00  0.00     0.213 C 
ENDBRANCH   8  10
ENDBRANCH   7   8
ENDBRANCH   1   7
BRANCH   3  12
HETATM   12  O   UNL     1      74.940  22.512  14.931  1.00  0.00    -0.356 OA
HETATM   13  C   UNL     1      75.073  21.416  15.829  1.00  0.00     0.210 C 
ENDBRANCH   3  12
TORSDOF 4
ENDMDL
MODEL 2
REMARK VINA RESULT:      -5.3      2.387      3.436
REMARK  4 active torsions:
REMARK  status: ('A' for Active; 'I' for Inactive)
REMARK    1  A    between atoms: C_1  and  C_4 
REMARK    2  A    between atoms: C_1  and  O_7 
REMARK    3  A    between atoms: C_3  and  C_4 
REMARK    4  A    between atoms: C_6  and  O_8 
ROOT
HETATM    1  C   UNL     1      71.785  23.336  14.021  1.00  0.00    -0.046 A 
HETATM    2  C   UNL     1      70.515  23.641  14.539  1.00  0.00     0.044 A 
HETATM    3  C   UNL     1      70.254  24.884  15.119  1.00  0.00     0.068 A 
HETATM    4  C   UNL     1      72.549  25.537  14.696  1.00  0.00     0.003 A 
HETATM    5  C   UNL     1      72.803  24.295  14.112  1.00  0.00     0.008 A 
HETATM    6  C   UNL     1      71.280  25.828  15.194  1.00  0.00     0.037 A 
ENDROOT
BRANCH   1   7
HETATM    7  C   UNL     1      72.061  21.975  13.423  1.00  0.00     0.149 C 
BRANCH   7   8
HETATM    8  C   UNL     1      71.481  21.751  12.040  1.00  0.00     0.262 C 
HETATM    9  O   UNL     1      70.991  22.600  11.309  1.00  0.00    -0.265 OA
BRANCH   8  10
HETATM   10  O   UNL     1      71.583  20.424  11.723  1.00  0.00    -0.326 OA
HETATM   11  C   UNL     1      71.070  20.092  10.431  1.00  0.00     0.213 C 
ENDBRANCH   8  10
ENDBRANCH   7   8
ENDBRANCH   1   7
BRANCH   3  12
HETATM   12  O   UNL     1      69.057  25.285  15.645  1.00  0.00    -0.356 OA
HETATM   13  C   UNL     1      67.938  24.444  15.392  1.00  0.00     0.210 C 
ENDBRANCH   3  12
TORSDOF 4
ENDMDL
MODEL 3
REMARK VINA RESULT:      -4.9     17.112     18.784
REMARK  4 active torsions:
REMARK  status: ('A' for Active; 'I' for Inactive)
REMARK    1  A    between atoms: C_1  and  C_4 
REMARK    2  A    between atoms: C_1  and  O_7 
REMARK    3  A    between atoms: C_3  and  C_4 
REMARK    4  A    between atoms: C_6  and  O_8 
ROOT
HETATM    1  C   UNL     1      63.115   8.916   4.598  1.00  0.00    -0.046 A 
HETATM    2  C   UNL     1      62.717   8.699   3.268  1.00  0.00     0.044 A 
HETATM    3  C   UNL     1      62.121   9.716   2.520  1.00  0.00     0.068 A 
HETATM    4  C   UNL     1      62.287  11.190   4.436  1.00  0.00     0.003 A 
HETATM    5  C   UNL     1      62.887  10.171   5.177  1.00  0.00     0.008 A 
HETATM    6  C   UNL     1      61.909  10.962   3.114  1.00  0.00     0.037 A 
ENDROOT
BRANCH   1   7
HETATM    7  C   UNL     1      63.732   7.795   5.405  1.00  0.00     0.149 C 
BRANCH   7   8
HETATM    8  C   UNL     1      65.184   8.002   5.786  1.00  0.00     0.262 C 
HETATM    9  O   UNL     1      66.041   8.565   5.119  1.00  0.00    -0.265 OA
BRANCH   8  10
HETATM   10  O   UNL     1      65.406   7.449   7.018  1.00  0.00    -0.326 OA
HETATM   11  C   UNL     1      66.785   7.223   7.317  1.00  0.00     0.213 C 
ENDBRANCH   8  10
ENDBRANCH   7   8
ENDBRANCH   1   7
BRANCH   3  12
HETATM   12  O   UNL     1      61.704   9.614   1.221  1.00  0.00    -0.356 OA
HETATM   13  C   UNL     1      60.865   8.509   0.908  1.00  0.00     0.210 C 
ENDBRANCH   3  12
TORSDOF 4
ENDMDL
MODEL 4
REMARK VINA RESULT:      -4.7     18.134     20.319
REMARK  4 active torsions:
REMARK  status: ('A' for Active; 'I' for Inactive)
REMARK    1  A    between atoms: C_1  and  C_4 
REMARK    2  A    between atoms: C_1  and  O_7 
REMARK    3  A    between atoms: C_3  and  C_4 
REMARK    4  A    between atoms: C_6  and  O_8 
ROOT
HETATM    1  C   UNL     1      76.371   3.106  17.709  1.00  0.00    -0.046 A 
HETATM    2  C   UNL     1      77.122   1.922  17.797  1.00  0.00     0.044 A 
HETATM    3  C   UNL     1      76.681   0.743  17.192  1.00  0.00     0.068 A 
HETATM    4  C   UNL     1      74.705   1.910  16.414  1.00  0.00     0.003 A 
HETATM    5  C   UNL     1      75.153   3.086  17.017  1.00  0.00     0.008 A 
HETATM    6  C   UNL     1      75.467   0.746  16.501  1.00  0.00     0.037 A 
ENDROOT
BRANCH   1   7
HETATM    7  C   UNL     1      76.847   4.367  18.396  1.00  0.00     0.149 C 
BRANCH   7   8
HETATM    8  C   UNL     1      76.890   5.600  17.516  1.00  0.00     0.262 C 
HETATM    9  O   UNL     1      77.252   5.652  16.349  1.00  0.00    -0.265 OA
BRANCH   8  10
HETATM   10  O   UNL     1      76.459   6.679  18.239  1.00  0.00    -0.326 OA
HETATM   11  C   UNL     1      76.988   7.929  17.793  1.00  0.00     0.213 C 
ENDBRANCH   8  10
ENDBRANCH   7   8
ENDBRANCH   1   7
BRANCH   3  12
HETATM   12  O   UNL     1      77.335  -0.458  17.210  1.00  0.00    -0.356 OA
HETATM   13  C   UNL     1      77.933  -0.837  18.443  1.00  0.00     0.210 C 
ENDBRANCH   3  12
TORSDOF 4
ENDMDL
MODEL 5
REMARK VINA RESULT:      -4.6     17.702     19.941
REMARK  4 active torsions:
REMARK  status: ('A' for Active; 'I' for Inactive)
REMARK    1  A    between atoms: C_1  and  C_4 
REMARK    2  A    between atoms: C_1  and  O_7 
REMARK    3  A    between atoms: C_3  and  C_4 
REMARK    4  A    between atoms: C_6  and  O_8 
ROOT
HETATM    1  C   UNL     1      62.172   9.553   1.989  1.00  0.00    -0.046 A 
HETATM    2  C   UNL     1      62.568   8.951   3.195  1.00  0.00     0.044 A 
HETATM    3  C   UNL     1      62.605   9.679   4.386  1.00  0.00     0.068 A 
HETATM    4  C   UNL     1      61.871  11.647   3.177  1.00  0.00     0.003 A 
HETATM    5  C   UNL     1      61.830  10.913   1.991  1.00  0.00     0.008 A 
HETATM    6  C   UNL     1      62.255  11.031   4.367  1.00  0.00     0.037 A 
ENDROOT
BRANCH   1   7
HETATM    7  C   UNL     1      62.165   8.759   0.702  1.00  0.00     0.149 C 
BRANCH   7   8
HETATM    8  C   UNL     1      60.982   7.828   0.528  1.00  0.00     0.262 C 
HETATM    9  O   UNL     1      59.818   8.156   0.343  1.00  0.00    -0.265 OA
BRANCH   8  10
HETATM   10  O   UNL     1      61.415   6.534   0.614  1.00  0.00    -0.326 OA
HETATM   11  C   UNL     1      62.741   6.328   0.121  1.00  0.00     0.213 C 
ENDBRANCH   8  10
ENDBRANCH   7   8
ENDBRANCH   1   7
BRANCH   3  12
HETATM   12  O   UNL     1      62.967   9.191   5.611  1.00  0.00    -0.356 OA
HETATM   13  C   UNL     1      62.880   7.781   5.784  1.00  0.00     0.210 C 
ENDBRANCH   3  12
TORSDOF 4
ENDMDL
MODEL 6
REMARK VINA RESULT:      -4.6     16.915     18.295
REMARK  4 active torsions:
REMARK  status: ('A' for Active; 'I' for Inactive)
REMARK    1  A    between atoms: C_1  and  C_4 
REMARK    2  A    between atoms: C_1  and  O_7 
REMARK    3  A    between atoms: C_3  and  C_4 
REMARK    4  A    between atoms: C_6  and  O_8 
ROOT
HETATM    1  C   UNL     1      67.457   6.386   7.516  1.00  0.00    -0.046 A 
HETATM    2  C   UNL     1      66.634   7.512   7.347  1.00  0.00     0.044 A 
HETATM    3  C   UNL     1      66.246   7.935   6.074  1.00  0.00     0.068 A 
HETATM    4  C   UNL     1      67.527   6.119   5.106  1.00  0.00     0.003 A 
HETATM    5  C   UNL     1      67.907   5.698   6.381  1.00  0.00     0.008 A 
HETATM    6  C   UNL     1      66.699   7.231   4.956  1.00  0.00     0.037 A 
ENDROOT
BRANCH   1   7
HETATM    7  C   UNL     1      67.893   5.958   8.900  1.00  0.00     0.149 C 
BRANCH   7   8
HETATM    8  C   UNL     1      67.886   4.461   9.141  1.00  0.00     0.262 C 
HETATM    9  O   UNL     1      67.002   3.676   8.829  1.00  0.00    -0.265 OA
BRANCH   8  10
HETATM   10  O   UNL     1      69.042   4.107   9.782  1.00  0.00    -0.326 OA
HETATM   11  C   UNL     1      70.229   4.354   9.025  1.00  0.00     0.213 C 
ENDBRANCH   8  10
ENDBRANCH   7   8
ENDBRANCH   1   7
BRANCH   3  12
HETATM   12  O   UNL     1      65.445   9.008   5.797  1.00  0.00    -0.356 OA
HETATM   13  C   UNL     1      64.322   8.763   4.959  1.00  0.00     0.210 C 
ENDBRANCH   3  12
TORSDOF 4
ENDMDL
MODEL 7
REMARK VINA RESULT:      -4.6     17.144     19.610
REMARK  4 active torsions:
REMARK  status: ('A' for Active; 'I' for Inactive)
REMARK    1  A    between atoms: C_1  and  C_4 
REMARK    2  A    between atoms: C_1  and  O_7 
REMARK    3  A    between atoms: C_3  and  C_4 
REMARK    4  A    between atoms: C_6  and  O_8 
ROOT
HETATM    1  C   UNL     1      68.961   3.996   9.036  1.00  0.00    -0.046 A 
HETATM    2  C   UNL     1      68.337   5.250   9.154  1.00  0.00     0.044 A 
HETATM    3  C   UNL     1      67.662   5.822   8.075  1.00  0.00     0.068 A 
HETATM    4  C   UNL     1      68.245   3.899   6.720  1.00  0.00     0.003 A 
HETATM    5  C   UNL     1      68.915   3.330   7.804  1.00  0.00     0.008 A 
HETATM    6  C   UNL     1      67.621   5.138   6.857  1.00  0.00     0.037 A 
ENDROOT
BRANCH   1   7
HETATM    7  C   UNL     1      69.715   3.403  10.205  1.00  0.00     0.149 C 
BRANCH   7   8
HETATM    8  C   UNL     1      69.353   1.970  10.542  1.00  0.00     0.262 C 
HETATM    9  O   UNL     1      68.238   1.541  10.801  1.00  0.00    -0.265 OA
BRANCH   8  10
HETATM   10  O   UNL     1      70.488   1.206  10.518  1.00  0.00    -0.326 OA
HETATM   11  C   UNL     1      70.453   0.138   9.569  1.00  0.00     0.213 C 
ENDBRANCH   8  10
ENDBRANCH   7   8
ENDBRANCH   1   7
BRANCH   3  12
HETATM   12  O   UNL     1      67.017   7.028   8.084  1.00  0.00    -0.356 OA
HETATM   13  C   UNL     1      66.534   7.499   6.831  1.00  0.00     0.210 C 
ENDBRANCH   3  12
TORSDOF 4
ENDMDL
MODEL 8
REMARK VINA RESULT:      -4.6     16.725     18.209
REMARK  4 active torsions:
REMARK  status: ('A' for Active; 'I' for Inactive)
REMARK    1  A    between atoms: C_1  and  C_4 
REMARK    2  A    between atoms: C_1  and  O_7 
REMARK    3  A    between atoms: C_3  and  C_4 
REMARK    4  A    between atoms: C_6  and  O_8 
ROOT
HETATM    1  C   UNL     1      67.467   6.030   7.522  1.00  0.00    -0.046 A 
HETATM    2  C   UNL     1      68.280   5.664   8.608  1.00  0.00     0.044 A 
HETATM    3  C   UNL     1      68.966   4.448   8.615  1.00  0.00     0.068 A 
HETATM    4  C   UNL     1      68.014   3.924   6.449  1.00  0.00     0.003 A 
HETATM    5  C   UNL     1      67.335   5.143   6.445  1.00  0.00     0.008 A 
HETATM    6  C   UNL     1      68.827   3.581   7.529  1.00  0.00     0.037 A 
ENDROOT
BRANCH   1   7
HETATM    7  C   UNL     1      66.706   7.336   7.542  1.00  0.00     0.149 C 
BRANCH   7   8
HETATM    8  C   UNL     1      66.818   8.165   6.277  1.00  0.00     0.262 C 
HETATM    9  O   UNL     1      67.768   8.194   5.507  1.00  0.00    -0.265 OA
BRANCH   8  10
HETATM   10  O   UNL     1      65.675   8.899   6.121  1.00  0.00    -0.326 OA
HETATM   11  C   UNL     1      64.854   8.477   5.030  1.00  0.00     0.213 C 
ENDBRANCH   8  10
ENDBRANCH   7   8
ENDBRANCH   1   7
BRANCH   3  12
HETATM   12  O   UNL     1      69.787   3.998   9.614  1.00  0.00    -0.356 OA
HETATM   13  C   UNL     1      69.525   2.691  10.110  1.00  0.00     0.210 C 
ENDBRANCH   3  12
TORSDOF 4
ENDMDL
MODEL 9
REMARK VINA RESULT:      -4.5     19.075     21.622
REMARK  4 active torsions:
REMARK  status: ('A' for Active; 'I' for Inactive)
REMARK    1  A    between atoms: C_1  and  C_4 
REMARK    2  A    between atoms: C_1  and  O_7 
REMARK    3  A    between atoms: C_3  and  C_4 
REMARK    4  A    between atoms: C_6  and  O_8 
ROOT
HETATM    1  C   UNL     1      74.936   1.714  17.028  1.00  0.00    -0.046 A 
HETATM    2  C   UNL     1      74.880   1.147  15.744  1.00  0.00     0.044 A 
HETATM    3  C   UNL     1      74.353  -0.130  15.543  1.00  0.00     0.068 A 
HETATM    4  C   UNL     1      73.949  -0.312  17.926  1.00  0.00     0.003 A 
HETATM    5  C   UNL     1      74.472   0.967  18.120  1.00  0.00     0.008 A 
HETATM    6  C   UNL     1      73.889  -0.855  16.643  1.00  0.00     0.037 A 
ENDROOT
BRANCH   1   7
HETATM    7  C   UNL     1      75.536   3.087  17.233  1.00  0.00     0.149 C 
BRANCH   7   8
HETATM    8  C   UNL     1      76.788   3.119  18.088  1.00  0.00     0.262 C 
HETATM    9  O   UNL     1      77.559   2.191  18.288  1.00  0.00    -0.265 OA
BRANCH   8  10
HETATM   10  O   UNL     1      76.932   4.370  18.622  1.00  0.00    -0.326 OA
HETATM   11  C   UNL     1      76.924   5.423  17.656  1.00  0.00     0.213 C 
ENDBRANCH   8  10
ENDBRANCH   7   8
ENDBRANCH   1   7
BRANCH   3  12
HETATM   12  O   UNL     1      74.245  -0.771  14.340  1.00  0.00    -0.356 OA
HETATM   13  C   UNL     1      75.174  -0.389  13.332  1.00  0.00     0.210 C 
ENDBRANCH   3  12
TORSDOF 4
ENDMDL
