MODEL 1
REMARK VINA RESULT:      -6.1      0.000      0.000
REMARK  4 active torsions:
REMARK  status: ('A' for Active; 'I' for Inactive)
REMARK    1  A    between atoms: C_1  and  C_6 
REMARK    2  A    between atoms: C_2  and  C_5 
REMARK    3  A    between atoms: C_4  and  O_8 
REMARK    4  A    between atoms: C_5  and  C_6 
ROOT
HETATM    1  C   UNL     1      76.840   6.944  16.951  1.00  0.00    -0.024 A 
HETATM    2  C   UNL     1      77.193   8.239  17.382  1.00  0.00     0.074 A 
HETATM    3  C   UNL     1      76.809   6.705  15.561  1.00  0.00     0.010 A 
HETATM    4  C   UNL     1      77.598   9.206  16.448  1.00  0.00     0.037 A 
HETATM    5  C   UNL     1      77.199   7.678  14.639  1.00  0.00     0.001 A 
HETATM    6  C   UNL     1      77.611   8.925  15.083  1.00  0.00     0.003 A 
ENDROOT
BRANCH   1   7
HETATM    7  C   UNL     1      76.595   5.812  17.931  1.00  0.00     0.052 C 
BRANCH   7   8
HETATM    8  C   UNL     1      76.888   4.397  17.420  1.00  0.00     0.118 C 
BRANCH   8   9
HETATM    9  C   UNL     1      76.732   3.366  18.495  1.00  0.00     0.172 C 
HETATM   10  O   UNL     1      76.267   2.245  18.387  1.00  0.00    -0.648 OA
HETATM   11  O   UNL     1      77.191   3.817  19.681  1.00  0.00    -0.648 OA
ENDBRANCH   8   9
ENDBRANCH   7   8
ENDBRANCH   1   7
BRANCH   2  12
HETATM   12  O   UNL     1      77.305   8.648  18.685  1.00  0.00    -0.355 OA
HETATM   13  C   UNL     1      78.025   9.858  18.898  1.00  0.00     0.210 C 
ENDBRANCH   2  12
TORSDOF 4
ENDMDL
MODEL 2
REMARK VINA RESULT:      -5.1     18.068     19.258
REMARK  4 active torsions:
REMARK  status: ('A' for Active; 'I' for Inactive)
REMARK    1  A    between atoms: C_1  and  C_6 
REMARK    2  A    between atoms: C_2  and  C_5 
REMARK    3  A    between atoms: C_4  and  O_8 
REMARK    4  A    between atoms: C_5  and  C_6 
ROOT
HETATM    1  C   UNL     1      62.897   8.312   3.386  1.00  0.00    -0.024 A 
HETATM    2  C   UNL     1      62.510   9.506   4.026  1.00  0.00     0.074 A 
HETATM    3  C   UNL     1      62.650   8.203   2.002  1.00  0.00     0.010 A 
HETATM    4  C   UNL     1      61.998  10.574   3.273  1.00  0.00     0.037 A 
HETATM    5  C   UNL     1      62.127   9.266   1.263  1.00  0.00     0.001 A 
HETATM    6  C   UNL     1      61.816  10.460   1.896  1.00  0.00     0.003 A 
ENDROOT
BRANCH   1   7
HETATM    7  C   UNL     1      63.641   7.212   4.123  1.00  0.00     0.052 C 
BRANCH   7   8
HETATM    8  C   UNL     1      65.091   7.518   4.512  1.00  0.00     0.118 C 
BRANCH   8   9
HETATM    9  C   UNL     1      65.231   7.814   5.974  1.00  0.00     0.172 C 
HETATM   10  O   UNL     1      64.797   7.162   6.908  1.00  0.00    -0.648 OA
HETATM   11  O   UNL     1      65.936   8.945   6.183  1.00  0.00    -0.648 OA
ENDBRANCH   8   9
ENDBRANCH   7   8
ENDBRANCH   1   7
BRANCH   2  12
HETATM   12  O   UNL     1      62.694   9.803   5.352  1.00  0.00    -0.355 OA
HETATM   13  C   UNL     1      62.902  11.178   5.659  1.00  0.00     0.210 C 
ENDBRANCH   2  12
TORSDOF 4
ENDMDL
MODEL 3
REMARK VINA RESULT:      -5.0     18.720     20.029
REMARK  4 active torsions:
REMARK  status: ('A' for Active; 'I' for Inactive)
REMARK    1  A    between atoms: C_1  and  C_6 
REMARK    2  A    between atoms: C_2  and  C_5 
REMARK    3  A    between atoms: C_4  and  O_8 
REMARK    4  A    between atoms: C_5  and  C_6 
ROOT
HETATM    1  C   UNL     1      62.570   9.140   3.711  1.00  0.00    -0.024 A 
HETATM    2  C   UNL     1      62.437   9.062   2.310  1.00  0.00     0.074 A 
HETATM    3  C   UNL     1      62.341  10.391   4.319  1.00  0.00     0.010 A 
HETATM    4  C   UNL     1      61.988  10.176   1.582  1.00  0.00     0.037 A 
HETATM    5  C   UNL     1      61.909  11.498   3.586  1.00  0.00     0.001 A 
HETATM    6  C   UNL     1      61.716  11.386   2.217  1.00  0.00     0.003 A 
ENDROOT
BRANCH   1   7
HETATM    7  C   UNL     1      62.853   7.913   4.559  1.00  0.00     0.052 C 
BRANCH   7   8
HETATM    8  C   UNL     1      64.318   7.474   4.648  1.00  0.00     0.118 C 
BRANCH   8   9
HETATM    9  C   UNL     1      64.941   7.854   5.956  1.00  0.00     0.172 C 
HETATM   10  O   UNL     1      64.971   7.196   6.982  1.00  0.00    -0.648 OA
HETATM   11  O   UNL     1      65.512   9.074   5.895  1.00  0.00    -0.648 OA
ENDBRANCH   8   9
ENDBRANCH   7   8
ENDBRANCH   1   7
BRANCH   2  12
HETATM   12  O   UNL     1      62.592   7.932   1.550  1.00  0.00    -0.355 OA
HETATM   13  C   UNL     1      61.834   7.882   0.346  1.00  0.00     0.210 C 
ENDBRANCH   2  12
TORSDOF 4
ENDMDL
MODEL 4
REMARK VINA RESULT:      -4.8     18.672     19.918
REMARK  4 active torsions:
REMARK  status: ('A' for Active; 'I' for Inactive)
REMARK    1  A    between atoms: C_1  and  C_6 
REMARK    2  A    between atoms: C_2  and  C_5 
REMARK    3  A    between atoms: C_4  and  O_8 
REMARK    4  A    between atoms: C_5  and  C_6 
ROOT
HETATM    1  C   UNL     1      62.924   8.655   3.345  1.00  0.00    -0.024 A 
HETATM    2  C   UNL     1      62.156   9.595   2.629  1.00  0.00     0.074 A 
HETATM    3  C   UNL     1      63.181   7.414   2.726  1.00  0.00     0.010 A 
HETATM    4  C   UNL     1      61.765   9.324   1.308  1.00  0.00     0.037 A 
HETATM    5  C   UNL     1      62.775   7.148   1.417  1.00  0.00     0.001 A 
HETATM    6  C   UNL     1      62.080   8.111   0.700  1.00  0.00     0.003 A 
ENDROOT
BRANCH   1   7
HETATM    7  C   UNL     1      63.541   8.984   4.693  1.00  0.00     0.052 C 
BRANCH   7   8
HETATM    8  C   UNL     1      64.860   8.278   5.024  1.00  0.00     0.118 C 
BRANCH   8   9
HETATM    9  C   UNL     1      64.682   7.210   6.060  1.00  0.00     0.172 C 
HETATM   10  O   UNL     1      63.984   7.254   7.059  1.00  0.00    -0.648 OA
HETATM   11  O   UNL     1      65.409   6.112   5.768  1.00  0.00    -0.648 OA
ENDBRANCH   8   9
ENDBRANCH   7   8
ENDBRANCH   1   7
BRANCH   2  12
HETATM   12  O   UNL     1      61.831  10.857   3.054  1.00  0.00    -0.355 OA
HETATM   13  C   UNL     1      61.751  11.854   2.041  1.00  0.00     0.210 C 
ENDBRANCH   2  12
TORSDOF 4
ENDMDL
MODEL 5
REMARK VINA RESULT:      -4.6     12.859     14.505
REMARK  4 active torsions:
REMARK  status: ('A' for Active; 'I' for Inactive)
REMARK    1  A    between atoms: C_1  and  C_6 
REMARK    2  A    between atoms: C_2  and  C_5 
REMARK    3  A    between atoms: C_4  and  O_8 
REMARK    4  A    between atoms: C_5  and  C_6 
ROOT
HETATM    1  C   UNL     1      67.869   4.650   7.869  1.00  0.00    -0.024 A 
HETATM    2  C   UNL     1      67.562   3.419   8.482  1.00  0.00     0.074 A 
HETATM    3  C   UNL     1      69.078   5.277   8.233  1.00  0.00     0.010 A 
HETATM    4  C   UNL     1      68.491   2.808   9.339  1.00  0.00     0.037 A 
HETATM    5  C   UNL     1      69.990   4.669   9.097  1.00  0.00     0.001 A 
HETATM    6  C   UNL     1      69.705   3.424   9.638  1.00  0.00     0.003 A 
ENDROOT
BRANCH   1   7
HETATM    7  C   UNL     1      66.990   5.246   6.784  1.00  0.00     0.052 C 
BRANCH   7   8
HETATM    8  C   UNL     1      67.365   6.652   6.305  1.00  0.00     0.118 C 
BRANCH   8   9
HETATM    9  C   UNL     1      66.360   7.679   6.731  1.00  0.00     0.172 C 
HETATM   10  O   UNL     1      66.436   8.889   6.604  1.00  0.00    -0.648 OA
HETATM   11  O   UNL     1      65.282   7.106   7.303  1.00  0.00    -0.648 OA
ENDBRANCH   8   9
ENDBRANCH   7   8
ENDBRANCH   1   7
BRANCH   2  12
HETATM   12  O   UNL     1      66.452   2.653   8.234  1.00  0.00    -0.355 OA
HETATM   13  C   UNL     1      66.673   1.249   8.142  1.00  0.00     0.210 C 
ENDBRANCH   2  12
TORSDOF 4
ENDMDL
MODEL 6
REMARK VINA RESULT:      -4.6     11.967     13.285
REMARK  4 active torsions:
REMARK  status: ('A' for Active; 'I' for Inactive)
REMARK    1  A    between atoms: C_1  and  C_6 
REMARK    2  A    between atoms: C_2  and  C_5 
REMARK    3  A    between atoms: C_4  and  O_8 
REMARK    4  A    between atoms: C_5  and  C_6 
ROOT
HETATM    1  C   UNL     1      68.358   5.082   8.221  1.00  0.00    -0.024 A 
HETATM    2  C   UNL     1      67.666   5.112   6.993  1.00  0.00     0.074 A 
HETATM    3  C   UNL     1      67.904   5.938   9.246  1.00  0.00     0.010 A 
HETATM    4  C   UNL     1      66.507   5.892   6.857  1.00  0.00     0.037 A 
HETATM    5  C   UNL     1      66.759   6.721   9.096  1.00  0.00     0.001 A 
HETATM    6  C   UNL     1      66.048   6.687   7.906  1.00  0.00     0.003 A 
ENDROOT
BRANCH   1   7
HETATM    7  C   UNL     1      69.489   4.104   8.480  1.00  0.00     0.052 C 
BRANCH   7   8
HETATM    8  C   UNL     1      69.752   3.745   9.946  1.00  0.00     0.118 C 
BRANCH   8   9
HETATM    9  C   UNL     1      69.167   2.415  10.313  1.00  0.00     0.172 C 
HETATM   10  O   UNL     1      68.055   1.994  10.045  1.00  0.00    -0.648 OA
HETATM   11  O   UNL     1      70.044   1.667  11.014  1.00  0.00    -0.648 OA
ENDBRANCH   8   9
ENDBRANCH   7   8
ENDBRANCH   1   7
BRANCH   2  12
HETATM   12  O   UNL     1      67.942   4.336   5.897  1.00  0.00    -0.355 OA
HETATM   13  C   UNL     1      67.228   4.660   4.709  1.00  0.00     0.210 C 
ENDBRANCH   2  12
TORSDOF 4
ENDMDL
MODEL 7
REMARK VINA RESULT:      -4.5      5.894      7.597
REMARK  4 active torsions:
REMARK  status: ('A' for Active; 'I' for Inactive)
REMARK    1  A    between atoms: C_1  and  C_6 
REMARK    2  A    between atoms: C_2  and  C_5 
REMARK    3  A    between atoms: C_4  and  O_8 
REMARK    4  A    between atoms: C_5  and  C_6 
ROOT
HETATM    1  C   UNL     1      75.797   0.055  14.899  1.00  0.00    -0.024 A 
HETATM    2  C   UNL     1      77.014  -0.389  15.454  1.00  0.00     0.074 A 
HETATM    3  C   UNL     1      75.704   0.111  13.493  1.00  0.00     0.010 A 
HETATM    4  C   UNL     1      78.042  -0.854  14.618  1.00  0.00     0.037 A 
HETATM    5  C   UNL     1      76.737  -0.340  12.669  1.00  0.00     0.001 A 
HETATM    6  C   UNL     1      77.902  -0.840  13.232  1.00  0.00     0.003 A 
ENDROOT
BRANCH   1   7
HETATM    7  C   UNL     1      74.590   0.372  15.763  1.00  0.00     0.052 C 
BRANCH   7   8
HETATM    8  C   UNL     1      74.606   1.727  16.478  1.00  0.00     0.118 C 
BRANCH   8   9
HETATM    9  C   UNL     1      74.901   1.588  17.940  1.00  0.00     0.172 C 
HETATM   10  O   UNL     1      74.335   0.870  18.746  1.00  0.00    -0.648 OA
HETATM   11  O   UNL     1      75.925   2.382  18.315  1.00  0.00    -0.648 OA
ENDBRANCH   8   9
ENDBRANCH   7   8
ENDBRANCH   1   7
BRANCH   2  12
HETATM   12  O   UNL     1      77.280  -0.536  16.791  1.00  0.00    -0.355 OA
HETATM   13  C   UNL     1      77.411  -1.876  17.256  1.00  0.00     0.210 C 
ENDBRANCH   2  12
TORSDOF 4
ENDMDL
MODEL 8
REMARK VINA RESULT:      -4.4     19.861     21.154
REMARK  4 active torsions:
REMARK  status: ('A' for Active; 'I' for Inactive)
REMARK    1  A    between atoms: C_1  and  C_6 
REMARK    2  A    between atoms: C_2  and  C_5 
REMARK    3  A    between atoms: C_4  and  O_8 
REMARK    4  A    between atoms: C_5  and  C_6 
ROOT
HETATM    1  C   UNL     1      62.520   9.161   3.077  1.00  0.00    -0.024 A 
HETATM    2  C   UNL     1      63.164   8.922   4.307  1.00  0.00     0.074 A 
HETATM    3  C   UNL     1      61.866  10.400   2.913  1.00  0.00     0.010 A 
HETATM    4  C   UNL     1      63.231   9.935   5.276  1.00  0.00     0.037 A 
HETATM    5  C   UNL     1      61.925  11.397   3.889  1.00  0.00     0.001 A 
HETATM    6  C   UNL     1      62.622  11.171   5.066  1.00  0.00     0.003 A 
ENDROOT
BRANCH   1   7
HETATM    7  C   UNL     1      62.598   8.176   1.925  1.00  0.00     0.052 C 
BRANCH   7   8
HETATM    8  C   UNL     1      61.900   8.593   0.627  1.00  0.00     0.118 C 
BRANCH   8   9
HETATM    9  C   UNL     1      60.582   7.904   0.450  1.00  0.00     0.172 C 
HETATM   10  O   UNL     1      59.470   8.371   0.629  1.00  0.00    -0.648 OA
HETATM   11  O   UNL     1      60.742   6.629   0.040  1.00  0.00    -0.648 OA
ENDBRANCH   8   9
ENDBRANCH   7   8
ENDBRANCH   1   7
BRANCH   2  12
HETATM   12  O   UNL     1      63.872   7.795   4.637  1.00  0.00    -0.355 OA
HETATM   13  C   UNL     1      65.206   8.006   5.085  1.00  0.00     0.210 C 
ENDBRANCH   2  12
TORSDOF 4
ENDMDL
MODEL 9
REMARK VINA RESULT:      -4.2      4.212      7.610
REMARK  4 active torsions:
REMARK  status: ('A' for Active; 'I' for Inactive)
REMARK    1  A    between atoms: C_1  and  C_6 
REMARK    2  A    between atoms: C_2  and  C_5 
REMARK    3  A    between atoms: C_4  and  O_8 
REMARK    4  A    between atoms: C_5  and  C_6 
ROOT
HETATM    1  C   UNL     1      75.136   0.900  17.228  1.00  0.00    -0.024 A 
HETATM    2  C   UNL     1      75.426  -0.061  16.239  1.00  0.00     0.074 A 
HETATM    3  C   UNL     1      74.309   0.504  18.299  1.00  0.00     0.010 A 
HETATM    4  C   UNL     1      74.985  -1.384  16.391  1.00  0.00     0.037 A 
HETATM    5  C   UNL     1      73.861  -0.812  18.435  1.00  0.00     0.001 A 
HETATM    6  C   UNL     1      74.213  -1.762  17.489  1.00  0.00     0.003 A 
ENDROOT
BRANCH   1   7
HETATM    7  C   UNL     1      75.761   2.283  17.210  1.00  0.00     0.052 C 
BRANCH   7   8
HETATM    8  C   UNL     1      77.037   2.462  18.039  1.00  0.00     0.118 C 
BRANCH   8   9
HETATM    9  C   UNL     1      77.039   3.753  18.798  1.00  0.00     0.172 C 
HETATM   10  O   UNL     1      76.900   4.878  18.350  1.00  0.00    -0.648 OA
HETATM   11  O   UNL     1      77.217   3.549  20.119  1.00  0.00    -0.648 OA
ENDBRANCH   8   9
ENDBRANCH   7   8
ENDBRANCH   1   7
BRANCH   2  12
HETATM   12  O   UNL     1      76.231   0.130  15.145  1.00  0.00    -0.355 OA
HETATM   13  C   UNL     1      75.591   0.036  13.877  1.00  0.00     0.210 C 
ENDBRANCH   2  12
TORSDOF 4
ENDMDL
