MODEL 1
REMARK VINA RESULT:      -6.4      0.000      0.000
REMARK  2 active torsions:
REMARK  status: ('A' for Active; 'I' for Inactive)
REMARK    1  A    between atoms: C_3  and  C_4 
REMARK    2  A    between atoms: C_4  and  O_10 
ROOT
HETATM    1  N   UNL     1      73.004  22.750  12.369  1.00  0.00    -0.360 N 
ATOM      2  HN  UNL     1      73.934  22.540  12.008  1.00  0.00     0.165 HD
HETATM    3  C   UNL     1      71.893  22.147  11.875  1.00  0.00     0.108 A 
HETATM    4  C   UNL     1      70.609  22.410  12.349  1.00  0.00     0.048 A 
HETATM    5  C   UNL     1      70.435  23.338  13.381  1.00  0.00    -0.022 A 
HETATM    6  C   UNL     1      72.810  23.646  13.369  1.00  0.00     0.100 A 
HETATM    7  C   UNL     1      71.566  23.986  13.914  1.00  0.00    -0.011 A 
HETATM    8  C   UNL     1      69.162  23.638  13.897  1.00  0.00     0.012 A 
HETATM    9  C   UNL     1      71.401  24.927  14.949  1.00  0.00     0.013 A 
HETATM   10  C   UNL     1      69.012  24.570  14.927  1.00  0.00     0.001 A 
HETATM   11  C   UNL     1      70.130  25.214  15.450  1.00  0.00     0.001 A 
ENDROOT
BRANCH   3  12
HETATM   12  C   UNL     1      72.035  21.151  10.766  1.00  0.00     0.309 C 
HETATM   13  O   UNL     1      73.066  21.028  10.117  1.00  0.00    -0.258 OA
BRANCH  12  14
HETATM   14  O   UNL     1      70.905  20.419  10.578  1.00  0.00    -0.321 OA
HETATM   15  C   UNL     1      71.079  19.023  10.837  1.00  0.00     0.213 C 
ENDBRANCH  12  14
ENDBRANCH   3  12
TORSDOF 2
ENDMDL
MODEL 2
REMARK VINA RESULT:      -5.5     17.347     18.725
REMARK  2 active torsions:
REMARK  status: ('A' for Active; 'I' for Inactive)
REMARK    1  A    between atoms: C_3  and  C_4 
REMARK    2  A    between atoms: C_4  and  O_10 
ROOT
HETATM    1  N   UNL     1      63.674   9.001   5.877  1.00  0.00    -0.360 N 
ATOM      2  HN  UNL     1      63.920   9.177   6.851  1.00  0.00     0.165 HD
HETATM    3  C   UNL     1      63.990   7.833   5.261  1.00  0.00     0.108 A 
HETATM    4  C   UNL     1      63.666   7.562   3.933  1.00  0.00     0.048 A 
HETATM    5  C   UNL     1      62.986   8.525   3.181  1.00  0.00    -0.022 A 
HETATM    6  C   UNL     1      63.015   9.921   5.128  1.00  0.00     0.100 A 
HETATM    7  C   UNL     1      62.647   9.750   3.787  1.00  0.00    -0.011 A 
HETATM    8  C   UNL     1      62.633   8.300   1.838  1.00  0.00     0.012 A 
HETATM    9  C   UNL     1      61.968  10.729   3.037  1.00  0.00     0.013 A 
HETATM   10  C   UNL     1      61.955   9.278   1.106  1.00  0.00     0.001 A 
HETATM   11  C   UNL     1      61.625  10.491   1.705  1.00  0.00     0.001 A 
ENDROOT
BRANCH   3  12
HETATM   12  C   UNL     1      64.723   6.777   6.029  1.00  0.00     0.309 C 
HETATM   13  O   UNL     1      65.220   5.795   5.491  1.00  0.00    -0.258 OA
BRANCH  12  14
HETATM   14  O   UNL     1      64.767   7.041   7.361  1.00  0.00    -0.321 OA
HETATM   15  C   UNL     1      65.922   6.504   8.012  1.00  0.00     0.213 C 
ENDBRANCH  12  14
ENDBRANCH   3  12
TORSDOF 2
ENDMDL
MODEL 3
REMARK VINA RESULT:      -5.5     17.697     18.893
REMARK  2 active torsions:
REMARK  status: ('A' for Active; 'I' for Inactive)
REMARK    1  A    between atoms: C_3  and  C_4 
REMARK    2  A    between atoms: C_4  and  O_10 
ROOT
HETATM    1  N   UNL     1      63.385   6.671   3.852  1.00  0.00    -0.360 N 
ATOM      2  HN  UNL     1      63.655   5.694   3.737  1.00  0.00     0.165 HD
HETATM    3  C   UNL     1      63.398   7.277   5.066  1.00  0.00     0.108 A 
HETATM    4  C   UNL     1      63.038   8.610   5.256  1.00  0.00     0.048 A 
HETATM    5  C   UNL     1      62.638   9.376   4.156  1.00  0.00    -0.022 A 
HETATM    6  C   UNL     1      62.992   7.433   2.800  1.00  0.00     0.100 A 
HETATM    7  C   UNL     1      62.607   8.777   2.882  1.00  0.00    -0.011 A 
HETATM    8  C   UNL     1      62.267  10.726   4.292  1.00  0.00     0.012 A 
HETATM    9  C   UNL     1      62.200   9.538   1.769  1.00  0.00     0.013 A 
HETATM   10  C   UNL     1      61.869  11.471   3.180  1.00  0.00     0.001 A 
HETATM   11  C   UNL     1      61.834  10.877   1.921  1.00  0.00     0.001 A 
ENDROOT
BRANCH   3  12
HETATM   12  C   UNL     1      63.815   6.491   6.271  1.00  0.00     0.309 C 
HETATM   13  O   UNL     1      63.583   5.294   6.390  1.00  0.00    -0.258 OA
BRANCH  12  14
HETATM   14  O   UNL     1      64.468   7.253   7.187  1.00  0.00    -0.321 OA
HETATM   15  C   UNL     1      65.718   6.698   7.605  1.00  0.00     0.213 C 
ENDBRANCH  12  14
ENDBRANCH   3  12
TORSDOF 2
ENDMDL
MODEL 4
REMARK VINA RESULT:      -5.3     17.064     18.491
REMARK  2 active torsions:
REMARK  status: ('A' for Active; 'I' for Inactive)
REMARK    1  A    between atoms: C_3  and  C_4 
REMARK    2  A    between atoms: C_4  and  O_10 
ROOT
HETATM    1  N   UNL     1      67.139   7.431   8.153  1.00  0.00    -0.360 N 
ATOM      2  HN  UNL     1      66.803   8.343   8.463  1.00  0.00     0.165 HD
HETATM    3  C   UNL     1      67.122   7.069   6.845  1.00  0.00     0.108 A 
HETATM    4  C   UNL     1      67.576   5.833   6.391  1.00  0.00     0.048 A 
HETATM    5  C   UNL     1      68.075   4.904   7.312  1.00  0.00    -0.022 A 
HETATM    6  C   UNL     1      67.626   6.515   9.027  1.00  0.00     0.100 A 
HETATM    7  C   UNL     1      68.102   5.245   8.677  1.00  0.00    -0.011 A 
HETATM    8  C   UNL     1      68.548   3.644   6.905  1.00  0.00     0.012 A 
HETATM    9  C   UNL     1      68.597   4.315   9.612  1.00  0.00     0.013 A 
HETATM   10  C   UNL     1      69.040   2.732   7.843  1.00  0.00     0.001 A 
HETATM   11  C   UNL     1      69.062   3.068   9.194  1.00  0.00     0.001 A 
ENDROOT
BRANCH   3  12
HETATM   12  C   UNL     1      66.590   8.032   5.828  1.00  0.00     0.309 C 
HETATM   13  O   UNL     1      67.193   8.302   4.797  1.00  0.00    -0.258 OA
BRANCH  12  14
HETATM   14  O   UNL     1      65.387   8.551   6.185  1.00  0.00    -0.321 OA
HETATM   15  C   UNL     1      64.471   8.674   5.093  1.00  0.00     0.213 C 
ENDBRANCH  12  14
ENDBRANCH   3  12
TORSDOF 2
ENDMDL
MODEL 5
REMARK VINA RESULT:      -5.1     17.096     19.058
REMARK  2 active torsions:
REMARK  status: ('A' for Active; 'I' for Inactive)
REMARK    1  A    between atoms: C_3  and  C_4 
REMARK    2  A    between atoms: C_4  and  O_10 
ROOT
HETATM    1  N   UNL     1      64.490   6.659   4.170  1.00  0.00    -0.360 N 
ATOM      2  HN  UNL     1      65.049   5.855   4.457  1.00  0.00     0.165 HD
HETATM    3  C   UNL     1      64.344   7.748   4.967  1.00  0.00     0.108 A 
HETATM    4  C   UNL     1      63.591   8.862   4.603  1.00  0.00     0.048 A 
HETATM    5  C   UNL     1      62.944   8.878   3.362  1.00  0.00    -0.022 A 
HETATM    6  C   UNL     1      63.853   6.697   2.972  1.00  0.00     0.100 A 
HETATM    7  C   UNL     1      63.070   7.762   2.513  1.00  0.00    -0.011 A 
HETATM    8  C   UNL     1      62.173   9.978   2.946  1.00  0.00     0.012 A 
HETATM    9  C   UNL     1      62.417   7.766   1.265  1.00  0.00     0.013 A 
HETATM   10  C   UNL     1      61.535   9.971   1.703  1.00  0.00     0.001 A 
HETATM   11  C   UNL     1      61.656   8.865   0.866  1.00  0.00     0.001 A 
ENDROOT
BRANCH   3  12
HETATM   12  C   UNL     1      65.016   7.769   6.305  1.00  0.00     0.309 C 
HETATM   13  O   UNL     1      64.632   7.086   7.247  1.00  0.00    -0.258 OA
BRANCH  12  14
HETATM   14  O   UNL     1      66.077   8.616   6.340  1.00  0.00    -0.321 OA
HETATM   15  C   UNL     1      67.329   7.975   6.077  1.00  0.00     0.213 C 
ENDBRANCH  12  14
ENDBRANCH   3  12
TORSDOF 2
ENDMDL
MODEL 6
REMARK VINA RESULT:      -5.1     18.829     20.672
REMARK  2 active torsions:
REMARK  status: ('A' for Active; 'I' for Inactive)
REMARK    1  A    between atoms: C_3  and  C_4 
REMARK    2  A    between atoms: C_4  and  O_10 
ROOT
HETATM    1  N   UNL     1      69.721   3.048  10.384  1.00  0.00    -0.360 N 
ATOM      2  HN  UNL     1      70.110   2.950  11.321  1.00  0.00     0.165 HD
HETATM    3  C   UNL     1      69.599   1.987   9.546  1.00  0.00     0.108 A 
HETATM    4  C   UNL     1      69.069   2.088   8.262  1.00  0.00     0.048 A 
HETATM    5  C   UNL     1      68.638   3.334   7.792  1.00  0.00    -0.022 A 
HETATM    6  C   UNL     1      69.297   4.246   9.907  1.00  0.00     0.100 A 
HETATM    7  C   UNL     1      68.755   4.457   8.633  1.00  0.00    -0.011 A 
HETATM    8  C   UNL     1      68.093   3.490   6.505  1.00  0.00     0.012 A 
HETATM    9  C   UNL     1      68.329   5.717   8.168  1.00  0.00     0.013 A 
HETATM   10  C   UNL     1      67.671   4.744   6.058  1.00  0.00     0.001 A 
HETATM   11  C   UNL     1      67.791   5.856   6.888  1.00  0.00     0.001 A 
ENDROOT
BRANCH   3  12
HETATM   12  C   UNL     1      70.053   0.637  10.007  1.00  0.00     0.309 C 
HETATM   13  O   UNL     1      69.391  -0.378   9.830  1.00  0.00    -0.258 OA
BRANCH  12  14
HETATM   14  O   UNL     1      71.261   0.680  10.628  1.00  0.00    -0.321 OA
HETATM   15  C   UNL     1      72.142  -0.378  10.239  1.00  0.00     0.213 C 
ENDBRANCH  12  14
ENDBRANCH   3  12
TORSDOF 2
ENDMDL
MODEL 7
REMARK VINA RESULT:      -5.1     17.422     18.625
REMARK  2 active torsions:
REMARK  status: ('A' for Active; 'I' for Inactive)
REMARK    1  A    between atoms: C_3  and  C_4 
REMARK    2  A    between atoms: C_4  and  O_10 
ROOT
HETATM    1  N   UNL     1      66.441   6.042   5.111  1.00  0.00    -0.360 N 
ATOM      2  HN  UNL     1      66.045   6.082   4.172  1.00  0.00     0.165 HD
HETATM    3  C   UNL     1      66.201   7.011   6.031  1.00  0.00     0.108 A 
HETATM    4  C   UNL     1      66.725   6.983   7.321  1.00  0.00     0.048 A 
HETATM    5  C   UNL     1      67.543   5.915   7.707  1.00  0.00    -0.022 A 
HETATM    6  C   UNL     1      67.238   5.017   5.508  1.00  0.00     0.100 A 
HETATM    7  C   UNL     1      67.817   4.895   6.777  1.00  0.00    -0.011 A 
HETATM    8  C   UNL     1      68.095   5.838   8.998  1.00  0.00     0.012 A 
HETATM    9  C   UNL     1      68.644   3.819   7.154  1.00  0.00     0.013 A 
HETATM   10  C   UNL     1      68.910   4.763   9.361  1.00  0.00     0.001 A 
HETATM   11  C   UNL     1      69.185   3.757   8.438  1.00  0.00     0.001 A 
ENDROOT
BRANCH   3  12
HETATM   12  C   UNL     1      65.335   8.174   5.656  1.00  0.00     0.309 C 
HETATM   13  O   UNL     1      65.559   9.315   6.042  1.00  0.00    -0.258 OA
BRANCH  12  14
HETATM   14  O   UNL     1      64.300   7.813   4.854  1.00  0.00    -0.321 OA
HETATM   15  C   UNL     1      63.043   7.754   5.535  1.00  0.00     0.213 C 
ENDBRANCH  12  14
ENDBRANCH   3  12
TORSDOF 2
ENDMDL
MODEL 8
REMARK VINA RESULT:      -4.9     18.397     20.431
REMARK  2 active torsions:
REMARK  status: ('A' for Active; 'I' for Inactive)
REMARK    1  A    between atoms: C_3  and  C_4 
REMARK    2  A    between atoms: C_4  and  O_10 
ROOT
HETATM    1  N   UNL     1      63.012   6.736   1.565  1.00  0.00    -0.360 N 
ATOM      2  HN  UNL     1      63.299   5.760   1.497  1.00  0.00     0.165 HD
HETATM    3  C   UNL     1      62.597   7.436   0.479  1.00  0.00     0.108 A 
HETATM    4  C   UNL     1      62.196   8.768   0.540  1.00  0.00     0.048 A 
HETATM    5  C   UNL     1      62.215   9.436   1.770  1.00  0.00    -0.022 A 
HETATM    6  C   UNL     1      63.023   7.404   2.747  1.00  0.00     0.100 A 
HETATM    7  C   UNL     1      62.645   8.741   2.916  1.00  0.00    -0.011 A 
HETATM    8  C   UNL     1      61.817  10.780   1.886  1.00  0.00     0.012 A 
HETATM    9  C   UNL     1      62.674   9.406   4.158  1.00  0.00     0.013 A 
HETATM   10  C   UNL     1      61.847  11.426   3.125  1.00  0.00     0.001 A 
HETATM   11  C   UNL     1      62.277  10.740   4.258  1.00  0.00     0.001 A 
ENDROOT
BRANCH   3  12
HETATM   12  C   UNL     1      62.566   6.760  -0.857  1.00  0.00     0.309 C 
HETATM   13  O   UNL     1      61.611   6.094  -1.238  1.00  0.00    -0.258 OA
BRANCH  12  14
HETATM   14  O   UNL     1      63.700   6.976  -1.573  1.00  0.00    -0.321 OA
HETATM   15  C   UNL     1      63.463   7.187  -2.968  1.00  0.00     0.213 C 
ENDBRANCH  12  14
ENDBRANCH   3  12
TORSDOF 2
ENDMDL
MODEL 9
REMARK VINA RESULT:      -4.6     17.433     18.906
REMARK  2 active torsions:
REMARK  status: ('A' for Active; 'I' for Inactive)
REMARK    1  A    between atoms: C_3  and  C_4 
REMARK    2  A    between atoms: C_4  and  O_10 
ROOT
HETATM    1  N   UNL     1      63.142   7.291   2.975  1.00  0.00    -0.360 N 
ATOM      2  HN  UNL     1      62.444   7.031   2.278  1.00  0.00     0.165 HD
HETATM    3  C   UNL     1      62.948   8.328   3.829  1.00  0.00     0.108 A 
HETATM    4  C   UNL     1      63.880   8.704   4.794  1.00  0.00     0.048 A 
HETATM    5  C   UNL     1      65.081   7.995   4.902  1.00  0.00    -0.022 A 
HETATM    6  C   UNL     1      64.314   6.618   3.099  1.00  0.00     0.100 A 
HETATM    7  C   UNL     1      65.318   6.917   4.029  1.00  0.00    -0.011 A 
HETATM    8  C   UNL     1      66.054   8.333   5.860  1.00  0.00     0.012 A 
HETATM    9  C   UNL     1      66.526   6.200   4.126  1.00  0.00     0.013 A 
HETATM   10  C   UNL     1      67.247   7.611   5.949  1.00  0.00     0.001 A 
HETATM   11  C   UNL     1      67.483   6.548   5.081  1.00  0.00     0.001 A 
ENDROOT
BRANCH   3  12
HETATM   12  C   UNL     1      61.678   9.116   3.743  1.00  0.00     0.309 C 
HETATM   13  O   UNL     1      60.608   8.613   3.421  1.00  0.00    -0.258 OA
BRANCH  12  14
HETATM   14  O   UNL     1      61.858  10.425   4.060  1.00  0.00    -0.321 OA
HETATM   15  C   UNL     1      61.815  11.299   2.928  1.00  0.00     0.213 C 
ENDBRANCH  12  14
ENDBRANCH   3  12
TORSDOF 2
ENDMDL
