MODEL 1
REMARK VINA RESULT:      -4.3      0.000      0.000
REMARK  4 active torsions:
REMARK  status: ('A' for Active; 'I' for Inactive)
REMARK    1  A    between atoms: C_1  and  C_2 
REMARK    2  A    between atoms: C_1  and  N_3 
REMARK    3  A    between atoms: C_1  and  C_7 
REMARK    4  A    between atoms: N_4  and  C_7 
ROOT
HETATM    1  C   UNL     1      63.402   7.781   5.936  1.00  0.00     0.315 C 
ENDROOT
BRANCH   1   2
HETATM    2  C   UNL     1      62.903   8.908   5.047  1.00  0.00     0.026 A 
HETATM    3  S   UNL     1      62.269   8.552   3.489  1.00  0.00    -0.103 SA
HETATM    4  C   UNL     1      61.947  10.199   3.167  1.00  0.00     0.050 A 
HETATM    5  C   UNL     1      62.319  11.012   4.212  1.00  0.00     0.008 A 
HETATM    6  C   UNL     1      62.863  10.270   5.301  1.00  0.00     0.018 A 
ENDBRANCH   1   2
BRANCH   1   7
HETATM    7  N   UNL     1      64.517   7.021   5.291  1.00  0.00    -0.047 N 
HETATM    8  C   UNL     1      65.723   7.855   5.073  1.00  0.00     0.263 C 
HETATM    9  C   UNL     1      66.450   8.244   6.372  1.00  0.00     0.195 C 
HETATM   10  O   UNL     1      66.797   7.091   7.150  1.00  0.00    -0.388 OA
HETATM   11  C   UNL     1      65.658   6.263   7.417  1.00  0.00     0.195 C 
HETATM   12  C   UNL     1      64.957   5.858   6.110  1.00  0.00     0.263 C 
HETATM   13  H   UNL     1      64.127   6.711   4.401  1.00  0.00     0.282 HD
ENDBRANCH   1   7
BRANCH   1  14
HETATM   14  C   UNL     1      62.211   6.883   6.234  1.00  0.00    -0.038 C 
BRANCH  14  15
HETATM   15  N   UNL     1      61.224   6.140   6.481  1.00  0.00    -0.368 N 
ATOM     16  HN2 UNL     1      62.019   6.758   6.323  1.00  0.00     0.165 HD
ATOM     17  HN1 UNL     1      60.425   5.538   6.681  1.00  0.00     0.165 HD
ENDBRANCH  14  15
ENDBRANCH   1  14
TORSDOF 4
ENDMDL
MODEL 2
REMARK VINA RESULT:      -4.3      3.102      5.748
REMARK  4 active torsions:
REMARK  status: ('A' for Active; 'I' for Inactive)
REMARK    1  A    between atoms: C_1  and  C_2 
REMARK    2  A    between atoms: C_1  and  N_3 
REMARK    3  A    between atoms: C_1  and  C_7 
REMARK    4  A    between atoms: N_4  and  C_7 
ROOT
HETATM    1  C   UNL     1      66.386   7.223   6.015  1.00  0.00     0.315 C 
ENDROOT
BRANCH   1   2
HETATM    2  C   UNL     1      67.020   6.525   7.206  1.00  0.00     0.026 A 
HETATM    3  S   UNL     1      67.940   5.091   6.968  1.00  0.00    -0.103 SA
HETATM    4  C   UNL     1      68.286   4.952   8.635  1.00  0.00     0.050 A 
HETATM    5  C   UNL     1      67.711   5.963   9.368  1.00  0.00     0.008 A 
HETATM    6  C   UNL     1      66.988   6.877   8.546  1.00  0.00     0.018 A 
ENDBRANCH   1   2
BRANCH   1   7
HETATM    7  N   UNL     1      65.467   6.311   5.266  1.00  0.00    -0.047 N 
HETATM    8  C   UNL     1      64.286   5.908   6.067  1.00  0.00     0.263 C 
HETATM    9  C   UNL     1      63.291   7.055   6.321  1.00  0.00     0.195 C 
HETATM   10  O   UNL     1      62.858   7.663   5.097  1.00  0.00    -0.388 OA
HETATM   11  C   UNL     1      63.964   8.099   4.296  1.00  0.00     0.195 C 
HETATM   12  C   UNL     1      64.935   6.938   4.025  1.00  0.00     0.263 C 
HETATM   13  H   UNL     1      66.044   5.501   5.044  1.00  0.00     0.282 HD
ENDBRANCH   1   7
BRANCH   1  14
HETATM   14  C   UNL     1      67.518   7.726   5.134  1.00  0.00    -0.038 C 
BRANCH  14  15
HETATM   15  N   UNL     1      68.456   8.143   4.403  1.00  0.00    -0.368 N 
ATOM     16  HN2 UNL     1      67.718   7.824   5.030  1.00  0.00     0.165 HD
ATOM     17  HN1 UNL     1      69.214   8.481   3.811  1.00  0.00     0.165 HD
ENDBRANCH  14  15
ENDBRANCH   1  14
TORSDOF 4
ENDMDL
MODEL 3
REMARK VINA RESULT:      -4.3      4.006      6.592
REMARK  4 active torsions:
REMARK  status: ('A' for Active; 'I' for Inactive)
REMARK    1  A    between atoms: C_1  and  C_2 
REMARK    2  A    between atoms: C_1  and  N_3 
REMARK    3  A    between atoms: C_1  and  C_7 
REMARK    4  A    between atoms: N_4  and  C_7 
ROOT
HETATM    1  C   UNL     1      67.522   5.207   6.377  1.00  0.00     0.315 C 
ENDROOT
BRANCH   1   2
HETATM    2  C   UNL     1      68.115   4.613   7.643  1.00  0.00     0.026 A 
HETATM    3  S   UNL     1      67.514   3.121   8.252  1.00  0.00    -0.103 SA
HETATM    4  C   UNL     1      68.609   3.134   9.563  1.00  0.00     0.050 A 
HETATM    5  C   UNL     1      69.413   4.250   9.553  1.00  0.00     0.008 A 
HETATM    6  C   UNL     1      69.136   5.100   8.443  1.00  0.00     0.018 A 
ENDBRANCH   1   2
BRANCH   1   7
HETATM    7  N   UNL     1      66.149   5.753   6.613  1.00  0.00    -0.047 N 
HETATM    8  C   UNL     1      66.159   6.973   7.457  1.00  0.00     0.263 C 
HETATM    9  C   UNL     1      66.764   8.204   6.759  1.00  0.00     0.195 C 
HETATM   10  O   UNL     1      66.106   8.484   5.516  1.00  0.00    -0.388 OA
HETATM   11  C   UNL     1      66.095   7.344   4.648  1.00  0.00     0.195 C 
HETATM   12  C   UNL     1      65.463   6.129   5.347  1.00  0.00     0.263 C 
HETATM   13  H   UNL     1      65.655   4.995   7.083  1.00  0.00     0.282 HD
ENDBRANCH   1   7
BRANCH   1  14
HETATM   14  C   UNL     1      67.514   4.108   5.326  1.00  0.00    -0.038 C 
BRANCH  14  15
HETATM   15  N   UNL     1      67.506   3.197   4.455  1.00  0.00    -0.368 N 
ATOM     16  HN2 UNL     1      67.556   3.941   5.151  1.00  0.00     0.165 HD
ATOM     17  HN1 UNL     1      67.499   2.460   3.750  1.00  0.00     0.165 HD
ENDBRANCH  14  15
ENDBRANCH   1  14
TORSDOF 4
ENDMDL
MODEL 4
REMARK VINA RESULT:      -4.2      5.031      7.465
REMARK  4 active torsions:
REMARK  status: ('A' for Active; 'I' for Inactive)
REMARK    1  A    between atoms: C_1  and  C_2 
REMARK    2  A    between atoms: C_1  and  N_3 
REMARK    3  A    between atoms: C_1  and  C_7 
REMARK    4  A    between atoms: N_4  and  C_7 
ROOT
HETATM    1  C   UNL     1      67.833   3.908   8.565  1.00  0.00     0.315 C 
ENDROOT
BRANCH   1   2
HETATM    2  C   UNL     1      67.948   2.809   7.523  1.00  0.00     0.026 A 
HETATM    3  S   UNL     1      66.622   1.750   7.245  1.00  0.00    -0.103 SA
HETATM    4  C   UNL     1      67.468   0.894   6.033  1.00  0.00     0.050 A 
HETATM    5  C   UNL     1      68.737   1.389   5.842  1.00  0.00     0.008 A 
HETATM    6  C   UNL     1      69.014   2.498   6.693  1.00  0.00     0.018 A 
ENDBRANCH   1   2
BRANCH   1   7
HETATM    7  N   UNL     1      68.033   5.263   7.963  1.00  0.00    -0.047 N 
HETATM    8  C   UNL     1      67.073   5.548   6.869  1.00  0.00     0.263 C 
HETATM    9  C   UNL     1      65.625   5.739   7.352  1.00  0.00     0.195 C 
HETATM   10  O   UNL     1      65.529   6.760   8.354  1.00  0.00    -0.388 OA
HETATM   11  C   UNL     1      66.418   6.516   9.452  1.00  0.00     0.195 C 
HETATM   12  C   UNL     1      67.866   6.356   8.960  1.00  0.00     0.263 C 
HETATM   13  H   UNL     1      68.988   5.240   7.607  1.00  0.00     0.282 HD
ENDBRANCH   1   7
BRANCH   1  14
HETATM   14  C   UNL     1      68.866   3.616   9.642  1.00  0.00    -0.038 C 
BRANCH  14  15
HETATM   15  N   UNL     1      69.722   3.375  10.536  1.00  0.00    -0.368 N 
ATOM     16  HN2 UNL     1      69.062   3.586   9.787  1.00  0.00     0.165 HD
ATOM     17  HN1 UNL     1      70.413   3.179  11.259  1.00  0.00     0.165 HD
ENDBRANCH  14  15
ENDBRANCH   1  14
TORSDOF 4
ENDMDL
MODEL 5
REMARK VINA RESULT:      -4.1      4.099      6.707
REMARK  4 active torsions:
REMARK  status: ('A' for Active; 'I' for Inactive)
REMARK    1  A    between atoms: C_1  and  C_2 
REMARK    2  A    between atoms: C_1  and  N_3 
REMARK    3  A    between atoms: C_1  and  C_7 
REMARK    4  A    between atoms: N_4  and  C_7 
ROOT
HETATM    1  C   UNL     1      67.005   5.851   7.994  1.00  0.00     0.315 C 
ENDROOT
BRANCH   1   2
HETATM    2  C   UNL     1      68.046   4.820   8.397  1.00  0.00     0.026 A 
HETATM    3  S   UNL     1      67.679   3.144   8.283  1.00  0.00    -0.103 SA
HETATM    4  C   UNL     1      69.226   2.695   8.854  1.00  0.00     0.050 A 
HETATM    5  C   UNL     1      70.009   3.789   9.137  1.00  0.00     0.008 A 
HETATM    6  C   UNL     1      69.335   5.016   8.867  1.00  0.00     0.018 A 
ENDBRANCH   1   2
BRANCH   1   7
HETATM    7  N   UNL     1      67.563   6.852   7.032  1.00  0.00    -0.047 N 
HETATM    8  C   UNL     1      67.861   6.262   5.705  1.00  0.00     0.263 C 
HETATM    9  C   UNL     1      66.605   5.872   4.905  1.00  0.00     0.195 C 
HETATM   10  O   UNL     1      65.711   6.982   4.749  1.00  0.00    -0.388 OA
HETATM   11  C   UNL     1      65.366   7.572   6.009  1.00  0.00     0.195 C 
HETATM   12  C   UNL     1      66.628   7.983   6.785  1.00  0.00     0.263 C 
HETATM   13  H   UNL     1      68.419   7.180   7.480  1.00  0.00     0.282 HD
ENDBRANCH   1   7
BRANCH   1  14
HETATM   14  C   UNL     1      66.513   6.516   9.270  1.00  0.00    -0.038 C 
BRANCH  14  15
HETATM   15  N   UNL     1      66.105   7.067  10.327  1.00  0.00    -0.368 N 
ATOM     16  HN2 UNL     1      66.399   6.594   9.473  1.00  0.00     0.165 HD
ATOM     17  HN1 UNL     1      65.776   7.513  11.183  1.00  0.00     0.165 HD
ENDBRANCH  14  15
ENDBRANCH   1  14
TORSDOF 4
ENDMDL
MODEL 6
REMARK VINA RESULT:      -4.1      3.361      4.685
REMARK  4 active torsions:
REMARK  status: ('A' for Active; 'I' for Inactive)
REMARK    1  A    between atoms: C_1  and  C_2 
REMARK    2  A    between atoms: C_1  and  N_3 
REMARK    3  A    between atoms: C_1  and  C_7 
REMARK    4  A    between atoms: N_4  and  C_7 
ROOT
HETATM    1  C   UNL     1      62.213   9.104   2.420  1.00  0.00     0.315 C 
ENDROOT
BRANCH   1   2
HETATM    2  C   UNL     1      61.464   8.320   1.357  1.00  0.00     0.026 A 
HETATM    3  S   UNL     1      62.325   7.276   0.295  1.00  0.00    -0.103 SA
HETATM    4  C   UNL     1      60.896   6.803  -0.512  1.00  0.00     0.050 A 
HETATM    5  C   UNL     1      59.783   7.427  -0.000  1.00  0.00     0.008 A 
HETATM    6  C   UNL     1      60.105   8.296   1.083  1.00  0.00     0.018 A 
ENDBRANCH   1   2
BRANCH   1   7
HETATM    7  N   UNL     1      61.847   8.655   3.799  1.00  0.00    -0.047 N 
HETATM    8  C   UNL     1      62.041   7.197   3.992  1.00  0.00     0.263 C 
HETATM    9  C   UNL     1      63.518   6.766   4.010  1.00  0.00     0.195 C 
HETATM   10  O   UNL     1      64.268   7.486   4.997  1.00  0.00    -0.388 OA
HETATM   11  C   UNL     1      64.140   8.904   4.836  1.00  0.00     0.195 C 
HETATM   12  C   UNL     1      62.662   9.326   4.849  1.00  0.00     0.263 C 
HETATM   13  H   UNL     1      60.862   8.902   3.890  1.00  0.00     0.282 HD
ENDBRANCH   1   7
BRANCH   1  14
HETATM   14  C   UNL     1      61.889  10.575   2.207  1.00  0.00    -0.038 C 
BRANCH  14  15
HETATM   15  N   UNL     1      61.621  11.793   2.029  1.00  0.00    -0.368 N 
ATOM     16  HN2 UNL     1      61.841  10.815   2.217  1.00  0.00     0.165 HD
ATOM     17  HN1 UNL     1      61.405  12.779   1.884  1.00  0.00     0.165 HD
ENDBRANCH  14  15
ENDBRANCH   1  14
TORSDOF 4
ENDMDL
MODEL 7
REMARK VINA RESULT:      -4.1      2.989      4.925
REMARK  4 active torsions:
REMARK  status: ('A' for Active; 'I' for Inactive)
REMARK    1  A    between atoms: C_1  and  C_2 
REMARK    2  A    between atoms: C_1  and  N_3 
REMARK    3  A    between atoms: C_1  and  C_7 
REMARK    4  A    between atoms: N_4  and  C_7 
ROOT
HETATM    1  C   UNL     1      63.443   8.535   4.986  1.00  0.00     0.315 C 
ENDROOT
BRANCH   1   2
HETATM    2  C   UNL     1      64.719   7.903   5.515  1.00  0.00     0.026 A 
HETATM    3  S   UNL     1      64.629   6.578   6.609  1.00  0.00    -0.103 SA
HETATM    4  C   UNL     1      66.330   6.452   6.705  1.00  0.00     0.050 A 
HETATM    5  C   UNL     1      66.963   7.399   5.934  1.00  0.00     0.008 A 
HETATM    6  C   UNL     1      66.037   8.231   5.239  1.00  0.00     0.018 A 
ENDBRANCH   1   2
BRANCH   1   7
HETATM    7  N   UNL     1      63.364   8.454   3.494  1.00  0.00    -0.047 N 
HETATM    8  C   UNL     1      63.377   7.056   2.998  1.00  0.00     0.263 C 
HETATM    9  C   UNL     1      62.094   6.271   3.325  1.00  0.00     0.195 C 
HETATM   10  O   UNL     1      60.924   6.943   2.840  1.00  0.00    -0.388 OA
HETATM   11  C   UNL     1      60.846   8.292   3.316  1.00  0.00     0.195 C 
HETATM   12  C   UNL     1      62.121   9.074   2.958  1.00  0.00     0.263 C 
HETATM   13  H   UNL     1      64.189   8.958   3.172  1.00  0.00     0.282 HD
ENDBRANCH   1   7
BRANCH   1  14
HETATM   14  C   UNL     1      63.421   9.976   5.470  1.00  0.00    -0.038 C 
BRANCH  14  15
HETATM   15  N   UNL     1      63.402  11.170   5.873  1.00  0.00    -0.368 N 
ATOM     16  HN2 UNL     1      63.373  10.202   5.555  1.00  0.00     0.165 HD
ATOM     17  HN1 UNL     1      63.387  12.136   6.198  1.00  0.00     0.165 HD
ENDBRANCH  14  15
ENDBRANCH   1  14
TORSDOF 4
ENDMDL
MODEL 8
REMARK VINA RESULT:      -4.1      1.700      2.007
REMARK  4 active torsions:
REMARK  status: ('A' for Active; 'I' for Inactive)
REMARK    1  A    between atoms: C_1  and  C_2 
REMARK    2  A    between atoms: C_1  and  N_3 
REMARK    3  A    between atoms: C_1  and  C_7 
REMARK    4  A    between atoms: N_4  and  C_7 
ROOT
HETATM    1  C   UNL     1      62.351   7.790   4.524  1.00  0.00     0.315 C 
ENDROOT
BRANCH   1   2
HETATM    2  C   UNL     1      62.157   8.854   3.458  1.00  0.00     0.026 A 
HETATM    3  S   UNL     1      62.066  10.512   3.908  1.00  0.00    -0.103 SA
HETATM    4  C   UNL     1      61.875  11.014   2.287  1.00  0.00     0.050 A 
HETATM    5  C   UNL     1      61.869   9.952   1.414  1.00  0.00     0.008 A 
HETATM    6  C   UNL     1      62.040   8.705   2.085  1.00  0.00     0.018 A 
ENDBRANCH   1   2
BRANCH   1   7
HETATM    7  N   UNL     1      63.595   6.993   4.290  1.00  0.00    -0.047 N 
HETATM    8  C   UNL     1      64.811   7.840   4.229  1.00  0.00     0.263 C 
HETATM    9  C   UNL     1      65.202   8.458   5.583  1.00  0.00     0.195 C 
HETATM   10  O   UNL     1      65.364   7.456   6.596  1.00  0.00    -0.388 OA
HETATM   11  C   UNL     1      64.202   6.626   6.717  1.00  0.00     0.195 C 
HETATM   12  C   UNL     1      63.838   5.992   5.364  1.00  0.00     0.263 C 
HETATM   13  H   UNL     1      63.433   6.532   3.394  1.00  0.00     0.282 HD
ENDBRANCH   1   7
BRANCH   1  14
HETATM   14  C   UNL     1      61.111   6.909   4.511  1.00  0.00    -0.038 C 
BRANCH  14  15
HETATM   15  N   UNL     1      60.083   6.180   4.500  1.00  0.00    -0.368 N 
ATOM     16  HN2 UNL     1      60.926   6.754   4.468  1.00  0.00     0.165 HD
ATOM     17  HN1 UNL     1      59.252   5.590   4.492  1.00  0.00     0.165 HD
ENDBRANCH  14  15
ENDBRANCH   1  14
TORSDOF 4
ENDMDL
MODEL 9
REMARK VINA RESULT:      -4.0     17.739     19.977
REMARK  4 active torsions:
REMARK  status: ('A' for Active; 'I' for Inactive)
REMARK    1  A    between atoms: C_1  and  C_2 
REMARK    2  A    between atoms: C_1  and  N_3 
REMARK    3  A    between atoms: C_1  and  C_7 
REMARK    4  A    between atoms: N_4  and  C_7 
ROOT
HETATM    1  C   UNL     1      77.379   0.962  18.097  1.00  0.00     0.315 C 
ENDROOT
BRANCH   1   2
HETATM    2  C   UNL     1      76.362   0.728  16.993  1.00  0.00     0.026 A 
HETATM    3  S   UNL     1      76.830  -0.098  15.559  1.00  0.00    -0.103 SA
HETATM    4  C   UNL     1      75.262   0.024  14.893  1.00  0.00     0.050 A 
HETATM    5  C   UNL     1      74.395   0.685  15.731  1.00  0.00     0.008 A 
HETATM    6  C   UNL     1      75.024   1.085  16.946  1.00  0.00     0.018 A 
ENDBRANCH   1   2
BRANCH   1   7
HETATM    7  N   UNL     1      77.100   0.112  19.295  1.00  0.00    -0.047 N 
HETATM    8  C   UNL     1      77.001  -1.329  18.960  1.00  0.00     0.263 C 
HETATM    9  C   UNL     1      78.343  -1.963  18.554  1.00  0.00     0.195 C 
HETATM   10  O   UNL     1      79.347  -1.771  19.560  1.00  0.00    -0.388 OA
HETATM   11  C   UNL     1      79.504  -0.388  19.900  1.00  0.00     0.195 C 
HETATM   12  C   UNL     1      78.162   0.226  20.332  1.00  0.00     0.263 C 
HETATM   13  H   UNL     1      76.209   0.461  19.648  1.00  0.00     0.282 HD
ENDBRANCH   1   7
BRANCH   1  14
HETATM   14  C   UNL     1      77.337   2.443  18.440  1.00  0.00    -0.038 C 
BRANCH  14  15
HETATM   15  N   UNL     1      77.301   3.671  18.724  1.00  0.00    -0.368 N 
ATOM     16  HN2 UNL     1      77.374   2.678  18.502  1.00  0.00     0.165 HD
ATOM     17  HN1 UNL     1      77.271   4.663  18.954  1.00  0.00     0.165 HD
ENDBRANCH  14  15
ENDBRANCH   1  14
TORSDOF 4
ENDMDL
