MODEL 1
REMARK VINA RESULT:      -5.8      0.000      0.000
REMARK  3 active torsions:
REMARK  status: ('A' for Active; 'I' for Inactive)
REMARK    1  A    between atoms: C_1  and  O_2 
REMARK    2  A    between atoms: O_2  and  C_3 
REMARK    3  A    between atoms: C_6  and  N_8 
ROOT
HETATM    1  C   UNL     1      64.162   9.193   5.035  1.00  0.00     0.174 C 
HETATM    2  N   UNL     1      63.943   8.230   4.099  1.00  0.00    -0.345 N 
ATOM      3  HN  UNL     1      64.526   7.395   4.044  1.00  0.00     0.167 HD
HETATM    4  C   UNL     1      63.305  10.281   5.261  1.00  0.00     0.077 C 
HETATM    5  C   UNL     1      62.920   8.435   3.251  1.00  0.00     0.090 C 
HETATM    6  C   UNL     1      62.264  10.451   4.345  1.00  0.00     0.035 C 
HETATM    7  C   UNL     1      62.069   9.520   3.324  1.00  0.00     0.019 C 
ENDROOT
BRANCH   1   8
HETATM    8  O   UNL     1      65.291   9.086   5.849  1.00  0.00    -0.288 OA
BRANCH   8   9
HETATM    9  C   UNL     1      65.859   7.833   5.951  1.00  0.00     0.116 A 
HETATM   10  C   UNL     1      67.010   7.455   5.253  1.00  0.00     0.150 A 
HETATM   11  F   UNL     1      67.669   8.331   4.478  1.00  0.00    -0.203 F 
HETATM   12  C   UNL     1      67.509   6.159   5.351  1.00  0.00     0.045 A 
HETATM   13  C   UNL     1      66.889   5.241   6.197  1.00  0.00     0.003 A 
HETATM   14  C   UNL     1      65.781   5.630   6.952  1.00  0.00     0.003 A 
HETATM   15  C   UNL     1      65.266   6.927   6.830  1.00  0.00     0.040 A 
ENDBRANCH   8   9
ENDBRANCH   1   8
BRANCH   4  16
HETATM   16  N   UNL     1      63.579  11.306   6.187  1.00  0.00    -0.396 N 
HETATM   17  H   UNL     1      62.878  11.608   6.808  1.00  0.00     0.156 HD
HETATM   18  H   UNL     1      64.471  11.721   6.212  1.00  0.00     0.156 HD
ENDBRANCH   4  16
TORSDOF 3
ENDMDL
MODEL 2
REMARK VINA RESULT:      -5.8      1.250      1.755
REMARK  3 active torsions:
REMARK  status: ('A' for Active; 'I' for Inactive)
REMARK    1  A    between atoms: C_1  and  O_2 
REMARK    2  A    between atoms: O_2  and  C_3 
REMARK    3  A    between atoms: C_6  and  N_8 
ROOT
HETATM    1  C   UNL     1      64.049   9.312   4.986  1.00  0.00     0.174 C 
HETATM    2  N   UNL     1      63.838   8.378   4.020  1.00  0.00    -0.345 N 
ATOM      3  HN  UNL     1      64.414   7.539   3.950  1.00  0.00     0.167 HD
HETATM    4  C   UNL     1      63.198  10.401   5.228  1.00  0.00     0.077 C 
HETATM    5  C   UNL     1      62.831   8.615   3.160  1.00  0.00     0.090 C 
HETATM    6  C   UNL     1      62.175  10.606   4.300  1.00  0.00     0.035 C 
HETATM    7  C   UNL     1      61.989   9.706   3.250  1.00  0.00     0.019 C 
ENDROOT
BRANCH   1   8
HETATM    8  O   UNL     1      65.164   9.172   5.815  1.00  0.00    -0.288 OA
BRANCH   8   9
HETATM    9  C   UNL     1      65.761   7.928   5.837  1.00  0.00     0.116 A 
HETATM   10  C   UNL     1      65.198   6.819   6.475  1.00  0.00     0.150 A 
HETATM   11  F   UNL     1      63.991   6.895   7.059  1.00  0.00    -0.203 F 
HETATM   12  C   UNL     1      65.870   5.601   6.514  1.00  0.00     0.045 A 
HETATM   13  C   UNL     1      67.095   5.467   5.862  1.00  0.00     0.003 A 
HETATM   14  C   UNL     1      67.633   6.549   5.162  1.00  0.00     0.003 A 
HETATM   15  C   UNL     1      66.965   7.780   5.149  1.00  0.00     0.040 A 
ENDBRANCH   8   9
ENDBRANCH   1   8
BRANCH   4  16
HETATM   16  N   UNL     1      63.465  11.397   6.187  1.00  0.00    -0.396 N 
HETATM   17  H   UNL     1      63.300  12.343   5.972  1.00  0.00     0.156 HD
HETATM   18  H   UNL     1      63.817  11.147   7.071  1.00  0.00     0.156 HD
ENDBRANCH   4  16
TORSDOF 3
ENDMDL
MODEL 3
REMARK VINA RESULT:      -5.7      2.258      5.110
REMARK  3 active torsions:
REMARK  status: ('A' for Active; 'I' for Inactive)
REMARK    1  A    between atoms: C_1  and  O_2 
REMARK    2  A    between atoms: O_2  and  C_3 
REMARK    3  A    between atoms: C_6  and  N_8 
ROOT
HETATM    1  C   UNL     1      66.258   7.621   6.562  1.00  0.00     0.174 C 
HETATM    2  N   UNL     1      65.449   7.037   7.486  1.00  0.00    -0.345 N 
ATOM      3  HN  UNL     1      64.497   7.365   7.648  1.00  0.00     0.167 HD
HETATM    4  C   UNL     1      67.514   7.121   6.186  1.00  0.00     0.077 C 
HETATM    5  C   UNL     1      65.968   6.007   8.177  1.00  0.00     0.090 C 
HETATM    6  C   UNL     1      68.008   6.057   6.942  1.00  0.00     0.035 C 
HETATM    7  C   UNL     1      67.230   5.493   7.953  1.00  0.00     0.019 C 
ENDROOT
BRANCH   1   8
HETATM    8  O   UNL     1      65.807   8.775   5.917  1.00  0.00    -0.288 OA
BRANCH   8   9
HETATM    9  C   UNL     1      64.742   8.620   5.053  1.00  0.00     0.116 A 
HETATM   10  C   UNL     1      63.688   9.534   4.965  1.00  0.00     0.150 A 
HETATM   11  F   UNL     1      63.690  10.664   5.691  1.00  0.00    -0.203 F 
HETATM   12  C   UNL     1      62.612   9.301   4.116  1.00  0.00     0.045 A 
HETATM   13  C   UNL     1      62.607   8.171   3.299  1.00  0.00     0.003 A 
HETATM   14  C   UNL     1      63.689   7.289   3.327  1.00  0.00     0.003 A 
HETATM   15  C   UNL     1      64.758   7.513   4.204  1.00  0.00     0.040 A 
ENDBRANCH   8   9
ENDBRANCH   1   8
BRANCH   4  16
HETATM   16  N   UNL     1      68.369   7.773   5.277  1.00  0.00    -0.396 N 
HETATM   17  H   UNL     1      68.104   7.869   4.334  1.00  0.00     0.156 HD
HETATM   18  H   UNL     1      69.232   8.134   5.585  1.00  0.00     0.156 HD
ENDBRANCH   4  16
TORSDOF 3
ENDMDL
MODEL 4
REMARK VINA RESULT:      -5.6      2.355      5.366
REMARK  3 active torsions:
REMARK  status: ('A' for Active; 'I' for Inactive)
REMARK    1  A    between atoms: C_1  and  O_2 
REMARK    2  A    between atoms: O_2  and  C_3 
REMARK    3  A    between atoms: C_6  and  N_8 
ROOT
HETATM    1  C   UNL     1      63.736   8.267   5.710  1.00  0.00     0.174 C 
HETATM    2  N   UNL     1      64.959   8.828   5.512  1.00  0.00    -0.345 N 
ATOM      3  HN  UNL     1      65.067   9.825   5.329  1.00  0.00     0.167 HD
HETATM    4  C   UNL     1      63.535   6.939   6.118  1.00  0.00     0.077 C 
HETATM    5  C   UNL     1      66.018   8.001   5.570  1.00  0.00     0.090 C 
HETATM    6  C   UNL     1      64.667   6.123   6.152  1.00  0.00     0.035 C 
HETATM    7  C   UNL     1      65.925   6.656   5.871  1.00  0.00     0.019 C 
ENDROOT
BRANCH   1   8
HETATM    8  O   UNL     1      62.602   9.061   5.529  1.00  0.00    -0.288 OA
BRANCH   8   9
HETATM    9  C   UNL     1      62.381   9.536   4.253  1.00  0.00     0.116 A 
HETATM   10  C   UNL     1      62.150  10.884   3.966  1.00  0.00     0.150 A 
HETATM   11  F   UNL     1      62.192  11.815   4.933  1.00  0.00    -0.203 F 
HETATM   12  C   UNL     1      61.878  11.300   2.666  1.00  0.00     0.045 A 
HETATM   13  C   UNL     1      61.890  10.372   1.626  1.00  0.00     0.003 A 
HETATM   14  C   UNL     1      62.190   9.034   1.892  1.00  0.00     0.003 A 
HETATM   15  C   UNL     1      62.436   8.616   3.206  1.00  0.00     0.040 A 
ENDBRANCH   8   9
ENDBRANCH   1   8
BRANCH   4  16
HETATM   16  N   UNL     1      62.261   6.353   6.254  1.00  0.00    -0.396 N 
HETATM   17  H   UNL     1      61.454   6.913   6.202  1.00  0.00     0.156 HD
HETATM   18  H   UNL     1      62.179   5.383   6.401  1.00  0.00     0.156 HD
ENDBRANCH   4  16
TORSDOF 3
ENDMDL
MODEL 5
REMARK VINA RESULT:      -5.2      4.597      6.264
REMARK  3 active torsions:
REMARK  status: ('A' for Active; 'I' for Inactive)
REMARK    1  A    between atoms: C_1  and  O_2 
REMARK    2  A    between atoms: O_2  and  C_3 
REMARK    3  A    between atoms: C_6  and  N_8 
ROOT
HETATM    1  C   UNL     1      60.858   8.352   0.653  1.00  0.00     0.174 C 
HETATM    2  N   UNL     1      59.612   8.611   1.136  1.00  0.00    -0.345 N 
ATOM      3  HN  UNL     1      59.379   9.508   1.562  1.00  0.00     0.167 HD
HETATM    4  C   UNL     1      61.195   7.203  -0.079  1.00  0.00     0.077 C 
HETATM    5  C   UNL     1      58.704   7.625   1.023  1.00  0.00     0.090 C 
HETATM    6  C   UNL     1      60.218   6.209  -0.157  1.00  0.00     0.035 C 
HETATM    7  C   UNL     1      58.958   6.417   0.404  1.00  0.00     0.019 C 
ENDROOT
BRANCH   1   8
HETATM    8  O   UNL     1      61.864   9.295   0.868  1.00  0.00    -0.288 OA
BRANCH   8   9
HETATM    9  C   UNL     1      62.088   9.669   2.177  1.00  0.00     0.116 A 
HETATM   10  C   UNL     1      61.842  10.959   2.658  1.00  0.00     0.150 A 
HETATM   11  F   UNL     1      61.307  11.902   1.867  1.00  0.00    -0.203 F 
HETATM   12  C   UNL     1      62.138  11.296   3.975  1.00  0.00     0.045 A 
HETATM   13  C   UNL     1      62.634  10.325   4.843  1.00  0.00     0.003 A 
HETATM   14  C   UNL     1      62.815   9.016   4.392  1.00  0.00     0.003 A 
HETATM   15  C   UNL     1      62.542   8.687   3.058  1.00  0.00     0.040 A 
ENDBRANCH   8   9
ENDBRANCH   1   8
BRANCH   4  16
HETATM   16  N   UNL     1      62.503   6.916  -0.514  1.00  0.00    -0.396 N 
HETATM   17  H   UNL     1      63.229   7.560  -0.348  1.00  0.00     0.156 HD
HETATM   18  H   UNL     1      62.691   6.072  -0.984  1.00  0.00     0.156 HD
ENDBRANCH   4  16
TORSDOF 3
ENDMDL
MODEL 6
REMARK VINA RESULT:      -5.2      1.754      2.675
REMARK  3 active torsions:
REMARK  status: ('A' for Active; 'I' for Inactive)
REMARK    1  A    between atoms: C_1  and  O_2 
REMARK    2  A    between atoms: O_2  and  C_3 
REMARK    3  A    between atoms: C_6  and  N_8 
ROOT
HETATM    1  C   UNL     1      63.164   8.573   5.043  1.00  0.00     0.174 C 
HETATM    2  N   UNL     1      63.497   9.661   5.789  1.00  0.00    -0.345 N 
ATOM      3  HN  UNL     1      64.115   9.587   6.597  1.00  0.00     0.167 HD
HETATM    4  C   UNL     1      62.449   8.634   3.837  1.00  0.00     0.077 C 
HETATM    5  C   UNL     1      62.971  10.838   5.407  1.00  0.00     0.090 C 
HETATM    6  C   UNL     1      61.918   9.878   3.494  1.00  0.00     0.035 C 
HETATM    7  C   UNL     1      62.176  10.995   4.288  1.00  0.00     0.019 C 
ENDROOT
BRANCH   1   8
HETATM    8  O   UNL     1      63.580   7.314   5.480  1.00  0.00    -0.288 OA
BRANCH   8   9
HETATM    9  C   UNL     1      64.938   7.073   5.459  1.00  0.00     0.116 A 
HETATM   10  C   UNL     1      65.703   6.897   6.615  1.00  0.00     0.150 A 
HETATM   11  F   UNL     1      65.130   6.892   7.830  1.00  0.00    -0.203 F 
HETATM   12  C   UNL     1      67.080   6.712   6.538  1.00  0.00     0.045 A 
HETATM   13  C   UNL     1      67.700   6.645   5.291  1.00  0.00     0.003 A 
HETATM   14  C   UNL     1      66.934   6.749   4.128  1.00  0.00     0.003 A 
HETATM   15  C   UNL     1      65.553   6.963   4.211  1.00  0.00     0.040 A 
ENDBRANCH   8   9
ENDBRANCH   1   8
BRANCH   4  16
HETATM   16  N   UNL     1      62.053   7.494   3.111  1.00  0.00    -0.396 N 
HETATM   17  H   UNL     1      62.730   6.929   2.675  1.00  0.00     0.156 HD
HETATM   18  H   UNL     1      61.098   7.264   3.039  1.00  0.00     0.156 HD
ENDBRANCH   4  16
TORSDOF 3
ENDMDL
MODEL 7
REMARK VINA RESULT:      -5.1      4.125      6.748
REMARK  3 active torsions:
REMARK  status: ('A' for Active; 'I' for Inactive)
REMARK    1  A    between atoms: C_1  and  O_2 
REMARK    2  A    between atoms: O_2  and  C_3 
REMARK    3  A    between atoms: C_6  and  N_8 
ROOT
HETATM    1  C   UNL     1      68.096   5.091   8.447  1.00  0.00     0.174 C 
HETATM    2  N   UNL     1      69.182   5.909   8.455  1.00  0.00    -0.345 N 
ATOM      3  HN  UNL     1      69.116   6.890   8.181  1.00  0.00     0.167 HD
HETATM    4  C   UNL     1      68.090   3.784   8.958  1.00  0.00     0.077 C 
HETATM    5  C   UNL     1      70.348   5.361   8.841  1.00  0.00     0.090 C 
HETATM    6  C   UNL     1      69.328   3.261   9.336  1.00  0.00     0.035 C 
HETATM    7  C   UNL     1      70.474   4.055   9.274  1.00  0.00     0.019 C 
ENDROOT
BRANCH   1   8
HETATM    8  O   UNL     1      66.896   5.583   7.929  1.00  0.00    -0.288 OA
BRANCH   8   9
HETATM    9  C   UNL     1      66.923   6.014   6.619  1.00  0.00     0.116 A 
HETATM   10  C   UNL     1      66.822   7.359   6.253  1.00  0.00     0.150 A 
HETATM   11  F   UNL     1      66.752   8.326   7.182  1.00  0.00    -0.203 F 
HETATM   12  C   UNL     1      66.799   7.734   4.913  1.00  0.00     0.045 A 
HETATM   13  C   UNL     1      66.935   6.763   3.921  1.00  0.00     0.003 A 
HETATM   14  C   UNL     1      67.108   5.424   4.278  1.00  0.00     0.003 A 
HETATM   15  C   UNL     1      67.102   5.049   5.627  1.00  0.00     0.040 A 
ENDBRANCH   8   9
ENDBRANCH   1   8
BRANCH   4  16
HETATM   16  N   UNL     1      66.976   2.925   8.882  1.00  0.00    -0.396 N 
HETATM   17  H   UNL     1      66.938   2.229   8.188  1.00  0.00     0.156 HD
HETATM   18  H   UNL     1      66.236   3.022   9.524  1.00  0.00     0.156 HD
ENDBRANCH   4  16
TORSDOF 3
ENDMDL
MODEL 8
REMARK VINA RESULT:      -5.1      2.771      5.302
REMARK  3 active torsions:
REMARK  status: ('A' for Active; 'I' for Inactive)
REMARK    1  A    between atoms: C_1  and  O_2 
REMARK    2  A    between atoms: O_2  and  C_3 
REMARK    3  A    between atoms: C_6  and  N_8 
ROOT
HETATM    1  C   UNL     1      65.320   6.535   6.970  1.00  0.00     0.174 C 
HETATM    2  N   UNL     1      65.066   5.202   6.870  1.00  0.00    -0.345 N 
ATOM      3  HN  UNL     1      64.115   4.844   6.781  1.00  0.00     0.167 HD
HETATM    4  C   UNL     1      66.606   7.095   6.939  1.00  0.00     0.077 C 
HETATM    5  C   UNL     1      66.130   4.381   6.896  1.00  0.00     0.090 C 
HETATM    6  C   UNL     1      67.674   6.198   6.975  1.00  0.00     0.035 C 
HETATM    7  C   UNL     1      67.437   4.823   6.958  1.00  0.00     0.019 C 
ENDROOT
BRANCH   1   8
HETATM    8  O   UNL     1      64.239   7.412   7.080  1.00  0.00    -0.288 OA
BRANCH   8   9
HETATM    9  C   UNL     1      63.457   7.569   5.955  1.00  0.00     0.116 A 
HETATM   10  C   UNL     1      62.198   6.978   5.809  1.00  0.00     0.150 A 
HETATM   11  F   UNL     1      61.650   6.263   6.803  1.00  0.00    -0.203 F 
HETATM   12  C   UNL     1      61.475   7.125   4.629  1.00  0.00     0.045 A 
HETATM   13  C   UNL     1      61.984   7.915   3.599  1.00  0.00     0.003 A 
HETATM   14  C   UNL     1      63.208   8.567   3.763  1.00  0.00     0.003 A 
HETATM   15  C   UNL     1      63.945   8.394   4.942  1.00  0.00     0.040 A 
ENDBRANCH   8   9
ENDBRANCH   1   8
BRANCH   4  16
HETATM   16  N   UNL     1      66.858   8.470   7.111  1.00  0.00    -0.396 N 
HETATM   17  H   UNL     1      66.195   9.133   6.810  1.00  0.00     0.156 HD
HETATM   18  H   UNL     1      67.696   8.768   7.532  1.00  0.00     0.156 HD
ENDBRANCH   4  16
TORSDOF 3
ENDMDL
MODEL 9
REMARK VINA RESULT:      -5.1      1.881      2.277
REMARK  3 active torsions:
REMARK  status: ('A' for Active; 'I' for Inactive)
REMARK    1  A    between atoms: C_1  and  O_2 
REMARK    2  A    between atoms: O_2  and  C_3 
REMARK    3  A    between atoms: C_6  and  N_8 
ROOT
HETATM    1  C   UNL     1      62.575   8.970   3.887  1.00  0.00     0.174 C 
HETATM    2  N   UNL     1      62.260   8.613   2.612  1.00  0.00    -0.345 N 
ATOM      3  HN  UNL     1      62.274   7.639   2.311  1.00  0.00     0.167 HD
HETATM    4  C   UNL     1      62.424  10.268   4.401  1.00  0.00     0.077 C 
HETATM    5  C   UNL     1      61.929   9.609   1.771  1.00  0.00     0.090 C 
HETATM    6  C   UNL     1      62.088  11.263   3.482  1.00  0.00     0.035 C 
HETATM    7  C   UNL     1      61.841  10.934   2.149  1.00  0.00     0.019 C 
ENDROOT
BRANCH   1   8
HETATM    8  O   UNL     1      63.050   7.987   4.756  1.00  0.00    -0.288 OA
BRANCH   8   9
HETATM    9  C   UNL     1      64.304   7.479   4.483  1.00  0.00     0.116 A 
HETATM   10  C   UNL     1      65.479   8.013   5.019  1.00  0.00     0.150 A 
HETATM   11  F   UNL     1      65.442   9.031   5.893  1.00  0.00    -0.203 F 
HETATM   12  C   UNL     1      66.722   7.495   4.667  1.00  0.00     0.045 A 
HETATM   13  C   UNL     1      66.797   6.395   3.813  1.00  0.00     0.003 A 
HETATM   14  C   UNL     1      65.625   5.811   3.329  1.00  0.00     0.003 A 
HETATM   15  C   UNL     1      64.377   6.352   3.664  1.00  0.00     0.040 A 
ENDBRANCH   8   9
ENDBRANCH   1   8
BRANCH   4  16
HETATM   16  N   UNL     1      62.817  10.638   5.702  1.00  0.00    -0.396 N 
HETATM   17  H   UNL     1      62.949   9.948   6.391  1.00  0.00     0.156 HD
HETATM   18  H   UNL     1      62.960  11.587   5.921  1.00  0.00     0.156 HD
ENDBRANCH   4  16
TORSDOF 3
ENDMDL
