MODEL 1
REMARK VINA RESULT:      -5.5      0.000      0.000
REMARK  3 active torsions:
REMARK  status: ('A' for Active; 'I' for Inactive)
REMARK    1  A    between atoms: C_1  and  C_4 
REMARK       I    between atoms: C_4  and  N_7 
REMARK    2  A    between atoms: N_7  and  C_12 
REMARK    3  A    between atoms: N_7  and  C_13 
ROOT
HETATM    1  C   UNL     1      62.809   8.744   4.733  1.00  0.00     0.107 A 
HETATM    2  N   UNL     1      62.575   8.096   3.525  1.00  0.00    -0.355 N 
HETATM    3  C   UNL     1      62.526  10.091   4.480  1.00  0.00    -0.022 A 
HETATM    4  C   UNL     1      62.133  10.215   3.100  1.00  0.00    -0.032 A 
HETATM    5  C   UNL     1      62.143   8.949   2.554  1.00  0.00     0.012 A 
HETATM    6  C   UNL     1      62.630  11.305   5.340  1.00  0.00     0.051 C 
HETATM    7  C   UNL     1      61.812  11.468   2.359  1.00  0.00     0.050 C 
HETATM    8  C   UNL     1      61.817   8.496   1.181  1.00  0.00     0.068 C 
HETATM    9  H   UNL     1      62.707   7.131   3.387  1.00  0.00     0.166 HD
ENDROOT
BRANCH   1  10
HETATM   10  C   UNL     1      63.360   7.904   5.809  1.00  0.00     0.270 C 
HETATM   11  N   UNL     1      64.645   7.345   5.794  1.00  0.00    -0.347 N 
HETATM   12  O   UNL     1      62.654   7.735   6.813  1.00  0.00    -0.266 OA
BRANCH  11  13
HETATM   13  C   UNL     1      65.037   6.512   6.946  1.00  0.00     0.121 C 
HETATM   14  C   UNL     1      66.337   6.964   7.603  1.00  0.00     0.026 C 
ENDBRANCH  11  13
BRANCH  11  15
HETATM   15  C   UNL     1      65.715   7.705   4.870  1.00  0.00     0.121 C 
HETATM   16  C   UNL     1      66.028   6.571   3.901  1.00  0.00     0.026 C 
ENDBRANCH  11  15
ENDBRANCH   1  10
TORSDOF 3
ENDMDL
MODEL 2
REMARK VINA RESULT:      -5.4      1.080      2.127
REMARK  3 active torsions:
REMARK  status: ('A' for Active; 'I' for Inactive)
REMARK    1  A    between atoms: C_1  and  C_4 
REMARK       I    between atoms: C_4  and  N_7 
REMARK    2  A    between atoms: N_7  and  C_12 
REMARK    3  A    between atoms: N_7  and  C_13 
ROOT
HETATM    1  C   UNL     1      63.355   8.262   4.552  1.00  0.00     0.107 A 
HETATM    2  N   UNL     1      62.875   9.561   4.687  1.00  0.00    -0.355 N 
HETATM    3  C   UNL     1      63.108   7.924   3.217  1.00  0.00    -0.022 A 
HETATM    4  C   UNL     1      62.466   9.045   2.581  1.00  0.00    -0.032 A 
HETATM    5  C   UNL     1      62.373  10.052   3.519  1.00  0.00     0.012 A 
HETATM    6  C   UNL     1      63.334   6.661   2.456  1.00  0.00     0.051 C 
HETATM    7  C   UNL     1      61.948   9.121   1.185  1.00  0.00     0.050 C 
HETATM    8  C   UNL     1      61.811  11.419   3.403  1.00  0.00     0.068 C 
HETATM    9  H   UNL     1      62.896  10.068   5.529  1.00  0.00     0.166 HD
ENDROOT
BRANCH   1  10
HETATM   10  C   UNL     1      63.837   7.630   5.791  1.00  0.00     0.270 C 
HETATM   11  N   UNL     1      65.160   7.222   6.006  1.00  0.00    -0.347 N 
HETATM   12  O   UNL     1      63.023   7.509   6.717  1.00  0.00    -0.266 OA
BRANCH  11  13
HETATM   13  C   UNL     1      65.474   6.588   7.300  1.00  0.00     0.121 C 
HETATM   14  C   UNL     1      66.791   7.067   7.902  1.00  0.00     0.026 C 
ENDBRANCH  11  13
BRANCH  11  15
HETATM   15  C   UNL     1      66.303   7.582   5.174  1.00  0.00     0.121 C 
HETATM   16  C   UNL     1      66.646   6.479   4.179  1.00  0.00     0.026 C 
ENDBRANCH  11  15
ENDBRANCH   1  10
TORSDOF 3
ENDMDL
MODEL 3
REMARK VINA RESULT:      -5.1      1.943      3.171
REMARK  3 active torsions:
REMARK  status: ('A' for Active; 'I' for Inactive)
REMARK    1  A    between atoms: C_1  and  C_4 
REMARK       I    between atoms: C_4  and  N_7 
REMARK    2  A    between atoms: N_7  and  C_12 
REMARK    3  A    between atoms: N_7  and  C_13 
ROOT
HETATM    1  C   UNL     1      64.961   8.273   5.204  1.00  0.00     0.107 A 
HETATM    2  N   UNL     1      64.319   9.452   5.568  1.00  0.00    -0.355 N 
HETATM    3  C   UNL     1      64.264   7.815   4.081  1.00  0.00    -0.022 A 
HETATM    4  C   UNL     1      63.198   8.744   3.805  1.00  0.00    -0.032 A 
HETATM    5  C   UNL     1      63.290   9.762   4.730  1.00  0.00     0.012 A 
HETATM    6  C   UNL     1      64.415   6.583   3.253  1.00  0.00     0.051 C 
HETATM    7  C   UNL     1      62.148   8.631   2.753  1.00  0.00     0.050 C 
HETATM    8  C   UNL     1      62.458  10.977   4.903  1.00  0.00     0.068 C 
HETATM    9  H   UNL     1      64.577  10.000   6.343  1.00  0.00     0.166 HD
ENDROOT
BRANCH   1  10
HETATM   10  C   UNL     1      66.030   7.825   6.111  1.00  0.00     0.270 C 
HETATM   11  N   UNL     1      65.915   6.739   6.991  1.00  0.00    -0.347 N 
HETATM   12  O   UNL     1      67.115   8.418   6.044  1.00  0.00    -0.266 OA
BRANCH  11  13
HETATM   13  C   UNL     1      67.076   6.432   7.846  1.00  0.00     0.121 C 
HETATM   14  C   UNL     1      66.761   6.501   9.337  1.00  0.00     0.026 C 
ENDBRANCH  11  13
BRANCH  11  15
HETATM   15  C   UNL     1      64.854   5.739   6.967  1.00  0.00     0.121 C 
HETATM   16  C   UNL     1      65.283   4.479   6.222  1.00  0.00     0.026 C 
ENDBRANCH  11  15
ENDBRANCH   1  10
TORSDOF 3
ENDMDL
MODEL 4
REMARK VINA RESULT:      -4.7     17.161     19.036
REMARK  3 active torsions:
REMARK  status: ('A' for Active; 'I' for Inactive)
REMARK    1  A    between atoms: C_1  and  C_4 
REMARK       I    between atoms: C_4  and  N_7 
REMARK    2  A    between atoms: N_7  and  C_12 
REMARK    3  A    between atoms: N_7  and  C_13 
ROOT
HETATM    1  C   UNL     1      75.241   1.517  17.638  1.00  0.00     0.107 A 
HETATM    2  N   UNL     1      74.724   0.883  18.763  1.00  0.00    -0.355 N 
HETATM    3  C   UNL     1      74.916   0.675  16.569  1.00  0.00    -0.022 A 
HETATM    4  C   UNL     1      74.209  -0.465  17.095  1.00  0.00    -0.032 A 
HETATM    5  C   UNL     1      74.081  -0.278  18.455  1.00  0.00     0.012 A 
HETATM    6  C   UNL     1      75.229   0.754  15.113  1.00  0.00     0.051 C 
HETATM    7  C   UNL     1      73.732  -1.661  16.343  1.00  0.00     0.050 C 
HETATM    8  C   UNL     1      73.436  -1.131  19.482  1.00  0.00     0.068 C 
HETATM    9  H   UNL     1      74.812   1.234  19.678  1.00  0.00     0.166 HD
ENDROOT
BRANCH   1  10
HETATM   10  C   UNL     1      76.024   2.736  17.898  1.00  0.00     0.270 C 
HETATM   11  N   UNL     1      75.905   3.922  17.161  1.00  0.00    -0.347 N 
HETATM   12  O   UNL     1      76.794   2.718  18.868  1.00  0.00    -0.266 OA
BRANCH  11  13
HETATM   13  C   UNL     1      76.778   5.048  17.541  1.00  0.00     0.121 C 
HETATM   14  C   UNL     1      76.836   6.149  16.487  1.00  0.00     0.026 C 
ENDBRANCH  11  13
BRANCH  11  15
HETATM   15  C   UNL     1      74.836   4.230  16.218  1.00  0.00     0.121 C 
HETATM   16  C   UNL     1      73.544   4.606  16.935  1.00  0.00     0.026 C 
ENDBRANCH  11  15
ENDBRANCH   1  10
TORSDOF 3
ENDMDL
MODEL 5
REMARK VINA RESULT:      -4.7      1.484      2.218
REMARK  3 active torsions:
REMARK  status: ('A' for Active; 'I' for Inactive)
REMARK    1  A    between atoms: C_1  and  C_4 
REMARK       I    between atoms: C_4  and  N_7 
REMARK    2  A    between atoms: N_7  and  C_12 
REMARK    3  A    between atoms: N_7  and  C_13 
ROOT
HETATM    1  C   UNL     1      63.136   8.780   4.114  1.00  0.00     0.107 A 
HETATM    2  N   UNL     1      62.970   8.264   2.833  1.00  0.00    -0.355 N 
HETATM    3  C   UNL     1      62.620  10.078   4.049  1.00  0.00    -0.022 A 
HETATM    4  C   UNL     1      62.160  10.311   2.704  1.00  0.00    -0.032 A 
HETATM    5  C   UNL     1      62.363   9.148   1.992  1.00  0.00     0.012 A 
HETATM    6  C   UNL     1      62.550  11.170   5.063  1.00  0.00     0.051 C 
HETATM    7  C   UNL     1      61.604  11.576   2.143  1.00  0.00     0.050 C 
HETATM    8  C   UNL     1      62.066   8.828   0.576  1.00  0.00     0.068 C 
HETATM    9  H   UNL     1      63.257   7.362   2.564  1.00  0.00     0.166 HD
ENDROOT
BRANCH   1  10
HETATM   10  C   UNL     1      63.861   7.915   5.059  1.00  0.00     0.270 C 
HETATM   11  N   UNL     1      63.287   6.831   5.736  1.00  0.00    -0.347 N 
HETATM   12  O   UNL     1      65.070   8.135   5.214  1.00  0.00    -0.266 OA
BRANCH  11  13
HETATM   13  C   UNL     1      64.149   6.075   6.664  1.00  0.00     0.121 C 
HETATM   14  C   UNL     1      64.626   4.743   6.093  1.00  0.00     0.026 C 
ENDBRANCH  11  13
BRANCH  11  15
HETATM   15  C   UNL     1      61.993   6.230   5.431  1.00  0.00     0.121 C 
HETATM   16  C   UNL     1      61.102   6.154   6.665  1.00  0.00     0.026 C 
ENDBRANCH  11  15
ENDBRANCH   1  10
TORSDOF 3
ENDMDL
MODEL 6
REMARK VINA RESULT:      -4.6      3.051      4.641
REMARK  3 active torsions:
REMARK  status: ('A' for Active; 'I' for Inactive)
REMARK    1  A    between atoms: C_1  and  C_4 
REMARK       I    between atoms: C_4  and  N_7 
REMARK    2  A    between atoms: N_7  and  C_12 
REMARK    3  A    between atoms: N_7  and  C_13 
ROOT
HETATM    1  C   UNL     1      65.995   6.886   6.786  1.00  0.00     0.107 A 
HETATM    2  N   UNL     1      64.650   6.880   7.141  1.00  0.00    -0.355 N 
HETATM    3  C   UNL     1      66.002   7.098   5.404  1.00  0.00    -0.022 A 
HETATM    4  C   UNL     1      64.636   7.204   4.959  1.00  0.00    -0.032 A 
HETATM    5  C   UNL     1      63.831   7.099   6.074  1.00  0.00     0.012 A 
HETATM    6  C   UNL     1      67.117   7.155   4.414  1.00  0.00     0.051 C 
HETATM    7  C   UNL     1      64.148   7.356   3.559  1.00  0.00     0.050 C 
HETATM    8  C   UNL     1      62.355   7.148   6.197  1.00  0.00     0.068 C 
HETATM    9  H   UNL     1      64.326   6.734   8.059  1.00  0.00     0.166 HD
ENDROOT
BRANCH   1  10
HETATM   10  C   UNL     1      66.940   6.572   7.871  1.00  0.00     0.270 C 
HETATM   11  N   UNL     1      67.739   5.421   7.912  1.00  0.00    -0.347 N 
HETATM   12  O   UNL     1      67.069   7.414   8.770  1.00  0.00    -0.266 OA
BRANCH  11  13
HETATM   13  C   UNL     1      68.622   5.249   9.081  1.00  0.00     0.121 C 
HETATM   14  C   UNL     1      69.996   4.693   8.721  1.00  0.00     0.026 C 
ENDBRANCH  11  13
BRANCH  11  15
HETATM   15  C   UNL     1      67.961   4.504   6.800  1.00  0.00     0.121 C 
HETATM   16  C   UNL     1      66.986   3.332   6.832  1.00  0.00     0.026 C 
ENDBRANCH  11  15
ENDBRANCH   1  10
TORSDOF 3
ENDMDL
MODEL 7
REMARK VINA RESULT:      -4.6      2.345      6.595
REMARK  3 active torsions:
REMARK  status: ('A' for Active; 'I' for Inactive)
REMARK    1  A    between atoms: C_1  and  C_4 
REMARK       I    between atoms: C_4  and  N_7 
REMARK    2  A    between atoms: N_7  and  C_12 
REMARK    3  A    between atoms: N_7  and  C_13 
ROOT
HETATM    1  C   UNL     1      65.668   5.835   7.196  1.00  0.00     0.107 A 
HETATM    2  N   UNL     1      66.784   6.218   7.933  1.00  0.00    -0.355 N 
HETATM    3  C   UNL     1      65.709   4.437   7.181  1.00  0.00    -0.022 A 
HETATM    4  C   UNL     1      66.874   4.014   7.914  1.00  0.00    -0.032 A 
HETATM    5  C   UNL     1      67.493   5.149   8.393  1.00  0.00     0.012 A 
HETATM    6  C   UNL     1      64.835   3.425   6.518  1.00  0.00     0.051 C 
HETATM    7  C   UNL     1      67.371   2.621   8.101  1.00  0.00     0.050 C 
HETATM    8  C   UNL     1      68.719   5.297   9.213  1.00  0.00     0.068 C 
HETATM    9  H   UNL     1      67.034   7.154   8.103  1.00  0.00     0.166 HD
ENDROOT
BRANCH   1  10
HETATM   10  C   UNL     1      64.897   6.934   6.592  1.00  0.00     0.270 C 
HETATM   11  N   UNL     1      65.258   7.594   5.410  1.00  0.00    -0.347 N 
HETATM   12  O   UNL     1      63.834   7.249   7.144  1.00  0.00    -0.266 OA
BRANCH  11  13
HETATM   13  C   UNL     1      64.383   8.688   4.949  1.00  0.00     0.121 C 
HETATM   14  C   UNL     1      63.479   8.289   3.787  1.00  0.00     0.026 C 
ENDBRANCH  11  13
BRANCH  11  15
HETATM   15  C   UNL     1      66.275   7.145   4.465  1.00  0.00     0.121 C 
HETATM   16  C   UNL     1      67.631   7.779   4.754  1.00  0.00     0.026 C 
ENDBRANCH  11  15
ENDBRANCH   1  10
TORSDOF 3
ENDMDL
MODEL 8
REMARK VINA RESULT:      -4.5      2.774      6.719
REMARK  3 active torsions:
REMARK  status: ('A' for Active; 'I' for Inactive)
REMARK    1  A    between atoms: C_1  and  C_4 
REMARK       I    between atoms: C_4  and  N_7 
REMARK    2  A    between atoms: N_7  and  C_12 
REMARK    3  A    between atoms: N_7  and  C_13 
ROOT
HETATM    1  C   UNL     1      67.192   6.281   6.702  1.00  0.00     0.107 A 
HETATM    2  N   UNL     1      67.595   5.166   5.975  1.00  0.00    -0.355 N 
HETATM    3  C   UNL     1      67.454   5.955   8.037  1.00  0.00    -0.022 A 
HETATM    4  C   UNL     1      68.007   4.626   8.074  1.00  0.00    -0.032 A 
HETATM    5  C   UNL     1      68.110   4.187   6.771  1.00  0.00     0.012 A 
HETATM    6  C   UNL     1      67.200   6.695   9.307  1.00  0.00     0.051 C 
HETATM    7  C   UNL     1      68.369   3.828   9.280  1.00  0.00     0.050 C 
HETATM    8  C   UNL     1      68.618   2.904   6.230  1.00  0.00     0.068 C 
HETATM    9  H   UNL     1      67.517   5.092   4.997  1.00  0.00     0.166 HD
ENDROOT
BRANCH   1  10
HETATM   10  C   UNL     1      66.545   7.349   5.922  1.00  0.00     0.270 C 
HETATM   11  N   UNL     1      65.162   7.449   5.716  1.00  0.00    -0.347 N 
HETATM   12  O   UNL     1      67.276   8.241   5.470  1.00  0.00    -0.266 OA
BRANCH  11  13
HETATM   13  C   UNL     1      64.678   8.573   4.893  1.00  0.00     0.121 C 
HETATM   14  C   UNL     1      63.264   9.019   5.254  1.00  0.00     0.026 C 
ENDBRANCH  11  13
BRANCH  11  15
HETATM   15  C   UNL     1      64.142   6.695   6.436  1.00  0.00     0.121 C 
HETATM   16  C   UNL     1      63.813   5.382   5.734  1.00  0.00     0.026 C 
ENDBRANCH  11  15
ENDBRANCH   1  10
TORSDOF 3
ENDMDL
MODEL 9
REMARK VINA RESULT:      -4.4     17.587     19.454
REMARK  3 active torsions:
REMARK  status: ('A' for Active; 'I' for Inactive)
REMARK    1  A    between atoms: C_1  and  C_4 
REMARK       I    between atoms: C_4  and  N_7 
REMARK    2  A    between atoms: N_7  and  C_12 
REMARK    3  A    between atoms: N_7  and  C_13 
ROOT
HETATM    1  C   UNL     1      75.165   0.998  17.934  1.00  0.00     0.107 A 
HETATM    2  N   UNL     1      76.330   0.733  18.646  1.00  0.00    -0.355 N 
HETATM    3  C   UNL     1      75.280   2.334  17.538  1.00  0.00    -0.022 A 
HETATM    4  C   UNL     1      76.529   2.845  18.042  1.00  0.00    -0.032 A 
HETATM    5  C   UNL     1      77.165   1.809  18.693  1.00  0.00     0.012 A 
HETATM    6  C   UNL     1      74.348   3.234  16.797  1.00  0.00     0.051 C 
HETATM    7  C   UNL     1      77.047   4.239  17.936  1.00  0.00     0.050 C 
HETATM    8  C   UNL     1      78.474   1.775  19.386  1.00  0.00     0.068 C 
HETATM    9  H   UNL     1      76.530  -0.133  19.069  1.00  0.00     0.166 HD
ENDROOT
BRANCH   1  10
HETATM   10  C   UNL     1      74.173  -0.090  17.911  1.00  0.00     0.270 C 
HETATM   11  N   UNL     1      73.920  -0.903  16.797  1.00  0.00    -0.347 N 
HETATM   12  O   UNL     1      73.571  -0.330  18.966  1.00  0.00    -0.266 OA
BRANCH  11  13
HETATM   13  C   UNL     1      72.879  -1.938  16.935  1.00  0.00     0.121 C 
HETATM   14  C   UNL     1      73.154  -3.185  16.101  1.00  0.00     0.026 C 
ENDBRANCH  11  13
BRANCH  11  15
HETATM   15  C   UNL     1      74.750  -0.984  15.601  1.00  0.00     0.121 C 
HETATM   16  C   UNL     1      74.432   0.137  14.617  1.00  0.00     0.026 C 
ENDBRANCH  11  15
ENDBRANCH   1  10
TORSDOF 3
ENDMDL
