MODEL 1
REMARK VINA RESULT:      -6.4      0.000      0.000
REMARK  4 active torsions:
REMARK  status: ('A' for Active; 'I' for Inactive)
REMARK    1  A    between atoms: C_1  and  N_6 
REMARK    2  A    between atoms: C_4  and  O_5 
REMARK    3  A    between atoms: O_5  and  C_7 
REMARK    4  A    between atoms: C_7  and  C_8 
ROOT
HETATM    1  C   UNL     1      76.464   2.794  18.275  1.00  0.00     0.132 A 
HETATM    2  N   UNL     1      76.354   1.461  18.471  1.00  0.00    -0.350 N 
ATOM      3  HN  UNL     1      76.927   0.984  19.168  1.00  0.00     0.166 HD
HETATM    4  C   UNL     1      75.698   3.484  17.326  1.00  0.00     0.112 A 
HETATM    5  C   UNL     1      75.466   0.779  17.720  1.00  0.00     0.090 A 
HETATM    6  C   UNL     1      74.810   2.731  16.550  1.00  0.00     0.042 A 
HETATM    7  C   UNL     1      74.681   1.362  16.745  1.00  0.00     0.020 A 
ENDROOT
BRANCH   4   8
HETATM    8  O   UNL     1      75.651   4.813  17.018  1.00  0.00    -0.343 OA
BRANCH   8   9
HETATM    9  C   UNL     1      76.540   5.750  17.621  1.00  0.00     0.214 C 
BRANCH   9  10
HETATM   10  C   UNL     1      76.908   6.927  16.736  1.00  0.00    -0.034 A 
HETATM   11  C   UNL     1      77.286   8.174  17.254  1.00  0.00     0.009 A 
HETATM   12  C   UNL     1      77.646   9.221  16.402  1.00  0.00     0.001 A 
HETATM   13  C   UNL     1      77.614   9.040  15.022  1.00  0.00     0.000 A 
HETATM   14  C   UNL     1      77.211   7.818  14.491  1.00  0.00     0.001 A 
HETATM   15  C   UNL     1      76.858   6.768  15.342  1.00  0.00     0.009 A 
ENDBRANCH   9  10
ENDBRANCH   8   9
ENDBRANCH   4   8
BRANCH   1  16
HETATM   16  N   UNL     1      77.407   3.380  19.114  1.00  0.00    -0.383 N 
HETATM   17  H   UNL     1      77.135   4.088  19.742  1.00  0.00     0.157 HD
HETATM   18  H   UNL     1      78.347   3.088  19.078  1.00  0.00     0.157 HD
ENDBRANCH   1  16
TORSDOF 4
ENDMDL
MODEL 2
REMARK VINA RESULT:      -6.3     15.810     17.002
REMARK  4 active torsions:
REMARK  status: ('A' for Active; 'I' for Inactive)
REMARK    1  A    between atoms: C_1  and  N_6 
REMARK    2  A    between atoms: C_4  and  O_5 
REMARK    3  A    between atoms: O_5  and  C_7 
REMARK    4  A    between atoms: C_7  and  C_8 
ROOT
HETATM    1  C   UNL     1      63.394  10.508   5.378  1.00  0.00     0.132 A 
HETATM    2  N   UNL     1      62.336  10.800   4.589  1.00  0.00    -0.350 N 
ATOM      3  HN  UNL     1      61.804  11.660   4.723  1.00  0.00     0.166 HD
HETATM    4  C   UNL     1      64.147   9.336   5.230  1.00  0.00     0.112 A 
HETATM    5  C   UNL     1      62.005   9.922   3.620  1.00  0.00     0.090 A 
HETATM    6  C   UNL     1      63.750   8.441   4.230  1.00  0.00     0.042 A 
HETATM    7  C   UNL     1      62.669   8.732   3.407  1.00  0.00     0.020 A 
ENDROOT
BRANCH   4   8
HETATM    8  O   UNL     1      65.252   8.898   5.902  1.00  0.00    -0.343 OA
BRANCH   8   9
HETATM    9  C   UNL     1      65.961   7.731   5.491  1.00  0.00     0.214 C 
BRANCH   9  10
HETATM   10  C   UNL     1      66.576   6.936   6.627  1.00  0.00    -0.034 A 
HETATM   11  C   UNL     1      67.825   6.307   6.521  1.00  0.00     0.009 A 
HETATM   12  C   UNL     1      68.367   5.610   7.604  1.00  0.00     0.001 A 
HETATM   13  C   UNL     1      67.658   5.515   8.798  1.00  0.00     0.000 A 
HETATM   14  C   UNL     1      66.402   6.106   8.909  1.00  0.00     0.001 A 
HETATM   15  C   UNL     1      65.863   6.811   7.830  1.00  0.00     0.009 A 
ENDBRANCH   9  10
ENDBRANCH   8   9
ENDBRANCH   4   8
BRANCH   1  16
HETATM   16  N   UNL     1      63.636  11.493   6.332  1.00  0.00    -0.383 N 
HETATM   17  H   UNL     1      64.213  12.259   6.112  1.00  0.00     0.157 HD
HETATM   18  H   UNL     1      63.230  11.422   7.226  1.00  0.00     0.157 HD
ENDBRANCH   1  16
TORSDOF 4
ENDMDL
MODEL 3
REMARK VINA RESULT:      -6.1     16.822     17.795
REMARK  4 active torsions:
REMARK  status: ('A' for Active; 'I' for Inactive)
REMARK    1  A    between atoms: C_1  and  N_6 
REMARK    2  A    between atoms: C_4  and  O_5 
REMARK    3  A    between atoms: O_5  and  C_7 
REMARK    4  A    between atoms: C_7  and  C_8 
ROOT
HETATM    1  C   UNL     1      66.036   6.927   6.721  1.00  0.00     0.132 A 
HETATM    2  N   UNL     1      67.021   6.041   6.457  1.00  0.00    -0.350 N 
ATOM      3  HN  UNL     1      67.419   5.463   7.198  1.00  0.00     0.166 HD
HETATM    4  C   UNL     1      65.467   7.741   5.733  1.00  0.00     0.112 A 
HETATM    5  C   UNL     1      67.464   5.941   5.187  1.00  0.00     0.090 A 
HETATM    6  C   UNL     1      65.976   7.624   4.435  1.00  0.00     0.042 A 
HETATM    7  C   UNL     1      66.984   6.712   4.147  1.00  0.00     0.020 A 
ENDROOT
BRANCH   4   8
HETATM    8  O   UNL     1      64.455   8.656   5.808  1.00  0.00    -0.343 OA
BRANCH   8   9
HETATM    9  C   UNL     1      63.139   8.350   5.354  1.00  0.00     0.214 C 
BRANCH   9  10
HETATM   10  C   UNL     1      62.668   9.189   4.181  1.00  0.00    -0.034 A 
HETATM   11  C   UNL     1      62.286  10.532   4.316  1.00  0.00     0.009 A 
HETATM   12  C   UNL     1      61.887  11.276   3.203  1.00  0.00     0.001 A 
HETATM   13  C   UNL     1      61.844  10.681   1.945  1.00  0.00     0.000 A 
HETATM   14  C   UNL     1      62.190   9.340   1.799  1.00  0.00     0.001 A 
HETATM   15  C   UNL     1      62.597   8.598   2.910  1.00  0.00     0.009 A 
ENDBRANCH   9  10
ENDBRANCH   8   9
ENDBRANCH   4   8
BRANCH   1  16
HETATM   16  N   UNL     1      65.665   6.929   8.063  1.00  0.00    -0.383 N 
HETATM   17  H   UNL     1      64.846   7.394   8.347  1.00  0.00     0.157 HD
HETATM   18  H   UNL     1      66.225   6.465   8.728  1.00  0.00     0.157 HD
ENDBRANCH   1  16
TORSDOF 4
ENDMDL
MODEL 4
REMARK VINA RESULT:      -6.0     15.894     16.767
REMARK  4 active torsions:
REMARK  status: ('A' for Active; 'I' for Inactive)
REMARK    1  A    between atoms: C_1  and  N_6 
REMARK    2  A    between atoms: C_4  and  O_5 
REMARK    3  A    between atoms: O_5  and  C_7 
REMARK    4  A    between atoms: C_7  and  C_8 
ROOT
HETATM    1  C   UNL     1      66.645   7.374   7.375  1.00  0.00     0.132 A 
HETATM    2  N   UNL     1      67.574   6.609   7.988  1.00  0.00    -0.350 N 
ATOM      3  HN  UNL     1      68.457   7.010   8.305  1.00  0.00     0.166 HD
HETATM    4  C   UNL     1      65.422   6.860   6.922  1.00  0.00     0.112 A 
HETATM    5  C   UNL     1      67.302   5.301   8.171  1.00  0.00     0.090 A 
HETATM    6  C   UNL     1      65.195   5.492   7.107  1.00  0.00     0.042 A 
HETATM    7  C   UNL     1      66.138   4.695   7.743  1.00  0.00     0.020 A 
ENDROOT
BRANCH   4   8
HETATM    8  O   UNL     1      64.364   7.480   6.321  1.00  0.00    -0.343 OA
BRANCH   8   9
HETATM    9  C   UNL     1      64.277   7.596   4.903  1.00  0.00     0.214 C 
BRANCH   9  10
HETATM   10  C   UNL     1      63.447   8.771   4.418  1.00  0.00    -0.034 A 
HETATM   11  C   UNL     1      62.807   8.781   3.170  1.00  0.00     0.009 A 
HETATM   12  C   UNL     1      62.028   9.872   2.777  1.00  0.00     0.001 A 
HETATM   13  C   UNL     1      61.897  10.975   3.617  1.00  0.00     0.000 A 
HETATM   14  C   UNL     1      62.552  10.993   4.846  1.00  0.00     0.001 A 
HETATM   15  C   UNL     1      63.324   9.899   5.243  1.00  0.00     0.009 A 
ENDBRANCH   9  10
ENDBRANCH   8   9
ENDBRANCH   4   8
BRANCH   1  16
HETATM   16  N   UNL     1      67.041   8.702   7.254  1.00  0.00    -0.383 N 
HETATM   17  H   UNL     1      66.386   9.425   7.378  1.00  0.00     0.157 HD
HETATM   18  H   UNL     1      67.979   8.918   7.042  1.00  0.00     0.157 HD
ENDBRANCH   1  16
TORSDOF 4
ENDMDL
MODEL 5
REMARK VINA RESULT:      -5.5     15.671     16.500
REMARK  4 active torsions:
REMARK  status: ('A' for Active; 'I' for Inactive)
REMARK    1  A    between atoms: C_1  and  N_6 
REMARK    2  A    between atoms: C_4  and  O_5 
REMARK    3  A    between atoms: O_5  and  C_7 
REMARK    4  A    between atoms: C_7  and  C_8 
ROOT
HETATM    1  C   UNL     1      66.035   5.749   8.164  1.00  0.00     0.132 A 
HETATM    2  N   UNL     1      66.394   4.450   8.263  1.00  0.00    -0.350 N 
ATOM      3  HN  UNL     1      66.879   4.101   9.090  1.00  0.00     0.166 HD
HETATM    4  C   UNL     1      65.372   6.267   7.044  1.00  0.00     0.112 A 
HETATM    5  C   UNL     1      66.093   3.627   7.238  1.00  0.00     0.090 A 
HETATM    6  C   UNL     1      65.105   5.383   5.992  1.00  0.00     0.042 A 
HETATM    7  C   UNL     1      65.462   4.043   6.083  1.00  0.00     0.020 A 
ENDROOT
BRANCH   4   8
HETATM    8  O   UNL     1      64.908   7.525   6.787  1.00  0.00    -0.343 OA
BRANCH   8   9
HETATM    9  C   UNL     1      65.246   8.214   5.586  1.00  0.00     0.214 C 
BRANCH   9  10
HETATM   10  C   UNL     1      64.061   8.797   4.840  1.00  0.00    -0.034 A 
HETATM   11  C   UNL     1      63.433   9.989   5.231  1.00  0.00     0.009 A 
HETATM   12  C   UNL     1      62.363  10.505   4.496  1.00  0.00     0.001 A 
HETATM   13  C   UNL     1      61.894   9.826   3.375  1.00  0.00     0.000 A 
HETATM   14  C   UNL     1      62.485   8.625   2.992  1.00  0.00     0.001 A 
HETATM   15  C   UNL     1      63.561   8.112   3.722  1.00  0.00     0.009 A 
ENDBRANCH   9  10
ENDBRANCH   8   9
ENDBRANCH   4   8
BRANCH   1  16
HETATM   16  N   UNL     1      66.394   6.489   9.287  1.00  0.00    -0.383 N 
HETATM   17  H   UNL     1      67.299   6.871   9.356  1.00  0.00     0.157 HD
HETATM   18  H   UNL     1      65.743   6.629  10.013  1.00  0.00     0.157 HD
ENDBRANCH   1  16
TORSDOF 4
ENDMDL
MODEL 6
REMARK VINA RESULT:      -5.4     13.344     14.545
REMARK  4 active torsions:
REMARK  status: ('A' for Active; 'I' for Inactive)
REMARK    1  A    between atoms: C_1  and  N_6 
REMARK    2  A    between atoms: C_4  and  O_5 
REMARK    3  A    between atoms: O_5  and  C_7 
REMARK    4  A    between atoms: C_7  and  C_8 
ROOT
HETATM    1  C   UNL     1      65.870   7.902   6.599  1.00  0.00     0.132 A 
HETATM    2  N   UNL     1      65.375   8.630   5.573  1.00  0.00    -0.350 N 
ATOM      3  HN  UNL     1      65.822   9.501   5.285  1.00  0.00     0.166 HD
HETATM    4  C   UNL     1      65.284   6.704   7.027  1.00  0.00     0.112 A 
HETATM    5  C   UNL     1      64.275   8.173   4.942  1.00  0.00     0.090 A 
HETATM    6  C   UNL     1      64.128   6.282   6.361  1.00  0.00     0.042 A 
HETATM    7  C   UNL     1      63.612   7.017   5.301  1.00  0.00     0.020 A 
ENDROOT
BRANCH   4   8
HETATM    8  O   UNL     1      65.660   5.831   8.008  1.00  0.00    -0.343 OA
BRANCH   8   9
HETATM    9  C   UNL     1      66.296   4.593   7.700  1.00  0.00     0.214 C 
BRANCH   9  10
HETATM   10  C   UNL     1      67.684   4.435   8.293  1.00  0.00    -0.034 A 
HETATM   11  C   UNL     1      68.694   5.392   8.119  1.00  0.00     0.009 A 
HETATM   12  C   UNL     1      69.949   5.219   8.708  1.00  0.00     0.001 A 
HETATM   13  C   UNL     1      70.216   4.078   9.460  1.00  0.00     0.000 A 
HETATM   14  C   UNL     1      69.234   3.104   9.616  1.00  0.00     0.001 A 
HETATM   15  C   UNL     1      67.976   3.279   9.034  1.00  0.00     0.009 A 
ENDBRANCH   9  10
ENDBRANCH   8   9
ENDBRANCH   4   8
BRANCH   1  16
HETATM   16  N   UNL     1      67.008   8.476   7.160  1.00  0.00    -0.383 N 
HETATM   17  H   UNL     1      67.896   8.277   6.785  1.00  0.00     0.157 HD
HETATM   18  H   UNL     1      66.923   9.080   7.934  1.00  0.00     0.157 HD
ENDBRANCH   1  16
TORSDOF 4
ENDMDL
MODEL 7
REMARK VINA RESULT:      -5.3     12.370     13.787
REMARK  4 active torsions:
REMARK  status: ('A' for Active; 'I' for Inactive)
REMARK    1  A    between atoms: C_1  and  N_6 
REMARK    2  A    between atoms: C_4  and  O_5 
REMARK    3  A    between atoms: O_5  and  C_7 
REMARK    4  A    between atoms: C_7  and  C_8 
ROOT
HETATM    1  C   UNL     1      66.378   7.465   7.103  1.00  0.00     0.132 A 
HETATM    2  N   UNL     1      65.393   7.538   6.182  1.00  0.00    -0.350 N 
ATOM      3  HN  UNL     1      65.259   8.381   5.622  1.00  0.00     0.166 HD
HETATM    4  C   UNL     1      66.592   6.328   7.894  1.00  0.00     0.112 A 
HETATM    5  C   UNL     1      64.591   6.466   6.022  1.00  0.00     0.090 A 
HETATM    6  C   UNL     1      65.718   5.250   7.714  1.00  0.00     0.042 A 
HETATM    7  C   UNL     1      64.705   5.308   6.765  1.00  0.00     0.020 A 
ENDROOT
BRANCH   4   8
HETATM    8  O   UNL     1      67.544   6.065   8.836  1.00  0.00    -0.343 OA
BRANCH   8   9
HETATM    9  C   UNL     1      68.833   5.574   8.477  1.00  0.00     0.214 C 
BRANCH   9  10
HETATM   10  C   UNL     1      69.013   4.080   8.672  1.00  0.00    -0.034 A 
HETATM   11  C   UNL     1      68.807   3.152   7.640  1.00  0.00     0.009 A 
HETATM   12  C   UNL     1      69.014   1.788   7.857  1.00  0.00     0.001 A 
HETATM   13  C   UNL     1      69.409   1.332   9.111  1.00  0.00     0.000 A 
HETATM   14  C   UNL     1      69.586   2.237  10.155  1.00  0.00     0.001 A 
HETATM   15  C   UNL     1      69.388   3.602   9.937  1.00  0.00     0.009 A 
ENDBRANCH   9  10
ENDBRANCH   8   9
ENDBRANCH   4   8
BRANCH   1  16
HETATM   16  N   UNL     1      67.138   8.630   7.166  1.00  0.00    -0.383 N 
HETATM   17  H   UNL     1      67.302   9.065   8.034  1.00  0.00     0.157 HD
HETATM   18  H   UNL     1      67.510   9.019   6.341  1.00  0.00     0.157 HD
ENDBRANCH   1  16
TORSDOF 4
ENDMDL
MODEL 8
REMARK VINA RESULT:      -5.3     13.226     14.150
REMARK  4 active torsions:
REMARK  status: ('A' for Active; 'I' for Inactive)
REMARK    1  A    between atoms: C_1  and  N_6 
REMARK    2  A    between atoms: C_4  and  O_5 
REMARK    3  A    between atoms: O_5  and  C_7 
REMARK    4  A    between atoms: C_7  and  C_8 
ROOT
HETATM    1  C   UNL     1      67.233   3.721   8.329  1.00  0.00     0.132 A 
HETATM    2  N   UNL     1      67.684   2.840   9.250  1.00  0.00    -0.350 N 
ATOM      3  HN  UNL     1      67.119   2.037   9.528  1.00  0.00     0.166 HD
HETATM    4  C   UNL     1      67.977   4.836   7.923  1.00  0.00     0.112 A 
HETATM    5  C   UNL     1      68.901   3.051   9.789  1.00  0.00     0.090 A 
HETATM    6  C   UNL     1      69.222   5.032   8.530  1.00  0.00     0.042 A 
HETATM    7  C   UNL     1      69.701   4.131   9.472  1.00  0.00     0.020 A 
ENDROOT
BRANCH   4   8
HETATM    8  O   UNL     1      67.701   5.800   6.995  1.00  0.00    -0.343 OA
BRANCH   8   9
HETATM    9  C   UNL     1      67.038   7.010   7.352  1.00  0.00     0.214 C 
BRANCH   9  10
HETATM   10  C   UNL     1      65.780   7.297   6.553  1.00  0.00    -0.034 A 
HETATM   11  C   UNL     1      65.735   8.259   5.533  1.00  0.00     0.009 A 
HETATM   12  C   UNL     1      64.562   8.469   4.803  1.00  0.00     0.001 A 
HETATM   13  C   UNL     1      63.416   7.736   5.097  1.00  0.00     0.000 A 
HETATM   14  C   UNL     1      63.436   6.800   6.127  1.00  0.00     0.001 A 
HETATM   15  C   UNL     1      64.610   6.583   6.852  1.00  0.00     0.009 A 
ENDBRANCH   9  10
ENDBRANCH   8   9
ENDBRANCH   4   8
BRANCH   1  16
HETATM   16  N   UNL     1      65.971   3.388   7.845  1.00  0.00    -0.383 N 
HETATM   17  H   UNL     1      65.216   4.007   7.971  1.00  0.00     0.157 HD
HETATM   18  H   UNL     1      65.834   2.532   7.378  1.00  0.00     0.157 HD
ENDBRANCH   1  16
TORSDOF 4
ENDMDL
MODEL 9
REMARK VINA RESULT:      -5.3     15.657     16.845
REMARK  4 active torsions:
REMARK  status: ('A' for Active; 'I' for Inactive)
REMARK    1  A    between atoms: C_1  and  N_6 
REMARK    2  A    between atoms: C_4  and  O_5 
REMARK    3  A    between atoms: O_5  and  C_7 
REMARK    4  A    between atoms: C_7  and  C_8 
ROOT
HETATM    1  C   UNL     1      63.917   7.805   3.790  1.00  0.00     0.132 A 
HETATM    2  N   UNL     1      62.990   8.218   2.899  1.00  0.00    -0.350 N 
ATOM      3  HN  UNL     1      62.844   7.715   2.023  1.00  0.00     0.166 HD
HETATM    4  C   UNL     1      64.151   8.469   5.001  1.00  0.00     0.112 A 
HETATM    5  C   UNL     1      62.264   9.314   3.198  1.00  0.00     0.090 A 
HETATM    6  C   UNL     1      63.393   9.618   5.258  1.00  0.00     0.042 A 
HETATM    7  C   UNL     1      62.432  10.050   4.353  1.00  0.00     0.020 A 
ENDROOT
BRANCH   4   8
HETATM    8  O   UNL     1      65.009   8.181   6.024  1.00  0.00    -0.343 OA
BRANCH   8   9
HETATM    9  C   UNL     1      64.847   7.014   6.826  1.00  0.00     0.214 C 
BRANCH   9  10
HETATM   10  C   UNL     1      66.134   6.481   7.428  1.00  0.00    -0.034 A 
HETATM   11  C   UNL     1      67.078   5.762   6.681  1.00  0.00     0.009 A 
HETATM   12  C   UNL     1      68.264   5.317   7.269  1.00  0.00     0.001 A 
HETATM   13  C   UNL     1      68.511   5.565   8.617  1.00  0.00     0.000 A 
HETATM   14  C   UNL     1      67.569   6.250   9.380  1.00  0.00     0.001 A 
HETATM   15  C   UNL     1      66.387   6.704   8.791  1.00  0.00     0.009 A 
ENDBRANCH   9  10
ENDBRANCH   8   9
ENDBRANCH   4   8
BRANCH   1  16
HETATM   16  N   UNL     1      64.593   6.663   3.368  1.00  0.00    -0.383 N 
HETATM   17  H   UNL     1      65.565   6.693   3.217  1.00  0.00     0.157 HD
HETATM   18  H   UNL     1      64.097   5.825   3.219  1.00  0.00     0.157 HD
ENDBRANCH   1  16
TORSDOF 4
ENDMDL
