MODEL 1
REMARK VINA RESULT:      -6.6      0.000      0.000
REMARK  0 active torsions:
REMARK  status: ('A' for Active; 'I' for Inactive)
ROOT
HETATM    1  C   UNL     1      77.649   8.826  13.445  1.00  0.00     0.297 A 
HETATM    2  C   UNL     1      77.500   9.083  15.824  1.00  0.00     0.049 A 
HETATM    3  N   UNL     1      77.324   7.627  14.048  1.00  0.00    -0.319 N 
HETATM    4  C   UNL     1      77.774   9.851  14.609  1.00  0.00     0.252 A 
HETATM    5  C   UNL     1      77.244   7.769  15.430  1.00  0.00     0.049 A 
HETATM    6  C   UNL     1      77.485   9.482  17.143  1.00  0.00     0.060 A 
HETATM    7  O   UNL     1      77.812   9.048  12.266  1.00  0.00    -0.264 OA
HETATM    8  O   UNL     1      78.043  11.026  14.531  1.00  0.00    -0.281 OA
HETATM    9  C   UNL     1      76.964   6.785  16.355  1.00  0.00     0.033 A 
HETATM   10  C   UNL     1      77.206   8.494  18.081  1.00  0.00     0.117 A 
HETATM   11  C   UNL     1      76.950   7.162  17.704  1.00  0.00     0.044 A 
HETATM   12  F   UNL     1      77.184   8.813  19.382  1.00  0.00    -0.206 F 
HETATM   13  H   UNL     1      77.169   6.783  13.566  1.00  0.00     0.169 HD
ENDROOT
TORSDOF 0
ENDMDL
MODEL 2
REMARK VINA RESULT:      -6.3      3.076      3.994
REMARK  0 active torsions:
REMARK  status: ('A' for Active; 'I' for Inactive)
ROOT
HETATM    1  C   UNL     1      76.874   6.489  17.465  1.00  0.00     0.297 A 
HETATM    2  C   UNL     1      77.363   8.614  16.466  1.00  0.00     0.049 A 
HETATM    3  N   UNL     1      76.943   6.381  16.089  1.00  0.00    -0.319 N 
HETATM    4  C   UNL     1      77.159   7.988  17.773  1.00  0.00     0.252 A 
HETATM    5  C   UNL     1      77.219   7.613  15.505  1.00  0.00     0.049 A 
HETATM    6  C   UNL     1      77.637   9.925  16.141  1.00  0.00     0.060 A 
HETATM    7  O   UNL     1      76.637   5.618  18.271  1.00  0.00    -0.264 OA
HETATM    8  O   UNL     1      77.199   8.524  18.855  1.00  0.00    -0.281 OA
HETATM    9  C   UNL     1      77.339   7.889  14.159  1.00  0.00     0.033 A 
HETATM   10  C   UNL     1      77.756  10.211  14.785  1.00  0.00     0.117 A 
HETATM   11  C   UNL     1      77.609   9.216  13.800  1.00  0.00     0.044 A 
HETATM   12  F   UNL     1      78.014  11.468  14.402  1.00  0.00    -0.206 F 
HETATM   13  H   UNL     1      76.815   5.543  15.588  1.00  0.00     0.169 HD
ENDROOT
TORSDOF 0
ENDMDL
MODEL 3
REMARK VINA RESULT:      -5.6      3.363      4.531
REMARK  0 active torsions:
REMARK  status: ('A' for Active; 'I' for Inactive)
ROOT
HETATM    1  C   UNL     1      76.787   6.567  17.547  1.00  0.00     0.297 A 
HETATM    2  C   UNL     1      77.132   7.627  15.424  1.00  0.00     0.049 A 
HETATM    3  N   UNL     1      77.216   7.870  17.713  1.00  0.00    -0.319 N 
HETATM    4  C   UNL     1      76.708   6.354  16.008  1.00  0.00     0.252 A 
HETATM    5  C   UNL     1      77.426   8.486  16.483  1.00  0.00     0.049 A 
HETATM    6  C   UNL     1      77.263   8.000  14.104  1.00  0.00     0.060 A 
HETATM    7  O   UNL     1      76.530   5.752  18.404  1.00  0.00    -0.264 OA
HETATM    8  O   UNL     1      76.373   5.354  15.418  1.00  0.00    -0.281 OA
HETATM    9  C   UNL     1      77.873   9.772  16.260  1.00  0.00     0.033 A 
HETATM   10  C   UNL     1      77.716   9.294  13.872  1.00  0.00     0.117 A 
HETATM   11  C   UNL     1      78.022  10.174  14.927  1.00  0.00     0.044 A 
HETATM   12  F   UNL     1      77.872   9.717  12.611  1.00  0.00    -0.206 F 
HETATM   13  H   UNL     1      77.355   8.305  18.585  1.00  0.00     0.169 HD
ENDROOT
TORSDOF 0
ENDMDL
MODEL 4
REMARK VINA RESULT:      -5.6     18.710     19.798
REMARK  0 active torsions:
REMARK  status: ('A' for Active; 'I' for Inactive)
ROOT
HETATM    1  C   UNL     1      62.951  10.561   5.370  1.00  0.00     0.297 A 
HETATM    2  C   UNL     1      62.328   9.896   3.152  1.00  0.00     0.049 A 
HETATM    3  N   UNL     1      63.327   9.254   5.126  1.00  0.00    -0.319 N 
HETATM    4  C   UNL     1      62.273  11.045   4.056  1.00  0.00     0.252 A 
HETATM    5  C   UNL     1      62.960   8.861   3.842  1.00  0.00     0.049 A 
HETATM    6  C   UNL     1      61.866   9.756   1.861  1.00  0.00     0.060 A 
HETATM    7  O   UNL     1      63.102  11.204   6.384  1.00  0.00    -0.264 OA
HETATM    8  O   UNL     1      61.798  12.132   3.828  1.00  0.00    -0.281 OA
HETATM    9  C   UNL     1      63.153   7.625   3.262  1.00  0.00     0.033 A 
HETATM   10  C   UNL     1      62.055   8.511   1.271  1.00  0.00     0.117 A 
HETATM   11  C   UNL     1      62.686   7.454   1.953  1.00  0.00     0.044 A 
HETATM   12  F   UNL     1      61.622   8.307   0.020  1.00  0.00    -0.206 F 
HETATM   13  H   UNL     1      63.792   8.677   5.774  1.00  0.00     0.169 HD
ENDROOT
TORSDOF 0
ENDMDL
MODEL 5
REMARK VINA RESULT:      -5.5     18.971     20.060
REMARK  0 active torsions:
REMARK  status: ('A' for Active; 'I' for Inactive)
ROOT
HETATM    1  C   UNL     1      62.007  11.234   3.946  1.00  0.00     0.297 A 
HETATM    2  C   UNL     1      62.626   9.011   3.297  1.00  0.00     0.049 A 
HETATM    3  N   UNL     1      61.670  10.996   2.628  1.00  0.00    -0.319 N 
HETATM    4  C   UNL     1      62.656   9.912   4.449  1.00  0.00     0.252 A 
HETATM    5  C   UNL     1      62.035   9.709   2.244  1.00  0.00     0.049 A 
HETATM    6  C   UNL     1      63.079   7.715   3.170  1.00  0.00     0.060 A 
HETATM    7  O   UNL     1      61.846  12.249   4.586  1.00  0.00    -0.264 OA
HETATM    8  O   UNL     1      63.094   9.678   5.550  1.00  0.00    -0.281 OA
HETATM    9  C   UNL     1      61.874   9.133   1.001  1.00  0.00     0.033 A 
HETATM   10  C   UNL     1      62.923   7.129   1.918  1.00  0.00     0.117 A 
HETATM   11  C   UNL     1      62.333   7.819   0.843  1.00  0.00     0.044 A 
HETATM   12  F   UNL     1      63.348   5.874   1.726  1.00  0.00    -0.206 F 
HETATM   13  H   UNL     1      61.229  11.650   2.037  1.00  0.00     0.169 HD
ENDROOT
TORSDOF 0
ENDMDL
MODEL 6
REMARK VINA RESULT:      -5.3      5.999      7.142
REMARK  0 active torsions:
REMARK  status: ('A' for Active; 'I' for Inactive)
ROOT
HETATM    1  C   UNL     1      76.796   4.659  17.753  1.00  0.00     0.297 A 
HETATM    2  C   UNL     1      75.388   2.837  17.085  1.00  0.00     0.049 A 
HETATM    3  N   UNL     1      77.307   3.455  18.198  1.00  0.00    -0.319 N 
HETATM    4  C   UNL     1      75.494   4.293  16.984  1.00  0.00     0.252 A 
HETATM    5  C   UNL     1      76.489   2.395  17.819  1.00  0.00     0.049 A 
HETATM    6  C   UNL     1      74.426   1.979  16.596  1.00  0.00     0.060 A 
HETATM    7  O   UNL     1      77.248   5.769  17.921  1.00  0.00    -0.264 OA
HETATM    8  O   UNL     1      74.730   5.045  16.427  1.00  0.00    -0.281 OA
HETATM    9  C   UNL     1      76.671   1.058  18.104  1.00  0.00     0.033 A 
HETATM   10  C   UNL     1      74.602   0.630  16.883  1.00  0.00     0.117 A 
HETATM   11  C   UNL     1      75.704   0.165  17.626  1.00  0.00     0.044 A 
HETATM   12  F   UNL     1      73.699  -0.256  16.444  1.00  0.00    -0.206 F 
HETATM   13  H   UNL     1      78.140   3.359  18.714  1.00  0.00     0.169 HD
ENDROOT
TORSDOF 0
ENDMDL
MODEL 7
REMARK VINA RESULT:      -5.1     18.100     19.283
REMARK  0 active torsions:
REMARK  status: ('A' for Active; 'I' for Inactive)
ROOT
HETATM    1  C   UNL     1      63.528   7.709   5.984  1.00  0.00     0.297 A 
HETATM    2  C   UNL     1      62.941   8.150   3.702  1.00  0.00     0.049 A 
HETATM    3  N   UNL     1      63.012   8.983   5.848  1.00  0.00    -0.319 N 
HETATM    4  C   UNL     1      63.495   7.098   4.553  1.00  0.00     0.252 A 
HETATM    5  C   UNL     1      62.677   9.247   4.523  1.00  0.00     0.049 A 
HETATM    6  C   UNL     1      62.699   8.161   2.345  1.00  0.00     0.060 A 
HETATM    7  O   UNL     1      63.930   7.170   6.990  1.00  0.00    -0.264 OA
HETATM    8  O   UNL     1      63.853   5.995   4.214  1.00  0.00    -0.281 OA
HETATM    9  C   UNL     1      62.157  10.418   4.012  1.00  0.00     0.033 A 
HETATM   10  C   UNL     1      62.178   9.340   1.822  1.00  0.00     0.117 A 
HETATM   11  C   UNL     1      61.909  10.458   2.634  1.00  0.00     0.044 A 
HETATM   12  F   UNL     1      61.926   9.419   0.509  1.00  0.00    -0.206 F 
HETATM   13  H   UNL     1      62.896   9.620   6.589  1.00  0.00     0.169 HD
ENDROOT
TORSDOF 0
ENDMDL
MODEL 8
REMARK VINA RESULT:      -5.1     12.731     13.736
REMARK  0 active torsions:
REMARK  status: ('A' for Active; 'I' for Inactive)
ROOT
HETATM    1  C   UNL     1      66.606   7.854   6.690  1.00  0.00     0.297 A 
HETATM    2  C   UNL     1      67.544   5.648   6.678  1.00  0.00     0.049 A 
HETATM    3  N   UNL     1      67.175   7.556   7.913  1.00  0.00    -0.319 N 
HETATM    4  C   UNL     1      66.836   6.590   5.812  1.00  0.00     0.252 A 
HETATM    5  C   UNL     1      67.714   6.273   7.914  1.00  0.00     0.049 A 
HETATM    6  C   UNL     1      67.989   4.367   6.425  1.00  0.00     0.060 A 
HETATM    7  O   UNL     1      66.041   8.871   6.357  1.00  0.00    -0.264 OA
HETATM    8  O   UNL     1      66.501   6.418   4.664  1.00  0.00    -0.281 OA
HETATM    9  C   UNL     1      68.339   5.632   8.963  1.00  0.00     0.033 A 
HETATM   10  C   UNL     1      68.618   3.715   7.479  1.00  0.00     0.117 A 
HETATM   11  C   UNL     1      68.794   4.328   8.734  1.00  0.00     0.044 A 
HETATM   12  F   UNL     1      69.066   2.465   7.301  1.00  0.00    -0.206 F 
HETATM   13  H   UNL     1      67.197   8.170   8.682  1.00  0.00     0.169 HD
ENDROOT
TORSDOF 0
ENDMDL
MODEL 9
REMARK VINA RESULT:      -5.0     12.057     13.173
REMARK  0 active torsions:
REMARK  status: ('A' for Active; 'I' for Inactive)
ROOT
HETATM    1  C   UNL     1      69.597   2.381  10.226  1.00  0.00     0.297 A 
HETATM    2  C   UNL     1      68.739   3.235   8.156  1.00  0.00     0.049 A 
HETATM    3  N   UNL     1      69.362   3.740  10.315  1.00  0.00    -0.319 N 
HETATM    4  C   UNL     1      69.183   1.987   8.779  1.00  0.00     0.252 A 
HETATM    5  C   UNL     1      68.872   4.241   9.113  1.00  0.00     0.049 A 
HETATM    6  C   UNL     1      68.276   3.477   6.880  1.00  0.00     0.060 A 
HETATM    7  O   UNL     1      70.035   1.642  11.078  1.00  0.00    -0.264 OA
HETATM    8  O   UNL     1      69.221   0.891   8.273  1.00  0.00    -0.281 OA
HETATM    9  C   UNL     1      68.548   5.551   8.826  1.00  0.00     0.033 A 
HETATM   10  C   UNL     1      67.950   4.795   6.584  1.00  0.00     0.117 A 
HETATM   11  C   UNL     1      68.081   5.825   7.535  1.00  0.00     0.044 A 
HETATM   12  F   UNL     1      67.500   5.099   5.359  1.00  0.00    -0.206 F 
HETATM   13  H   UNL     1      69.521   4.282  11.121  1.00  0.00     0.169 HD
ENDROOT
TORSDOF 0
ENDMDL
