MODEL 1
REMARK VINA RESULT:      -4.6      0.000      0.000
REMARK  2 active torsions:
REMARK  status: ('A' for Active; 'I' for Inactive)
REMARK    1  A    between atoms: C_1  and  S_2 
REMARK    2  A    between atoms: S_2  and  N_9 
ROOT
HETATM    1  C   UNL     1      63.302   8.770   4.351  1.00  0.00     0.105 A 
HETATM    2  C   UNL     1      62.784  10.034   4.497  1.00  0.00     0.099 A 
HETATM    3  C   UNL     1      62.977   8.218   3.070  1.00  0.00     0.058 A 
HETATM    4  S   UNL     1      61.907  10.552   3.134  1.00  0.00    -0.064 SA
HETATM    5  C   UNL     1      62.220   9.094   2.335  1.00  0.00     0.077 A 
HETATM    6 CL   UNL     1      62.916  11.109   5.835  1.00  0.00    -0.075 Cl
HETATM    7 CL   UNL     1      61.599   8.837   0.755  1.00  0.00    -0.076 Cl
ENDROOT
BRANCH   1   8
HETATM    8  S   UNL     1      64.216   7.944   5.548  1.00  0.00     0.241 S 
HETATM    9  O   UNL     1      63.342   7.862   6.693  1.00  0.00    -0.206 OA
HETATM   10  O   UNL     1      64.753   6.777   4.894  1.00  0.00    -0.206 OA
BRANCH   8  11
HETATM   11  N   UNL     1      65.516   8.903   5.995  1.00  0.00    -0.225 NA
HETATM   12  H   UNL     1      65.186   9.845   6.205  1.00  0.00     0.136 HD
HETATM   13  H   UNL     1      66.189   8.941   5.229  1.00  0.00     0.136 HD
ENDBRANCH   8  11
ENDBRANCH   1   8
TORSDOF 2
ENDMDL
MODEL 2
REMARK VINA RESULT:      -4.1     23.336     24.069
REMARK  2 active torsions:
REMARK  status: ('A' for Active; 'I' for Inactive)
REMARK    1  A    between atoms: C_1  and  S_2 
REMARK    2  A    between atoms: S_2  and  N_9 
ROOT
HETATM    1  C   UNL     1      51.013  21.244  20.549  1.00  0.00     0.105 A 
HETATM    2  C   UNL     1      50.943  20.508  21.707  1.00  0.00     0.099 A 
HETATM    3  C   UNL     1      49.709  21.523  20.027  1.00  0.00     0.058 A 
HETATM    4  S   UNL     1      49.345  20.139  22.160  1.00  0.00    -0.064 SA
HETATM    5  C   UNL     1      48.735  20.967  20.817  1.00  0.00     0.077 A 
HETATM    6 CL   UNL     1      52.222  19.945  22.711  1.00  0.00    -0.075 Cl
HETATM    7 CL   UNL     1      47.039  21.040  20.557  1.00  0.00    -0.076 Cl
ENDROOT
BRANCH   1   8
HETATM    8  S   UNL     1      52.475  21.760  19.807  1.00  0.00     0.241 S 
HETATM    9  O   UNL     1      52.949  22.843  20.635  1.00  0.00    -0.206 OA
HETATM   10  O   UNL     1      53.242  20.562  19.579  1.00  0.00    -0.206 OA
BRANCH   8  11
HETATM   11  N   UNL     1      52.118  22.414  18.305  1.00  0.00    -0.225 NA
HETATM   12  H   UNL     1      52.980  22.530  17.772  1.00  0.00     0.136 HD
HETATM   13  H   UNL     1      51.669  23.322  18.428  1.00  0.00     0.136 HD
ENDBRANCH   8  11
ENDBRANCH   1   8
TORSDOF 2
ENDMDL
MODEL 3
REMARK VINA RESULT:      -4.1      5.815      6.826
REMARK  2 active torsions:
REMARK  status: ('A' for Active; 'I' for Inactive)
REMARK    1  A    between atoms: C_1  and  S_2 
REMARK    2  A    between atoms: S_2  and  N_9 
ROOT
HETATM    1  C   UNL     1      66.875   5.911   7.089  1.00  0.00     0.105 A 
HETATM    2  C   UNL     1      67.188   5.719   8.412  1.00  0.00     0.099 A 
HETATM    3  C   UNL     1      67.429   4.879   6.265  1.00  0.00     0.058 A 
HETATM    4  S   UNL     1      68.145   4.336   8.672  1.00  0.00    -0.064 SA
HETATM    5  C   UNL     1      68.141   3.980   7.018  1.00  0.00     0.077 A 
HETATM    6 CL   UNL     1      66.743   6.666   9.778  1.00  0.00    -0.075 Cl
HETATM    7 CL   UNL     1      68.982   2.599   6.440  1.00  0.00    -0.076 Cl
ENDROOT
BRANCH   1   8
HETATM    8  S   UNL     1      65.945   7.224   6.486  1.00  0.00     0.241 S 
HETATM    9  O   UNL     1      65.983   7.079   5.051  1.00  0.00    -0.206 OA
HETATM   10  O   UNL     1      64.715   7.209   7.238  1.00  0.00    -0.206 OA
BRANCH   8  11
HETATM   11  N   UNL     1      66.731   8.659   6.852  1.00  0.00    -0.225 NA
HETATM   12  H   UNL     1      66.043   9.401   6.977  1.00  0.00     0.136 HD
HETATM   13  H   UNL     1      67.363   8.904   6.089  1.00  0.00     0.136 HD
ENDBRANCH   8  11
ENDBRANCH   1   8
TORSDOF 2
ENDMDL
MODEL 4
REMARK VINA RESULT:      -4.1      5.988      7.325
REMARK  2 active torsions:
REMARK  status: ('A' for Active; 'I' for Inactive)
REMARK    1  A    between atoms: C_1  and  S_2 
REMARK    2  A    between atoms: S_2  and  N_9 
ROOT
HETATM    1  C   UNL     1      67.451   6.277   7.047  1.00  0.00     0.105 A 
HETATM    2  C   UNL     1      67.592   5.173   6.242  1.00  0.00     0.099 A 
HETATM    3  C   UNL     1      67.983   6.041   8.356  1.00  0.00     0.058 A 
HETATM    4  S   UNL     1      68.334   3.864   7.038  1.00  0.00    -0.064 SA
HETATM    5  C   UNL     1      68.479   4.766   8.462  1.00  0.00     0.077 A 
HETATM    6 CL   UNL     1      67.133   4.968   4.597  1.00  0.00    -0.075 Cl
HETATM    7 CL   UNL     1      69.193   4.056   9.852  1.00  0.00    -0.076 Cl
ENDROOT
BRANCH   1   8
HETATM    8  S   UNL     1      66.722   7.755   6.560  1.00  0.00     0.241 S 
HETATM    9  O   UNL     1      67.420   8.133   5.355  1.00  0.00    -0.206 OA
HETATM   10  O   UNL     1      65.300   7.519   6.596  1.00  0.00    -0.206 OA
BRANCH   8  11
HETATM   11  N   UNL     1      67.059   8.929   7.708  1.00  0.00    -0.225 NA
HETATM   12  H   UNL     1      68.069   9.051   7.782  1.00  0.00     0.136 HD
HETATM   13  H   UNL     1      66.683   8.638   8.611  1.00  0.00     0.136 HD
ENDBRANCH   8  11
ENDBRANCH   1   8
TORSDOF 2
ENDMDL
MODEL 5
REMARK VINA RESULT:      -4.0      2.780      3.325
REMARK  2 active torsions:
REMARK  status: ('A' for Active; 'I' for Inactive)
REMARK    1  A    between atoms: C_1  and  S_2 
REMARK    2  A    between atoms: S_2  and  N_9 
ROOT
HETATM    1  C   UNL     1      65.106   7.946   4.815  1.00  0.00     0.105 A 
HETATM    2  C   UNL     1      64.735   7.082   3.814  1.00  0.00     0.099 A 
HETATM    3  C   UNL     1      64.145   8.995   4.983  1.00  0.00     0.058 A 
HETATM    4  S   UNL     1      63.270   7.522   3.068  1.00  0.00    -0.064 SA
HETATM    5  C   UNL     1      63.116   8.865   4.085  1.00  0.00     0.077 A 
HETATM    6 CL   UNL     1      65.540   5.668   3.252  1.00  0.00    -0.075 Cl
HETATM    7 CL   UNL     1      61.761   9.907   3.922  1.00  0.00    -0.076 Cl
ENDROOT
BRANCH   1   8
HETATM    8  S   UNL     1      66.541   7.802   5.749  1.00  0.00     0.241 S 
HETATM    9  O   UNL     1      66.500   8.913   6.669  1.00  0.00    -0.206 OA
HETATM   10  O   UNL     1      66.586   6.429   6.188  1.00  0.00    -0.206 OA
BRANCH   8  11
HETATM   11  N   UNL     1      67.865   8.045   4.749  1.00  0.00    -0.225 NA
HETATM   12  H   UNL     1      68.522   8.678   5.204  1.00  0.00     0.136 HD
HETATM   13  H   UNL     1      67.553   8.453   3.867  1.00  0.00     0.136 HD
ENDBRANCH   8  11
ENDBRANCH   1   8
TORSDOF 2
ENDMDL
MODEL 6
REMARK VINA RESULT:      -4.0     19.744     20.457
REMARK  2 active torsions:
REMARK  status: ('A' for Active; 'I' for Inactive)
REMARK    1  A    between atoms: C_1  and  S_2 
REMARK    2  A    between atoms: S_2  and  N_9 
ROOT
HETATM    1  C   UNL     1      76.554   1.627  17.934  1.00  0.00     0.105 A 
HETATM    2  C   UNL     1      75.351   1.780  17.288  1.00  0.00     0.099 A 
HETATM    3  C   UNL     1      77.204   2.888  18.133  1.00  0.00     0.058 A 
HETATM    4  S   UNL     1      75.006   3.402  16.906  1.00  0.00    -0.064 SA
HETATM    5  C   UNL     1      76.458   3.913  17.609  1.00  0.00     0.077 A 
HETATM    6 CL   UNL     1      74.202   0.579  16.842  1.00  0.00    -0.075 Cl
HETATM    7 CL   UNL     1      76.864   5.581  17.611  1.00  0.00    -0.076 Cl
ENDROOT
BRANCH   1   8
HETATM    8  S   UNL     1      77.208   0.120  18.436  1.00  0.00     0.241 S 
HETATM    9  O   UNL     1      76.348  -0.320  19.508  1.00  0.00    -0.206 OA
HETATM   10  O   UNL     1      77.401  -0.644  17.229  1.00  0.00    -0.206 OA
BRANCH   8  11
HETATM   11  N   UNL     1      78.724   0.383  19.103  1.00  0.00    -0.225 NA
HETATM   12  H   UNL     1      78.746   0.011  20.053  1.00  0.00     0.136 HD
HETATM   13  H   UNL     1      78.916   1.385  19.125  1.00  0.00     0.136 HD
ENDBRANCH   8  11
ENDBRANCH   1   8
TORSDOF 2
ENDMDL
MODEL 7
REMARK VINA RESULT:      -4.0      2.555      3.031
REMARK  2 active torsions:
REMARK  status: ('A' for Active; 'I' for Inactive)
REMARK    1  A    between atoms: C_1  and  S_2 
REMARK    2  A    between atoms: S_2  and  N_9 
ROOT
HETATM    1  C   UNL     1      64.140   8.071   5.284  1.00  0.00     0.105 A 
HETATM    2  C   UNL     1      63.155   7.208   4.869  1.00  0.00     0.099 A 
HETATM    3  C   UNL     1      63.841   9.422   4.912  1.00  0.00     0.058 A 
HETATM    4  S   UNL     1      61.897   7.991   4.032  1.00  0.00    -0.064 SA
HETATM    5  C   UNL     1      62.655   9.491   4.226  1.00  0.00     0.077 A 
HETATM    6 CL   UNL     1      63.046   5.505   5.089  1.00  0.00    -0.075 Cl
HETATM    7 CL   UNL     1      61.925  10.905   3.582  1.00  0.00    -0.076 Cl
ENDROOT
BRANCH   1   8
HETATM    8  S   UNL     1      65.558   7.601   6.132  1.00  0.00     0.241 S 
HETATM    9  O   UNL     1      66.165   6.584   5.307  1.00  0.00    -0.206 OA
HETATM   10  O   UNL     1      66.232   8.827   6.477  1.00  0.00    -0.206 OA
BRANCH   8  11
HETATM   11  N   UNL     1      65.110   6.861   7.568  1.00  0.00    -0.225 NA
HETATM   12  H   UNL     1      65.931   6.443   8.005  1.00  0.00     0.136 HD
HETATM   13  H   UNL     1      64.419   6.135   7.375  1.00  0.00     0.136 HD
ENDBRANCH   8  11
ENDBRANCH   1   8
TORSDOF 2
ENDMDL
MODEL 8
REMARK VINA RESULT:      -3.9      5.336      6.646
REMARK  2 active torsions:
REMARK  status: ('A' for Active; 'I' for Inactive)
REMARK    1  A    between atoms: C_1  and  S_2 
REMARK    2  A    between atoms: S_2  and  N_9 
ROOT
HETATM    1  C   UNL     1      66.253   6.208   6.843  1.00  0.00     0.105 A 
HETATM    2  C   UNL     1      65.896   4.920   7.158  1.00  0.00     0.099 A 
HETATM    3  C   UNL     1      67.583   6.505   7.284  1.00  0.00     0.058 A 
HETATM    4  S   UNL     1      67.122   4.077   7.984  1.00  0.00    -0.064 SA
HETATM    5  C   UNL     1      68.142   5.425   7.919  1.00  0.00     0.077 A 
HETATM    6 CL   UNL     1      64.424   4.094   6.827  1.00  0.00    -0.075 Cl
HETATM    7 CL   UNL     1      69.709   5.344   8.616  1.00  0.00    -0.076 Cl
ENDROOT
BRANCH   1   8
HETATM    8  S   UNL     1      65.238   7.333   6.032  1.00  0.00     0.241 S 
HETATM    9  O   UNL     1      65.902   8.606   6.177  1.00  0.00    -0.206 OA
HETATM   10  O   UNL     1      64.954   6.746   4.746  1.00  0.00    -0.206 OA
BRANCH   8  11
HETATM   11  N   UNL     1      63.784   7.444   6.859  1.00  0.00    -0.225 NA
HETATM   12  H   UNL     1      63.493   6.514   7.161  1.00  0.00     0.136 HD
HETATM   13  H   UNL     1      63.073   7.840   6.243  1.00  0.00     0.136 HD
ENDBRANCH   8  11
ENDBRANCH   1   8
TORSDOF 2
ENDMDL
MODEL 9
REMARK VINA RESULT:      -3.8      5.496      6.272
REMARK  2 active torsions:
REMARK  status: ('A' for Active; 'I' for Inactive)
REMARK    1  A    between atoms: C_1  and  S_2 
REMARK    2  A    between atoms: S_2  and  N_9 
ROOT
HETATM    1  C   UNL     1      66.844   5.822   6.481  1.00  0.00     0.105 A 
HETATM    2  C   UNL     1      66.541   5.720   5.145  1.00  0.00     0.099 A 
HETATM    3  C   UNL     1      67.634   4.713   6.924  1.00  0.00     0.058 A 
HETATM    4  S   UNL     1      67.175   4.313   4.428  1.00  0.00    -0.064 SA
HETATM    5  C   UNL     1      67.866   3.834   5.896  1.00  0.00     0.077 A 
HETATM    6 CL   UNL     1      65.641   6.800   4.154  1.00  0.00    -0.075 Cl
HETATM    7 CL   UNL     1      68.752   2.365   5.984  1.00  0.00    -0.076 Cl
ENDROOT
BRANCH   1   8
HETATM    8  S   UNL     1      66.336   7.107   7.502  1.00  0.00     0.241 S 
HETATM    9  O   UNL     1      64.894   7.079   7.447  1.00  0.00    -0.206 OA
HETATM   10  O   UNL     1      67.071   6.942   8.731  1.00  0.00    -0.206 OA
BRANCH   8  11
HETATM   11  N   UNL     1      66.823   8.561   6.825  1.00  0.00    -0.225 NA
HETATM   12  H   UNL     1      66.398   8.665   5.904  1.00  0.00     0.136 HD
HETATM   13  H   UNL     1      67.839   8.571   6.735  1.00  0.00     0.136 HD
ENDBRANCH   8  11
ENDBRANCH   1   8
TORSDOF 2
ENDMDL
