MODEL 1
REMARK VINA RESULT:      -6.0      0.000      0.000
REMARK  4 active torsions:
REMARK  status: ('A' for Active; 'I' for Inactive)
REMARK    1  A    between atoms: C_1  and  C_6 
REMARK    2  A    between atoms: C_2  and  C_5 
REMARK    3  A    between atoms: C_4  and  O_8 
REMARK    4  A    between atoms: C_5  and  C_6 
ROOT
HETATM    1  C   UNL     1      77.991  11.117  19.481  1.00  0.00    -0.025 A 
HETATM    2  C   UNL     1      78.700  11.738  20.517  1.00  0.00     0.071 A 
HETATM    3  C   UNL     1      76.781  11.711  19.070  1.00  0.00     0.010 A 
HETATM    4  C   UNL     1      78.245  12.929  21.087  1.00  0.00     0.037 A 
HETATM    5  C   UNL     1      76.327  12.904  19.635  1.00  0.00     0.001 A 
HETATM    6  C   UNL     1      77.063  13.518  20.641  1.00  0.00     0.003 A 
ENDROOT
BRANCH   1   7
HETATM    7  C   UNL     1      78.454   9.866  18.767  1.00  0.00     0.052 C 
BRANCH   7   8
HETATM    8  C   UNL     1      77.669   9.613  17.478  1.00  0.00     0.118 C 
BRANCH   8   9
HETATM    9  C   UNL     1      77.104   8.224  17.451  1.00  0.00     0.172 C 
HETATM   10  O   UNL     1      76.671   7.586  18.395  1.00  0.00    -0.648 OA
HETATM   11  O   UNL     1      77.149   7.686  16.217  1.00  0.00    -0.648 OA
ENDBRANCH   8   9
ENDBRANCH   7   8
ENDBRANCH   1   7
BRANCH   2  12
HETATM   12  O   UNL     1      79.866  11.257  21.039  1.00  0.00    -0.360 OA
HETATM   13  H   UNL     1      80.096  10.356  20.923  1.00  0.00     0.217 HD
ENDBRANCH   2  12
TORSDOF 4
ENDMDL
MODEL 2
REMARK VINA RESULT:      -5.9     14.455     15.142
REMARK  4 active torsions:
REMARK  status: ('A' for Active; 'I' for Inactive)
REMARK    1  A    between atoms: C_1  and  C_6 
REMARK    2  A    between atoms: C_2  and  C_5 
REMARK    3  A    between atoms: C_4  and  O_8 
REMARK    4  A    between atoms: C_5  and  C_6 
ROOT
HETATM    1  C   UNL     1      71.504  23.222  13.669  1.00  0.00    -0.025 A 
HETATM    2  C   UNL     1      72.586  24.107  13.769  1.00  0.00     0.071 A 
HETATM    3  C   UNL     1      70.312  23.571  14.333  1.00  0.00     0.010 A 
HETATM    4  C   UNL     1      72.467  25.313  14.464  1.00  0.00     0.037 A 
HETATM    5  C   UNL     1      70.189  24.778  15.023  1.00  0.00     0.001 A 
HETATM    6  C   UNL     1      71.267  25.654  15.084  1.00  0.00     0.003 A 
ENDROOT
BRANCH   1   7
HETATM    7  C   UNL     1      71.534  21.933  12.877  1.00  0.00     0.052 C 
BRANCH   7   8
HETATM    8  C   UNL     1      71.245  22.162  11.392  1.00  0.00     0.118 C 
BRANCH   8   9
HETATM    9  C   UNL     1      71.603  20.954  10.577  1.00  0.00     0.172 C 
HETATM   10  O   UNL     1      70.880  20.014  10.296  1.00  0.00    -0.648 OA
HETATM   11  O   UNL     1      72.891  20.977  10.181  1.00  0.00    -0.648 OA
ENDBRANCH   8   9
ENDBRANCH   7   8
ENDBRANCH   1   7
BRANCH   2  12
HETATM   12  O   UNL     1      73.810  23.882  13.207  1.00  0.00    -0.360 OA
HETATM   13  H   UNL     1      74.411  24.592  13.093  1.00  0.00     0.217 HD
ENDBRANCH   2  12
TORSDOF 4
ENDMDL
MODEL 3
REMARK VINA RESULT:      -5.7     12.559     14.259
REMARK  4 active torsions:
REMARK  status: ('A' for Active; 'I' for Inactive)
REMARK    1  A    between atoms: C_1  and  C_6 
REMARK    2  A    between atoms: C_2  and  C_5 
REMARK    3  A    between atoms: C_4  and  O_8 
REMARK    4  A    between atoms: C_5  and  C_6 
ROOT
HETATM    1  C   UNL     1      72.448  23.020  13.814  1.00  0.00    -0.025 A 
HETATM    2  C   UNL     1      71.719  22.392  12.795  1.00  0.00     0.071 A 
HETATM    3  C   UNL     1      71.748  23.883  14.680  1.00  0.00     0.010 A 
HETATM    4  C   UNL     1      70.341  22.581  12.675  1.00  0.00     0.037 A 
HETATM    5  C   UNL     1      70.369  24.069  14.565  1.00  0.00     0.001 A 
HETATM    6  C   UNL     1      69.663  23.412  13.564  1.00  0.00     0.003 A 
ENDROOT
BRANCH   1   7
HETATM    7  C   UNL     1      73.927  22.811  14.051  1.00  0.00     0.052 C 
BRANCH   7   8
HETATM    8  C   UNL     1      74.238  22.500  15.517  1.00  0.00     0.118 C 
BRANCH   8   9
HETATM    9  C   UNL     1      75.435  21.605  15.641  1.00  0.00     0.172 C 
HETATM   10  O   UNL     1      76.506  21.723  15.072  1.00  0.00    -0.648 OA
HETATM   11  O   UNL     1      75.201  20.563  16.463  1.00  0.00    -0.648 OA
ENDBRANCH   8   9
ENDBRANCH   7   8
ENDBRANCH   1   7
BRANCH   2  12
HETATM   12  O   UNL     1      72.271  21.559  11.864  1.00  0.00    -0.360 OA
HETATM   13  H   UNL     1      71.720  21.083  11.276  1.00  0.00     0.217 HD
ENDBRANCH   2  12
TORSDOF 4
ENDMDL
MODEL 4
REMARK VINA RESULT:      -5.3     19.289     21.173
REMARK  4 active torsions:
REMARK  status: ('A' for Active; 'I' for Inactive)
REMARK    1  A    between atoms: C_1  and  C_6 
REMARK    2  A    between atoms: C_2  and  C_5 
REMARK    3  A    between atoms: C_4  and  O_8 
REMARK    4  A    between atoms: C_5  and  C_6 
ROOT
HETATM    1  C   UNL     1      62.518   9.259   3.800  1.00  0.00    -0.025 A 
HETATM    2  C   UNL     1      62.352  10.590   4.202  1.00  0.00     0.071 A 
HETATM    3  C   UNL     1      62.244   8.944   2.454  1.00  0.00     0.010 A 
HETATM    4  C   UNL     1      61.974  11.576   3.288  1.00  0.00     0.037 A 
HETATM    5  C   UNL     1      61.871   9.930   1.538  1.00  0.00     0.001 A 
HETATM    6  C   UNL     1      61.742  11.250   1.954  1.00  0.00     0.003 A 
ENDROOT
BRANCH   1   7
HETATM    7  C   UNL     1      62.992   8.150   4.713  1.00  0.00     0.052 C 
BRANCH   7   8
HETATM    8  C   UNL     1      64.440   7.746   4.426  1.00  0.00     0.118 C 
BRANCH   8   9
HETATM    9  C   UNL     1      65.403   8.568   5.230  1.00  0.00     0.172 C 
HETATM   10  O   UNL     1      65.134   9.466   6.009  1.00  0.00    -0.648 OA
HETATM   11  O   UNL     1      66.684   8.234   4.977  1.00  0.00    -0.648 OA
ENDBRANCH   8   9
ENDBRANCH   7   8
ENDBRANCH   1   7
BRANCH   2  12
HETATM   12  O   UNL     1      62.547  11.031   5.480  1.00  0.00    -0.360 OA
HETATM   13  H   UNL     1      63.398  11.311   5.754  1.00  0.00     0.217 HD
ENDBRANCH   2  12
TORSDOF 4
ENDMDL
MODEL 5
REMARK VINA RESULT:      -5.3     14.519     15.233
REMARK  4 active torsions:
REMARK  status: ('A' for Active; 'I' for Inactive)
REMARK    1  A    between atoms: C_1  and  C_6 
REMARK    2  A    between atoms: C_2  and  C_5 
REMARK    3  A    between atoms: C_4  and  O_8 
REMARK    4  A    between atoms: C_5  and  C_6 
ROOT
HETATM    1  C   UNL     1      71.111  23.209  13.381  1.00  0.00    -0.025 A 
HETATM    2  C   UNL     1      70.366  24.058  14.208  1.00  0.00     0.071 A 
HETATM    3  C   UNL     1      72.507  23.398  13.338  1.00  0.00     0.010 A 
HETATM    4  C   UNL     1      70.992  25.026  14.997  1.00  0.00     0.037 A 
HETATM    5  C   UNL     1      73.135  24.361  14.130  1.00  0.00     0.001 A 
HETATM    6  C   UNL     1      72.377  25.173  14.966  1.00  0.00     0.003 A 
ENDROOT
BRANCH   1   7
HETATM    7  C   UNL     1      70.514  22.093  12.552  1.00  0.00     0.052 C 
BRANCH   7   8
HETATM    8  C   UNL     1      71.094  22.051  11.137  1.00  0.00     0.118 C 
BRANCH   8   9
HETATM    9  C   UNL     1      71.412  20.645  10.722  1.00  0.00     0.172 C 
HETATM   10  O   UNL     1      70.711  19.658  10.863  1.00  0.00    -0.648 OA
HETATM   11  O   UNL     1      72.640  20.547  10.174  1.00  0.00    -0.648 OA
ENDBRANCH   8   9
ENDBRANCH   7   8
ENDBRANCH   1   7
BRANCH   2  12
HETATM   12  O   UNL     1      69.006  24.013  14.322  1.00  0.00    -0.360 OA
HETATM   13  H   UNL     1      68.512  23.405  13.808  1.00  0.00     0.217 HD
ENDBRANCH   2  12
TORSDOF 4
ENDMDL
MODEL 6
REMARK VINA RESULT:      -5.2     20.333     21.514
REMARK  4 active torsions:
REMARK  status: ('A' for Active; 'I' for Inactive)
REMARK    1  A    between atoms: C_1  and  C_6 
REMARK    2  A    between atoms: C_2  and  C_5 
REMARK    3  A    between atoms: C_4  and  O_8 
REMARK    4  A    between atoms: C_5  and  C_6 
ROOT
HETATM    1  C   UNL     1      62.755   9.063   3.665  1.00  0.00    -0.025 A 
HETATM    2  C   UNL     1      62.563  10.244   4.393  1.00  0.00     0.071 A 
HETATM    3  C   UNL     1      62.370   9.060   2.310  1.00  0.00     0.010 A 
HETATM    4  C   UNL     1      62.052  11.391   3.780  1.00  0.00     0.037 A 
HETATM    5  C   UNL     1      61.864  10.207   1.695  1.00  0.00     0.001 A 
HETATM    6  C   UNL     1      61.711  11.377   2.430  1.00  0.00     0.003 A 
ENDROOT
BRANCH   1   7
HETATM    7  C   UNL     1      63.366   7.804   4.239  1.00  0.00     0.052 C 
BRANCH   7   8
HETATM    8  C   UNL     1      62.311   6.869   4.834  1.00  0.00     0.118 C 
BRANCH   8   9
HETATM    9  C   UNL     1      62.240   7.011   6.326  1.00  0.00     0.172 C 
HETATM   10  O   UNL     1      62.877   7.779   7.025  1.00  0.00    -0.648 OA
HETATM   11  O   UNL     1      61.379   6.131   6.875  1.00  0.00    -0.648 OA
ENDBRANCH   8   9
ENDBRANCH   7   8
ENDBRANCH   1   7
BRANCH   2  12
HETATM   12  O   UNL     1      62.856  10.381   5.719  1.00  0.00    -0.360 OA
HETATM   13  H   UNL     1      62.623   9.704   6.323  1.00  0.00     0.217 HD
ENDBRANCH   2  12
TORSDOF 4
ENDMDL
MODEL 7
REMARK VINA RESULT:      -5.1     18.212     20.136
REMARK  4 active torsions:
REMARK  status: ('A' for Active; 'I' for Inactive)
REMARK    1  A    between atoms: C_1  and  C_6 
REMARK    2  A    between atoms: C_2  and  C_5 
REMARK    3  A    between atoms: C_4  and  O_8 
REMARK    4  A    between atoms: C_5  and  C_6 
ROOT
HETATM    1  C   UNL     1      64.405   7.886   4.749  1.00  0.00    -0.025 A 
HETATM    2  C   UNL     1      65.610   8.282   5.343  1.00  0.00     0.071 A 
HETATM    3  C   UNL     1      64.458   6.854   3.790  1.00  0.00     0.010 A 
HETATM    4  C   UNL     1      66.812   7.644   5.029  1.00  0.00     0.037 A 
HETATM    5  C   UNL     1      65.657   6.211   3.478  1.00  0.00     0.001 A 
HETATM    6  C   UNL     1      66.836   6.602   4.103  1.00  0.00     0.003 A 
ENDROOT
BRANCH   1   7
HETATM    7  C   UNL     1      63.056   8.480   5.089  1.00  0.00     0.052 C 
BRANCH   7   8
HETATM    8  C   UNL     1      62.660   9.600   4.125  1.00  0.00     0.118 C 
BRANCH   8   9
HETATM    9  C   UNL     1      62.544  10.915   4.838  1.00  0.00     0.172 C 
HETATM   10  O   UNL     1      61.943  11.906   4.463  1.00  0.00    -0.648 OA
HETATM   11  O   UNL     1      63.238  10.924   5.993  1.00  0.00    -0.648 OA
ENDBRANCH   8   9
ENDBRANCH   7   8
ENDBRANCH   1   7
BRANCH   2  12
HETATM   12  O   UNL     1      65.714   9.289   6.260  1.00  0.00    -0.360 OA
HETATM   13  H   UNL     1      65.517  10.171   6.012  1.00  0.00     0.217 HD
ENDBRANCH   2  12
TORSDOF 4
ENDMDL
MODEL 8
REMARK VINA RESULT:      -4.9     19.472     21.495
REMARK  4 active torsions:
REMARK  status: ('A' for Active; 'I' for Inactive)
REMARK    1  A    between atoms: C_1  and  C_6 
REMARK    2  A    between atoms: C_2  and  C_5 
REMARK    3  A    between atoms: C_4  and  O_8 
REMARK    4  A    between atoms: C_5  and  C_6 
ROOT
HETATM    1  C   UNL     1      62.488   8.999   3.642  1.00  0.00    -0.025 A 
HETATM    2  C   UNL     1      62.361   8.921   2.249  1.00  0.00     0.071 A 
HETATM    3  C   UNL     1      62.281  10.254   4.248  1.00  0.00     0.010 A 
HETATM    4  C   UNL     1      61.996  10.039   1.496  1.00  0.00     0.037 A 
HETATM    5  C   UNL     1      61.912  11.372   3.497  1.00  0.00     0.001 A 
HETATM    6  C   UNL     1      61.763  11.263   2.119  1.00  0.00     0.003 A 
ENDROOT
BRANCH   1   7
HETATM    7  C   UNL     1      62.810   7.818   4.531  1.00  0.00     0.052 C 
BRANCH   7   8
HETATM    8  C   UNL     1      64.310   7.519   4.573  1.00  0.00     0.118 C 
BRANCH   8   9
HETATM    9  C   UNL     1      64.955   8.143   5.775  1.00  0.00     0.172 C 
HETATM   10  O   UNL     1      65.407   9.271   5.866  1.00  0.00    -0.648 OA
HETATM   11  O   UNL     1      65.033   7.283   6.808  1.00  0.00    -0.648 OA
ENDBRANCH   8   9
ENDBRANCH   7   8
ENDBRANCH   1   7
BRANCH   2  12
HETATM   12  O   UNL     1      62.566   7.780   1.527  1.00  0.00    -0.360 OA
HETATM   13  H   UNL     1      61.946   7.520   0.875  1.00  0.00     0.217 HD
ENDBRANCH   2  12
TORSDOF 4
ENDMDL
MODEL 9
REMARK VINA RESULT:      -4.8     20.473     22.662
REMARK  4 active torsions:
REMARK  status: ('A' for Active; 'I' for Inactive)
REMARK    1  A    between atoms: C_1  and  C_6 
REMARK    2  A    between atoms: C_2  and  C_5 
REMARK    3  A    between atoms: C_4  and  O_8 
REMARK    4  A    between atoms: C_5  and  C_6 
ROOT
HETATM    1  C   UNL     1      62.292   8.312   2.991  1.00  0.00    -0.025 A 
HETATM    2  C   UNL     1      61.876   9.174   1.968  1.00  0.00     0.071 A 
HETATM    3  C   UNL     1      62.824   7.062   2.616  1.00  0.00     0.010 A 
HETATM    4  C   UNL     1      62.028   8.822   0.625  1.00  0.00     0.037 A 
HETATM    5  C   UNL     1      62.981   6.711   1.274  1.00  0.00     0.001 A 
HETATM    6  C   UNL     1      62.588   7.596   0.276  1.00  0.00     0.003 A 
ENDROOT
BRANCH   1   7
HETATM    7  C   UNL     1      62.226   8.650   4.464  1.00  0.00     0.052 C 
BRANCH   7   8
HETATM    8  C   UNL     1      63.374   9.564   4.898  1.00  0.00     0.118 C 
BRANCH   8   9
HETATM    9  C   UNL     1      62.868  10.917   5.303  1.00  0.00     0.172 C 
HETATM   10  O   UNL     1      62.105  11.635   4.681  1.00  0.00    -0.648 OA
HETATM   11  O   UNL     1      63.389  11.319   6.479  1.00  0.00    -0.648 OA
ENDBRANCH   8   9
ENDBRANCH   7   8
ENDBRANCH   1   7
BRANCH   2  12
HETATM   12  O   UNL     1      61.311  10.399   2.184  1.00  0.00    -0.360 OA
HETATM   13  H   UNL     1      61.129  10.684   3.057  1.00  0.00     0.217 HD
ENDBRANCH   2  12
TORSDOF 4
ENDMDL
