MODEL 1
REMARK VINA RESULT:      -4.5      0.000      0.000
REMARK  4 active torsions:
REMARK  status: ('A' for Active; 'I' for Inactive)
REMARK    1  A    between atoms: C_1  and  O_8 
REMARK    2  A    between atoms: C_3  and  C_10 
REMARK    3  A    between atoms: C_4  and  O_9 
REMARK    4  A    between atoms: C_10  and  O_11 
ROOT
HETATM    1  C   UNL     1      62.571   8.965   2.666  1.00  0.00     0.123 A 
HETATM    2  C   UNL     1      62.517  10.080   3.547  1.00  0.00     0.078 A 
HETATM    3  C   UNL     1      63.087  10.012   4.845  1.00  0.00    -0.010 A 
HETATM    4  C   UNL     1      63.209   7.787   3.124  1.00  0.00     0.103 A 
HETATM    5  C   UNL     1      63.696   8.824   5.263  1.00  0.00     0.014 A 
HETATM    6  C   UNL     1      63.760   7.732   4.410  1.00  0.00     0.040 A 
HETATM    7 CL   UNL     1      61.749  11.586   3.133  1.00  0.00    -0.081 Cl
ENDROOT
BRANCH   3   8
HETATM    8  C   UNL     1      63.037  11.144   5.845  1.00  0.00     0.204 C 
BRANCH   8   9
HETATM    9  O   UNL     1      64.338  11.406   6.353  1.00  0.00    -0.396 OA
HETATM   10  H   UNL     1      64.950  11.554   5.615  1.00  0.00     0.209 HD
ENDBRANCH   8   9
ENDBRANCH   3   8
BRANCH   1  11
HETATM   11  O   UNL     1      62.062   8.868   1.402  1.00  0.00    -0.351 OA
HETATM   12  C   UNL     1      60.724   8.526   1.104  1.00  0.00     0.210 C 
ENDBRANCH   1  11
BRANCH   4  13
HETATM   13  O   UNL     1      63.390   6.589   2.473  1.00  0.00    -0.353 OA
HETATM   14  C   UNL     1      62.614   5.456   2.822  1.00  0.00     0.210 C 
ENDBRANCH   4  13
TORSDOF 4
ENDMDL
MODEL 2
REMARK VINA RESULT:      -4.5      1.539      2.803
REMARK  4 active torsions:
REMARK  status: ('A' for Active; 'I' for Inactive)
REMARK    1  A    between atoms: C_1  and  O_8 
REMARK    2  A    between atoms: C_3  and  C_10 
REMARK    3  A    between atoms: C_4  and  O_9 
REMARK    4  A    between atoms: C_10  and  O_11 
ROOT
HETATM    1  C   UNL     1      62.672   8.444   3.091  1.00  0.00     0.123 A 
HETATM    2  C   UNL     1      62.962   9.026   4.356  1.00  0.00     0.078 A 
HETATM    3  C   UNL     1      62.648  10.384   4.624  1.00  0.00    -0.010 A 
HETATM    4  C   UNL     1      62.062   9.260   2.109  1.00  0.00     0.103 A 
HETATM    5  C   UNL     1      62.058  11.160   3.620  1.00  0.00     0.014 A 
HETATM    6  C   UNL     1      61.764  10.601   2.385  1.00  0.00     0.040 A 
HETATM    7 CL   UNL     1      63.729   8.154   5.652  1.00  0.00    -0.081 Cl
ENDROOT
BRANCH   3   8
HETATM    8  C   UNL     1      62.958  11.076   5.931  1.00  0.00     0.204 C 
BRANCH   8   9
HETATM    9  O   UNL     1      64.351  11.339   6.026  1.00  0.00    -0.396 OA
HETATM   10  H   UNL     1      64.815  10.897   5.296  1.00  0.00     0.209 HD
ENDBRANCH   8   9
ENDBRANCH   3   8
BRANCH   1  11
HETATM   11  O   UNL     1      62.924   7.166   2.677  1.00  0.00    -0.351 OA
HETATM   12  C   UNL     1      62.180   6.036   3.082  1.00  0.00     0.210 C 
ENDBRANCH   1  11
BRANCH   4  13
HETATM   13  O   UNL     1      61.686   8.940   0.826  1.00  0.00    -0.353 OA
HETATM   14  C   UNL     1      60.509   8.187   0.588  1.00  0.00     0.210 C 
ENDBRANCH   4  13
TORSDOF 4
ENDMDL
MODEL 3
REMARK VINA RESULT:      -4.4     20.952     22.949
REMARK  4 active torsions:
REMARK  status: ('A' for Active; 'I' for Inactive)
REMARK    1  A    between atoms: C_1  and  O_8 
REMARK    2  A    between atoms: C_3  and  C_10 
REMARK    3  A    between atoms: C_4  and  O_9 
REMARK    4  A    between atoms: C_10  and  O_11 
ROOT
HETATM    1  C   UNL     1      78.107  11.332  19.342  1.00  0.00     0.123 A 
HETATM    2  C   UNL     1      79.161  11.284  20.297  1.00  0.00     0.078 A 
HETATM    3  C   UNL     1      79.190  12.181  21.396  1.00  0.00    -0.010 A 
HETATM    4  C   UNL     1      77.092  12.302  19.522  1.00  0.00     0.103 A 
HETATM    5  C   UNL     1      78.175  13.134  21.528  1.00  0.00     0.014 A 
HETATM    6  C   UNL     1      77.139  13.185  20.607  1.00  0.00     0.040 A 
HETATM    7 CL   UNL     1      80.487  10.162  20.196  1.00  0.00    -0.081 Cl
ENDROOT
BRANCH   3   8
HETATM    8  C   UNL     1      80.294  12.209  22.427  1.00  0.00     0.204 C 
BRANCH   8   9
HETATM    9  O   UNL     1      81.441  12.861  21.899  1.00  0.00    -0.396 OA
HETATM   10  H   UNL     1      82.033  12.203  21.502  1.00  0.00     0.209 HD
ENDBRANCH   8   9
ENDBRANCH   3   8
BRANCH   1  11
HETATM   11  O   UNL     1      77.944  10.554  18.231  1.00  0.00    -0.351 OA
HETATM   12  C   UNL     1      77.459   9.227  18.250  1.00  0.00     0.210 C 
ENDBRANCH   1  11
BRANCH   4  13
HETATM   13  O   UNL     1      75.981  12.549  18.750  1.00  0.00    -0.353 OA
HETATM   14  C   UNL     1      76.121  12.998  17.413  1.00  0.00     0.210 C 
ENDBRANCH   4  13
TORSDOF 4
ENDMDL
MODEL 4
REMARK VINA RESULT:      -4.4     20.995     22.814
REMARK  4 active torsions:
REMARK  status: ('A' for Active; 'I' for Inactive)
REMARK    1  A    between atoms: C_1  and  O_8 
REMARK    2  A    between atoms: C_3  and  C_10 
REMARK    3  A    between atoms: C_4  and  O_9 
REMARK    4  A    between atoms: C_10  and  O_11 
ROOT
HETATM    1  C   UNL     1      77.703  11.569  19.508  1.00  0.00     0.123 A 
HETATM    2  C   UNL     1      78.330  12.157  20.641  1.00  0.00     0.078 A 
HETATM    3  C   UNL     1      79.610  11.724  21.073  1.00  0.00    -0.010 A 
HETATM    4  C   UNL     1      78.396  10.540  18.825  1.00  0.00     0.103 A 
HETATM    5  C   UNL     1      80.254  10.694  20.379  1.00  0.00     0.014 A 
HETATM    6  C   UNL     1      79.656  10.119  19.267  1.00  0.00     0.040 A 
HETATM    7 CL   UNL     1      77.593  13.415  21.591  1.00  0.00    -0.081 Cl
ENDROOT
BRANCH   3   8
HETATM    8  C   UNL     1      80.319  12.278  22.287  1.00  0.00     0.204 C 
BRANCH   8   9
HETATM    9  O   UNL     1      81.647  12.654  21.949  1.00  0.00    -0.396 OA
HETATM   10  H   UNL     1      82.107  11.896  21.555  1.00  0.00     0.209 HD
ENDBRANCH   8   9
ENDBRANCH   3   8
BRANCH   1  11
HETATM   11  O   UNL     1      76.478  11.862  18.978  1.00  0.00    -0.351 OA
HETATM   12  C   UNL     1      76.244  12.876  18.023  1.00  0.00     0.210 C 
ENDBRANCH   1  11
BRANCH   4  13
HETATM   13  O   UNL     1      78.011   9.822  17.717  1.00  0.00    -0.353 OA
HETATM   14  C   UNL     1      77.345   8.580  17.861  1.00  0.00     0.210 C 
ENDBRANCH   4  13
TORSDOF 4
ENDMDL
MODEL 5
REMARK VINA RESULT:      -4.4      1.820      3.370
REMARK  4 active torsions:
REMARK  status: ('A' for Active; 'I' for Inactive)
REMARK    1  A    between atoms: C_1  and  O_8 
REMARK    2  A    between atoms: C_3  and  C_10 
REMARK    3  A    between atoms: C_4  and  O_9 
REMARK    4  A    between atoms: C_10  and  O_11 
ROOT
HETATM    1  C   UNL     1      63.664   8.556   4.725  1.00  0.00     0.123 A 
HETATM    2  C   UNL     1      63.032   9.816   4.534  1.00  0.00     0.078 A 
HETATM    3  C   UNL     1      62.338  10.108   3.331  1.00  0.00    -0.010 A 
HETATM    4  C   UNL     1      63.581   7.605   3.680  1.00  0.00     0.103 A 
HETATM    5  C   UNL     1      62.292   9.145   2.317  1.00  0.00     0.014 A 
HETATM    6  C   UNL     1      62.899   7.911   2.496  1.00  0.00     0.040 A 
HETATM    7 CL   UNL     1      63.067  11.089   5.719  1.00  0.00    -0.081 Cl
ENDROOT
BRANCH   3   8
HETATM    8  C   UNL     1      61.674  11.435   3.046  1.00  0.00     0.204 C 
BRANCH   8   9
HETATM    9  O   UNL     1      62.145  11.963   1.814  1.00  0.00    -0.396 OA
HETATM   10  H   UNL     1      61.919  11.354   1.093  1.00  0.00     0.209 HD
ENDBRANCH   8   9
ENDBRANCH   3   8
BRANCH   1  11
HETATM   11  O   UNL     1      64.377   8.130   5.811  1.00  0.00    -0.351 OA
HETATM   12  C   UNL     1      65.784   8.188   5.915  1.00  0.00     0.210 C 
ENDBRANCH   1  11
BRANCH   4  13
HETATM   13  O   UNL     1      64.100   6.333   3.620  1.00  0.00    -0.353 OA
HETATM   14  C   UNL     1      63.948   5.549   2.449  1.00  0.00     0.210 C 
ENDBRANCH   4  13
TORSDOF 4
ENDMDL
MODEL 6
REMARK VINA RESULT:      -4.3      8.095      9.396
REMARK  4 active torsions:
REMARK  status: ('A' for Active; 'I' for Inactive)
REMARK    1  A    between atoms: C_1  and  O_8 
REMARK    2  A    between atoms: C_3  and  C_10 
REMARK    3  A    between atoms: C_4  and  O_9 
REMARK    4  A    between atoms: C_10  and  O_11 
ROOT
HETATM    1  C   UNL     1      68.230   4.007   7.017  1.00  0.00     0.123 A 
HETATM    2  C   UNL     1      68.736   2.885   7.730  1.00  0.00     0.078 A 
HETATM    3  C   UNL     1      69.183   3.015   9.071  1.00  0.00    -0.010 A 
HETATM    4  C   UNL     1      68.188   5.254   7.684  1.00  0.00     0.103 A 
HETATM    5  C   UNL     1      69.138   4.269   9.689  1.00  0.00     0.014 A 
HETATM    6  C   UNL     1      68.640   5.368   9.005  1.00  0.00     0.040 A 
HETATM    7 CL   UNL     1      68.868   1.295   7.036  1.00  0.00    -0.081 Cl
ENDROOT
BRANCH   3   8
HETATM    8  C   UNL     1      69.763   1.875   9.876  1.00  0.00     0.204 C 
BRANCH   8   9
HETATM    9  O   UNL     1      69.763   2.204  11.259  1.00  0.00    -0.396 OA
HETATM   10  H   UNL     1      69.173   1.597  11.735  1.00  0.00     0.209 HD
ENDBRANCH   8   9
ENDBRANCH   3   8
BRANCH   1  11
HETATM   11  O   UNL     1      67.778   4.048   5.728  1.00  0.00    -0.351 OA
HETATM   12  C   UNL     1      66.464   3.711   5.333  1.00  0.00     0.210 C 
ENDBRANCH   1  11
BRANCH   4  13
HETATM   13  O   UNL     1      67.749   6.472   7.221  1.00  0.00    -0.353 OA
HETATM   14  C   UNL     1      66.481   6.974   7.605  1.00  0.00     0.210 C 
ENDBRANCH   4  13
TORSDOF 4
ENDMDL
MODEL 7
REMARK VINA RESULT:      -4.3     19.427     21.215
REMARK  4 active torsions:
REMARK  status: ('A' for Active; 'I' for Inactive)
REMARK    1  A    between atoms: C_1  and  O_8 
REMARK    2  A    between atoms: C_3  and  C_10 
REMARK    3  A    between atoms: C_4  and  O_9 
REMARK    4  A    between atoms: C_10  and  O_11 
ROOT
HETATM    1  C   UNL     1      77.148   1.655  17.973  1.00  0.00     0.123 A 
HETATM    2  C   UNL     1      76.523   0.565  17.307  1.00  0.00     0.078 A 
HETATM    3  C   UNL     1      75.306   0.744  16.599  1.00  0.00    -0.010 A 
HETATM    4  C   UNL     1      76.519   2.921  17.909  1.00  0.00     0.103 A 
HETATM    5  C   UNL     1      74.711   2.009  16.572  1.00  0.00     0.014 A 
HETATM    6  C   UNL     1      75.315   3.081  17.212  1.00  0.00     0.040 A 
HETATM    7 CL   UNL     1      77.166  -1.052  17.316  1.00  0.00    -0.081 Cl
ENDROOT
BRANCH   3   8
HETATM    8  C   UNL     1      74.570  -0.375  15.898  1.00  0.00     0.204 C 
BRANCH   8   9
HETATM    9  O   UNL     1      74.018   0.094  14.676  1.00  0.00    -0.396 OA
HETATM   10  H   UNL     1      74.528  -0.264  13.932  1.00  0.00     0.209 HD
ENDBRANCH   8   9
ENDBRANCH   3   8
BRANCH   1  11
HETATM   11  O   UNL     1      78.304   1.643  18.703  1.00  0.00    -0.351 OA
HETATM   12  C   UNL     1      78.445   1.022  19.964  1.00  0.00     0.210 C 
ENDBRANCH   1  11
BRANCH   4  13
HETATM   13  O   UNL     1      76.916   4.117  18.461  1.00  0.00    -0.353 OA
HETATM   14  C   UNL     1      76.902   5.305  17.689  1.00  0.00     0.210 C 
ENDBRANCH   4  13
TORSDOF 4
ENDMDL
MODEL 8
REMARK VINA RESULT:      -4.0      1.809      2.617
REMARK  4 active torsions:
REMARK  status: ('A' for Active; 'I' for Inactive)
REMARK    1  A    between atoms: C_1  and  O_8 
REMARK    2  A    between atoms: C_3  and  C_10 
REMARK    3  A    between atoms: C_4  and  O_9 
REMARK    4  A    between atoms: C_10  and  O_11 
ROOT
HETATM    1  C   UNL     1      62.686   7.469   3.047  1.00  0.00     0.123 A 
HETATM    2  C   UNL     1      62.265   8.756   2.609  1.00  0.00     0.078 A 
HETATM    3  C   UNL     1      62.331   9.878   3.475  1.00  0.00    -0.010 A 
HETATM    4  C   UNL     1      63.171   7.343   4.370  1.00  0.00     0.103 A 
HETATM    5  C   UNL     1      62.803   9.707   4.781  1.00  0.00     0.014 A 
HETATM    6  C   UNL     1      63.223   8.459   5.216  1.00  0.00     0.040 A 
HETATM    7 CL   UNL     1      61.628   9.060   1.019  1.00  0.00    -0.081 Cl
ENDROOT
BRANCH   3   8
HETATM    8  C   UNL     1      61.870  11.264   3.090  1.00  0.00     0.204 C 
BRANCH   8   9
HETATM    9  O   UNL     1      62.071  12.164   4.171  1.00  0.00    -0.396 OA
HETATM   10  H   UNL     1      62.822  12.746   3.972  1.00  0.00     0.209 HD
ENDBRANCH   8   9
ENDBRANCH   3   8
BRANCH   1  11
HETATM   11  O   UNL     1      62.673   6.297   2.344  1.00  0.00    -0.351 OA
HETATM   12  C   UNL     1      63.711   5.868   1.488  1.00  0.00     0.210 C 
ENDBRANCH   1  11
BRANCH   4  13
HETATM   13  O   UNL     1      63.632   6.224   5.024  1.00  0.00    -0.353 OA
HETATM   14  C   UNL     1      64.089   6.311   6.362  1.00  0.00     0.210 C 
ENDBRANCH   4  13
TORSDOF 4
ENDMDL
MODEL 9
REMARK VINA RESULT:      -4.0      7.314      8.561
REMARK  4 active torsions:
REMARK  status: ('A' for Active; 'I' for Inactive)
REMARK    1  A    between atoms: C_1  and  O_8 
REMARK    2  A    between atoms: C_3  and  C_10 
REMARK    3  A    between atoms: C_4  and  O_9 
REMARK    4  A    between atoms: C_10  and  O_11 
ROOT
HETATM    1  C   UNL     1      68.600   3.776   7.162  1.00  0.00     0.123 A 
HETATM    2  C   UNL     1      67.880   4.939   6.771  1.00  0.00     0.078 A 
HETATM    3  C   UNL     1      67.592   5.967   7.707  1.00  0.00    -0.010 A 
HETATM    4  C   UNL     1      69.019   3.676   8.510  1.00  0.00     0.103 A 
HETATM    5  C   UNL     1      68.012   5.822   9.033  1.00  0.00     0.014 A 
HETATM    6  C   UNL     1      68.722   4.695   9.423  1.00  0.00     0.040 A 
HETATM    7 CL   UNL     1      67.283   5.192   5.157  1.00  0.00    -0.081 Cl
ENDROOT
BRANCH   3   8
HETATM    8  C   UNL     1      66.804   7.211   7.370  1.00  0.00     0.204 C 
BRANCH   8   9
HETATM    9  O   UNL     1      65.418   6.986   7.591  1.00  0.00    -0.396 OA
HETATM   10  H   UNL     1      65.296   6.135   8.041  1.00  0.00     0.209 HD
ENDBRANCH   8   9
ENDBRANCH   3   8
BRANCH   1  11
HETATM   11  O   UNL     1      68.941   2.701   6.391  1.00  0.00    -0.351 OA
HETATM   12  C   UNL     1      68.083   1.614   6.112  1.00  0.00     0.210 C 
ENDBRANCH   1  11
BRANCH   4  13
HETATM   13  O   UNL     1      69.720   2.668   9.129  1.00  0.00    -0.353 OA
HETATM   14  C   UNL     1      69.238   2.089  10.329  1.00  0.00     0.210 C 
ENDBRANCH   4  13
TORSDOF 4
ENDMDL
