MODEL 1
REMARK VINA RESULT:      -4.5      0.000      0.000
REMARK  1 active torsions:
REMARK  status: ('A' for Active; 'I' for Inactive)
REMARK    1  A    between atoms: C_1  and  C_2 
REMARK       I    between atoms: C_2  and  N_8 
ROOT
HETATM    1  C   UNL     1      78.047  11.443  19.574  1.00  0.00     0.072 A 
HETATM    2  S   UNL     1      78.236  12.341  21.025  1.00  0.00    -0.097 SA
HETATM    3  C   UNL     1      76.882  11.800  18.919  1.00  0.00     0.025 A 
HETATM    4  C   UNL     1      76.777  13.193  20.772  1.00  0.00     0.050 A 
HETATM    5  C   UNL     1      76.150  12.809  19.610  1.00  0.00     0.009 A 
ENDROOT
BRANCH   1   6
HETATM    6  C   UNL     1      79.018  10.451  19.142  1.00  0.00     0.256 C 
HETATM    7  O   UNL     1      78.863   9.713  18.172  1.00  0.00    -0.267 OA
HETATM    8  N   UNL     1      80.167  10.350  19.877  1.00  0.00    -0.366 N 
HETATM    9  H   UNL     1      80.305  10.935  20.657  1.00  0.00     0.159 HD
HETATM   10  H   UNL     1      80.856   9.694  19.626  1.00  0.00     0.159 HD
ENDBRANCH   1   6
TORSDOF 1
ENDMDL
MODEL 2
REMARK VINA RESULT:      -4.2      2.492      2.803
REMARK  1 active torsions:
REMARK  status: ('A' for Active; 'I' for Inactive)
REMARK    1  A    between atoms: C_1  and  C_2 
REMARK       I    between atoms: C_2  and  N_8 
ROOT
HETATM    1  C   UNL     1      78.146  12.427  20.759  1.00  0.00     0.072 A 
HETATM    2  S   UNL     1      77.884  11.229  19.557  1.00  0.00    -0.097 SA
HETATM    3  C   UNL     1      77.233  13.458  20.637  1.00  0.00     0.025 A 
HETATM    4  C   UNL     1      76.566  12.087  18.889  1.00  0.00     0.050 A 
HETATM    5  C   UNL     1      76.322  13.262  19.559  1.00  0.00     0.009 A 
ENDROOT
BRANCH   1   6
HETATM    6  C   UNL     1      79.205  12.316  21.748  1.00  0.00     0.256 C 
HETATM    7  O   UNL     1      79.236  12.953  22.798  1.00  0.00    -0.267 OA
HETATM    8  N   UNL     1      80.222  11.443  21.471  1.00  0.00    -0.366 N 
HETATM    9  H   UNL     1      80.210  10.925  20.633  1.00  0.00     0.159 HD
HETATM   10  H   UNL     1      80.962  11.331  22.108  1.00  0.00     0.159 HD
ENDBRANCH   1   6
TORSDOF 1
ENDMDL
MODEL 3
REMARK VINA RESULT:      -4.0      8.987      9.781
REMARK  1 active torsions:
REMARK  status: ('A' for Active; 'I' for Inactive)
REMARK    1  A    between atoms: C_1  and  C_2 
REMARK       I    between atoms: C_2  and  N_8 
ROOT
HETATM    1  C   UNL     1      76.238   2.672  17.738  1.00  0.00     0.072 A 
HETATM    2  S   UNL     1      76.931   1.108  17.598  1.00  0.00    -0.097 SA
HETATM    3  C   UNL     1      75.047   2.749  17.040  1.00  0.00     0.025 A 
HETATM    4  C   UNL     1      75.649   0.549  16.616  1.00  0.00     0.050 A 
HETATM    5  C   UNL     1      74.707   1.526  16.392  1.00  0.00     0.009 A 
ENDROOT
BRANCH   1   6
HETATM    6  C   UNL     1      76.866   3.735  18.505  1.00  0.00     0.256 C 
HETATM    7  O   UNL     1      77.125   3.660  19.704  1.00  0.00    -0.267 OA
HETATM    8  N   UNL     1      77.179   4.882  17.828  1.00  0.00    -0.366 N 
HETATM    9  H   UNL     1      76.978   4.957  16.867  1.00  0.00     0.159 HD
HETATM   10  H   UNL     1      77.606   5.632  18.301  1.00  0.00     0.159 HD
ENDBRANCH   1   6
TORSDOF 1
ENDMDL
MODEL 4
REMARK VINA RESULT:      -4.0     22.303     22.892
REMARK  1 active torsions:
REMARK  status: ('A' for Active; 'I' for Inactive)
REMARK    1  A    between atoms: C_1  and  C_2 
REMARK       I    between atoms: C_2  and  N_8 
ROOT
HETATM    1  C   UNL     1      62.314  10.068   3.385  1.00  0.00     0.072 A 
HETATM    2  S   UNL     1      62.802   8.423   3.458  1.00  0.00    -0.097 SA
HETATM    3  C   UNL     1      61.876  10.398   2.115  1.00  0.00     0.025 A 
HETATM    4  C   UNL     1      62.429   8.166   1.810  1.00  0.00     0.050 A 
HETATM    5  C   UNL     1      61.943   9.302   1.207  1.00  0.00     0.009 A 
ENDROOT
BRANCH   1   6
HETATM    6  C   UNL     1      62.375  10.948   4.540  1.00  0.00     0.256 C 
HETATM    7  O   UNL     1      61.896  12.079   4.570  1.00  0.00    -0.267 OA
HETATM    8  N   UNL     1      63.011  10.467   5.651  1.00  0.00    -0.366 N 
HETATM    9  H   UNL     1      63.400   9.562   5.642  1.00  0.00     0.159 HD
HETATM   10  H   UNL     1      63.080  11.023   6.460  1.00  0.00     0.159 HD
ENDBRANCH   1   6
TORSDOF 1
ENDMDL
MODEL 5
REMARK VINA RESULT:      -3.8     21.257     21.826
REMARK  1 active torsions:
REMARK  status: ('A' for Active; 'I' for Inactive)
REMARK    1  A    between atoms: C_1  and  C_2 
REMARK       I    between atoms: C_2  and  N_8 
ROOT
HETATM    1  C   UNL     1      62.959   9.760   4.371  1.00  0.00     0.072 A 
HETATM    2  S   UNL     1      62.175   9.259   2.928  1.00  0.00    -0.097 SA
HETATM    3  C   UNL     1      63.839   8.791   4.818  1.00  0.00     0.025 A 
HETATM    4  C   UNL     1      63.008   7.766   2.910  1.00  0.00     0.050 A 
HETATM    5  C   UNL     1      63.867   7.641   3.976  1.00  0.00     0.009 A 
ENDROOT
BRANCH   1   6
HETATM    6  C   UNL     1      62.693  11.046   4.994  1.00  0.00     0.256 C 
HETATM    7  O   UNL     1      61.909  11.879   4.547  1.00  0.00    -0.267 OA
HETATM    8  N   UNL     1      63.371  11.324   6.150  1.00  0.00    -0.366 N 
HETATM    9  H   UNL     1      64.002  10.665   6.521  1.00  0.00     0.159 HD
HETATM   10  H   UNL     1      63.226  12.181   6.611  1.00  0.00     0.159 HD
ENDBRANCH   1   6
TORSDOF 1
ENDMDL
MODEL 6
REMARK VINA RESULT:      -3.8      9.020      9.565
REMARK  1 active torsions:
REMARK  status: ('A' for Active; 'I' for Inactive)
REMARK    1  A    between atoms: C_1  and  C_2 
REMARK       I    between atoms: C_2  and  N_8 
ROOT
HETATM    1  C   UNL     1      75.314   2.848  17.410  1.00  0.00     0.072 A 
HETATM    2  S   UNL     1      76.827   3.206  18.136  1.00  0.00    -0.097 SA
HETATM    3  C   UNL     1      74.836   3.935  16.700  1.00  0.00     0.025 A 
HETATM    4  C   UNL     1      76.836   4.794  17.504  1.00  0.00     0.050 A 
HETATM    5  C   UNL     1      75.714   5.057  16.754  1.00  0.00     0.009 A 
ENDROOT
BRANCH   1   6
HETATM    6  C   UNL     1      74.667   1.554  17.557  1.00  0.00     0.256 C 
HETATM    7  O   UNL     1      74.437   1.018  18.637  1.00  0.00    -0.267 OA
HETATM    8  N   UNL     1      74.303   0.912  16.405  1.00  0.00    -0.366 N 
HETATM    9  H   UNL     1      74.481   1.330  15.531  1.00  0.00     0.159 HD
HETATM   10  H   UNL     1      73.862   0.034  16.449  1.00  0.00     0.159 HD
ENDBRANCH   1   6
TORSDOF 1
ENDMDL
MODEL 7
REMARK VINA RESULT:      -3.7     16.544     17.143
REMARK  1 active torsions:
REMARK  status: ('A' for Active; 'I' for Inactive)
REMARK    1  A    between atoms: C_1  and  C_2 
REMARK       I    between atoms: C_2  and  N_8 
ROOT
HETATM    1  C   UNL     1      67.358   6.058   7.886  1.00  0.00     0.072 A 
HETATM    2  S   UNL     1      67.769   4.820   6.771  1.00  0.00    -0.097 SA
HETATM    3  C   UNL     1      68.073   5.923   9.062  1.00  0.00     0.025 A 
HETATM    4  C   UNL     1      68.888   4.117   7.854  1.00  0.00     0.050 A 
HETATM    5  C   UNL     1      68.955   4.804   9.044  1.00  0.00     0.009 A 
ENDROOT
BRANCH   1   6
HETATM    6  C   UNL     1      66.379   7.088   7.579  1.00  0.00     0.256 C 
HETATM    7  O   UNL     1      65.165   6.941   7.694  1.00  0.00    -0.267 OA
HETATM    8  N   UNL     1      66.864   8.288   7.133  1.00  0.00    -0.366 N 
HETATM    9  H   UNL     1      67.835   8.420   7.036  1.00  0.00     0.159 HD
HETATM   10  H   UNL     1      66.243   9.018   6.911  1.00  0.00     0.159 HD
ENDBRANCH   1   6
TORSDOF 1
ENDMDL
MODEL 8
REMARK VINA RESULT:      -3.6      8.176      8.759
REMARK  1 active torsions:
REMARK  status: ('A' for Active; 'I' for Inactive)
REMARK    1  A    between atoms: C_1  and  C_2 
REMARK       I    between atoms: C_2  and  N_8 
ROOT
HETATM    1  C   UNL     1      76.628   3.230  17.845  1.00  0.00     0.072 A 
HETATM    2  S   UNL     1      75.159   2.831  17.052  1.00  0.00    -0.097 SA
HETATM    3  C   UNL     1      76.906   4.579  17.723  1.00  0.00     0.025 A 
HETATM    4  C   UNL     1      74.905   4.447  16.556  1.00  0.00     0.050 A 
HETATM    5  C   UNL     1      75.912   5.281  16.980  1.00  0.00     0.009 A 
ENDROOT
BRANCH   1   6
HETATM    6  C   UNL     1      77.432   2.236  18.538  1.00  0.00     0.256 C 
HETATM    7  O   UNL     1      77.620   1.094  18.127  1.00  0.00    -0.267 OA
HETATM    8  N   UNL     1      78.004   2.621  19.720  1.00  0.00    -0.366 N 
HETATM    9  H   UNL     1      77.862   3.533  20.062  1.00  0.00     0.159 HD
HETATM   10  H   UNL     1      78.558   1.986  20.228  1.00  0.00     0.159 HD
ENDBRANCH   1   6
TORSDOF 1
ENDMDL
MODEL 9
REMARK VINA RESULT:      -3.6      9.299     10.351
REMARK  1 active torsions:
REMARK  status: ('A' for Active; 'I' for Inactive)
REMARK    1  A    between atoms: C_1  and  C_2 
REMARK       I    between atoms: C_2  and  N_8 
ROOT
HETATM    1  C   UNL     1      77.357   1.913  18.421  1.00  0.00     0.072 A 
HETATM    2  S   UNL     1      78.282   0.814  19.360  1.00  0.00    -0.097 SA
HETATM    3  C   UNL     1      76.812   1.284  17.316  1.00  0.00     0.025 A 
HETATM    4  C   UNL     1      77.952  -0.483  18.298  1.00  0.00     0.050 A 
HETATM    5  C   UNL     1      77.155  -0.097  17.245  1.00  0.00     0.009 A 
ENDROOT
BRANCH   1   6
HETATM    6  C   UNL     1      77.202   3.311  18.789  1.00  0.00     0.256 C 
HETATM    7  O   UNL     1      77.172   3.720  19.947  1.00  0.00    -0.267 OA
HETATM    8  N   UNL     1      77.083   4.210  17.764  1.00  0.00    -0.366 N 
HETATM    9  H   UNL     1      77.106   3.897  16.830  1.00  0.00     0.159 HD
HETATM   10  H   UNL     1      76.977   5.168  17.959  1.00  0.00     0.159 HD
ENDBRANCH   1   6
TORSDOF 1
ENDMDL
