MODEL 1
REMARK VINA RESULT:      -5.2      0.000      0.000
REMARK  0 active torsions:
REMARK  status: ('A' for Active; 'I' for Inactive)
ROOT
HETATM    1  N   UNL     1      79.496   9.413  18.317  1.00  0.00    -0.071 N 
HETATM    2  C   UNL     1      78.432  11.683  20.074  1.00  0.00    -0.026 A 
HETATM    3  C   UNL     1      77.090  11.856  19.130  1.00  0.00    -0.049 A 
HETATM    4  C   UNL     1      79.756  10.434  19.689  1.00  0.00     0.271 A 
HETATM    5  C   UNL     1      78.144   9.483  17.245  1.00  0.00     0.237 A 
HETATM    6  C   UNL     1      76.817  10.820  17.624  1.00  0.00     0.066 A 
HETATM    7  C   UNL     1      78.530  12.498  21.193  1.00  0.00     0.009 A 
HETATM    8  C   UNL     1      76.158  12.804  19.525  1.00  0.00     0.007 A 
HETATM    9  C   UNL     1      77.508  13.408  21.492  1.00  0.00     0.001 A 
HETATM   10  C   UNL     1      76.364  13.556  20.687  1.00  0.00     0.001 A 
HETATM   11  H   UNL     1      79.496   8.463  18.686  1.00  0.00     0.277 HD
HETATM   12  H   UNL     1      80.228   9.763  17.699  1.00  0.00     0.277 HD
ENDROOT
TORSDOF 0
ENDMDL
MODEL 2
REMARK VINA RESULT:      -5.0      1.818      2.714
REMARK  0 active torsions:
REMARK  status: ('A' for Active; 'I' for Inactive)
ROOT
HETATM    1  N   UNL     1      77.070  11.500  15.514  1.00  0.00    -0.071 N 
HETATM    2  C   UNL     1      76.799  12.610  18.354  1.00  0.00    -0.026 A 
HETATM    3  C   UNL     1      77.388  11.216  19.012  1.00  0.00    -0.049 A 
HETATM    4  C   UNL     1      76.580  12.819  16.519  1.00  0.00     0.271 A 
HETATM    5  C   UNL     1      77.699   9.989  16.063  1.00  0.00     0.237 A 
HETATM    6  C   UNL     1      77.862   9.768  17.965  1.00  0.00     0.066 A 
HETATM    7  C   UNL     1      76.491  13.643  19.229  1.00  0.00     0.009 A 
HETATM    8  C   UNL     1      77.529  11.179  20.391  1.00  0.00     0.007 A 
HETATM    9  C   UNL     1      76.696  13.485  20.605  1.00  0.00     0.001 A 
HETATM   10  C   UNL     1      77.198  12.296  21.165  1.00  0.00     0.001 A 
HETATM   11  H   UNL     1      77.791  11.883  14.902  1.00  0.00     0.277 HD
HETATM   12  H   UNL     1      76.160  11.196  15.169  1.00  0.00     0.277 HD
ENDROOT
TORSDOF 0
ENDMDL
MODEL 3
REMARK VINA RESULT:      -5.0     20.960     23.129
REMARK  0 active torsions:
REMARK  status: ('A' for Active; 'I' for Inactive)
ROOT
HETATM    1  N   UNL     1      62.156  11.832   4.372  1.00  0.00    -0.071 N 
HETATM    2  C   UNL     1      62.199   9.648   2.228  1.00  0.00    -0.026 A 
HETATM    3  C   UNL     1      62.962   8.593   3.242  1.00  0.00    -0.049 A 
HETATM    4  C   UNL     1      61.769  11.381   2.748  1.00  0.00     0.271 A 
HETATM    5  C   UNL     1      62.951  10.836   5.537  1.00  0.00     0.237 A 
HETATM    6  C   UNL     1      63.442   9.070   4.962  1.00  0.00     0.066 A 
HETATM    7  C   UNL     1      61.866   9.183   0.964  1.00  0.00     0.009 A 
HETATM    8  C   UNL     1      63.214   7.319   2.756  1.00  0.00     0.007 A 
HETATM    9  C   UNL     1      62.163   7.864   0.598  1.00  0.00     0.001 A 
HETATM   10  C   UNL     1      62.813   6.965   1.463  1.00  0.00     0.001 A 
HETATM   11  H   UNL     1      61.266  12.086   4.799  1.00  0.00     0.277 HD
HETATM   12  H   UNL     1      62.893  12.514   4.192  1.00  0.00     0.277 HD
ENDROOT
TORSDOF 0
ENDMDL
MODEL 4
REMARK VINA RESULT:      -4.9     20.828     22.930
REMARK  0 active torsions:
REMARK  status: ('A' for Active; 'I' for Inactive)
ROOT
HETATM    1  N   UNL     1      63.419   9.793   5.741  1.00  0.00    -0.071 N 
HETATM    2  C   UNL     1      62.982   8.229   3.147  1.00  0.00    -0.026 A 
HETATM    3  C   UNL     1      62.196   9.501   2.449  1.00  0.00    -0.049 A 
HETATM    4  C   UNL     1      63.630   8.303   4.888  1.00  0.00     0.271 A 
HETATM    5  C   UNL     1      62.619  11.199   5.139  1.00  0.00     0.237 A 
HETATM    6  C   UNL     1      61.903  11.083   3.359  1.00  0.00     0.066 A 
HETATM    7  C   UNL     1      63.165   7.094   2.369  1.00  0.00     0.009 A 
HETATM    8  C   UNL     1      61.775   9.341   1.138  1.00  0.00     0.007 A 
HETATM    9  C   UNL     1      62.705   7.065   1.046  1.00  0.00     0.001 A 
HETATM   10  C   UNL     1      62.035   8.149   0.453  1.00  0.00     0.001 A 
HETATM   11  H   UNL     1      64.362  10.102   5.977  1.00  0.00     0.277 HD
HETATM   12  H   UNL     1      62.745   9.496   6.446  1.00  0.00     0.277 HD
ENDROOT
TORSDOF 0
ENDMDL
MODEL 5
REMARK VINA RESULT:      -4.8     20.983     22.548
REMARK  0 active torsions:
REMARK  status: ('A' for Active; 'I' for Inactive)
ROOT
HETATM    1  N   UNL     1      63.261   6.397   1.584  1.00  0.00    -0.071 N 
HETATM    2  C   UNL     1      63.141   8.652   3.650  1.00  0.00    -0.026 A 
HETATM    3  C   UNL     1      62.295   9.624   2.620  1.00  0.00    -0.049 A 
HETATM    4  C   UNL     1      63.706   6.949   3.161  1.00  0.00     0.271 A 
HETATM    5  C   UNL     1      62.382   7.302   0.405  1.00  0.00     0.237 A 
HETATM    6  C   UNL     1      61.859   9.082   0.907  1.00  0.00     0.066 A 
HETATM    7  C   UNL     1      63.399   9.148   4.921  1.00  0.00     0.009 A 
HETATM    8  C   UNL     1      61.906  10.866   3.098  1.00  0.00     0.007 A 
HETATM    9  C   UNL     1      62.935  10.417   5.288  1.00  0.00     0.001 A 
HETATM   10  C   UNL     1      62.214  11.245   4.409  1.00  0.00     0.001 A 
HETATM   11  H   UNL     1      62.708   5.554   1.741  1.00  0.00     0.277 HD
HETATM   12  H   UNL     1      64.179   6.377   1.140  1.00  0.00     0.277 HD
ENDROOT
TORSDOF 0
ENDMDL
MODEL 6
REMARK VINA RESULT:      -4.7     21.819     23.091
REMARK  0 active torsions:
REMARK  status: ('A' for Active; 'I' for Inactive)
ROOT
HETATM    1  N   UNL     1      62.942   6.713   0.514  1.00  0.00    -0.071 N 
HETATM    2  C   UNL     1      62.249   9.348   1.909  1.00  0.00    -0.026 A 
HETATM    3  C   UNL     1      62.788   8.783   3.362  1.00  0.00    -0.049 A 
HETATM    4  C   UNL     1      62.275   8.302   0.371  1.00  0.00     0.271 A 
HETATM    5  C   UNL     1      63.541   5.993   1.965  1.00  0.00     0.237 A 
HETATM    6  C   UNL     1      63.449   7.068   3.556  1.00  0.00     0.066 A 
HETATM    7  C   UNL     1      61.789  10.657   1.869  1.00  0.00     0.009 A 
HETATM    8  C   UNL     1      62.741   9.657   4.437  1.00  0.00     0.007 A 
HETATM    9  C   UNL     1      61.810  11.446   3.026  1.00  0.00     0.001 A 
HETATM   10  C   UNL     1      62.269  10.963   4.265  1.00  0.00     0.001 A 
HETATM   11  H   UNL     1      63.726   6.692  -0.138  1.00  0.00     0.277 HD
HETATM   12  H   UNL     1      62.099   6.157   0.378  1.00  0.00     0.277 HD
ENDROOT
TORSDOF 0
ENDMDL
MODEL 7
REMARK VINA RESULT:      -4.4     20.878     22.542
REMARK  0 active torsions:
REMARK  status: ('A' for Active; 'I' for Inactive)
ROOT
HETATM    1  N   UNL     1      63.516   6.245   4.763  1.00  0.00    -0.071 N 
HETATM    2  C   UNL     1      62.712   9.079   3.931  1.00  0.00    -0.026 A 
HETATM    3  C   UNL     1      62.539   8.625   2.354  1.00  0.00    -0.049 A 
HETATM    4  C   UNL     1      63.250   7.883   5.250  1.00  0.00     0.271 A 
HETATM    5  C   UNL     1      63.374   5.631   3.156  1.00  0.00     0.237 A 
HETATM    6  C   UNL     1      62.876   6.895   1.796  1.00  0.00     0.066 A 
HETATM    7  C   UNL     1      62.415  10.398   4.246  1.00  0.00     0.009 A 
HETATM    8  C   UNL     1      62.112   9.595   1.460  1.00  0.00     0.007 A 
HETATM    9  C   UNL     1      61.975  11.278   3.250  1.00  0.00     0.001 A 
HETATM   10  C   UNL     1      61.828  10.890   1.906  1.00  0.00     0.001 A 
HETATM   11  H   UNL     1      62.864   5.691   5.319  1.00  0.00     0.277 HD
HETATM   12  H   UNL     1      64.527   6.189   4.883  1.00  0.00     0.277 HD
ENDROOT
TORSDOF 0
ENDMDL
MODEL 8
REMARK VINA RESULT:      -4.3     20.179     22.170
REMARK  0 active torsions:
REMARK  status: ('A' for Active; 'I' for Inactive)
ROOT
HETATM    1  N   UNL     1      61.225  10.234   2.290  1.00  0.00    -0.071 N 
HETATM    2  C   UNL     1      63.345   8.927   4.068  1.00  0.00    -0.026 A 
HETATM    3  C   UNL     1      63.495   7.646   3.039  1.00  0.00    -0.049 A 
HETATM    4  C   UNL     1      62.148  10.314   3.750  1.00  0.00     0.271 A 
HETATM    5  C   UNL     1      61.278   8.960   1.127  1.00  0.00     0.237 A 
HETATM    6  C   UNL     1      62.477   7.505   1.503  1.00  0.00     0.066 A 
HETATM    7  C   UNL     1      64.172   8.944   5.183  1.00  0.00     0.009 A 
HETATM    8  C   UNL     1      64.435   6.680   3.365  1.00  0.00     0.007 A 
HETATM    9  C   UNL     1      65.095   7.911   5.391  1.00  0.00     0.001 A 
HETATM   10  C   UNL     1      65.222   6.819   4.514  1.00  0.00     0.001 A 
HETATM   11  H   UNL     1      61.468  11.079   1.773  1.00  0.00     0.277 HD
HETATM   12  H   UNL     1      60.296  10.077   2.680  1.00  0.00     0.277 HD
ENDROOT
TORSDOF 0
ENDMDL
MODEL 9
REMARK VINA RESULT:      -4.1     15.645     17.255
REMARK  0 active torsions:
REMARK  status: ('A' for Active; 'I' for Inactive)
ROOT
HETATM    1  N   UNL     1      67.176   7.436   8.166  1.00  0.00    -0.071 N 
HETATM    2  C   UNL     1      68.166   4.562   8.520  1.00  0.00    -0.026 A 
HETATM    3  C   UNL     1      68.063   4.270   6.900  1.00  0.00    -0.049 A 
HETATM    4  C   UNL     1      67.689   6.200   9.261  1.00  0.00     0.271 A 
HETATM    5  C   UNL     1      67.019   7.272   6.455  1.00  0.00     0.237 A 
HETATM    6  C   UNL     1      67.459   5.554   5.715  1.00  0.00     0.066 A 
HETATM    7  C   UNL     1      68.650   3.536   9.320  1.00  0.00     0.009 A 
HETATM    8  C   UNL     1      68.466   3.019   6.456  1.00  0.00     0.007 A 
HETATM    9  C   UNL     1      69.041   2.320   8.745  1.00  0.00     0.001 A 
HETATM   10  C   UNL     1      68.952   2.072   7.363  1.00  0.00     0.001 A 
HETATM   11  H   UNL     1      67.833   8.205   8.302  1.00  0.00     0.277 HD
HETATM   12  H   UNL     1      66.192   7.502   8.426  1.00  0.00     0.277 HD
ENDROOT
TORSDOF 0
ENDMDL
