MODEL 1
REMARK VINA RESULT:      -5.4      0.000      0.000
REMARK  2 active torsions:
REMARK  status: ('A' for Active; 'I' for Inactive)
REMARK    1  A    between atoms: C_1  and  C_3 
REMARK    2  A    between atoms: C_2  and  N_8 
ROOT
HETATM    1  C   UNL     1      79.176  12.381  21.516  1.00  0.00     0.067 A 
HETATM    2  C   UNL     1      79.183  11.527  20.389  1.00  0.00     0.044 A 
HETATM    3  C   UNL     1      78.091  13.252  21.725  1.00  0.00     0.022 A 
HETATM    4  C   UNL     1      78.065  11.531  19.540  1.00  0.00     0.053 A 
HETATM    5  C   UNL     1      76.998  12.403  19.759  1.00  0.00     0.036 A 
HETATM    6  C   UNL     1      77.006  13.266  20.848  1.00  0.00     0.025 A 
HETATM    7 CL   UNL     1      75.653  12.396  18.685  1.00  0.00    -0.084 Cl
ENDROOT
BRANCH   1   8
HETATM    8  C   UNL     1      80.280  12.463  22.515  1.00  0.00     0.211 C 
HETATM    9  O   UNL     1      80.176  12.197  23.700  1.00  0.00    -0.644 OA
HETATM   10  O   UNL     1      81.455  12.901  22.023  1.00  0.00    -0.644 OA
ENDBRANCH   1   8
BRANCH   2  11
HETATM   11  N   UNL     1      80.141  10.513  20.201  1.00  0.00    -0.398 N 
HETATM   12  H   UNL     1      79.854   9.580  20.074  1.00  0.00     0.156 HD
HETATM   13  H   UNL     1      81.100  10.738  20.197  1.00  0.00     0.156 HD
ENDBRANCH   2  11
TORSDOF 2
ENDMDL
MODEL 2
REMARK VINA RESULT:      -5.2      9.957     10.887
REMARK  2 active torsions:
REMARK  status: ('A' for Active; 'I' for Inactive)
REMARK    1  A    between atoms: C_1  and  C_3 
REMARK    2  A    between atoms: C_2  and  N_8 
ROOT
HETATM    1  C   UNL     1      75.199   2.501  17.491  1.00  0.00     0.067 A 
HETATM    2  C   UNL     1      76.428   2.836  18.103  1.00  0.00     0.044 A 
HETATM    3  C   UNL     1      74.502   3.472  16.748  1.00  0.00     0.022 A 
HETATM    4  C   UNL     1      76.951   4.122  17.897  1.00  0.00     0.053 A 
HETATM    5  C   UNL     1      76.246   5.075  17.160  1.00  0.00     0.036 A 
HETATM    6  C   UNL     1      75.023   4.757  16.585  1.00  0.00     0.025 A 
HETATM    7 CL   UNL     1      76.907   6.650  16.944  1.00  0.00    -0.084 Cl
ENDROOT
BRANCH   1   8
HETATM    8  C   UNL     1      74.540   1.168  17.602  1.00  0.00     0.211 C 
HETATM    9  O   UNL     1      74.105   0.519  16.666  1.00  0.00    -0.644 OA
HETATM   10  O   UNL     1      74.411   0.706  18.860  1.00  0.00    -0.644 OA
ENDBRANCH   1   8
BRANCH   2  11
HETATM   11  N   UNL     1      77.264   1.884  18.716  1.00  0.00    -0.398 N 
HETATM   12  H   UNL     1      77.124   1.638  19.659  1.00  0.00     0.156 HD
HETATM   13  H   UNL     1      77.991   1.463  18.201  1.00  0.00     0.156 HD
ENDBRANCH   2  11
TORSDOF 2
ENDMDL
MODEL 3
REMARK VINA RESULT:      -5.2      3.425      4.013
REMARK  2 active torsions:
REMARK  status: ('A' for Active; 'I' for Inactive)
REMARK    1  A    between atoms: C_1  and  C_3 
REMARK    2  A    between atoms: C_2  and  N_8 
ROOT
HETATM    1  C   UNL     1      78.077  11.596  19.889  1.00  0.00     0.067 A 
HETATM    2  C   UNL     1      79.322  11.106  20.344  1.00  0.00     0.044 A 
HETATM    3  C   UNL     1      77.420  12.609  20.611  1.00  0.00     0.022 A 
HETATM    4  C   UNL     1      79.899  11.696  21.481  1.00  0.00     0.053 A 
HETATM    5  C   UNL     1      79.233  12.697  22.188  1.00  0.00     0.036 A 
HETATM    6  C   UNL     1      77.994  13.157  21.759  1.00  0.00     0.025 A 
HETATM    7 CL   UNL     1      79.960  13.383  23.589  1.00  0.00    -0.084 Cl
ENDROOT
BRANCH   1   8
HETATM    8  C   UNL     1      77.361  11.084  18.685  1.00  0.00     0.211 C 
HETATM    9  O   UNL     1      77.266   9.910  18.371  1.00  0.00    -0.644 OA
HETATM   10  O   UNL     1      76.824  12.038  17.901  1.00  0.00    -0.644 OA
ENDBRANCH   1   8
BRANCH   2  11
HETATM   11  N   UNL     1      80.119  10.221  19.594  1.00  0.00    -0.398 N 
HETATM   12  H   UNL     1      80.880  10.564  19.073  1.00  0.00     0.156 HD
HETATM   13  H   UNL     1      79.913   9.257  19.590  1.00  0.00     0.156 HD
ENDBRANCH   2  11
TORSDOF 2
ENDMDL
MODEL 4
REMARK VINA RESULT:      -5.1     10.358     11.239
REMARK  2 active torsions:
REMARK  status: ('A' for Active; 'I' for Inactive)
REMARK    1  A    between atoms: C_1  and  C_3 
REMARK    2  A    between atoms: C_2  and  N_8 
ROOT
HETATM    1  C   UNL     1      76.441   2.767  17.859  1.00  0.00     0.067 A 
HETATM    2  C   UNL     1      75.233   2.736  17.127  1.00  0.00     0.044 A 
HETATM    3  C   UNL     1      77.294   1.648  17.845  1.00  0.00     0.022 A 
HETATM    4  C   UNL     1      74.948   1.601  16.351  1.00  0.00     0.053 A 
HETATM    5  C   UNL     1      75.803   0.498  16.350  1.00  0.00     0.036 A 
HETATM    6  C   UNL     1      76.976   0.515  17.095  1.00  0.00     0.025 A 
HETATM    7 CL   UNL     1      75.413  -0.885  15.403  1.00  0.00    -0.084 Cl
ENDROOT
BRANCH   1   8
HETATM    8  C   UNL     1      76.884   3.914  18.704  1.00  0.00     0.211 C 
HETATM    9  O   UNL     1      76.931   5.076  18.340  1.00  0.00    -0.644 OA
HETATM   10  O   UNL     1      77.284   3.578  19.945  1.00  0.00    -0.644 OA
ENDBRANCH   1   8
BRANCH   2  11
HETATM   11  N   UNL     1      74.412   3.867  16.953  1.00  0.00    -0.398 N 
HETATM   12  H   UNL     1      73.437   3.789  17.058  1.00  0.00     0.156 HD
HETATM   13  H   UNL     1      74.815   4.736  16.724  1.00  0.00     0.156 HD
ENDBRANCH   2  11
TORSDOF 2
ENDMDL
MODEL 5
REMARK VINA RESULT:      -5.1     23.545     24.679
REMARK  2 active torsions:
REMARK  status: ('A' for Active; 'I' for Inactive)
REMARK    1  A    between atoms: C_1  and  C_3 
REMARK    2  A    between atoms: C_2  and  N_8 
ROOT
HETATM    1  C   UNL     1      62.424   9.942   3.536  1.00  0.00     0.067 A 
HETATM    2  C   UNL     1      61.910  10.350   2.284  1.00  0.00     0.044 A 
HETATM    3  C   UNL     1      62.912   8.633   3.697  1.00  0.00     0.022 A 
HETATM    4  C   UNL     1      61.960   9.444   1.212  1.00  0.00     0.053 A 
HETATM    5  C   UNL     1      62.444   8.147   1.389  1.00  0.00     0.036 A 
HETATM    6  C   UNL     1      62.920   7.736   2.628  1.00  0.00     0.025 A 
HETATM    7 CL   UNL     1      62.471   7.056   0.058  1.00  0.00    -0.084 Cl
ENDROOT
BRANCH   1   8
HETATM    8  C   UNL     1      62.460  10.806   4.752  1.00  0.00     0.211 C 
HETATM    9  O   UNL     1      62.049  11.952   4.811  1.00  0.00    -0.644 OA
HETATM   10  O   UNL     1      63.029  10.236   5.831  1.00  0.00    -0.644 OA
ENDBRANCH   1   8
BRANCH   2  11
HETATM   11  N   UNL     1      61.562  11.683   1.994  1.00  0.00    -0.398 N 
HETATM   12  H   UNL     1      61.591  12.365   2.704  1.00  0.00     0.156 HD
HETATM   13  H   UNL     1      61.288  11.933   1.082  1.00  0.00     0.156 HD
ENDBRANCH   2  11
TORSDOF 2
ENDMDL
MODEL 6
REMARK VINA RESULT:      -5.0      2.398      2.981
REMARK  2 active torsions:
REMARK  status: ('A' for Active; 'I' for Inactive)
REMARK    1  A    between atoms: C_1  and  C_3 
REMARK    2  A    between atoms: C_2  and  N_8 
ROOT
HETATM    1  C   UNL     1      78.181  11.646  19.862  1.00  0.00     0.067 A 
HETATM    2  C   UNL     1      79.161  10.671  19.567  1.00  0.00     0.044 A 
HETATM    3  C   UNL     1      76.994  11.692  19.109  1.00  0.00     0.022 A 
HETATM    4  C   UNL     1      78.888   9.731  18.561  1.00  0.00     0.053 A 
HETATM    5  C   UNL     1      77.707   9.792  17.820  1.00  0.00     0.036 A 
HETATM    6  C   UNL     1      76.758  10.770  18.089  1.00  0.00     0.025 A 
HETATM    7 CL   UNL     1      77.415   8.636  16.579  1.00  0.00    -0.084 Cl
ENDROOT
BRANCH   1   8
HETATM    8  C   UNL     1      78.323  12.688  20.920  1.00  0.00     0.211 C 
HETATM    9  O   UNL     1      79.213  12.726  21.753  1.00  0.00    -0.644 OA
HETATM   10  O   UNL     1      77.348  13.616  20.931  1.00  0.00    -0.644 OA
ENDBRANCH   1   8
BRANCH   2  11
HETATM   11  N   UNL     1      80.292  10.450  20.376  1.00  0.00    -0.398 N 
HETATM   12  H   UNL     1      80.942  11.175  20.524  1.00  0.00     0.156 HD
HETATM   13  H   UNL     1      80.433   9.570  20.794  1.00  0.00     0.156 HD
ENDBRANCH   2  11
TORSDOF 2
ENDMDL
MODEL 7
REMARK VINA RESULT:      -5.0     22.453     23.374
REMARK  2 active torsions:
REMARK  status: ('A' for Active; 'I' for Inactive)
REMARK    1  A    between atoms: C_1  and  C_3 
REMARK    2  A    between atoms: C_2  and  N_8 
ROOT
HETATM    1  C   UNL     1      62.883   9.105   4.752  1.00  0.00     0.067 A 
HETATM    2  C   UNL     1      62.669  10.443   5.154  1.00  0.00     0.044 A 
HETATM    3  C   UNL     1      62.602   8.719   3.429  1.00  0.00     0.022 A 
HETATM    4  C   UNL     1      62.236  11.369   4.192  1.00  0.00     0.053 A 
HETATM    5  C   UNL     1      61.958  10.971   2.883  1.00  0.00     0.036 A 
HETATM    6  C   UNL     1      62.139   9.649   2.496  1.00  0.00     0.025 A 
HETATM    7 CL   UNL     1      61.409  12.129   1.735  1.00  0.00    -0.084 Cl
ENDROOT
BRANCH   1   8
HETATM    8  C   UNL     1      63.365   8.022   5.658  1.00  0.00     0.211 C 
HETATM    9  O   UNL     1      64.239   7.217   5.387  1.00  0.00    -0.644 OA
HETATM   10  O   UNL     1      62.729   7.954   6.843  1.00  0.00    -0.644 OA
ENDBRANCH   1   8
BRANCH   2  11
HETATM   11  N   UNL     1      63.082  10.945   6.402  1.00  0.00    -0.398 N 
HETATM   12  H   UNL     1      63.781  11.636   6.449  1.00  0.00     0.156 HD
HETATM   13  H   UNL     1      62.671  10.603   7.230  1.00  0.00     0.156 HD
ENDBRANCH   2  11
TORSDOF 2
ENDMDL
MODEL 8
REMARK VINA RESULT:      -4.9     10.348     11.172
REMARK  2 active torsions:
REMARK  status: ('A' for Active; 'I' for Inactive)
REMARK    1  A    between atoms: C_1  and  C_3 
REMARK    2  A    between atoms: C_2  and  N_8 
ROOT
HETATM    1  C   UNL     1      76.579   2.687  17.980  1.00  0.00     0.067 A 
HETATM    2  C   UNL     1      77.381   1.524  17.931  1.00  0.00     0.044 A 
HETATM    3  C   UNL     1      75.406   2.759  17.207  1.00  0.00     0.022 A 
HETATM    4  C   UNL     1      76.942   0.440  17.152  1.00  0.00     0.053 A 
HETATM    5  C   UNL     1      75.778   0.529  16.388  1.00  0.00     0.036 A 
HETATM    6  C   UNL     1      75.006   1.684  16.411  1.00  0.00     0.025 A 
HETATM    7 CL   UNL     1      75.281  -0.810  15.428  1.00  0.00    -0.084 Cl
ENDROOT
BRANCH   1   8
HETATM    8  C   UNL     1      76.906   3.900  18.783  1.00  0.00     0.211 C 
HETATM    9  O   UNL     1      76.939   5.040  18.353  1.00  0.00    -0.644 OA
HETATM   10  O   UNL     1      77.213   3.656  20.072  1.00  0.00    -0.644 OA
ENDBRANCH   1   8
BRANCH   2  11
HETATM   11  N   UNL     1      78.470   1.306  18.795  1.00  0.00    -0.398 N 
HETATM   12  H   UNL     1      78.973   2.071  19.156  1.00  0.00     0.156 HD
HETATM   13  H   UNL     1      78.730   0.387  19.037  1.00  0.00     0.156 HD
ENDBRANCH   2  11
TORSDOF 2
ENDMDL
MODEL 9
REMARK VINA RESULT:      -4.8     23.167     24.289
REMARK  2 active torsions:
REMARK  status: ('A' for Active; 'I' for Inactive)
REMARK    1  A    between atoms: C_1  and  C_3 
REMARK    2  A    between atoms: C_2  and  N_8 
ROOT
HETATM    1  C   UNL     1      62.493  10.021   3.727  1.00  0.00     0.067 A 
HETATM    2  C   UNL     1      63.019   8.710   3.794  1.00  0.00     0.044 A 
HETATM    3  C   UNL     1      61.937  10.489   2.522  1.00  0.00     0.022 A 
HETATM    4  C   UNL     1      62.911   7.886   2.662  1.00  0.00     0.053 A 
HETATM    5  C   UNL     1      62.359   8.367   1.473  1.00  0.00     0.036 A 
HETATM    6  C   UNL     1      61.872   9.665   1.397  1.00  0.00     0.025 A 
HETATM    7 CL   UNL     1      62.262   7.336   0.098  1.00  0.00    -0.084 Cl
ENDROOT
BRANCH   1   8
HETATM    8  C   UNL     1      62.514  10.994   4.857  1.00  0.00     0.211 C 
HETATM    9  O   UNL     1      63.017  10.791   5.949  1.00  0.00    -0.644 OA
HETATM   10  O   UNL     1      61.887  12.159   4.608  1.00  0.00    -0.644 OA
ENDBRANCH   1   8
BRANCH   2  11
HETATM   11  N   UNL     1      63.436   8.111   4.998  1.00  0.00    -0.398 N 
HETATM   12  H   UNL     1      62.815   7.538   5.504  1.00  0.00     0.156 HD
HETATM   13  H   UNL     1      64.348   8.268   5.335  1.00  0.00     0.156 HD
ENDBRANCH   2  11
TORSDOF 2
ENDMDL
