MODEL 1
REMARK VINA RESULT:      -4.4      0.000      0.000
REMARK  1 active torsions:
REMARK  status: ('A' for Active; 'I' for Inactive)
REMARK    1  A    between atoms: C_5  and  N_9 
ROOT
HETATM    1  N   UNL     1      77.213   4.136  17.880  1.00  0.00    -0.359 N 
ATOM      2  HN  UNL     1      78.147   4.339  18.238  1.00  0.00     0.165 HD
HETATM    3  N   UNL     1      74.642   3.551  16.859  1.00  0.00    -0.349 N 
ATOM      4  HN  UNL     1      73.718   3.350  16.478  1.00  0.00     0.167 HD
HETATM    5  C   UNL     1      75.402   2.597  17.428  1.00  0.00     0.121 A 
HETATM    6  C   UNL     1      76.678   2.884  17.930  1.00  0.00     0.049 A 
HETATM    7  C   UNL     1      76.433   5.095  17.328  1.00  0.00     0.021 A 
HETATM    8  C   UNL     1      75.179   4.794  16.822  1.00  0.00     0.114 A 
HETATM    9  C   UNL     1      77.532   1.813  18.536  1.00  0.00     0.072 C 
HETATM   10  C   UNL     1      76.958   6.496  17.301  1.00  0.00     0.069 C 
ENDROOT
BRANCH   5  11
HETATM   11  N   UNL     1      74.805   1.345  17.551  1.00  0.00    -0.384 N 
HETATM   12  H   UNL     1      74.493   1.032  18.431  1.00  0.00     0.157 HD
HETATM   13  H   UNL     1      74.695   0.771  16.758  1.00  0.00     0.157 HD
ENDBRANCH   5  11
TORSDOF 1
ENDMDL
MODEL 2
REMARK VINA RESULT:      -4.2     18.679     20.151
REMARK  1 active torsions:
REMARK  status: ('A' for Active; 'I' for Inactive)
REMARK    1  A    between atoms: C_5  and  N_9 
ROOT
HETATM    1  N   UNL     1      62.919   8.964   3.451  1.00  0.00    -0.359 N 
ATOM      2  HN  UNL     1      63.145   8.028   3.115  1.00  0.00     0.165 HD
HETATM    3  N   UNL     1      62.270  11.543   4.411  1.00  0.00    -0.349 N 
ATOM      4  HN  UNL     1      62.022  12.472   4.752  1.00  0.00     0.167 HD
HETATM    5  C   UNL     1      63.077  10.721   5.106  1.00  0.00     0.121 A 
HETATM    6  C   UNL     1      63.396   9.441   4.635  1.00  0.00     0.049 A 
HETATM    7  C   UNL     1      62.127   9.807   2.746  1.00  0.00     0.021 A 
HETATM    8  C   UNL     1      61.808  11.064   3.231  1.00  0.00     0.114 A 
HETATM    9  C   UNL     1      64.271   8.518   5.425  1.00  0.00     0.072 C 
HETATM   10  C   UNL     1      61.624   9.345   1.414  1.00  0.00     0.069 C 
ENDROOT
BRANCH   5  11
HETATM   11  N   UNL     1      63.627  11.257   6.268  1.00  0.00    -0.384 N 
HETATM   12  H   UNL     1      63.102  11.271   7.101  1.00  0.00     0.157 HD
HETATM   13  H   UNL     1      64.542  11.623   6.258  1.00  0.00     0.157 HD
ENDBRANCH   5  11
TORSDOF 1
ENDMDL
MODEL 3
REMARK VINA RESULT:      -4.2     19.837     21.248
REMARK  1 active torsions:
REMARK  status: ('A' for Active; 'I' for Inactive)
REMARK    1  A    between atoms: C_5  and  N_9 
ROOT
HETATM    1  N   UNL     1      70.466  23.141  13.564  1.00  0.00    -0.359 N 
ATOM      2  HN  UNL     1      69.513  22.790  13.461  1.00  0.00     0.165 HD
HETATM    3  N   UNL     1      73.094  24.146  13.829  1.00  0.00    -0.349 N 
ATOM      4  HN  UNL     1      74.045  24.508  13.909  1.00  0.00     0.167 HD
HETATM    5  C   UNL     1      72.069  24.678  14.520  1.00  0.00     0.121 A 
HETATM    6  C   UNL     1      70.765  24.185  14.386  1.00  0.00     0.049 A 
HETATM    7  C   UNL     1      71.506  22.596  12.890  1.00  0.00     0.021 A 
HETATM    8  C   UNL     1      72.788  23.104  13.021  1.00  0.00     0.114 A 
HETATM    9  C   UNL     1      69.623  24.798  15.135  1.00  0.00     0.072 C 
HETATM   10  C   UNL     1      71.232  21.412  12.016  1.00  0.00     0.069 C 
ENDROOT
BRANCH   5  11
HETATM   11  N   UNL     1      72.408  25.684  15.422  1.00  0.00    -0.384 N 
HETATM   12  H   UNL     1      71.713  26.284  15.775  1.00  0.00     0.157 HD
HETATM   13  H   UNL     1      73.345  25.796  15.707  1.00  0.00     0.157 HD
ENDBRANCH   5  11
TORSDOF 1
ENDMDL
MODEL 4
REMARK VINA RESULT:      -4.0     12.919     14.429
REMARK  1 active torsions:
REMARK  status: ('A' for Active; 'I' for Inactive)
REMARK    1  A    between atoms: C_5  and  N_9 
ROOT
HETATM    1  N   UNL     1      68.230   6.462   7.018  1.00  0.00    -0.359 N 
ATOM      2  HN  UNL     1      69.191   6.337   6.699  1.00  0.00     0.165 HD
HETATM    3  N   UNL     1      65.574   6.846   7.909  1.00  0.00    -0.349 N 
ATOM      4  HN  UNL     1      64.622   6.987   8.245  1.00  0.00     0.167 HD
HETATM    5  C   UNL     1      66.004   7.367   6.745  1.00  0.00     0.121 A 
HETATM    6  C   UNL     1      67.320   7.183   6.304  1.00  0.00     0.049 A 
HETATM    7  C   UNL     1      67.783   5.921   8.177  1.00  0.00     0.021 A 
HETATM    8  C   UNL     1      66.483   6.125   8.607  1.00  0.00     0.114 A 
HETATM    9  C   UNL     1      67.802   7.788   5.022  1.00  0.00     0.072 C 
HETATM   10  C   UNL     1      68.733   5.076   8.967  1.00  0.00     0.069 C 
ENDROOT
BRANCH   5  11
HETATM   11  N   UNL     1      65.037   8.024   5.986  1.00  0.00    -0.384 N 
HETATM   12  H   UNL     1      65.211   8.232   5.040  1.00  0.00     0.157 HD
HETATM   13  H   UNL     1      64.179   8.281   6.396  1.00  0.00     0.157 HD
ENDBRANCH   5  11
TORSDOF 1
ENDMDL
MODEL 5
REMARK VINA RESULT:      -3.9     18.560     20.044
REMARK  1 active torsions:
REMARK  status: ('A' for Active; 'I' for Inactive)
REMARK    1  A    between atoms: C_5  and  N_9 
ROOT
HETATM    1  N   UNL     1      61.675   9.003   3.537  1.00  0.00    -0.359 N 
ATOM      2  HN  UNL     1      61.143   9.010   2.666  1.00  0.00     0.165 HD
HETATM    3  N   UNL     1      63.180   8.994   5.930  1.00  0.00    -0.349 N 
ATOM      4  HN  UNL     1      63.731   8.978   6.788  1.00  0.00     0.167 HD
HETATM    5  C   UNL     1      62.911  10.140   5.278  1.00  0.00     0.121 A 
HETATM    6  C   UNL     1      62.169  10.146   4.089  1.00  0.00     0.049 A 
HETATM    7  C   UNL     1      61.930   7.858   4.212  1.00  0.00     0.021 A 
HETATM    8  C   UNL     1      62.677   7.865   5.378  1.00  0.00     0.114 A 
HETATM    9  C   UNL     1      61.896  11.421   3.352  1.00  0.00     0.072 C 
HETATM   10  C   UNL     1      61.360   6.584   3.670  1.00  0.00     0.069 C 
ENDROOT
BRANCH   5  11
HETATM   11  N   UNL     1      63.346  11.307   5.903  1.00  0.00    -0.384 N 
HETATM   12  H   UNL     1      64.242  11.343   6.309  1.00  0.00     0.157 HD
HETATM   13  H   UNL     1      62.758  12.096   5.940  1.00  0.00     0.157 HD
ENDBRANCH   5  11
TORSDOF 1
ENDMDL
MODEL 6
REMARK VINA RESULT:      -3.9      1.278      3.924
REMARK  1 active torsions:
REMARK  status: ('A' for Active; 'I' for Inactive)
REMARK    1  A    between atoms: C_5  and  N_9 
ROOT
HETATM    1  N   UNL     1      74.665   2.770  17.207  1.00  0.00    -0.359 N 
ATOM      2  HN  UNL     1      73.707   2.674  16.868  1.00  0.00     0.165 HD
HETATM    3  N   UNL     1      77.331   3.040  18.109  1.00  0.00    -0.349 N 
ATOM      4  HN  UNL     1      78.296   3.123  18.429  1.00  0.00     0.167 HD
HETATM    5  C   UNL     1      76.669   4.076  17.561  1.00  0.00     0.121 A 
HETATM    6  C   UNL     1      75.350   3.943  17.109  1.00  0.00     0.049 A 
HETATM    7  C   UNL     1      75.329   1.739  17.781  1.00  0.00     0.021 A 
HETATM    8  C   UNL     1      76.638   1.881  18.211  1.00  0.00     0.114 A 
HETATM    9  C   UNL     1      74.629   5.091  16.473  1.00  0.00     0.072 C 
HETATM   10  C   UNL     1      74.596   0.446  17.960  1.00  0.00     0.069 C 
ENDROOT
BRANCH   5  11
HETATM   11  N   UNL     1      77.354   5.290  17.550  1.00  0.00    -0.384 N 
HETATM   12  H   UNL     1      76.869   6.127  17.373  1.00  0.00     0.157 HD
HETATM   13  H   UNL     1      78.324   5.310  17.720  1.00  0.00     0.157 HD
ENDBRANCH   5  11
TORSDOF 1
ENDMDL
MODEL 7
REMARK VINA RESULT:      -3.9      1.785      3.387
REMARK  1 active torsions:
REMARK  status: ('A' for Active; 'I' for Inactive)
REMARK    1  A    between atoms: C_5  and  N_9 
ROOT
HETATM    1  N   UNL     1      76.109   0.763  17.302  1.00  0.00    -0.359 N 
ATOM      2  HN  UNL     1      76.411  -0.212  17.277  1.00  0.00     0.165 HD
HETATM    3  N   UNL     1      75.261   3.457  17.410  1.00  0.00    -0.349 N 
ATOM      4  HN  UNL     1      74.940   4.425  17.450  1.00  0.00     0.167 HD
HETATM    5  C   UNL     1      76.356   3.042  18.072  1.00  0.00     0.121 A 
HETATM    6  C   UNL     1      76.775   1.706  18.024  1.00  0.00     0.049 A 
HETATM    7  C   UNL     1      75.021   1.193  16.619  1.00  0.00     0.021 A 
HETATM    8  C   UNL     1      74.610   2.514  16.688  1.00  0.00     0.114 A 
HETATM    9  C   UNL     1      77.978   1.242  18.785  1.00  0.00     0.072 C 
HETATM   10  C   UNL     1      74.290   0.202  15.769  1.00  0.00     0.069 C 
ENDROOT
BRANCH   5  11
HETATM   11  N   UNL     1      77.075   4.037  18.731  1.00  0.00    -0.384 N 
HETATM   12  H   UNL     1      76.719   4.953  18.777  1.00  0.00     0.157 HD
HETATM   13  H   UNL     1      77.941   3.824  19.150  1.00  0.00     0.157 HD
ENDBRANCH   5  11
TORSDOF 1
ENDMDL
MODEL 8
REMARK VINA RESULT:      -3.9     11.755     12.981
REMARK  1 active torsions:
REMARK  status: ('A' for Active; 'I' for Inactive)
REMARK    1  A    between atoms: C_5  and  N_9 
ROOT
HETATM    1  N   UNL     1      68.242   6.338   7.703  1.00  0.00    -0.359 N 
ATOM      2  HN  UNL     1      69.012   6.977   7.502  1.00  0.00     0.165 HD
HETATM    3  N   UNL     1      66.125   4.540   8.232  1.00  0.00    -0.349 N 
ATOM      4  HN  UNL     1      65.356   3.895   8.409  1.00  0.00     0.167 HD
HETATM    5  C   UNL     1      67.390   4.259   8.597  1.00  0.00     0.121 A 
HETATM    6  C   UNL     1      68.441   5.145   8.331  1.00  0.00     0.049 A 
HETATM    7  C   UNL     1      66.964   6.624   7.361  1.00  0.00     0.021 A 
HETATM    8  C   UNL     1      65.937   5.731   7.616  1.00  0.00     0.114 A 
HETATM    9  C   UNL     1      69.850   4.815   8.713  1.00  0.00     0.072 C 
HETATM   10  C   UNL     1      66.692   7.948   6.717  1.00  0.00     0.069 C 
ENDROOT
BRANCH   5  11
HETATM   11  N   UNL     1      67.560   3.078   9.317  1.00  0.00    -0.384 N 
HETATM   12  H   UNL     1      67.823   3.113  10.265  1.00  0.00     0.157 HD
HETATM   13  H   UNL     1      67.418   2.208   8.878  1.00  0.00     0.157 HD
ENDBRANCH   5  11
TORSDOF 1
ENDMDL
MODEL 9
REMARK VINA RESULT:      -3.9     19.220     20.766
REMARK  1 active torsions:
REMARK  status: ('A' for Active; 'I' for Inactive)
REMARK    1  A    between atoms: C_5  and  N_9 
ROOT
HETATM    1  N   UNL     1      62.749   8.509   3.339  1.00  0.00    -0.359 N 
ATOM      2  HN  UNL     1      62.942   7.561   3.014  1.00  0.00     0.165 HD
HETATM    3  N   UNL     1      62.245  11.150   4.214  1.00  0.00    -0.349 N 
ATOM      4  HN  UNL     1      62.077  12.102   4.539  1.00  0.00     0.167 HD
HETATM    5  C   UNL     1      62.013  10.778   2.942  1.00  0.00     0.121 A 
HETATM    6  C   UNL     1      62.266   9.472   2.504  1.00  0.00     0.049 A 
HETATM    7  C   UNL     1      62.958   8.884   4.623  1.00  0.00     0.021 A 
HETATM    8  C   UNL     1      62.716  10.184   5.038  1.00  0.00     0.114 A 
HETATM    9  C   UNL     1      62.033   9.071   1.081  1.00  0.00     0.072 C 
HETATM   10  C   UNL     1      63.436   7.844   5.587  1.00  0.00     0.069 C 
ENDROOT
BRANCH   5  11
HETATM   11  N   UNL     1      61.435  11.750   2.127  1.00  0.00    -0.384 N 
HETATM   12  H   UNL     1      61.220  12.637   2.495  1.00  0.00     0.157 HD
HETATM   13  H   UNL     1      61.241  11.549   1.182  1.00  0.00     0.157 HD
ENDBRANCH   5  11
TORSDOF 1
ENDMDL
