MODEL 1
REMARK VINA RESULT:      -6.4      0.000      0.000
REMARK  1 active torsions:
REMARK  status: ('A' for Active; 'I' for Inactive)
REMARK    1  A    between atoms: C_2  and  O_10 
ROOT
HETATM    1  C   UNL     1      78.396  11.359  19.774  1.00  0.00     0.080 A 
HETATM    2  C   UNL     1      79.267  10.365  19.347  1.00  0.00     0.156 A 
HETATM    3  N   UNL     1      79.061   9.539  18.313  1.00  0.00    -0.332 N 
ATOM      4  HN  UNL     1      79.733   8.822  18.037  1.00  0.00     0.168 HD
HETATM    5  N   UNL     1      76.971  10.646  17.979  1.00  0.00    -0.351 N 
ATOM      6  HN  UNL     1      76.110  10.728  17.439  1.00  0.00     0.166 HD
HETATM    7  C   UNL     1      77.904   9.731  17.673  1.00  0.00     0.182 A 
HETATM    8  C   UNL     1      78.600  12.237  20.859  1.00  0.00     0.133 A 
HETATM    9  C   UNL     1      77.220  11.448  19.024  1.00  0.00     0.050 A 
HETATM   10  F   UNL     1      79.726  12.182  21.585  1.00  0.00    -0.205 F 
HETATM   11  C   UNL     1      76.471  13.266  20.470  1.00  0.00     0.005 A 
HETATM   12  C   UNL     1      77.644  13.184  21.207  1.00  0.00     0.043 A 
HETATM   13  C   UNL     1      76.275  12.404  19.387  1.00  0.00     0.030 A 
ENDROOT
BRANCH   2  14
HETATM   14  O   UNL     1      80.446  10.125  19.976  1.00  0.00    -0.345 OA
HETATM   15  H   UNL     1      80.699  10.647  20.712  1.00  0.00     0.219 HD
ENDBRANCH   2  14
TORSDOF 1
ENDMDL
MODEL 2
REMARK VINA RESULT:      -6.4      2.354      3.126
REMARK  1 active torsions:
REMARK  status: ('A' for Active; 'I' for Inactive)
REMARK    1  A    between atoms: C_2  and  O_10 
ROOT
HETATM    1  C   UNL     1      78.384  11.679  20.086  1.00  0.00     0.080 A 
HETATM    2  C   UNL     1      79.601  11.107  20.436  1.00  0.00     0.156 A 
HETATM    3  N   UNL     1      80.353  11.456  21.489  1.00  0.00    -0.332 N 
ATOM      4  HN  UNL     1      81.242  11.006  21.706  1.00  0.00     0.168 HD
HETATM    5  N   UNL     1      78.685  13.086  22.008  1.00  0.00    -0.351 N 
ATOM      6  HN  UNL     1      78.364  13.833  22.624  1.00  0.00     0.166 HD
HETATM    7  C   UNL     1      79.841  12.443  22.231  1.00  0.00     0.182 A 
HETATM    8  C   UNL     1      77.583  11.321  18.982  1.00  0.00     0.133 A 
HETATM    9  C   UNL     1      77.969  12.704  20.940  1.00  0.00     0.050 A 
HETATM   10  F   UNL     1      77.953  10.331  18.156  1.00  0.00    -0.205 F 
HETATM   11  C   UNL     1      75.978  13.005  19.560  1.00  0.00     0.005 A 
HETATM   12  C   UNL     1      76.388  11.980  18.718  1.00  0.00     0.043 A 
HETATM   13  C   UNL     1      76.769  13.351  20.660  1.00  0.00     0.030 A 
ENDROOT
BRANCH   2  14
HETATM   14  O   UNL     1      80.166  10.114  19.703  1.00  0.00    -0.345 OA
HETATM   15  H   UNL     1      80.080  10.114  18.770  1.00  0.00     0.219 HD
ENDBRANCH   2  14
TORSDOF 1
ENDMDL
MODEL 3
REMARK VINA RESULT:      -6.4      4.487      5.635
REMARK  1 active torsions:
REMARK  status: ('A' for Active; 'I' for Inactive)
REMARK    1  A    between atoms: C_2  and  O_10 
ROOT
HETATM    1  C   UNL     1      77.263   8.227  16.385  1.00  0.00     0.080 A 
HETATM    2  C   UNL     1      77.745   9.496  16.089  1.00  0.00     0.156 A 
HETATM    3  N   UNL     1      78.059   9.946  14.867  1.00  0.00    -0.332 N 
ATOM      4  HN  UNL     1      78.411  10.889  14.699  1.00  0.00     0.168 HD
HETATM    5  N   UNL     1      77.418   7.803  14.028  1.00  0.00    -0.351 N 
ATOM      6  HN  UNL     1      77.304   7.185  13.224  1.00  0.00     0.166 HD
HETATM    7  C   UNL     1      77.871   9.058  13.886  1.00  0.00     0.182 A 
HETATM    8  C   UNL     1      76.928   7.741  17.666  1.00  0.00     0.133 A 
HETATM    9  C   UNL     1      77.121   7.397  15.271  1.00  0.00     0.050 A 
HETATM   10  F   UNL     1      77.041   8.524  18.749  1.00  0.00    -0.205 F 
HETATM   11  C   UNL     1      76.339   5.611  16.739  1.00  0.00     0.005 A 
HETATM   12  C   UNL     1      76.470   6.441  17.844  1.00  0.00     0.043 A 
HETATM   13  C   UNL     1      76.661   6.098  15.469  1.00  0.00     0.030 A 
ENDROOT
BRANCH   2  14
HETATM   14  O   UNL     1      77.966  10.424  17.056  1.00  0.00    -0.345 OA
HETATM   15  H   UNL     1      77.249  10.750  17.564  1.00  0.00     0.219 HD
ENDBRANCH   2  14
TORSDOF 1
ENDMDL
MODEL 4
REMARK VINA RESULT:      -6.0      4.406      5.430
REMARK  1 active torsions:
REMARK  status: ('A' for Active; 'I' for Inactive)
REMARK    1  A    between atoms: C_2  and  O_10 
ROOT
HETATM    1  C   UNL     1      77.273   8.308  16.390  1.00  0.00     0.080 A 
HETATM    2  C   UNL     1      76.956   7.618  17.554  1.00  0.00     0.156 A 
HETATM    3  N   UNL     1      76.559   6.340  17.619  1.00  0.00    -0.332 N 
ATOM      4  HN  UNL     1      76.336   5.876  18.500  1.00  0.00     0.168 HD
HETATM    5  N   UNL     1      76.750   6.268  15.239  1.00  0.00    -0.351 N 
ATOM      6  HN  UNL     1      76.663   5.729  14.378  1.00  0.00     0.166 HD
HETATM    7  C   UNL     1      76.479   5.725  16.436  1.00  0.00     0.182 A 
HETATM    8  C   UNL     1      77.693   9.652  16.308  1.00  0.00     0.133 A 
HETATM    9  C   UNL     1      77.140   7.551  15.224  1.00  0.00     0.050 A 
HETATM   10  F   UNL     1      77.843  10.395  17.414  1.00  0.00    -0.205 F 
HETATM   11  C   UNL     1      77.824   9.498  13.920  1.00  0.00     0.005 A 
HETATM   12  C   UNL     1      77.966  10.245  15.080  1.00  0.00     0.043 A 
HETATM   13  C   UNL     1      77.419   8.162  14.004  1.00  0.00     0.030 A 
ENDROOT
BRANCH   2  14
HETATM   14  O   UNL     1      77.007   8.208  18.776  1.00  0.00    -0.345 OA
HETATM   15  H   UNL     1      76.392   7.966  19.439  1.00  0.00     0.219 HD
ENDBRANCH   2  14
TORSDOF 1
ENDMDL
MODEL 5
REMARK VINA RESULT:      -5.8      2.703      4.027
REMARK  1 active torsions:
REMARK  status: ('A' for Active; 'I' for Inactive)
REMARK    1  A    between atoms: C_2  and  O_10 
ROOT
HETATM    1  C   UNL     1      77.920  11.754  19.823  1.00  0.00     0.080 A 
HETATM    2  C   UNL     1      77.859  12.769  20.769  1.00  0.00     0.156 A 
HETATM    3  N   UNL     1      78.774  13.007  21.718  1.00  0.00    -0.332 N 
ATOM      4  HN  UNL     1      78.685  13.767  22.393  1.00  0.00     0.168 HD
HETATM    5  N   UNL     1      79.997  11.143  20.860  1.00  0.00    -0.351 N 
ATOM      6  HN  UNL     1      80.820  10.544  20.920  1.00  0.00     0.166 HD
HETATM    7  C   UNL     1      79.813  12.166  21.709  1.00  0.00     0.182 A 
HETATM    8  C   UNL     1      76.965  11.493  18.818  1.00  0.00     0.133 A 
HETATM    9  C   UNL     1      79.052  10.943  19.929  1.00  0.00     0.050 A 
HETATM   10  F   UNL     1      75.877  12.267  18.686  1.00  0.00    -0.205 F 
HETATM   11  C   UNL     1      78.242   9.618  18.046  1.00  0.00     0.005 A 
HETATM   12  C   UNL     1      77.123  10.432  17.935  1.00  0.00     0.043 A 
HETATM   13  C   UNL     1      79.194   9.885  19.035  1.00  0.00     0.030 A 
ENDROOT
BRANCH   2  14
HETATM   14  O   UNL     1      76.816  13.636  20.826  1.00  0.00    -0.345 OA
HETATM   15  H   UNL     1      76.095  13.466  21.400  1.00  0.00     0.219 HD
ENDBRANCH   2  14
TORSDOF 1
ENDMDL
MODEL 6
REMARK VINA RESULT:      -5.7      4.226      5.292
REMARK  1 active torsions:
REMARK  status: ('A' for Active; 'I' for Inactive)
REMARK    1  A    between atoms: C_2  and  O_10 
ROOT
HETATM    1  C   UNL     1      77.242   8.139  16.142  1.00  0.00     0.080 A 
HETATM    2  C   UNL     1      77.123   7.424  14.957  1.00  0.00     0.156 A 
HETATM    3  N   UNL     1      77.466   7.869  13.740  1.00  0.00    -0.332 N 
ATOM      4  HN  UNL     1      77.359   7.305  12.896  1.00  0.00     0.168 HD
HETATM    5  N   UNL     1      78.123   9.913  14.786  1.00  0.00    -0.351 N 
ATOM      6  HN  UNL     1      78.507  10.853  14.689  1.00  0.00     0.166 HD
HETATM    7  C   UNL     1      77.958   9.111  13.723  1.00  0.00     0.182 A 
HETATM    8  C   UNL     1      76.888   7.683  17.429  1.00  0.00     0.133 A 
HETATM    9  C   UNL     1      77.763   9.425  15.983  1.00  0.00     0.050 A 
HETATM   10  F   UNL     1      76.400   6.447  17.610  1.00  0.00    -0.205 F 
HETATM   11  C   UNL     1      77.541   9.780  18.387  1.00  0.00     0.005 A 
HETATM   12  C   UNL     1      77.034   8.497  18.545  1.00  0.00     0.043 A 
HETATM   13  C   UNL     1      77.903  10.226  17.113  1.00  0.00     0.030 A 
ENDROOT
BRANCH   2  14
HETATM   14  O   UNL     1      76.614   6.166  14.924  1.00  0.00    -0.345 OA
HETATM   15  H   UNL     1      76.034   5.878  15.601  1.00  0.00     0.219 HD
ENDBRANCH   2  14
TORSDOF 1
ENDMDL
MODEL 7
REMARK VINA RESULT:      -5.6     21.205     22.314
REMARK  1 active torsions:
REMARK  status: ('A' for Active; 'I' for Inactive)
REMARK    1  A    between atoms: C_2  and  O_10 
ROOT
HETATM    1  C   UNL     1      62.596   9.985   4.128  1.00  0.00     0.080 A 
HETATM    2  C   UNL     1      62.982   9.828   5.453  1.00  0.00     0.156 A 
HETATM    3  N   UNL     1      63.444   8.697   6.002  1.00  0.00    -0.332 N 
ATOM      4  HN  UNL     1      63.715   8.630   6.983  1.00  0.00     0.168 HD
HETATM    5  N   UNL     1      63.176   7.672   3.861  1.00  0.00    -0.351 N 
ATOM      6  HN  UNL     1      63.263   6.836   3.282  1.00  0.00     0.166 HD
HETATM    7  C   UNL     1      63.519   7.663   5.158  1.00  0.00     0.182 A 
HETATM    8  C   UNL     1      62.110  11.170   3.537  1.00  0.00     0.133 A 
HETATM    9  C   UNL     1      62.716   8.826   3.357  1.00  0.00     0.050 A 
HETATM   10  F   UNL     1      61.999  12.300   4.251  1.00  0.00    -0.205 F 
HETATM   11  C   UNL     1      61.843  10.051   1.435  1.00  0.00     0.005 A 
HETATM   12  C   UNL     1      61.734  11.204   2.199  1.00  0.00     0.043 A 
HETATM   13  C   UNL     1      62.336   8.880   2.019  1.00  0.00     0.030 A 
ENDROOT
BRANCH   2  14
HETATM   14  O   UNL     1      62.908  10.846   6.348  1.00  0.00    -0.345 OA
HETATM   15  H   UNL     1      63.090  10.688   7.254  1.00  0.00     0.219 HD
ENDBRANCH   2  14
TORSDOF 1
ENDMDL
MODEL 8
REMARK VINA RESULT:      -5.5      8.688     10.291
REMARK  1 active torsions:
REMARK  status: ('A' for Active; 'I' for Inactive)
REMARK    1  A    between atoms: C_2  and  O_10 
ROOT
HETATM    1  C   UNL     1      76.320   2.296  17.848  1.00  0.00     0.080 A 
HETATM    2  C   UNL     1      76.992   3.156  18.708  1.00  0.00     0.156 A 
HETATM    3  N   UNL     1      78.005   2.817  19.517  1.00  0.00    -0.332 N 
ATOM      4  HN  UNL     1      78.468   3.486  20.132  1.00  0.00     0.168 HD
HETATM    5  N   UNL     1      77.795   0.591  18.674  1.00  0.00    -0.351 N 
ATOM      6  HN  UNL     1      78.123  -0.375  18.684  1.00  0.00     0.166 HD
HETATM    7  C   UNL     1      78.358   1.529  19.451  1.00  0.00     0.182 A 
HETATM    8  C   UNL     1      75.254   2.640  16.991  1.00  0.00     0.133 A 
HETATM    9  C   UNL     1      76.782   0.978  17.884  1.00  0.00     0.050 A 
HETATM   10  F   UNL     1      74.802   3.901  16.928  1.00  0.00    -0.205 F 
HETATM   11  C   UNL     1      75.094   0.373  16.228  1.00  0.00     0.005 A 
HETATM   12  C   UNL     1      74.643   1.685  16.186  1.00  0.00     0.043 A 
HETATM   13  C   UNL     1      76.159   0.037  17.070  1.00  0.00     0.030 A 
ENDROOT
BRANCH   2  14
HETATM   14  O   UNL     1      76.657   4.467  18.818  1.00  0.00    -0.345 OA
HETATM   15  H   UNL     1      76.632   4.875  19.661  1.00  0.00     0.219 HD
ENDBRANCH   2  14
TORSDOF 1
ENDMDL
MODEL 9
REMARK VINA RESULT:      -5.4     21.577     22.834
REMARK  1 active torsions:
REMARK  status: ('A' for Active; 'I' for Inactive)
REMARK    1  A    between atoms: C_2  and  O_10 
ROOT
HETATM    1  C   UNL     1      62.519   9.596   3.319  1.00  0.00     0.080 A 
HETATM    2  C   UNL     1      62.083  10.883   3.607  1.00  0.00     0.156 A 
HETATM    3  N   UNL     1      62.332  11.557   4.738  1.00  0.00    -0.332 N 
ATOM      4  HN  UNL     1      61.989  12.503   4.905  1.00  0.00     0.168 HD
HETATM    5  N   UNL     1      63.550   9.642   5.486  1.00  0.00    -0.351 N 
ATOM      6  HN  UNL     1      64.105   9.199   6.218  1.00  0.00     0.166 HD
HETATM    7  C   UNL     1      63.069  10.886   5.630  1.00  0.00     0.182 A 
HETATM    8  C   UNL     1      62.264   8.877   2.133  1.00  0.00     0.133 A 
HETATM    9  C   UNL     1      63.270   9.007   4.338  1.00  0.00     0.050 A 
HETATM   10  F   UNL     1      61.558   9.426   1.134  1.00  0.00    -0.205 F 
HETATM   11  C   UNL     1      63.476   6.990   2.979  1.00  0.00     0.005 A 
HETATM   12  C   UNL     1      62.738   7.581   1.963  1.00  0.00     0.043 A 
HETATM   13  C   UNL     1      63.738   7.709   4.149  1.00  0.00     0.030 A 
ENDROOT
BRANCH   2  14
HETATM   14  O   UNL     1      61.320  11.595   2.738  1.00  0.00    -0.345 OA
HETATM   15  H   UNL     1      61.488  11.544   1.817  1.00  0.00     0.219 HD
ENDBRANCH   2  14
TORSDOF 1
ENDMDL
