MODEL 1
REMARK VINA RESULT:      -5.1      0.000      0.000
REMARK  2 active torsions:
REMARK  status: ('A' for Active; 'I' for Inactive)
REMARK    1  A    between atoms: N_1  and  C_2 
REMARK    2  A    between atoms: C_3  and  N_5 
ROOT
HETATM    1  C   UNL     1      62.866   9.300   4.183  1.00  0.00     0.056 C 
HETATM    2  C   UNL     1      62.649  10.661   4.543  1.00  0.00     0.052 C 
HETATM    3  C   UNL     1      62.509   8.931   2.872  1.00  0.00     0.031 C 
HETATM    4  C   UNL     1      61.982  11.532   3.675  1.00  0.00     0.031 C 
HETATM    5  C   UNL     1      61.931   9.839   1.976  1.00  0.00     0.002 C 
HETATM    6  C   UNL     1      61.660  11.139   2.381  1.00  0.00     0.002 C 
ENDROOT
BRANCH   1   7
HETATM    7  N   UNL     1      63.490   8.403   5.036  1.00  0.00    -0.375 N 
HETATM    8  C   UNL     1      62.763   7.688   6.094  1.00  0.00     0.149 C 
HETATM    9  C   UNL     1      63.314   6.250   6.149  1.00  0.00     0.187 C 
HETATM   10  O   UNL     1      64.737   6.225   6.368  1.00  0.00    -0.388 OA
HETATM   11  C   UNL     1      65.429   6.975   5.343  1.00  0.00     0.187 C 
HETATM   12  C   UNL     1      64.941   8.430   5.289  1.00  0.00     0.149 C 
ENDBRANCH   1   7
BRANCH   2  13
HETATM   13  N   UNL     1      62.985  11.141   5.833  1.00  0.00    -0.397 N 
HETATM   14  H   UNL     1      62.750  12.060   6.092  1.00  0.00     0.156 HD
HETATM   15  H   UNL     1      63.453  10.554   6.471  1.00  0.00     0.156 HD
ENDBRANCH   2  13
TORSDOF 2
ENDMDL
MODEL 2
REMARK VINA RESULT:      -4.9     18.211     19.757
REMARK  2 active torsions:
REMARK  status: ('A' for Active; 'I' for Inactive)
REMARK    1  A    between atoms: N_1  and  C_2 
REMARK    2  A    between atoms: C_3  and  N_5 
ROOT
HETATM    1  C   UNL     1      75.817   2.655  17.525  1.00  0.00     0.056 C 
HETATM    2  C   UNL     1      76.840   3.341  18.238  1.00  0.00     0.052 C 
HETATM    3  C   UNL     1      75.013   3.434  16.671  1.00  0.00     0.031 C 
HETATM    4  C   UNL     1      76.932   4.737  18.191  1.00  0.00     0.031 C 
HETATM    5  C   UNL     1      75.178   4.819  16.555  1.00  0.00     0.002 C 
HETATM    6  C   UNL     1      76.134   5.473  17.322  1.00  0.00     0.002 C 
ENDROOT
BRANCH   1   7
HETATM    7  N   UNL     1      75.677   1.275  17.582  1.00  0.00    -0.375 N 
HETATM    8  C   UNL     1      76.522   0.366  16.795  1.00  0.00     0.149 C 
HETATM    9  C   UNL     1      76.851  -0.850  17.683  1.00  0.00     0.187 C 
HETATM   10  O   UNL     1      75.661  -1.505  18.162  1.00  0.00    -0.388 OA
HETATM   11  C   UNL     1      74.821  -0.580  18.892  1.00  0.00     0.187 C 
HETATM   12  C   UNL     1      74.432   0.625  18.023  1.00  0.00     0.149 C 
ENDBRANCH   1   7
BRANCH   2  13
HETATM   13  N   UNL     1      77.713   2.651  19.115  1.00  0.00    -0.397 N 
HETATM   14  H   UNL     1      77.466   1.762  19.456  1.00  0.00     0.156 HD
HETATM   15  H   UNL     1      78.569   3.060  19.382  1.00  0.00     0.156 HD
ENDBRANCH   2  13
TORSDOF 2
ENDMDL
MODEL 3
REMARK VINA RESULT:      -4.9      0.914      2.003
REMARK  2 active torsions:
REMARK  status: ('A' for Active; 'I' for Inactive)
REMARK    1  A    between atoms: N_1  and  C_2 
REMARK    2  A    between atoms: C_3  and  N_5 
ROOT
HETATM    1  C   UNL     1      62.932   9.117   3.936  1.00  0.00     0.056 C 
HETATM    2  C   UNL     1      62.694   8.604   2.630  1.00  0.00     0.052 C 
HETATM    3  C   UNL     1      62.482  10.426   4.190  1.00  0.00     0.031 C 
HETATM    4  C   UNL     1      62.170   9.424   1.624  1.00  0.00     0.031 C 
HETATM    5  C   UNL     1      61.867  11.205   3.202  1.00  0.00     0.002 C 
HETATM    6  C   UNL     1      61.718  10.706   1.915  1.00  0.00     0.002 C 
ENDROOT
BRANCH   1   7
HETATM    7  N   UNL     1      63.486   8.340   4.944  1.00  0.00    -0.375 N 
HETATM    8  C   UNL     1      62.668   7.710   5.989  1.00  0.00     0.149 C 
HETATM    9  C   UNL     1      63.252   6.310   6.257  1.00  0.00     0.187 C 
HETATM   10  O   UNL     1      64.643   6.368   6.628  1.00  0.00    -0.388 OA
HETATM   11  C   UNL     1      65.421   7.035   5.607  1.00  0.00     0.187 C 
HETATM   12  C   UNL     1      64.898   8.454   5.345  1.00  0.00     0.149 C 
ENDBRANCH   1   7
BRANCH   2  13
HETATM   13  N   UNL     1      63.096   7.293   2.272  1.00  0.00    -0.397 N 
HETATM   14  H   UNL     1      62.743   6.877   1.453  1.00  0.00     0.156 HD
HETATM   15  H   UNL     1      63.729   6.799   2.842  1.00  0.00     0.156 HD
ENDBRANCH   2  13
TORSDOF 2
ENDMDL
MODEL 4
REMARK VINA RESULT:      -4.9      0.907      1.613
REMARK  2 active torsions:
REMARK  status: ('A' for Active; 'I' for Inactive)
REMARK    1  A    between atoms: N_1  and  C_2 
REMARK    2  A    between atoms: C_3  and  N_5 
ROOT
HETATM    1  C   UNL     1      63.370   9.003   4.256  1.00  0.00     0.056 C 
HETATM    2  C   UNL     1      63.066  10.317   4.712  1.00  0.00     0.052 C 
HETATM    3  C   UNL     1      62.849   8.635   3.001  1.00  0.00     0.031 C 
HETATM    4  C   UNL     1      62.175  11.131   4.004  1.00  0.00     0.031 C 
HETATM    5  C   UNL     1      62.038   9.497   2.252  1.00  0.00     0.002 C 
HETATM    6  C   UNL     1      61.693  10.743   2.758  1.00  0.00     0.002 C 
ENDROOT
BRANCH   1   7
HETATM    7  N   UNL     1      64.219   8.158   4.956  1.00  0.00    -0.375 N 
HETATM    8  C   UNL     1      65.682   8.270   4.873  1.00  0.00     0.149 C 
HETATM    9  C   UNL     1      66.249   8.018   6.284  1.00  0.00     0.187 C 
HETATM   10  O   UNL     1      65.839   6.741   6.810  1.00  0.00    -0.388 OA
HETATM   11  C   UNL     1      64.397   6.635   6.837  1.00  0.00     0.187 C 
HETATM   12  C   UNL     1      63.796   6.833   5.437  1.00  0.00     0.149 C 
ENDBRANCH   1   7
BRANCH   2  13
HETATM   13  N   UNL     1      63.550  10.793   5.955  1.00  0.00    -0.397 N 
HETATM   14  H   UNL     1      63.624  10.180   6.722  1.00  0.00     0.156 HD
HETATM   15  H   UNL     1      63.815  11.737   6.052  1.00  0.00     0.156 HD
ENDBRANCH   2  13
TORSDOF 2
ENDMDL
MODEL 5
REMARK VINA RESULT:      -4.8      0.807      1.572
REMARK  2 active torsions:
REMARK  status: ('A' for Active; 'I' for Inactive)
REMARK    1  A    between atoms: N_1  and  C_2 
REMARK    2  A    between atoms: C_3  and  N_5 
ROOT
HETATM    1  C   UNL     1      62.850   8.794   3.610  1.00  0.00     0.056 C 
HETATM    2  C   UNL     1      62.632  10.075   4.194  1.00  0.00     0.052 C 
HETATM    3  C   UNL     1      62.558   8.670   2.239  1.00  0.00     0.031 C 
HETATM    4  C   UNL     1      62.023  11.100   3.462  1.00  0.00     0.031 C 
HETATM    5  C   UNL     1      62.041   9.733   1.489  1.00  0.00     0.002 C 
HETATM    6  C   UNL     1      61.765  10.948   2.104  1.00  0.00     0.002 C 
ENDROOT
BRANCH   1   7
HETATM    7  N   UNL     1      63.417   7.747   4.321  1.00  0.00    -0.375 N 
HETATM    8  C   UNL     1      64.845   7.413   4.224  1.00  0.00     0.149 C 
HETATM    9  C   UNL     1      65.331   7.029   5.635  1.00  0.00     0.187 C 
HETATM   10  O   UNL     1      64.564   5.944   6.193  1.00  0.00    -0.388 OA
HETATM   11  C   UNL     1      63.157   6.276   6.234  1.00  0.00     0.187 C 
HETATM   12  C   UNL     1      62.623   6.619   4.836  1.00  0.00     0.149 C 
ENDBRANCH   1   7
BRANCH   2  13
HETATM   13  N   UNL     1      62.906  10.313   5.563  1.00  0.00    -0.397 N 
HETATM   14  H   UNL     1      62.791  11.215   5.938  1.00  0.00     0.156 HD
HETATM   15  H   UNL     1      63.210   9.575   6.141  1.00  0.00     0.156 HD
ENDBRANCH   2  13
TORSDOF 2
ENDMDL
MODEL 6
REMARK VINA RESULT:      -4.8      5.193      8.098
REMARK  2 active torsions:
REMARK  status: ('A' for Active; 'I' for Inactive)
REMARK    1  A    between atoms: N_1  and  C_2 
REMARK    2  A    between atoms: C_3  and  N_5 
ROOT
HETATM    1  C   UNL     1      68.122   5.176   7.946  1.00  0.00     0.056 C 
HETATM    2  C   UNL     1      67.487   3.959   8.322  1.00  0.00     0.052 C 
HETATM    3  C   UNL     1      69.430   5.378   8.427  1.00  0.00     0.031 C 
HETATM    4  C   UNL     1      68.090   3.090   9.238  1.00  0.00     0.031 C 
HETATM    5  C   UNL     1      70.064   4.454   9.266  1.00  0.00     0.002 C 
HETATM    6  C   UNL     1      69.390   3.312   9.679  1.00  0.00     0.002 C 
ENDROOT
BRANCH   1   7
HETATM    7  N   UNL     1      67.533   6.075   7.070  1.00  0.00    -0.375 N 
HETATM    8  C   UNL     1      66.500   7.028   7.498  1.00  0.00     0.149 C 
HETATM    9  C   UNL     1      66.763   8.360   6.769  1.00  0.00     0.187 C 
HETATM   10  O   UNL     1      66.780   8.197   5.337  1.00  0.00    -0.388 OA
HETATM   11  C   UNL     1      67.770   7.219   4.942  1.00  0.00     0.187 C 
HETATM   12  C   UNL     1      67.513   5.862   5.613  1.00  0.00     0.149 C 
ENDBRANCH   1   7
BRANCH   2  13
HETATM   13  N   UNL     1      66.176   3.649   7.882  1.00  0.00    -0.397 N 
HETATM   14  H   UNL     1      65.621   3.018   8.394  1.00  0.00     0.156 HD
HETATM   15  H   UNL     1      65.819   4.067   7.065  1.00  0.00     0.156 HD
ENDBRANCH   2  13
TORSDOF 2
ENDMDL
MODEL 7
REMARK VINA RESULT:      -4.7      1.388      2.540
REMARK  2 active torsions:
REMARK  status: ('A' for Active; 'I' for Inactive)
REMARK    1  A    between atoms: N_1  and  C_2 
REMARK    2  A    between atoms: C_3  and  N_5 
ROOT
HETATM    1  C   UNL     1      62.976   8.467   3.347  1.00  0.00     0.056 C 
HETATM    2  C   UNL     1      63.045   7.528   2.280  1.00  0.00     0.052 C 
HETATM    3  C   UNL     1      62.299   9.673   3.082  1.00  0.00     0.031 C 
HETATM    4  C   UNL     1      62.587   7.864   1.001  1.00  0.00     0.031 C 
HETATM    5  C   UNL     1      61.756   9.959   1.824  1.00  0.00     0.002 C 
HETATM    6  C   UNL     1      61.907   9.057   0.779  1.00  0.00     0.002 C 
ENDROOT
BRANCH   1   7
HETATM    7  N   UNL     1      63.456   8.177   4.616  1.00  0.00    -0.375 N 
HETATM    8  C   UNL     1      62.606   7.591   5.663  1.00  0.00     0.149 C 
HETATM    9  C   UNL     1      63.457   6.561   6.431  1.00  0.00     0.187 C 
HETATM   10  O   UNL     1      64.653   7.150   6.979  1.00  0.00    -0.388 OA
HETATM   11  C   UNL     1      65.449   7.763   5.938  1.00  0.00     0.187 C 
HETATM   12  C   UNL     1      64.649   8.831   5.179  1.00  0.00     0.149 C 
ENDBRANCH   1   7
BRANCH   2  13
HETATM   13  N   UNL     1      63.692   6.278   2.443  1.00  0.00    -0.397 N 
HETATM   14  H   UNL     1      63.692   5.624   1.707  1.00  0.00     0.156 HD
HETATM   15  H   UNL     1      64.143   6.064   3.292  1.00  0.00     0.156 HD
ENDBRANCH   2  13
TORSDOF 2
ENDMDL
MODEL 8
REMARK VINA RESULT:      -4.5      4.356      7.464
REMARK  2 active torsions:
REMARK  status: ('A' for Active; 'I' for Inactive)
REMARK    1  A    between atoms: N_1  and  C_2 
REMARK    2  A    between atoms: C_3  and  N_5 
ROOT
HETATM    1  C   UNL     1      67.804   5.017   7.126  1.00  0.00     0.056 C 
HETATM    2  C   UNL     1      68.167   5.427   8.441  1.00  0.00     0.052 C 
HETATM    3  C   UNL     1      68.208   3.726   6.735  1.00  0.00     0.031 C 
HETATM    4  C   UNL     1      69.004   4.632   9.232  1.00  0.00     0.031 C 
HETATM    5  C   UNL     1      68.963   2.898   7.574  1.00  0.00     0.002 C 
HETATM    6  C   UNL     1      69.369   3.355   8.821  1.00  0.00     0.002 C 
ENDROOT
BRANCH   1   7
HETATM    7  N   UNL     1      67.006   5.799   6.304  1.00  0.00    -0.375 N 
HETATM    8  C   UNL     1      65.542   5.680   6.285  1.00  0.00     0.149 C 
HETATM    9  C   UNL     1      64.960   7.101   6.157  1.00  0.00     0.187 C 
HETATM   10  O   UNL     1      65.456   7.784   4.990  1.00  0.00    -0.388 OA
HETATM   11  C   UNL     1      66.901   7.847   5.006  1.00  0.00     0.187 C 
HETATM   12  C   UNL     1      67.521   6.445   5.085  1.00  0.00     0.149 C 
ENDBRANCH   1   7
BRANCH   2  13
HETATM   13  N   UNL     1      67.800   6.701   8.939  1.00  0.00    -0.397 N 
HETATM   14  H   UNL     1      67.756   7.473   8.331  1.00  0.00     0.156 HD
HETATM   15  H   UNL     1      67.587   6.814   9.895  1.00  0.00     0.156 HD
ENDBRANCH   2  13
TORSDOF 2
ENDMDL
MODEL 9
REMARK VINA RESULT:      -4.5      3.302      4.822
REMARK  2 active torsions:
REMARK  status: ('A' for Active; 'I' for Inactive)
REMARK    1  A    between atoms: N_1  and  C_2 
REMARK    2  A    between atoms: C_3  and  N_5 
ROOT
HETATM    1  C   UNL     1      65.493   6.728   6.822  1.00  0.00     0.056 C 
HETATM    2  C   UNL     1      66.065   7.771   6.040  1.00  0.00     0.052 C 
HETATM    3  C   UNL     1      64.121   6.477   6.631  1.00  0.00     0.031 C 
HETATM    4  C   UNL     1      65.260   8.587   5.237  1.00  0.00     0.031 C 
HETATM    5  C   UNL     1      63.343   7.237   5.749  1.00  0.00     0.002 C 
HETATM    6  C   UNL     1      63.912   8.299   5.057  1.00  0.00     0.002 C 
ENDROOT
BRANCH   1   7
HETATM    7  N   UNL     1      66.259   5.926   7.656  1.00  0.00    -0.375 N 
HETATM    8  C   UNL     1      66.461   4.493   7.401  1.00  0.00     0.149 C 
HETATM    9  C   UNL     1      67.924   4.159   7.752  1.00  0.00     0.187 C 
HETATM   10  O   UNL     1      68.247   4.512   9.111  1.00  0.00    -0.388 OA
HETATM   11  C   UNL     1      67.994   5.915   9.353  1.00  0.00     0.187 C 
HETATM   12  C   UNL     1      66.531   6.278   9.060  1.00  0.00     0.149 C 
ENDBRANCH   1   7
BRANCH   2  13
HETATM   13  N   UNL     1      67.440   8.097   6.145  1.00  0.00    -0.397 N 
HETATM   14  H   UNL     1      67.959   7.794   6.924  1.00  0.00     0.156 HD
HETATM   15  H   UNL     1      67.876   8.626   5.438  1.00  0.00     0.156 HD
ENDBRANCH   2  13
TORSDOF 2
ENDMDL
