MODEL 1
REMARK VINA RESULT:      -7.5      0.000      0.000
REMARK  0 active torsions:
REMARK  status: ('A' for Active; 'I' for Inactive)
ROOT
HETATM    1  N   UNL     1      80.333  11.148  21.240  1.00  0.00    -0.286 N 
ATOM      2  HN  UNL     1      81.150  10.998  21.832  1.00  0.00     0.188 HD
HETATM    3  N   UNL     1      80.133  10.393  20.122  1.00  0.00    -0.265 N 
HETATM    4  C   UNL     1      79.457  12.063  21.533  1.00  0.00     0.129 A 
HETATM    5  C   UNL     1      79.076  10.503  19.251  1.00  0.00     0.271 A 
HETATM    6  C   UNL     1      78.255  12.317  20.714  1.00  0.00     0.019 A 
HETATM    7  C   UNL     1      78.070  11.527  19.583  1.00  0.00     0.047 A 
HETATM    8  O   UNL     1      78.964   9.798  18.255  1.00  0.00    -0.266 OA
HETATM    9 CL   UNL     1      79.812  12.954  22.973  1.00  0.00    -0.062 Cl
HETATM   10  C   UNL     1      76.937  11.695  18.778  1.00  0.00     0.018 A 
HETATM   11  C   UNL     1      77.308  13.295  21.043  1.00  0.00     0.016 A 
HETATM   12  C   UNL     1      75.987  12.659  19.115  1.00  0.00     0.001 A 
HETATM   13  C   UNL     1      76.174  13.460  20.242  1.00  0.00     0.001 A 
HETATM   14  H   UNL     1      80.808   9.705  19.920  1.00  0.00     0.190 HD
ENDROOT
TORSDOF 0
ENDMDL
MODEL 2
REMARK VINA RESULT:      -7.4      2.358      3.019
REMARK  0 active torsions:
REMARK  status: ('A' for Active; 'I' for Inactive)
ROOT
HETATM    1  N   UNL     1      80.061  10.267  19.896  1.00  0.00    -0.286 N 
ATOM      2  HN  UNL     1      80.713   9.533  19.619  1.00  0.00     0.188 HD
HETATM    3  N   UNL     1      80.317  11.057  20.977  1.00  0.00    -0.265 N 
HETATM    4  C   UNL     1      78.966  10.472  19.225  1.00  0.00     0.129 A 
HETATM    5  C   UNL     1      79.516  12.071  21.445  1.00  0.00     0.271 A 
HETATM    6  C   UNL     1      77.992  11.524  19.578  1.00  0.00     0.019 A 
HETATM    7  C   UNL     1      78.281  12.322  20.682  1.00  0.00     0.047 A 
HETATM    8  O   UNL     1      79.802  12.736  22.434  1.00  0.00    -0.266 OA
HETATM    9 CL   UNL     1      78.750   9.415  17.873  1.00  0.00    -0.062 Cl
HETATM   10  C   UNL     1      77.415  13.356  21.055  1.00  0.00     0.018 A 
HETATM   11  C   UNL     1      76.821  11.749  18.844  1.00  0.00     0.016 A 
HETATM   12  C   UNL     1      76.257  13.590  20.314  1.00  0.00     0.001 A 
HETATM   13  C   UNL     1      75.959  12.785  19.214  1.00  0.00     0.001 A 
HETATM   14  H   UNL     1      81.152  10.885  21.469  1.00  0.00     0.190 HD
ENDROOT
TORSDOF 0
ENDMDL
MODEL 3
REMARK VINA RESULT:      -6.4      5.541      6.458
REMARK  0 active torsions:
REMARK  status: ('A' for Active; 'I' for Inactive)
ROOT
HETATM    1  N   UNL     1      77.393   7.383  13.913  1.00  0.00    -0.286 N 
ATOM      2  HN  UNL     1      77.493   7.244  12.908  1.00  0.00     0.188 HD
HETATM    3  N   UNL     1      77.086   6.339  14.735  1.00  0.00    -0.265 N 
HETATM    4  C   UNL     1      77.555   8.560  14.443  1.00  0.00     0.129 A 
HETATM    5  C   UNL     1      76.924   6.403  16.098  1.00  0.00     0.271 A 
HETATM    6  C   UNL     1      77.427   8.814  15.891  1.00  0.00     0.019 A 
HETATM    7  C   UNL     1      77.122   7.730  16.709  1.00  0.00     0.047 A 
HETATM    8  O   UNL     1      76.635   5.425  16.777  1.00  0.00    -0.266 OA
HETATM    9 CL   UNL     1      77.946   9.804  13.306  1.00  0.00    -0.062 Cl
HETATM   10  C   UNL     1      77.014   7.894  18.094  1.00  0.00     0.018 A 
HETATM   11  C   UNL     1      77.616  10.081  16.457  1.00  0.00     0.016 A 
HETATM   12  C   UNL     1      77.218   9.154  18.659  1.00  0.00     0.001 A 
HETATM   13  C   UNL     1      77.514  10.245  17.841  1.00  0.00     0.001 A 
HETATM   14  H   UNL     1      76.970   5.457  14.313  1.00  0.00     0.190 HD
ENDROOT
TORSDOF 0
ENDMDL
MODEL 4
REMARK VINA RESULT:      -5.9     21.867     23.104
REMARK  0 active torsions:
REMARK  status: ('A' for Active; 'I' for Inactive)
ROOT
HETATM    1  N   UNL     1      63.588   9.163   5.840  1.00  0.00    -0.286 N 
ATOM      2  HN  UNL     1      64.025   8.922   6.730  1.00  0.00     0.188 HD
HETATM    3  N   UNL     1      63.016  10.386   5.650  1.00  0.00    -0.265 N 
HETATM    4  C   UNL     1      63.563   8.309   4.859  1.00  0.00     0.129 A 
HETATM    5  C   UNL     1      62.400  10.821   4.502  1.00  0.00     0.271 A 
HETATM    6  C   UNL     1      62.950   8.608   3.550  1.00  0.00     0.019 A 
HETATM    7  C   UNL     1      62.380   9.866   3.379  1.00  0.00     0.047 A 
HETATM    8  O   UNL     1      61.894  11.933   4.403  1.00  0.00    -0.266 OA
HETATM    9 CL   UNL     1      64.321   6.795   5.213  1.00  0.00    -0.062 Cl
HETATM   10  C   UNL     1      61.807  10.225   2.154  1.00  0.00     0.018 A 
HETATM   11  C   UNL     1      62.938   7.689   2.493  1.00  0.00     0.016 A 
HETATM   12  C   UNL     1      61.810   9.316   1.096  1.00  0.00     0.001 A 
HETATM   13  C   UNL     1      62.370   8.049   1.267  1.00  0.00     0.001 A 
HETATM   14  H   UNL     1      63.049  11.017   6.405  1.00  0.00     0.190 HD
ENDROOT
TORSDOF 0
ENDMDL
MODEL 5
REMARK VINA RESULT:      -5.6     22.474     23.685
REMARK  0 active torsions:
REMARK  status: ('A' for Active; 'I' for Inactive)
ROOT
HETATM    1  N   UNL     1      61.422  10.295   1.571  1.00  0.00    -0.286 N 
ATOM      2  HN  UNL     1      60.931  10.529   0.709  1.00  0.00     0.188 HD
HETATM    3  N   UNL     1      61.454  11.171   2.616  1.00  0.00    -0.265 N 
HETATM    4  C   UNL     1      62.032   9.154   1.702  1.00  0.00     0.129 A 
HETATM    5  C   UNL     1      62.082  10.968   3.821  1.00  0.00     0.271 A 
HETATM    6  C   UNL     1      62.752   8.763   2.930  1.00  0.00     0.019 A 
HETATM    7  C   UNL     1      62.763   9.672   3.984  1.00  0.00     0.047 A 
HETATM    8  O   UNL     1      62.082  11.806   4.716  1.00  0.00    -0.266 OA
HETATM    9 CL   UNL     1      61.920   8.124   0.316  1.00  0.00    -0.062 Cl
HETATM   10  C   UNL     1      63.403   9.354   5.188  1.00  0.00     0.018 A 
HETATM   11  C   UNL     1      63.396   7.528   3.069  1.00  0.00     0.016 A 
HETATM   12  C   UNL     1      64.030   8.116   5.331  1.00  0.00     0.001 A 
HETATM   13  C   UNL     1      64.031   7.207   4.272  1.00  0.00     0.001 A 
HETATM   14  H   UNL     1      60.984  12.027   2.496  1.00  0.00     0.190 HD
ENDROOT
TORSDOF 0
ENDMDL
MODEL 6
REMARK VINA RESULT:      -5.5     22.377     23.615
REMARK  0 active torsions:
REMARK  status: ('A' for Active; 'I' for Inactive)
ROOT
HETATM    1  N   UNL     1      62.198  11.597   4.236  1.00  0.00    -0.286 N 
ATOM      2  HN  UNL     1      62.000  12.572   4.461  1.00  0.00     0.188 HD
HETATM    3  N   UNL     1      62.656  10.738   5.192  1.00  0.00    -0.265 N 
HETATM    4  C   UNL     1      62.020  11.142   3.030  1.00  0.00     0.129 A 
HETATM    5  C   UNL     1      62.957   9.410   5.007  1.00  0.00     0.271 A 
HETATM    6  C   UNL     1      62.286   9.740   2.652  1.00  0.00     0.019 A 
HETATM    7  C   UNL     1      62.744   8.882   3.648  1.00  0.00     0.047 A 
HETATM    8  O   UNL     1      63.378   8.697   5.911  1.00  0.00    -0.266 OA
HETATM    9 CL   UNL     1      61.434  12.319   1.905  1.00  0.00    -0.062 Cl
HETATM   10  C   UNL     1      62.988   7.534   3.366  1.00  0.00     0.018 A 
HETATM   11  C   UNL     1      62.080   9.254   1.356  1.00  0.00     0.016 A 
HETATM   12  C   UNL     1      62.768   7.046   2.077  1.00  0.00     0.001 A 
HETATM   13  C   UNL     1      62.319   7.906   1.074  1.00  0.00     0.001 A 
HETATM   14  H   UNL     1      62.781  11.103   6.097  1.00  0.00     0.190 HD
ENDROOT
TORSDOF 0
ENDMDL
MODEL 7
REMARK VINA RESULT:      -5.4      9.841     11.185
REMARK  0 active torsions:
REMARK  status: ('A' for Active; 'I' for Inactive)
ROOT
HETATM    1  N   UNL     1      77.124   3.608  19.098  1.00  0.00    -0.286 N 
ATOM      2  HN  UNL     1      76.877   4.586  19.243  1.00  0.00     0.188 HD
HETATM    3  N   UNL     1      77.958   2.962  19.963  1.00  0.00    -0.265 N 
HETATM    4  C   UNL     1      76.652   2.944  18.084  1.00  0.00     0.129 A 
HETATM    5  C   UNL     1      78.361   1.652  19.871  1.00  0.00     0.271 A 
HETATM    6  C   UNL     1      76.972   1.526  17.831  1.00  0.00     0.019 A 
HETATM    7  C   UNL     1      77.818   0.888  18.734  1.00  0.00     0.047 A 
HETATM    8  O   UNL     1      79.124   1.137  20.679  1.00  0.00    -0.266 OA
HETATM    9 CL   UNL     1      75.603   3.863  17.058  1.00  0.00    -0.062 Cl
HETATM   10  C   UNL     1      78.140  -0.464  18.570  1.00  0.00     0.018 A 
HETATM   11  C   UNL     1      76.449   0.814  16.744  1.00  0.00     0.016 A 
HETATM   12  C   UNL     1      77.606  -1.177  17.496  1.00  0.00     0.001 A 
HETATM   13  C   UNL     1      76.766  -0.538  16.583  1.00  0.00     0.001 A 
HETATM   14  H   UNL     1      78.302   3.482  20.724  1.00  0.00     0.190 HD
ENDROOT
TORSDOF 0
ENDMDL
MODEL 8
REMARK VINA RESULT:      -5.1     22.240     23.427
REMARK  0 active torsions:
REMARK  status: ('A' for Active; 'I' for Inactive)
ROOT
HETATM    1  N   UNL     1      63.460   6.509   3.544  1.00  0.00    -0.286 N 
ATOM      2  HN  UNL     1      63.770   5.549   3.397  1.00  0.00     0.188 HD
HETATM    3  N   UNL     1      63.428   7.048   4.796  1.00  0.00    -0.265 N 
HETATM    4  C   UNL     1      63.087   7.250   2.542  1.00  0.00     0.129 A 
HETATM    5  C   UNL     1      63.030   8.324   5.117  1.00  0.00     0.271 A 
HETATM    6  C   UNL     1      62.636   8.647   2.698  1.00  0.00     0.019 A 
HETATM    7  C   UNL     1      62.620   9.176   3.986  1.00  0.00     0.047 A 
HETATM    8  O   UNL     1      63.013   8.741   6.269  1.00  0.00    -0.266 OA
HETATM    9 CL   UNL     1      63.175   6.462   1.003  1.00  0.00    -0.062 Cl
HETATM   10  C   UNL     1      62.231  10.502   4.203  1.00  0.00     0.018 A 
HETATM   11  C   UNL     1      62.248   9.443   1.614  1.00  0.00     0.016 A 
HETATM   12  C   UNL     1      61.860  11.300   3.120  1.00  0.00     0.001 A 
HETATM   13  C   UNL     1      61.864  10.769   1.829  1.00  0.00     0.001 A 
HETATM   14  H   UNL     1      63.716   6.471   5.539  1.00  0.00     0.190 HD
ENDROOT
TORSDOF 0
ENDMDL
MODEL 9
REMARK VINA RESULT:      -5.1      9.849     10.999
REMARK  0 active torsions:
REMARK  status: ('A' for Active; 'I' for Inactive)
ROOT
HETATM    1  N   UNL     1      76.250   4.231  17.921  1.00  0.00    -0.286 N 
ATOM      2  HN  UNL     1      76.211   5.243  18.037  1.00  0.00     0.188 HD
HETATM    3  N   UNL     1      77.237   3.497  18.511  1.00  0.00    -0.265 N 
HETATM    4  C   UNL     1      75.360   3.607  17.206  1.00  0.00     0.129 A 
HETATM    5  C   UNL     1      77.393   2.135  18.425  1.00  0.00     0.271 A 
HETATM    6  C   UNL     1      75.367   2.144  17.010  1.00  0.00     0.019 A 
HETATM    7  C   UNL     1      76.381   1.418  17.630  1.00  0.00     0.047 A 
HETATM    8  O   UNL     1      78.313   1.539  18.973  1.00  0.00    -0.266 OA
HETATM    9 CL   UNL     1      74.157   4.638  16.511  1.00  0.00    -0.062 Cl
HETATM   10  C   UNL     1      76.430   0.025  17.510  1.00  0.00     0.018 A 
HETATM   11  C   UNL     1      74.399   1.477  16.250  1.00  0.00     0.016 A 
HETATM   12  C   UNL     1      75.455  -0.640  16.766  1.00  0.00     0.001 A 
HETATM   13  C   UNL     1      74.445   0.085  16.134  1.00  0.00     0.001 A 
HETATM   14  H   UNL     1      77.898   3.989  19.049  1.00  0.00     0.190 HD
ENDROOT
TORSDOF 0
ENDMDL
