MODEL 1
REMARK VINA RESULT:      -5.4      0.000      0.000
REMARK  2 active torsions:
REMARK  status: ('A' for Active; 'I' for Inactive)
REMARK    1  A    between atoms: C_1  and  C_3 
REMARK    2  A    between atoms: C_2  and  N_4 
REMARK       I    between atoms: C_3  and  N_6 
ROOT
HETATM    1  C   UNL     1      76.610   2.886  17.900  1.00  0.00     0.058 A 
HETATM    2  C   UNL     1      75.445   2.519  17.177  1.00  0.00     0.046 A 
HETATM    3  C   UNL     1      77.008   4.237  18.007  1.00  0.00     0.019 A 
HETATM    4  C   UNL     1      74.724   3.578  16.582  1.00  0.00     0.030 A 
HETATM    5  C   UNL     1      76.275   5.243  17.385  1.00  0.00     0.001 A 
HETATM    6  C   UNL     1      75.129   4.914  16.675  1.00  0.00     0.002 A 
ENDROOT
BRANCH   2   7
HETATM    7  N   UNL     1      75.042   1.174  17.010  1.00  0.00    -0.380 N 
HETATM    8  C   UNL     1      74.483   0.787  15.702  1.00  0.00     0.123 C 
HETATM    9  C   UNL     1      74.585  -0.730  15.553  1.00  0.00     0.020 C 
HETATM   10  C   UNL     1      73.880  -1.446  16.702  1.00  0.00     0.003 C 
HETATM   11  C   UNL     1      74.374  -0.935  18.055  1.00  0.00     0.020 C 
HETATM   12  C   UNL     1      74.285   0.594  18.144  1.00  0.00     0.123 C 
ENDBRANCH   2   7
BRANCH   1  13
HETATM   13  C   UNL     1      77.543   1.919  18.553  1.00  0.00     0.251 C 
HETATM   14  O   UNL     1      77.785   0.822  18.067  1.00  0.00    -0.268 OA
HETATM   15  N   UNL     1      78.112   2.309  19.731  1.00  0.00    -0.366 N 
HETATM   16  H   UNL     1      77.907   3.196  20.108  1.00  0.00     0.159 HD
HETATM   17  H   UNL     1      78.729   1.705  20.204  1.00  0.00     0.159 HD
ENDBRANCH   1  13
TORSDOF 2
ENDMDL
MODEL 2
REMARK VINA RESULT:      -5.3     13.339     14.862
REMARK  2 active torsions:
REMARK  status: ('A' for Active; 'I' for Inactive)
REMARK    1  A    between atoms: C_1  and  C_3 
REMARK    2  A    between atoms: C_2  and  N_4 
REMARK       I    between atoms: C_3  and  N_6 
ROOT
HETATM    1  C   UNL     1      67.258   6.307   4.936  1.00  0.00     0.058 A 
HETATM    2  C   UNL     1      67.437   5.103   5.666  1.00  0.00     0.046 A 
HETATM    3  C   UNL     1      66.739   6.294   3.623  1.00  0.00     0.019 A 
HETATM    4  C   UNL     1      67.067   3.913   5.002  1.00  0.00     0.030 A 
HETATM    5  C   UNL     1      66.408   5.093   3.003  1.00  0.00     0.001 A 
HETATM    6  C   UNL     1      66.568   3.901   3.694  1.00  0.00     0.002 A 
ENDROOT
BRANCH   2   7
HETATM    7  N   UNL     1      67.997   5.074   6.964  1.00  0.00    -0.380 N 
HETATM    8  C   UNL     1      68.827   3.909   7.322  1.00  0.00     0.123 C 
HETATM    9  C   UNL     1      69.716   4.283   8.506  1.00  0.00     0.020 C 
HETATM   10  C   UNL     1      68.883   4.767   9.691  1.00  0.00     0.003 C 
HETATM   11  C   UNL     1      67.928   5.885   9.271  1.00  0.00     0.020 C 
HETATM   12  C   UNL     1      67.082   5.475   8.058  1.00  0.00     0.123 C 
ENDBRANCH   2   7
BRANCH   1  13
HETATM   13  C   UNL     1      67.640   7.664   5.430  1.00  0.00     0.251 C 
HETATM   14  O   UNL     1      66.851   8.379   6.035  1.00  0.00    -0.268 OA
HETATM   15  N   UNL     1      68.912   8.083   5.169  1.00  0.00    -0.366 N 
HETATM   16  H   UNL     1      69.534   7.494   4.682  1.00  0.00     0.159 HD
HETATM   17  H   UNL     1      69.210   8.972   5.467  1.00  0.00     0.159 HD
ENDBRANCH   1  13
TORSDOF 2
ENDMDL
MODEL 3
REMARK VINA RESULT:      -5.3     18.240     19.614
REMARK  2 active torsions:
REMARK  status: ('A' for Active; 'I' for Inactive)
REMARK    1  A    between atoms: C_1  and  C_3 
REMARK    2  A    between atoms: C_2  and  N_4 
REMARK       I    between atoms: C_3  and  N_6 
ROOT
HETATM    1  C   UNL     1      62.539   9.711   3.710  1.00  0.00     0.058 A 
HETATM    2  C   UNL     1      63.011   8.382   3.555  1.00  0.00     0.046 A 
HETATM    3  C   UNL     1      61.937  10.402   2.635  1.00  0.00     0.019 A 
HETATM    4  C   UNL     1      62.843   7.807   2.276  1.00  0.00     0.030 A 
HETATM    5  C   UNL     1      61.811   9.800   1.387  1.00  0.00     0.001 A 
HETATM    6  C   UNL     1      62.261   8.500   1.208  1.00  0.00     0.002 A 
ENDROOT
BRANCH   2   7
HETATM    7  N   UNL     1      63.661   7.677   4.595  1.00  0.00    -0.380 N 
HETATM    8  C   UNL     1      65.133   7.601   4.552  1.00  0.00     0.123 C 
HETATM    9  C   UNL     1      65.650   7.268   5.950  1.00  0.00     0.020 C 
HETATM   10  C   UNL     1      65.033   5.972   6.472  1.00  0.00     0.003 C 
HETATM   11  C   UNL     1      63.508   6.014   6.383  1.00  0.00     0.020 C 
HETATM   12  C   UNL     1      63.038   6.386   4.970  1.00  0.00     0.123 C 
ENDBRANCH   2   7
BRANCH   1  13
HETATM   13  C   UNL     1      62.672  10.520   4.959  1.00  0.00     0.251 C 
HETATM   14  O   UNL     1      63.025  10.021   6.020  1.00  0.00    -0.268 OA
HETATM   15  N   UNL     1      62.373  11.849   4.871  1.00  0.00    -0.366 N 
HETATM   16  H   UNL     1      62.091  12.233   4.009  1.00  0.00     0.159 HD
HETATM   17  H   UNL     1      62.438  12.422   5.668  1.00  0.00     0.159 HD
ENDBRANCH   1  13
TORSDOF 2
ENDMDL
MODEL 4
REMARK VINA RESULT:      -5.3      2.530      4.685
REMARK  2 active torsions:
REMARK  status: ('A' for Active; 'I' for Inactive)
REMARK    1  A    between atoms: C_1  and  C_3 
REMARK    2  A    between atoms: C_2  and  N_4 
REMARK       I    between atoms: C_3  and  N_6 
ROOT
HETATM    1  C   UNL     1      75.559   0.677  16.854  1.00  0.00     0.058 A 
HETATM    2  C   UNL     1      76.834   0.085  17.054  1.00  0.00     0.046 A 
HETATM    3  C   UNL     1      74.949   0.682  15.581  1.00  0.00     0.019 A 
HETATM    4  C   UNL     1      77.440  -0.486  15.914  1.00  0.00     0.030 A 
HETATM    5  C   UNL     1      75.595   0.123  14.482  1.00  0.00     0.001 A 
HETATM    6  C   UNL     1      76.840  -0.465  14.649  1.00  0.00     0.002 A 
ENDROOT
BRANCH   2   7
HETATM    7  N   UNL     1      77.496   0.102  18.304  1.00  0.00    -0.380 N 
HETATM    8  C   UNL     1      78.198   1.341  18.686  1.00  0.00     0.123 C 
HETATM    9  C   UNL     1      78.397   1.347  20.200  1.00  0.00     0.020 C 
HETATM   10  C   UNL     1      79.154   0.103  20.662  1.00  0.00     0.003 C 
HETATM   11  C   UNL     1      78.488  -1.170  20.142  1.00  0.00     0.020 C 
HETATM   12  C   UNL     1      78.278  -1.114  18.623  1.00  0.00     0.123 C 
ENDBRANCH   2   7
BRANCH   1  13
HETATM   13  C   UNL     1      74.776   1.384  17.911  1.00  0.00     0.251 C 
HETATM   14  O   UNL     1      74.281   0.789  18.860  1.00  0.00    -0.268 OA
HETATM   15  N   UNL     1      74.625   2.733  17.770  1.00  0.00    -0.366 N 
HETATM   16  H   UNL     1      75.031   3.196  17.001  1.00  0.00     0.159 HD
HETATM   17  H   UNL     1      74.112   3.244  18.436  1.00  0.00     0.159 HD
ENDBRANCH   1  13
TORSDOF 2
ENDMDL
MODEL 5
REMARK VINA RESULT:      -5.2     10.357     12.275
REMARK  2 active torsions:
REMARK  status: ('A' for Active; 'I' for Inactive)
REMARK    1  A    between atoms: C_1  and  C_3 
REMARK    2  A    between atoms: C_2  and  N_4 
REMARK       I    between atoms: C_3  and  N_6 
ROOT
HETATM    1  C   UNL     1      69.015   1.536   8.889  1.00  0.00     0.058 A 
HETATM    2  C   UNL     1      68.626   2.453   7.878  1.00  0.00     0.046 A 
HETATM    3  C   UNL     1      69.564   0.277   8.561  1.00  0.00     0.019 A 
HETATM    4  C   UNL     1      68.822   2.028   6.545  1.00  0.00     0.030 A 
HETATM    5  C   UNL     1      69.718  -0.105   7.232  1.00  0.00     0.001 A 
HETATM    6  C   UNL     1      69.351   0.773   6.222  1.00  0.00     0.002 A 
ENDROOT
BRANCH   2   7
HETATM    7  N   UNL     1      68.030   3.702   8.168  1.00  0.00    -0.380 N 
HETATM    8  C   UNL     1      66.855   4.098   7.372  1.00  0.00     0.123 C 
HETATM    9  C   UNL     1      66.083   5.173   8.134  1.00  0.00     0.020 C 
HETATM   10  C   UNL     1      66.976   6.370   8.456  1.00  0.00     0.003 C 
HETATM   11  C   UNL     1      68.257   5.926   9.162  1.00  0.00     0.020 C 
HETATM   12  C   UNL     1      68.977   4.822   8.377  1.00  0.00     0.123 C 
ENDBRANCH   2   7
BRANCH   1  13
HETATM   13  C   UNL     1      68.839   1.764  10.355  1.00  0.00     0.251 C 
HETATM   14  O   UNL     1      67.863   1.346  10.964  1.00  0.00    -0.268 OA
HETATM   15  N   UNL     1      69.816   2.474  10.992  1.00  0.00    -0.366 N 
HETATM   16  H   UNL     1      70.595   2.802  10.486  1.00  0.00     0.159 HD
HETATM   17  H   UNL     1      69.743   2.657  11.956  1.00  0.00     0.159 HD
ENDBRANCH   1  13
TORSDOF 2
ENDMDL
MODEL 6
REMARK VINA RESULT:      -5.2     14.310     15.711
REMARK  2 active torsions:
REMARK  status: ('A' for Active; 'I' for Inactive)
REMARK    1  A    between atoms: C_1  and  C_3 
REMARK    2  A    between atoms: C_2  and  N_4 
REMARK       I    between atoms: C_3  and  N_6 
ROOT
HETATM    1  C   UNL     1      65.792   7.332   5.159  1.00  0.00     0.058 A 
HETATM    2  C   UNL     1      65.515   6.687   6.393  1.00  0.00     0.046 A 
HETATM    3  C   UNL     1      64.761   7.927   4.400  1.00  0.00     0.019 A 
HETATM    4  C   UNL     1      64.163   6.681   6.802  1.00  0.00     0.030 A 
HETATM    5  C   UNL     1      63.440   7.877   4.835  1.00  0.00     0.001 A 
HETATM    6  C   UNL     1      63.140   7.257   6.039  1.00  0.00     0.002 A 
ENDROOT
BRANCH   2   7
HETATM    7  N   UNL     1      66.514   6.039   7.157  1.00  0.00    -0.380 N 
HETATM    8  C   UNL     1      66.738   4.603   6.909  1.00  0.00     0.123 C 
HETATM    9  C   UNL     1      68.124   4.225   7.425  1.00  0.00     0.020 C 
HETATM   10  C   UNL     1      68.276   4.573   8.904  1.00  0.00     0.003 C 
HETATM   11  C   UNL     1      67.908   6.033   9.167  1.00  0.00     0.020 C 
HETATM   12  C   UNL     1      66.523   6.373   8.600  1.00  0.00     0.123 C 
ENDBRANCH   2   7
BRANCH   1  13
HETATM   13  C   UNL     1      67.140   7.399   4.520  1.00  0.00     0.251 C 
HETATM   14  O   UNL     1      67.894   8.348   4.694  1.00  0.00    -0.268 OA
HETATM   15  N   UNL     1      67.497   6.354   3.718  1.00  0.00    -0.366 N 
HETATM   16  H   UNL     1      66.879   5.598   3.590  1.00  0.00     0.159 HD
HETATM   17  H   UNL     1      68.373   6.355   3.269  1.00  0.00     0.159 HD
ENDBRANCH   1  13
TORSDOF 2
ENDMDL
MODEL 7
REMARK VINA RESULT:      -5.1     19.129     20.521
REMARK  2 active torsions:
REMARK  status: ('A' for Active; 'I' for Inactive)
REMARK    1  A    between atoms: C_1  and  C_3 
REMARK    2  A    between atoms: C_2  and  N_4 
REMARK       I    between atoms: C_3  and  N_6 
ROOT
HETATM    1  C   UNL     1      62.191   9.593   2.842  1.00  0.00     0.058 A 
HETATM    2  C   UNL     1      62.869   8.740   3.752  1.00  0.00     0.046 A 
HETATM    3  C   UNL     1      61.885  10.928   3.183  1.00  0.00     0.019 A 
HETATM    4  C   UNL     1      63.209   9.308   5.000  1.00  0.00     0.030 A 
HETATM    5  C   UNL     1      62.222  11.436   4.434  1.00  0.00     0.001 A 
HETATM    6  C   UNL     1      62.889  10.627   5.342  1.00  0.00     0.002 A 
ENDROOT
BRANCH   2   7
HETATM    7  N   UNL     1      63.151   7.385   3.463  1.00  0.00    -0.380 N 
HETATM    8  C   UNL     1      62.157   6.378   3.878  1.00  0.00     0.123 C 
HETATM    9  C   UNL     1      62.378   5.104   3.066  1.00  0.00     0.020 C 
HETATM   10  C   UNL     1      63.806   4.587   3.228  1.00  0.00     0.003 C 
HETATM   11  C   UNL     1      64.825   5.685   2.925  1.00  0.00     0.020 C 
HETATM   12  C   UNL     1      64.541   6.955   3.738  1.00  0.00     0.123 C 
ENDBRANCH   2   7
BRANCH   1  13
HETATM   13  C   UNL     1      61.693   9.174   1.497  1.00  0.00     0.251 C 
HETATM   14  O   UNL     1      62.421   9.152   0.514  1.00  0.00    -0.268 OA
HETATM   15  N   UNL     1      60.376   8.824   1.407  1.00  0.00    -0.366 N 
HETATM   16  H   UNL     1      59.805   8.847   2.209  1.00  0.00     0.159 HD
HETATM   17  H   UNL     1      59.998   8.548   0.542  1.00  0.00     0.159 HD
ENDBRANCH   1  13
TORSDOF 2
ENDMDL
MODEL 8
REMARK VINA RESULT:      -5.1     13.473     14.902
REMARK  2 active torsions:
REMARK  status: ('A' for Active; 'I' for Inactive)
REMARK    1  A    between atoms: C_1  and  C_3 
REMARK    2  A    between atoms: C_2  and  N_4 
REMARK       I    between atoms: C_3  and  N_6 
ROOT
HETATM    1  C   UNL     1      67.382   5.917   7.674  1.00  0.00     0.058 A 
HETATM    2  C   UNL     1      67.491   4.893   6.696  1.00  0.00     0.046 A 
HETATM    3  C   UNL     1      68.170   5.894   8.845  1.00  0.00     0.019 A 
HETATM    4  C   UNL     1      68.425   3.870   6.969  1.00  0.00     0.030 A 
HETATM    5  C   UNL     1      69.063   4.852   9.079  1.00  0.00     0.001 A 
HETATM    6  C   UNL     1      69.194   3.841   8.139  1.00  0.00     0.002 A 
ENDROOT
BRANCH   2   7
HETATM    7  N   UNL     1      66.685   4.859   5.535  1.00  0.00    -0.380 N 
HETATM    8  C   UNL     1      66.140   3.552   5.122  1.00  0.00     0.123 C 
HETATM    9  C   UNL     1      64.943   3.786   4.204  1.00  0.00     0.020 C 
HETATM   10  C   UNL     1      65.330   4.641   2.999  1.00  0.00     0.003 C 
HETATM   11  C   UNL     1      66.019   5.933   3.441  1.00  0.00     0.020 C 
HETATM   12  C   UNL     1      67.191   5.648   4.389  1.00  0.00     0.123 C 
ENDBRANCH   2   7
BRANCH   1  13
HETATM   13  C   UNL     1      66.416   7.055   7.607  1.00  0.00     0.251 C 
HETATM   14  O   UNL     1      65.231   6.917   7.881  1.00  0.00    -0.268 OA
HETATM   15  N   UNL     1      66.913   8.264   7.214  1.00  0.00    -0.366 N 
HETATM   16  H   UNL     1      67.869   8.357   6.998  1.00  0.00     0.159 HD
HETATM   17  H   UNL     1      66.316   9.044   7.148  1.00  0.00     0.159 HD
ENDBRANCH   1  13
TORSDOF 2
ENDMDL
MODEL 9
REMARK VINA RESULT:      -5.0     18.407     19.699
REMARK  2 active torsions:
REMARK  status: ('A' for Active; 'I' for Inactive)
REMARK    1  A    between atoms: C_1  and  C_3 
REMARK    2  A    between atoms: C_2  and  N_4 
REMARK       I    between atoms: C_3  and  N_6 
ROOT
HETATM    1  C   UNL     1      62.824   9.281   4.054  1.00  0.00     0.058 A 
HETATM    2  C   UNL     1      62.726   8.203   3.135  1.00  0.00     0.046 A 
HETATM    3  C   UNL     1      62.367  10.573   3.715  1.00  0.00     0.019 A 
HETATM    4  C   UNL     1      62.151   8.506   1.881  1.00  0.00     0.030 A 
HETATM    5  C   UNL     1      61.826  10.827   2.458  1.00  0.00     0.001 A 
HETATM    6  C   UNL     1      61.714   9.791   1.541  1.00  0.00     0.002 A 
ENDROOT
BRANCH   2   7
HETATM    7  N   UNL     1      63.216   6.908   3.423  1.00  0.00    -0.380 N 
HETATM    8  C   UNL     1      64.081   6.267   2.416  1.00  0.00     0.123 C 
HETATM    9  C   UNL     1      64.885   5.158   3.092  1.00  0.00     0.020 C 
HETATM   10  C   UNL     1      63.965   4.146   3.772  1.00  0.00     0.003 C 
HETATM   11  C   UNL     1      62.981   4.842   4.712  1.00  0.00     0.020 C 
HETATM   12  C   UNL     1      62.224   5.970   3.998  1.00  0.00     0.123 C 
ENDBRANCH   2   7
BRANCH   1  13
HETATM   13  C   UNL     1      63.451   9.188   5.407  1.00  0.00     0.251 C 
HETATM   14  O   UNL     1      64.593   9.576   5.620  1.00  0.00    -0.268 OA
HETATM   15  N   UNL     1      62.696   8.640   6.402  1.00  0.00    -0.366 N 
HETATM   16  H   UNL     1      61.779   8.334   6.213  1.00  0.00     0.159 HD
HETATM   17  H   UNL     1      63.067   8.550   7.310  1.00  0.00     0.159 HD
ENDBRANCH   1  13
TORSDOF 2
ENDMDL
