MODEL 1
REMARK VINA RESULT:      -5.2      0.000      0.000
REMARK  0 active torsions:
REMARK  status: ('A' for Active; 'I' for Inactive)
ROOT
HETATM    1  N   UNL     1      80.331  11.187  21.066  1.00  0.00    -0.307 N 
ATOM      2  HN  UNL     1      81.222  11.130  21.560  1.00  0.00     0.186 HD
HETATM    3  N   UNL     1      80.117  10.463  19.942  1.00  0.00    -0.270 N 
HETATM    4  C   UNL     1      78.990  10.429  19.176  1.00  0.00     0.236 A 
HETATM    5  C   UNL     1      79.382  11.953  21.501  1.00  0.00     0.000 A 
HETATM    6  O   UNL     1      78.925   9.715  18.177  1.00  0.00    -0.272 OA
HETATM    7  C   UNL     1      77.837  11.296  19.589  1.00  0.00     0.110 A 
HETATM    8  C   UNL     1      78.041  12.110  20.844  1.00  0.00     0.062 A 
HETATM    9  C   UNL     1      79.636  12.751  22.755  1.00  0.00     0.065 C 
HETATM   10  H   UNL     1      80.864   9.895  19.642  1.00  0.00     0.190 HD
ENDROOT
TORSDOF 0
ENDMDL
MODEL 2
REMARK VINA RESULT:      -5.0      5.661      6.322
REMARK  0 active torsions:
REMARK  status: ('A' for Active; 'I' for Inactive)
ROOT
HETATM    1  N   UNL     1      77.061   7.315  15.741  1.00  0.00    -0.307 N 
ATOM      2  HN  UNL     1      76.757   6.417  16.119  1.00  0.00     0.186 HD
HETATM    3  N   UNL     1      77.235   7.480  14.409  1.00  0.00    -0.270 N 
HETATM    4  C   UNL     1      77.632   8.609  13.756  1.00  0.00     0.236 A 
HETATM    5  C   UNL     1      77.289   8.318  16.527  1.00  0.00     0.000 A 
HETATM    6  O   UNL     1      77.742   8.625  12.530  1.00  0.00    -0.272 OA
HETATM    7  C   UNL     1      77.936   9.824  14.581  1.00  0.00     0.110 A 
HETATM    8  C   UNL     1      77.744   9.675  16.071  1.00  0.00     0.062 A 
HETATM    9  C   UNL     1      77.089   8.118  18.008  1.00  0.00     0.065 C 
HETATM   10  H   UNL     1      77.054   6.692  13.846  1.00  0.00     0.190 HD
ENDROOT
TORSDOF 0
ENDMDL
MODEL 3
REMARK VINA RESULT:      -4.9      2.199      3.266
REMARK  0 active torsions:
REMARK  status: ('A' for Active; 'I' for Inactive)
ROOT
HETATM    1  N   UNL     1      79.325  10.858  20.076  1.00  0.00    -0.307 N 
ATOM      2  HN  UNL     1      79.529  10.133  19.388  1.00  0.00     0.186 HD
HETATM    3  N   UNL     1      80.209  11.145  21.061  1.00  0.00    -0.270 N 
HETATM    4  C   UNL     1      80.083  12.081  22.044  1.00  0.00     0.236 A 
HETATM    5  C   UNL     1      78.216  11.524  20.023  1.00  0.00     0.000 A 
HETATM    6  O   UNL     1      80.973  12.245  22.878  1.00  0.00    -0.272 OA
HETATM    7  C   UNL     1      78.824  12.895  22.079  1.00  0.00     0.110 A 
HETATM    8  C   UNL     1      77.820  12.605  20.988  1.00  0.00     0.062 A 
HETATM    9  C   UNL     1      77.244  11.194  18.918  1.00  0.00     0.065 C 
HETATM   10  H   UNL     1      81.038  10.615  21.067  1.00  0.00     0.190 HD
ENDROOT
TORSDOF 0
ENDMDL
MODEL 4
REMARK VINA RESULT:      -4.7      7.908      8.946
REMARK  0 active torsions:
REMARK  status: ('A' for Active; 'I' for Inactive)
ROOT
HETATM    1  N   UNL     1      76.873   4.021  18.511  1.00  0.00    -0.307 N 
ATOM      2  HN  UNL     1      77.657   4.313  19.095  1.00  0.00     0.186 HD
HETATM    3  N   UNL     1      76.253   2.837  18.728  1.00  0.00    -0.270 N 
HETATM    4  C   UNL     1      75.198   2.313  18.041  1.00  0.00     0.236 A 
HETATM    5  C   UNL     1      76.451   4.776  17.547  1.00  0.00     0.000 A 
HETATM    6  O   UNL     1      74.722   1.222  18.351  1.00  0.00    -0.272 OA
HETATM    7  C   UNL     1      74.647   3.106  16.893  1.00  0.00     0.110 A 
HETATM    8  C   UNL     1      75.312   4.435  16.630  1.00  0.00     0.062 A 
HETATM    9  C   UNL     1      77.152   6.092  17.320  1.00  0.00     0.065 C 
HETATM   10  H   UNL     1      76.605   2.292  19.468  1.00  0.00     0.190 HD
ENDROOT
TORSDOF 0
ENDMDL
MODEL 5
REMARK VINA RESULT:      -4.7      7.776      9.054
REMARK  0 active torsions:
REMARK  status: ('A' for Active; 'I' for Inactive)
ROOT
HETATM    1  N   UNL     1      76.325   2.784  18.641  1.00  0.00    -0.307 N 
ATOM      2  HN  UNL     1      76.605   2.084  19.328  1.00  0.00     0.186 HD
HETATM    3  N   UNL     1      76.917   4.002  18.615  1.00  0.00    -0.270 N 
HETATM    4  C   UNL     1      76.657   5.035  17.765  1.00  0.00     0.236 A 
HETATM    5  C   UNL     1      75.395   2.527  17.777  1.00  0.00     0.000 A 
HETATM    6  O   UNL     1      77.280   6.093  17.846  1.00  0.00    -0.272 OA
HETATM    7  C   UNL     1      75.584   4.841  16.735  1.00  0.00     0.110 A 
HETATM    8  C   UNL     1      74.909   3.490  16.732  1.00  0.00     0.062 A 
HETATM    9  C   UNL     1      74.748   1.166  17.818  1.00  0.00     0.065 C 
HETATM   10  H   UNL     1      77.616   4.159  19.290  1.00  0.00     0.190 HD
ENDROOT
TORSDOF 0
ENDMDL
MODEL 6
REMARK VINA RESULT:      -4.3     23.707     24.761
REMARK  0 active torsions:
REMARK  status: ('A' for Active; 'I' for Inactive)
ROOT
HETATM    1  N   UNL     1      61.596  10.477   1.638  1.00  0.00    -0.307 N 
ATOM      2  HN  UNL     1      61.212  10.790   0.747  1.00  0.00     0.186 HD
HETATM    3  N   UNL     1      61.624  11.306   2.708  1.00  0.00    -0.270 N 
HETATM    4  C   UNL     1      62.099  11.037   3.957  1.00  0.00     0.236 A 
HETATM    5  C   UNL     1      62.067   9.278   1.770  1.00  0.00     0.000 A 
HETATM    6  O   UNL     1      62.055  11.885   4.847  1.00  0.00    -0.272 OA
HETATM    7  C   UNL     1      62.681   9.677   4.206  1.00  0.00     0.110 A 
HETATM    8  C   UNL     1      62.658   8.725   3.034  1.00  0.00     0.062 A 
HETATM    9  C   UNL     1      62.027   8.366   0.569  1.00  0.00     0.065 C 
HETATM   10  H   UNL     1      61.259  12.210   2.566  1.00  0.00     0.190 HD
ENDROOT
TORSDOF 0
ENDMDL
MODEL 7
REMARK VINA RESULT:      -4.3      9.004      9.692
REMARK  0 active torsions:
REMARK  status: ('A' for Active; 'I' for Inactive)
ROOT
HETATM    1  N   UNL     1      77.099   3.587  19.113  1.00  0.00    -0.307 N 
ATOM      2  HN  UNL     1      76.844   4.550  19.333  1.00  0.00     0.186 HD
HETATM    3  N   UNL     1      77.943   2.894  19.914  1.00  0.00    -0.270 N 
HETATM    4  C   UNL     1      78.374   1.610  19.756  1.00  0.00     0.236 A 
HETATM    5  C   UNL     1      76.622   3.002  18.061  1.00  0.00     0.000 A 
HETATM    6  O   UNL     1      79.140   1.096  20.570  1.00  0.00    -0.272 OA
HETATM    7  C   UNL     1      77.888   0.852  18.556  1.00  0.00     0.110 A 
HETATM    8  C   UNL     1      76.939   1.594  17.647  1.00  0.00     0.062 A 
HETATM    9  C   UNL     1      75.681   3.786  17.180  1.00  0.00     0.065 C 
HETATM   10  H   UNL     1      78.286   3.375  20.702  1.00  0.00     0.190 HD
ENDROOT
TORSDOF 0
ENDMDL
MODEL 8
REMARK VINA RESULT:      -4.3      8.740      9.627
REMARK  0 active torsions:
REMARK  status: ('A' for Active; 'I' for Inactive)
ROOT
HETATM    1  N   UNL     1      78.150   2.603  20.090  1.00  0.00    -0.307 N 
ATOM      2  HN  UNL     1      78.555   2.960  20.956  1.00  0.00     0.186 HD
HETATM    3  N   UNL     1      77.426   3.413  19.281  1.00  0.00    -0.270 N 
HETATM    4  C   UNL     1      76.828   3.089  18.100  1.00  0.00     0.236 A 
HETATM    5  C   UNL     1      78.318   1.368  19.741  1.00  0.00     0.000 A 
HETATM    6  O   UNL     1      76.202   3.931  17.456  1.00  0.00    -0.272 OA
HETATM    7  C   UNL     1      76.952   1.674  17.617  1.00  0.00     0.110 A 
HETATM    8  C   UNL     1      77.760   0.747  18.493  1.00  0.00     0.062 A 
HETATM    9  C   UNL     1      79.129   0.480  20.652  1.00  0.00     0.065 C 
HETATM   10  H   UNL     1      77.319   4.344  19.582  1.00  0.00     0.190 HD
ENDROOT
TORSDOF 0
ENDMDL
MODEL 9
REMARK VINA RESULT:      -4.2     21.810     22.637
REMARK  0 active torsions:
REMARK  status: ('A' for Active; 'I' for Inactive)
ROOT
HETATM    1  N   UNL     1      64.088   9.499   5.656  1.00  0.00    -0.307 N 
ATOM      2  HN  UNL     1      64.736   9.352   6.430  1.00  0.00     0.186 HD
HETATM    3  N   UNL     1      63.359  10.636   5.572  1.00  0.00    -0.270 N 
HETATM    4  C   UNL     1      62.460  10.979   4.606  1.00  0.00     0.236 A 
HETATM    5  C   UNL     1      63.947   8.601   4.733  1.00  0.00     0.000 A 
HETATM    6  O   UNL     1      61.868  12.056   4.647  1.00  0.00    -0.272 OA
HETATM    7  C   UNL     1      62.214   9.996   3.500  1.00  0.00     0.110 A 
HETATM    8  C   UNL     1      63.018   8.720   3.559  1.00  0.00     0.062 A 
HETATM    9  C   UNL     1      64.769   7.341   4.840  1.00  0.00     0.065 C 
HETATM   10  H   UNL     1      63.493  11.292   6.295  1.00  0.00     0.190 HD
ENDROOT
TORSDOF 0
ENDMDL
