MODEL 1
REMARK VINA RESULT:      -6.9      0.000      0.000
REMARK  3 active torsions:
REMARK  status: ('A' for Active; 'I' for Inactive)
REMARK    1  A    between atoms: C_1  and  O_4 
REMARK    2  A    between atoms: C_3  and  O_4 
REMARK    3  A    between atoms: C_9  and  N_12 
ROOT
HETATM    1  O   UNL     1      76.996   9.644  17.890  1.00  0.00    -0.291 OA
ENDROOT
BRANCH   1   2
HETATM    2  C   UNL     1      77.290   9.340  16.579  1.00  0.00     0.174 A 
HETATM    3  N   UNL     1      77.532  10.463  15.851  1.00  0.00    -0.345 N 
HETATM    4  C   UNL     1      77.777  10.321  14.534  1.00  0.00     0.090 A 
ATOM      5  HN  UNL     1      77.528  11.384  16.289  1.00  0.00     0.167 HD
HETATM    6  C   UNL     1      77.820   9.101  13.891  1.00  0.00     0.019 A 
HETATM    7  C   UNL     1      77.559   7.960  14.640  1.00  0.00     0.035 A 
HETATM    8  C   UNL     1      77.278   8.047  16.011  1.00  0.00     0.077 A 
BRANCH   8   9
HETATM    9  N   UNL     1      76.784   6.881  16.628  1.00  0.00    -0.396 N 
HETATM   10  H   UNL     1      75.823   6.671  16.584  1.00  0.00     0.156 HD
HETATM   11  H   UNL     1      77.399   6.275  17.103  1.00  0.00     0.156 HD
ENDBRANCH   8   9
ENDBRANCH   1   2
BRANCH   1  12
HETATM   12  C   UNL     1      77.893  10.296  18.695  1.00  0.00     0.084 C 
HETATM   13  C   UNL     1      77.440  11.464  19.307  1.00  0.00    -0.017 C 
HETATM   14  C   UNL     1      78.197  12.098  20.294  1.00  0.00    -0.043 C 
HETATM   15  C   UNL     1      76.146  12.166  19.062  1.00  0.00     0.042 C 
HETATM   16  C   UNL     1      79.437  11.596  20.679  1.00  0.00    -0.055 C 
HETATM   17  C   UNL     1      77.471  13.279  20.857  1.00  0.00     0.040 C 
HETATM   18  C   UNL     1      79.952  10.508  19.961  1.00  0.00     0.010 C 
HETATM   19  C   UNL     1      80.203  12.199  21.818  1.00  0.00     0.049 C 
HETATM   20  C   UNL     1      79.199   9.879  18.955  1.00  0.00     0.038 C 
HETATM   21  C   UNL     1      76.245  13.416  19.945  1.00  0.00     0.009 C 
ENDBRANCH   1  12
TORSDOF 3
ENDMDL
MODEL 2
REMARK VINA RESULT:      -6.8     16.289     19.282
REMARK  3 active torsions:
REMARK  status: ('A' for Active; 'I' for Inactive)
REMARK    1  A    between atoms: C_1  and  O_4 
REMARK    2  A    between atoms: C_3  and  O_4 
REMARK    3  A    between atoms: C_9  and  N_12 
ROOT
HETATM    1  O   UNL     1      65.432   8.598   5.857  1.00  0.00    -0.291 OA
ENDROOT
BRANCH   1   2
HETATM    2  C   UNL     1      66.139   7.578   6.455  1.00  0.00     0.174 A 
HETATM    3  N   UNL     1      65.453   7.043   7.500  1.00  0.00    -0.345 N 
HETATM    4  C   UNL     1      66.050   6.071   8.217  1.00  0.00     0.090 A 
ATOM      5  HN  UNL     1      64.514   7.368   7.733  1.00  0.00     0.167 HD
HETATM    6  C   UNL     1      67.306   5.574   7.936  1.00  0.00     0.019 A 
HETATM    7  C   UNL     1      68.006   6.135   6.874  1.00  0.00     0.035 A 
HETATM    8  C   UNL     1      67.444   7.163   6.103  1.00  0.00     0.077 A 
BRANCH   8   9
HETATM    9  N   UNL     1      68.312   7.835   5.221  1.00  0.00    -0.396 N 
HETATM   10  H   UNL     1      67.943   8.405   4.507  1.00  0.00     0.156 HD
HETATM   11  H   UNL     1      69.287   7.737   5.316  1.00  0.00     0.156 HD
ENDBRANCH   8   9
ENDBRANCH   1   2
BRANCH   1  12
HETATM   12  C   UNL     1      64.520   8.353   4.865  1.00  0.00     0.084 C 
HETATM   13  C   UNL     1      63.604   9.370   4.602  1.00  0.00    -0.017 C 
HETATM   14  C   UNL     1      62.761   9.310   3.491  1.00  0.00    -0.043 C 
HETATM   15  C   UNL     1      63.404  10.627   5.383  1.00  0.00     0.042 C 
HETATM   16  C   UNL     1      62.795   8.221   2.625  1.00  0.00    -0.055 C 
HETATM   17  C   UNL     1      61.929  10.548   3.375  1.00  0.00     0.040 C 
HETATM   18  C   UNL     1      63.613   7.137   2.971  1.00  0.00     0.010 C 
HETATM   19  C   UNL     1      61.982   8.200   1.365  1.00  0.00     0.049 C 
HETATM   20  C   UNL     1      64.449   7.188   4.100  1.00  0.00     0.038 C 
HETATM   21  C   UNL     1      62.219  11.301   4.680  1.00  0.00     0.009 C 
ENDBRANCH   1  12
TORSDOF 3
ENDMDL
MODEL 3
REMARK VINA RESULT:      -6.8      1.888      6.062
REMARK  3 active torsions:
REMARK  status: ('A' for Active; 'I' for Inactive)
REMARK    1  A    between atoms: C_1  and  O_4 
REMARK    2  A    between atoms: C_3  and  O_4 
REMARK    3  A    between atoms: C_9  and  N_12 
ROOT
HETATM    1  O   UNL     1      76.881  10.273  18.597  1.00  0.00    -0.291 OA
ENDROOT
BRANCH   1   2
HETATM    2  C   UNL     1      77.743  10.957  19.426  1.00  0.00     0.174 A 
HETATM    3  N   UNL     1      78.962  10.356  19.481  1.00  0.00    -0.345 N 
HETATM    4  C   UNL     1      79.890  10.885  20.302  1.00  0.00     0.090 A 
ATOM      5  HN  UNL     1      79.166   9.531  18.917  1.00  0.00     0.167 HD
HETATM    6  C   UNL     1      79.681  12.013  21.068  1.00  0.00     0.019 A 
HETATM    7  C   UNL     1      78.428  12.613  21.016  1.00  0.00     0.035 A 
HETATM    8  C   UNL     1      77.416  12.096  20.195  1.00  0.00     0.077 A 
BRANCH   8   9
HETATM    9  N   UNL     1      76.120  12.611  20.394  1.00  0.00    -0.396 N 
HETATM   10  H   UNL     1      75.791  12.777  21.308  1.00  0.00     0.156 HD
HETATM   11  H   UNL     1      75.541  12.805  19.621  1.00  0.00     0.156 HD
ENDBRANCH   8   9
ENDBRANCH   1   2
BRANCH   1  12
HETATM   12  C   UNL     1      77.263   9.862  17.347  1.00  0.00     0.084 C 
HETATM   13  C   UNL     1      77.110   8.505  17.068  1.00  0.00    -0.017 C 
HETATM   14  C   UNL     1      77.280   8.013  15.773  1.00  0.00    -0.043 C 
HETATM   15  C   UNL     1      76.726   7.426  18.026  1.00  0.00     0.042 C 
HETATM   16  C   UNL     1      77.631   8.860  14.726  1.00  0.00    -0.055 C 
HETATM   17  C   UNL     1      76.984   6.548  15.707  1.00  0.00     0.040 C 
HETATM   18  C   UNL     1      77.925  10.195  15.036  1.00  0.00     0.010 C 
HETATM   19  C   UNL     1      77.700   8.366  13.312  1.00  0.00     0.049 C 
HETATM   20  C   UNL     1      77.771  10.688  16.343  1.00  0.00     0.038 C 
HETATM   21  C   UNL     1      76.804   6.150  17.178  1.00  0.00     0.009 C 
ENDBRANCH   1  12
TORSDOF 3
ENDMDL
MODEL 4
REMARK VINA RESULT:      -6.1     17.474     20.392
REMARK  3 active torsions:
REMARK  status: ('A' for Active; 'I' for Inactive)
REMARK    1  A    between atoms: C_1  and  O_4 
REMARK    2  A    between atoms: C_3  and  O_4 
REMARK    3  A    between atoms: C_9  and  N_12 
ROOT
HETATM    1  O   UNL     1      63.066   7.848   5.792  1.00  0.00    -0.291 OA
ENDROOT
BRANCH   1   2
HETATM    2  C   UNL     1      64.327   7.357   6.049  1.00  0.00     0.174 A 
HETATM    3  N   UNL     1      65.233   8.361   6.185  1.00  0.00    -0.345 N 
HETATM    4  C   UNL     1      66.524   8.026   6.382  1.00  0.00     0.090 A 
ATOM      5  HN  UNL     1      64.945   9.339   6.139  1.00  0.00     0.167 HD
HETATM    6  C   UNL     1      66.970   6.724   6.478  1.00  0.00     0.019 A 
HETATM    7  C   UNL     1      66.039   5.703   6.325  1.00  0.00     0.035 A 
HETATM    8  C   UNL     1      64.685   5.990   6.098  1.00  0.00     0.077 A 
BRANCH   8   9
HETATM    9  N   UNL     1      63.869   4.911   5.709  1.00  0.00    -0.396 N 
HETATM   10  H   UNL     1      63.087   4.664   6.255  1.00  0.00     0.156 HD
HETATM   11  H   UNL     1      64.078   4.403   4.892  1.00  0.00     0.156 HD
ENDBRANCH   8   9
ENDBRANCH   1   2
BRANCH   1  12
HETATM   12  C   UNL     1      62.866   8.899   4.936  1.00  0.00     0.084 C 
HETATM   13  C   UNL     1      62.705   8.578   3.590  1.00  0.00    -0.017 C 
HETATM   14  C   UNL     1      62.303   9.543   2.664  1.00  0.00    -0.043 C 
HETATM   15  C   UNL     1      62.883   7.239   2.954  1.00  0.00     0.042 C 
HETATM   16  C   UNL     1      62.073  10.859   3.054  1.00  0.00    -0.055 C 
HETATM   17  C   UNL     1      62.121   8.945   1.304  1.00  0.00     0.040 C 
HETATM   18  C   UNL     1      62.375  11.209   4.378  1.00  0.00     0.010 C 
HETATM   19  C   UNL     1      61.528  11.874   2.095  1.00  0.00     0.049 C 
HETATM   20  C   UNL     1      62.797  10.243   5.307  1.00  0.00     0.038 C 
HETATM   21  C   UNL     1      62.662   7.518   1.463  1.00  0.00     0.009 C 
ENDBRANCH   1  12
TORSDOF 3
ENDMDL
MODEL 5
REMARK VINA RESULT:      -6.1      2.777      4.813
REMARK  3 active torsions:
REMARK  status: ('A' for Active; 'I' for Inactive)
REMARK    1  A    between atoms: C_1  and  O_4 
REMARK    2  A    between atoms: C_3  and  O_4 
REMARK    3  A    between atoms: C_9  and  N_12 
ROOT
HETATM    1  O   UNL     1      78.304  12.527  20.968  1.00  0.00    -0.291 OA
ENDROOT
BRANCH   1   2
HETATM    2  C   UNL     1      78.099  11.617  19.955  1.00  0.00     0.174 A 
HETATM    3  N   UNL     1      79.131  10.737  19.861  1.00  0.00    -0.345 N 
HETATM    4  C   UNL     1      79.092   9.822  18.872  1.00  0.00     0.090 A 
ATOM      5  HN  UNL     1      79.910  10.768  20.519  1.00  0.00     0.167 HD
HETATM    6  C   UNL     1      78.055   9.714  17.969  1.00  0.00     0.019 A 
HETATM    7  C   UNL     1      77.010  10.626  18.064  1.00  0.00     0.035 A 
HETATM    8  C   UNL     1      77.005  11.613  19.060  1.00  0.00     0.077 A 
BRANCH   8   9
HETATM    9  N   UNL     1      76.046  12.637  18.927  1.00  0.00    -0.396 N 
HETATM   10  H   UNL     1      76.248  13.431  18.382  1.00  0.00     0.156 HD
HETATM   11  H   UNL     1      75.175  12.559  19.379  1.00  0.00     0.156 HD
ENDBRANCH   8   9
ENDBRANCH   1   2
BRANCH   1  12
HETATM   12  C   UNL     1      78.589  12.126  22.247  1.00  0.00     0.084 C 
HETATM   13  C   UNL     1      79.787  12.589  22.789  1.00  0.00    -0.017 C 
HETATM   14  C   UNL     1      80.083  12.406  24.141  1.00  0.00    -0.043 C 
HETATM   15  C   UNL     1      80.865  13.340  22.081  1.00  0.00     0.042 C 
HETATM   16  C   UNL     1      79.201  11.735  24.983  1.00  0.00    -0.055 C 
HETATM   17  C   UNL     1      81.380  13.057  24.503  1.00  0.00     0.040 C 
HETATM   18  C   UNL     1      78.068  11.146  24.405  1.00  0.00     0.010 C 
HETATM   19  C   UNL     1      79.452  11.637  26.457  1.00  0.00     0.049 C 
HETATM   20  C   UNL     1      77.776  11.314  23.041  1.00  0.00     0.038 C 
HETATM   21  C   UNL     1      81.953  13.497  23.150  1.00  0.00     0.009 C 
ENDBRANCH   1  12
TORSDOF 3
ENDMDL
MODEL 6
REMARK VINA RESULT:      -6.0      3.619      6.076
REMARK  3 active torsions:
REMARK  status: ('A' for Active; 'I' for Inactive)
REMARK    1  A    between atoms: C_1  and  O_4 
REMARK    2  A    between atoms: C_3  and  O_4 
REMARK    3  A    between atoms: C_9  and  N_12 
ROOT
HETATM    1  O   UNL     1      80.194  11.671  22.103  1.00  0.00    -0.291 OA
ENDROOT
BRANCH   1   2
HETATM    2  C   UNL     1      79.133  11.889  21.252  1.00  0.00     0.174 A 
HETATM    3  N   UNL     1      78.226  12.743  21.797  1.00  0.00    -0.345 N 
HETATM    4  C   UNL     1      77.104  13.003  21.098  1.00  0.00     0.090 A 
ATOM      5  HN  UNL     1      78.391  13.174  22.707  1.00  0.00     0.167 HD
HETATM    6  C   UNL     1      76.837  12.472  19.853  1.00  0.00     0.019 A 
HETATM    7  C   UNL     1      77.763  11.590  19.309  1.00  0.00     0.035 A 
HETATM    8  C   UNL     1      78.940  11.265  19.999  1.00  0.00     0.077 A 
BRANCH   8   9
HETATM    9  N   UNL     1      79.689  10.185  19.493  1.00  0.00    -0.396 N 
HETATM   10  H   UNL     1      79.709  10.011  18.524  1.00  0.00     0.156 HD
HETATM   11  H   UNL     1      80.192   9.603  20.107  1.00  0.00     0.156 HD
ENDBRANCH   8   9
ENDBRANCH   1   2
BRANCH   1  12
HETATM   12  C   UNL     1      80.651  12.650  22.946  1.00  0.00     0.084 C 
HETATM   13  C   UNL     1      80.334  12.503  24.295  1.00  0.00    -0.017 C 
HETATM   14  C   UNL     1      80.909  13.328  25.263  1.00  0.00    -0.043 C 
HETATM   15  C   UNL     1      79.422  11.488  24.901  1.00  0.00     0.042 C 
HETATM   16  C   UNL     1      81.799  14.337  24.907  1.00  0.00    -0.055 C 
HETATM   17  C   UNL     1      80.480  12.928  26.639  1.00  0.00     0.040 C 
HETATM   18  C   UNL     1      82.003  14.575  23.540  1.00  0.00     0.010 C 
HETATM   19  C   UNL     1      82.512  15.151  25.944  1.00  0.00     0.049 C 
HETATM   20  C   UNL     1      81.411  13.757  22.563  1.00  0.00     0.038 C 
HETATM   21  C   UNL     1      79.398  11.870  26.386  1.00  0.00     0.009 C 
ENDBRANCH   1  12
TORSDOF 3
ENDMDL
MODEL 7
REMARK VINA RESULT:      -5.9      3.863      6.148
REMARK  3 active torsions:
REMARK  status: ('A' for Active; 'I' for Inactive)
REMARK    1  A    between atoms: C_1  and  O_4 
REMARK    2  A    between atoms: C_3  and  O_4 
REMARK    3  A    between atoms: C_9  and  N_12 
ROOT
HETATM    1  O   UNL     1      79.260  13.054  22.311  1.00  0.00    -0.291 OA
ENDROOT
BRANCH   1   2
HETATM    2  C   UNL     1      78.542  12.569  21.239  1.00  0.00     0.174 A 
HETATM    3  N   UNL     1      77.297  13.113  21.188  1.00  0.00    -0.345 N 
HETATM    4  C   UNL     1      76.459  12.686  20.223  1.00  0.00     0.090 A 
ATOM      5  HN  UNL     1      77.006  13.824  21.860  1.00  0.00     0.167 HD
HETATM    6  C   UNL     1      76.804  11.748  19.271  1.00  0.00     0.019 A 
HETATM    7  C   UNL     1      78.074  11.187  19.339  1.00  0.00     0.035 A 
HETATM    8  C   UNL     1      78.982  11.578  20.334  1.00  0.00     0.077 A 
BRANCH   8   9
HETATM    9  N   UNL     1      80.138  10.786  20.477  1.00  0.00    -0.396 N 
HETATM   10  H   UNL     1      80.173   9.889  20.073  1.00  0.00     0.156 HD
HETATM   11  H   UNL     1      80.911  11.129  20.981  1.00  0.00     0.156 HD
ENDBRANCH   8   9
ENDBRANCH   1   2
BRANCH   1  12
HETATM   12  C   UNL     1      79.271  12.407  23.519  1.00  0.00     0.084 C 
HETATM   13  C   UNL     1      80.132  12.921  24.487  1.00  0.00    -0.017 C 
HETATM   14  C   UNL     1      80.084  12.468  25.806  1.00  0.00    -0.043 C 
HETATM   15  C   UNL     1      81.155  13.995  24.306  1.00  0.00     0.042 C 
HETATM   16  C   UNL     1      79.190  11.472  26.188  1.00  0.00    -0.055 C 
HETATM   17  C   UNL     1      81.043  13.222  26.673  1.00  0.00     0.040 C 
HETATM   18  C   UNL     1      78.428  10.858  25.185  1.00  0.00     0.010 C 
HETATM   19  C   UNL     1      79.046  11.061  27.623  1.00  0.00     0.049 C 
HETATM   20  C   UNL     1      78.489  11.301  23.852  1.00  0.00     0.038 C 
HETATM   21  C   UNL     1      81.842  14.068  25.674  1.00  0.00     0.009 C 
ENDBRANCH   1  12
TORSDOF 3
ENDMDL
MODEL 8
REMARK VINA RESULT:      -5.6     16.729     19.694
REMARK  3 active torsions:
REMARK  status: ('A' for Active; 'I' for Inactive)
REMARK    1  A    between atoms: C_1  and  O_4 
REMARK    2  A    between atoms: C_3  and  O_4 
REMARK    3  A    between atoms: C_9  and  N_12 
ROOT
HETATM    1  O   UNL     1      64.116   7.223   6.977  1.00  0.00    -0.291 OA
ENDROOT
BRANCH   1   2
HETATM    2  C   UNL     1      65.306   6.535   7.072  1.00  0.00     0.174 A 
HETATM    3  N   UNL     1      65.097   5.203   7.248  1.00  0.00    -0.345 N 
HETATM    4  C   UNL     1      66.174   4.412   7.416  1.00  0.00     0.090 A 
ATOM      5  HN  UNL     1      64.153   4.816   7.253  1.00  0.00     0.167 HD
HETATM    6  C   UNL     1      67.474   4.874   7.393  1.00  0.00     0.019 A 
HETATM    7  C   UNL     1      67.678   6.238   7.225  1.00  0.00     0.035 A 
HETATM    8  C   UNL     1      66.595   7.114   7.066  1.00  0.00     0.077 A 
BRANCH   8   9
HETATM    9  N   UNL     1      66.879   8.491   7.155  1.00  0.00    -0.396 N 
HETATM   10  H   UNL     1      67.429   8.833   7.897  1.00  0.00     0.156 HD
HETATM   11  H   UNL     1      66.530   9.112   6.475  1.00  0.00     0.156 HD
ENDBRANCH   8   9
ENDBRANCH   1   2
BRANCH   1  12
HETATM   12  C   UNL     1      63.524   7.472   5.766  1.00  0.00     0.084 C 
HETATM   13  C   UNL     1      62.255   6.929   5.575  1.00  0.00    -0.017 C 
HETATM   14  C   UNL     1      61.483   7.278   4.466  1.00  0.00    -0.043 C 
HETATM   15  C   UNL     1      61.535   5.980   6.476  1.00  0.00     0.042 C 
HETATM   16  C   UNL     1      61.968   8.162   3.506  1.00  0.00    -0.055 C 
HETATM   17  C   UNL     1      60.133   6.635   4.521  1.00  0.00     0.040 C 
HETATM   18  C   UNL     1      63.297   8.591   3.626  1.00  0.00     0.010 C 
HETATM   19  C   UNL     1      61.105   8.636   2.375  1.00  0.00     0.049 C 
HETATM   20  C   UNL     1      64.082   8.226   4.733  1.00  0.00     0.038 C 
HETATM   21  C   UNL     1      60.241   5.674   5.712  1.00  0.00     0.009 C 
ENDBRANCH   1  12
TORSDOF 3
ENDMDL
MODEL 9
REMARK VINA RESULT:      -5.6     18.034     20.086
REMARK  3 active torsions:
REMARK  status: ('A' for Active; 'I' for Inactive)
REMARK    1  A    between atoms: C_1  and  O_4 
REMARK    2  A    between atoms: C_3  and  O_4 
REMARK    3  A    between atoms: C_9  and  N_12 
ROOT
HETATM    1  O   UNL     1      62.697   8.526   5.342  1.00  0.00    -0.291 OA
ENDROOT
BRANCH   1   2
HETATM    2  C   UNL     1      62.367   9.256   4.221  1.00  0.00     0.174 A 
HETATM    3  N   UNL     1      62.268   8.462   3.122  1.00  0.00    -0.345 N 
HETATM    4  C   UNL     1      62.008   9.050   1.938  1.00  0.00     0.090 A 
ATOM      5  HN  UNL     1      62.388   7.451   3.192  1.00  0.00     0.167 HD
HETATM    6  C   UNL     1      61.811  10.407   1.785  1.00  0.00     0.019 A 
HETATM    7  C   UNL     1      61.926  11.214   2.911  1.00  0.00     0.035 A 
HETATM    8  C   UNL     1      62.216  10.660   4.167  1.00  0.00     0.077 A 
BRANCH   8   9
HETATM    9  N   UNL     1      62.559  11.565   5.190  1.00  0.00    -0.396 N 
HETATM   10  H   UNL     1      63.396  12.081   5.131  1.00  0.00     0.156 HD
HETATM   11  H   UNL     1      61.963  11.683   5.965  1.00  0.00     0.156 HD
ENDBRANCH   8   9
ENDBRANCH   1   2
BRANCH   1  12
HETATM   12  C   UNL     1      63.912   7.903   5.461  1.00  0.00     0.084 C 
HETATM   13  C   UNL     1      63.882   6.547   5.780  1.00  0.00    -0.017 C 
HETATM   14  C   UNL     1      65.041   5.771   5.734  1.00  0.00    -0.043 C 
HETATM   15  C   UNL     1      62.687   5.736   6.162  1.00  0.00     0.042 C 
HETATM   16  C   UNL     1      66.266   6.335   5.389  1.00  0.00    -0.055 C 
HETATM   17  C   UNL     1      64.746   4.336   6.037  1.00  0.00     0.040 C 
HETATM   18  C   UNL     1      66.318   7.724   5.210  1.00  0.00     0.010 C 
HETATM   19  C   UNL     1      67.494   5.491   5.220  1.00  0.00     0.049 C 
HETATM   20  C   UNL     1      65.155   8.510   5.274  1.00  0.00     0.038 C 
HETATM   21  C   UNL     1      63.277   4.357   6.479  1.00  0.00     0.009 C 
ENDBRANCH   1  12
TORSDOF 3
ENDMDL
