MODEL 1
REMARK VINA RESULT:      -6.8      0.000      0.000
REMARK  3 active torsions:
REMARK  status: ('A' for Active; 'I' for Inactive)
REMARK    1  A    between atoms: C_2  and  C_7 
REMARK    2  A    between atoms: C_6  and  C_9 
REMARK    3  A    between atoms: C_7  and  C_9 
ROOT
HETATM    1  N   UNL     1      79.308  10.479  19.735  1.00  0.00    -0.365 N 
HETATM    2  C   UNL     1      77.957   9.958  18.038  1.00  0.00    -0.030 A 
HETATM    3  C   UNL     1      79.071   9.557  18.753  1.00  0.00     0.096 A 
HETATM    4  C   UNL     1      77.428  11.106  18.717  1.00  0.00    -0.002 A 
HETATM    5  C   UNL     1      78.303  11.417  19.759  1.00  0.00     0.042 A 
HETATM    6  C   UNL     1      76.286  11.916  18.543  1.00  0.00     0.014 A 
HETATM    7  C   UNL     1      78.108  12.501  20.621  1.00  0.00     0.030 A 
HETATM    8  C   UNL     1      76.058  12.987  19.416  1.00  0.00     0.001 A 
HETATM    9  C   UNL     1      76.960  13.275  20.436  1.00  0.00     0.002 A 
HETATM   10  H   UNL     1      80.087  10.473  20.339  1.00  0.00     0.165 HD
ENDROOT
BRANCH   2  11
HETATM   11  C   UNL     1      77.402   9.284  16.818  1.00  0.00     0.051 C 
BRANCH  11  12
HETATM   12  C   UNL     1      78.029   9.783  15.514  1.00  0.00     0.118 C 
BRANCH  12  13
HETATM   13  C   UNL     1      77.674   8.870  14.373  1.00  0.00     0.172 C 
HETATM   14  O   UNL     1      77.672   9.133  13.188  1.00  0.00    -0.648 OA
HETATM   15  O   UNL     1      77.325   7.637  14.798  1.00  0.00    -0.648 OA
ENDBRANCH  12  13
ENDBRANCH  11  12
ENDBRANCH   2  11
TORSDOF 3
ENDMDL
MODEL 2
REMARK VINA RESULT:      -5.9      2.000      3.029
REMARK  3 active torsions:
REMARK  status: ('A' for Active; 'I' for Inactive)
REMARK    1  A    between atoms: C_2  and  C_7 
REMARK    2  A    between atoms: C_6  and  C_9 
REMARK    3  A    between atoms: C_7  and  C_9 
ROOT
HETATM    1  N   UNL     1      76.276  13.105  19.753  1.00  0.00    -0.365 N 
HETATM    2  C   UNL     1      77.128  11.320  18.720  1.00  0.00    -0.030 A 
HETATM    3  C   UNL     1      76.130  12.276  18.675  1.00  0.00     0.096 A 
HETATM    4  C   UNL     1      77.990  11.683  19.808  1.00  0.00    -0.002 A 
HETATM    5  C   UNL     1      77.422  12.789  20.443  1.00  0.00     0.042 A 
HETATM    6  C   UNL     1      79.204  11.174  20.317  1.00  0.00     0.014 A 
HETATM    7  C   UNL     1      77.990  13.397  21.567  1.00  0.00     0.030 A 
HETATM    8  C   UNL     1      79.803  11.790  21.423  1.00  0.00     0.001 A 
HETATM    9  C   UNL     1      79.200  12.883  22.039  1.00  0.00     0.002 A 
HETATM   10  H   UNL     1      75.651  13.825  20.000  1.00  0.00     0.165 HD
ENDROOT
BRANCH   2  11
HETATM   11  C   UNL     1      77.284  10.161  17.780  1.00  0.00     0.051 C 
BRANCH  11  12
HETATM   12  C   UNL     1      77.194   8.802  18.476  1.00  0.00     0.118 C 
BRANCH  12  13
HETATM   13  C   UNL     1      77.040   7.699  17.466  1.00  0.00     0.172 C 
HETATM   14  O   UNL     1      77.170   7.775  16.262  1.00  0.00    -0.648 OA
HETATM   15  O   UNL     1      76.714   6.522  18.043  1.00  0.00    -0.648 OA
ENDBRANCH  12  13
ENDBRANCH  11  12
ENDBRANCH   2  11
TORSDOF 3
ENDMDL
MODEL 3
REMARK VINA RESULT:      -5.5     17.982     20.153
REMARK  3 active torsions:
REMARK  status: ('A' for Active; 'I' for Inactive)
REMARK    1  A    between atoms: C_2  and  C_7 
REMARK    2  A    between atoms: C_6  and  C_9 
REMARK    3  A    between atoms: C_7  and  C_9 
ROOT
HETATM    1  N   UNL     1      62.881   7.640   2.208  1.00  0.00    -0.365 N 
HETATM    2  C   UNL     1      63.261   7.829   4.398  1.00  0.00    -0.030 A 
HETATM    3  C   UNL     1      63.404   7.002   3.299  1.00  0.00     0.096 A 
HETATM    4  C   UNL     1      62.749   9.076   3.906  1.00  0.00    -0.002 A 
HETATM    5  C   UNL     1      62.505   8.919   2.540  1.00  0.00     0.042 A 
HETATM    6  C   UNL     1      62.465  10.327   4.493  1.00  0.00     0.014 A 
HETATM    7  C   UNL     1      61.976   9.936   1.739  1.00  0.00     0.030 A 
HETATM    8  C   UNL     1      61.965  11.367   3.699  1.00  0.00     0.001 A 
HETATM    9  C   UNL     1      61.721  11.169   2.343  1.00  0.00     0.002 A 
HETATM   10  H   UNL     1      62.787   7.240   1.312  1.00  0.00     0.165 HD
ENDROOT
BRANCH   2  11
HETATM   11  C   UNL     1      63.619   7.487   5.814  1.00  0.00     0.051 C 
BRANCH  11  12
HETATM   12  C   UNL     1      65.064   7.008   5.973  1.00  0.00     0.118 C 
BRANCH  12  13
HETATM   13  C   UNL     1      66.027   8.118   5.654  1.00  0.00     0.172 C 
HETATM   14  O   UNL     1      66.958   8.091   4.876  1.00  0.00    -0.648 OA
HETATM   15  O   UNL     1      65.761   9.240   6.359  1.00  0.00    -0.648 OA
ENDBRANCH  12  13
ENDBRANCH  11  12
ENDBRANCH   2  11
TORSDOF 3
ENDMDL
MODEL 4
REMARK VINA RESULT:      -5.4     17.858     20.199
REMARK  3 active torsions:
REMARK  status: ('A' for Active; 'I' for Inactive)
REMARK    1  A    between atoms: C_2  and  C_7 
REMARK    2  A    between atoms: C_6  and  C_9 
REMARK    3  A    between atoms: C_7  and  C_9 
ROOT
HETATM    1  N   UNL     1      62.278  10.746   4.172  1.00  0.00    -0.365 N 
HETATM    2  C   UNL     1      63.311   8.863   4.779  1.00  0.00    -0.030 A 
HETATM    3  C   UNL     1      62.842  10.084   5.228  1.00  0.00     0.096 A 
HETATM    4  C   UNL     1      62.882   8.739   3.415  1.00  0.00    -0.002 A 
HETATM    5  C   UNL     1      62.257   9.937   3.061  1.00  0.00     0.042 A 
HETATM    6  C   UNL     1      62.968   7.720   2.443  1.00  0.00     0.014 A 
HETATM    7  C   UNL     1      61.734  10.175   1.786  1.00  0.00     0.030 A 
HETATM    8  C   UNL     1      62.421   7.930   1.171  1.00  0.00     0.001 A 
HETATM    9  C   UNL     1      61.817   9.143   0.849  1.00  0.00     0.002 A 
HETATM   10  H   UNL     1      61.936  11.669   4.202  1.00  0.00     0.165 HD
ENDROOT
BRANCH   2  11
HETATM   11  C   UNL     1      64.078   7.860   5.588  1.00  0.00     0.051 C 
BRANCH  11  12
HETATM   12  C   UNL     1      65.548   7.748   5.174  1.00  0.00     0.118 C 
BRANCH  12  13
HETATM   13  C   UNL     1      66.449   7.975   6.355  1.00  0.00     0.172 C 
HETATM   14  O   UNL     1      66.673   9.024   6.924  1.00  0.00    -0.648 OA
HETATM   15  O   UNL     1      67.044   6.836   6.769  1.00  0.00    -0.648 OA
ENDBRANCH  12  13
ENDBRANCH  11  12
ENDBRANCH   2  11
TORSDOF 3
ENDMDL
MODEL 5
REMARK VINA RESULT:      -5.3     17.445     19.736
REMARK  3 active torsions:
REMARK  status: ('A' for Active; 'I' for Inactive)
REMARK    1  A    between atoms: C_2  and  C_7 
REMARK    2  A    between atoms: C_6  and  C_9 
REMARK    3  A    between atoms: C_7  and  C_9 
ROOT
HETATM    1  N   UNL     1      64.561   6.375   3.080  1.00  0.00    -0.365 N 
HETATM    2  C   UNL     1      63.811   8.210   4.104  1.00  0.00    -0.030 A 
HETATM    3  C   UNL     1      63.488   7.215   3.200  1.00  0.00     0.096 A 
HETATM    4  C   UNL     1      65.093   7.864   4.649  1.00  0.00    -0.002 A 
HETATM    5  C   UNL     1      65.541   6.726   3.977  1.00  0.00     0.042 A 
HETATM    6  C   UNL     1      65.919   8.414   5.652  1.00  0.00     0.014 A 
HETATM    7  C   UNL     1      66.776   6.123   4.239  1.00  0.00     0.030 A 
HETATM    8  C   UNL     1      67.144   7.804   5.950  1.00  0.00     0.001 A 
HETATM    9  C   UNL     1      67.565   6.677   5.249  1.00  0.00     0.002 A 
HETATM   10  H   UNL     1      64.623   5.626   2.443  1.00  0.00     0.165 HD
ENDROOT
BRANCH   2  11
HETATM   11  C   UNL     1      62.956   9.389   4.463  1.00  0.00     0.051 C 
BRANCH  11  12
HETATM   12  C   UNL     1      61.987   9.793   3.350  1.00  0.00     0.118 C 
BRANCH  12  13
HETATM   13  C   UNL     1      61.938  11.289   3.209  1.00  0.00     0.172 C 
HETATM   14  O   UNL     1      61.980  11.938   2.183  1.00  0.00    -0.648 OA
HETATM   15  O   UNL     1      61.840  11.910   4.404  1.00  0.00    -0.648 OA
ENDBRANCH  12  13
ENDBRANCH  11  12
ENDBRANCH   2  11
TORSDOF 3
ENDMDL
MODEL 6
REMARK VINA RESULT:      -5.2     13.968     15.611
REMARK  3 active torsions:
REMARK  status: ('A' for Active; 'I' for Inactive)
REMARK    1  A    between atoms: C_2  and  C_7 
REMARK    2  A    between atoms: C_6  and  C_9 
REMARK    3  A    between atoms: C_7  and  C_9 
ROOT
HETATM    1  N   UNL     1      67.207   7.237   8.595  1.00  0.00    -0.365 N 
HETATM    2  C   UNL     1      68.198   5.308   8.073  1.00  0.00    -0.030 A 
HETATM    3  C   UNL     1      67.821   6.132   9.117  1.00  0.00     0.096 A 
HETATM    4  C   UNL     1      67.659   5.892   6.878  1.00  0.00    -0.002 A 
HETATM    5  C   UNL     1      67.063   7.103   7.235  1.00  0.00     0.042 A 
HETATM    6  C   UNL     1      67.623   5.506   5.521  1.00  0.00     0.014 A 
HETATM    7  C   UNL     1      66.453   7.954   6.307  1.00  0.00     0.030 A 
HETATM    8  C   UNL     1      66.988   6.331   4.584  1.00  0.00     0.001 A 
HETATM    9  C   UNL     1      66.417   7.539   4.975  1.00  0.00     0.002 A 
HETATM   10  H   UNL     1      66.910   8.018   9.117  1.00  0.00     0.165 HD
ENDROOT
BRANCH   2  11
HETATM   11  C   UNL     1      68.981   4.034   8.192  1.00  0.00     0.051 C 
BRANCH  11  12
HETATM   12  C   UNL     1      69.402   3.716   9.629  1.00  0.00     0.118 C 
BRANCH  12  13
HETATM   13  C   UNL     1      68.790   2.420  10.085  1.00  0.00     0.172 C 
HETATM   14  O   UNL     1      69.337   1.509  10.670  1.00  0.00    -0.648 OA
HETATM   15  O   UNL     1      67.480   2.336   9.766  1.00  0.00    -0.648 OA
ENDBRANCH  12  13
ENDBRANCH  11  12
ENDBRANCH   2  11
TORSDOF 3
ENDMDL
MODEL 7
REMARK VINA RESULT:      -5.2     13.986     15.920
REMARK  3 active torsions:
REMARK  status: ('A' for Active; 'I' for Inactive)
REMARK    1  A    between atoms: C_2  and  C_7 
REMARK    2  A    between atoms: C_6  and  C_9 
REMARK    3  A    between atoms: C_7  and  C_9 
ROOT
HETATM    1  N   UNL     1      66.375   3.522   7.971  1.00  0.00    -0.365 N 
HETATM    2  C   UNL     1      67.373   5.310   7.084  1.00  0.00    -0.030 A 
HETATM    3  C   UNL     1      66.190   4.596   7.144  1.00  0.00     0.096 A 
HETATM    4  C   UNL     1      68.263   4.703   8.031  1.00  0.00    -0.002 A 
HETATM    5  C   UNL     1      67.619   3.580   8.553  1.00  0.00     0.042 A 
HETATM    6  C   UNL     1      69.563   5.000   8.495  1.00  0.00     0.014 A 
HETATM    7  C   UNL     1      68.210   2.731   9.495  1.00  0.00     0.030 A 
HETATM    8  C   UNL     1      70.157   4.179   9.461  1.00  0.00     0.001 A 
HETATM    9  C   UNL     1      69.489   3.059   9.949  1.00  0.00     0.002 A 
HETATM   10  H   UNL     1      65.714   2.809   8.127  1.00  0.00     0.165 HD
ENDROOT
BRANCH   2  11
HETATM   11  C   UNL     1      67.637   6.510   6.223  1.00  0.00     0.051 C 
BRANCH  11  12
HETATM   12  C   UNL     1      66.457   6.877   5.320  1.00  0.00     0.118 C 
BRANCH  12  13
HETATM   13  C   UNL     1      65.943   8.250   5.653  1.00  0.00     0.172 C 
HETATM   14  O   UNL     1      65.080   8.878   5.074  1.00  0.00    -0.648 OA
HETATM   15  O   UNL     1      66.566   8.779   6.728  1.00  0.00    -0.648 OA
ENDBRANCH  12  13
ENDBRANCH  11  12
ENDBRANCH   2  11
TORSDOF 3
ENDMDL
MODEL 8
REMARK VINA RESULT:      -5.0     14.540     16.314
REMARK  3 active torsions:
REMARK  status: ('A' for Active; 'I' for Inactive)
REMARK    1  A    between atoms: C_2  and  C_7 
REMARK    2  A    between atoms: C_6  and  C_9 
REMARK    3  A    between atoms: C_7  and  C_9 
ROOT
HETATM    1  N   UNL     1      67.631   6.698   8.874  1.00  0.00    -0.365 N 
HETATM    2  C   UNL     1      66.948   6.276   6.792  1.00  0.00    -0.030 A 
HETATM    3  C   UNL     1      66.976   7.226   7.796  1.00  0.00     0.096 A 
HETATM    4  C   UNL     1      67.746   5.176   7.252  1.00  0.00    -0.002 A 
HETATM    5  C   UNL     1      68.142   5.461   8.560  1.00  0.00     0.042 A 
HETATM    6  C   UNL     1      68.170   3.957   6.679  1.00  0.00     0.014 A 
HETATM    7  C   UNL     1      68.918   4.588   9.329  1.00  0.00     0.030 A 
HETATM    8  C   UNL     1      68.975   3.086   7.424  1.00  0.00     0.001 A 
HETATM    9  C   UNL     1      69.338   3.398   8.731  1.00  0.00     0.002 A 
HETATM   10  H   UNL     1      67.724   7.138   9.750  1.00  0.00     0.165 HD
ENDROOT
BRANCH   2  11
HETATM   11  C   UNL     1      66.250   6.407   5.471  1.00  0.00     0.051 C 
BRANCH  11  12
HETATM   12  C   UNL     1      66.275   7.833   4.914  1.00  0.00     0.118 C 
BRANCH  12  13
HETATM   13  C   UNL     1      64.948   8.506   5.125  1.00  0.00     0.172 C 
HETATM   14  O   UNL     1      64.732   9.554   5.700  1.00  0.00    -0.648 OA
HETATM   15  O   UNL     1      63.928   7.801   4.590  1.00  0.00    -0.648 OA
ENDBRANCH  12  13
ENDBRANCH  11  12
ENDBRANCH   2  11
TORSDOF 3
ENDMDL
MODEL 9
REMARK VINA RESULT:      -4.9     14.799     16.672
REMARK  3 active torsions:
REMARK  status: ('A' for Active; 'I' for Inactive)
REMARK    1  A    between atoms: C_2  and  C_7 
REMARK    2  A    between atoms: C_6  and  C_9 
REMARK    3  A    between atoms: C_7  and  C_9 
ROOT
HETATM    1  N   UNL     1      67.847   3.200   5.648  1.00  0.00    -0.365 N 
HETATM    2  C   UNL     1      67.450   5.375   5.351  1.00  0.00    -0.030 A 
HETATM    3  C   UNL     1      67.379   4.128   4.759  1.00  0.00     0.096 A 
HETATM    4  C   UNL     1      67.855   5.158   6.710  1.00  0.00    -0.002 A 
HETATM    5  C   UNL     1      68.113   3.794   6.858  1.00  0.00     0.042 A 
HETATM    6  C   UNL     1      68.031   5.995   7.833  1.00  0.00     0.014 A 
HETATM    7  C   UNL     1      68.554   3.228   8.059  1.00  0.00     0.030 A 
HETATM    8  C   UNL     1      68.442   5.440   9.051  1.00  0.00     0.001 A 
HETATM    9  C   UNL     1      68.703   4.076   9.158  1.00  0.00     0.002 A 
HETATM   10  H   UNL     1      67.975   2.243   5.451  1.00  0.00     0.165 HD
ENDROOT
BRANCH   2  11
HETATM   11  C   UNL     1      67.121   6.684   4.695  1.00  0.00     0.051 C 
BRANCH  11  12
HETATM   12  C   UNL     1      65.622   6.991   4.680  1.00  0.00     0.118 C 
BRANCH  12  13
HETATM   13  C   UNL     1      65.219   7.724   5.929  1.00  0.00     0.172 C 
HETATM   14  O   UNL     1      64.722   7.257   6.934  1.00  0.00    -0.648 OA
HETATM   15  O   UNL     1      65.466   9.049   5.844  1.00  0.00    -0.648 OA
ENDBRANCH  12  13
ENDBRANCH  11  12
ENDBRANCH   2  11
TORSDOF 3
ENDMDL
