MODEL 1
REMARK VINA RESULT:      -5.1      0.000      0.000
REMARK  2 active torsions:
REMARK  status: ('A' for Active; 'I' for Inactive)
REMARK    1  A    between atoms: C_1  and  C_3 
REMARK    2  A    between atoms: C_2  and  O_13 
ROOT
HETATM    1  C   UNL     1      62.075   9.249   3.378  1.00  0.00     0.052 C 
HETATM    2  C   UNL     1      60.433   7.495   2.594  1.00  0.00     0.060 C 
HETATM    3  C   UNL     1      60.767   8.501   3.709  1.00  0.00     0.058 C 
HETATM    4  C   UNL     1      61.909   9.980   2.026  1.00  0.00     0.025 C 
HETATM    5  C   UNL     1      63.213   8.208   3.236  1.00  0.00     0.025 C 
HETATM    6  C   UNL     1      61.578   8.976   0.908  1.00  0.00    -0.010 C 
HETATM    7  C   UNL     1      62.887   7.198   2.123  1.00  0.00    -0.010 C 
HETATM    8  C   UNL     1      60.274   8.241   1.257  1.00  0.00     0.042 C 
HETATM    9  C   UNL     1      61.577   6.475   2.468  1.00  0.00     0.042 C 
HETATM   10  C   UNL     1      62.717   7.949   0.792  1.00  0.00     0.009 C 
ENDROOT
BRANCH   1  11
HETATM   11  C   UNL     1      62.411  10.240   4.480  1.00  0.00     0.182 C 
HETATM   12  O   UNL     1      63.037  10.014   5.503  1.00  0.00    -0.647 OA
HETATM   13  O   UNL     1      61.943  11.482   4.242  1.00  0.00    -0.647 OA
ENDBRANCH   1  11
BRANCH   2  14
HETATM   14  O   UNL     1      59.232   6.805   2.909  1.00  0.00    -0.390 OA
HETATM   15  H   UNL     1      58.820   7.213   3.686  1.00  0.00     0.210 HD
ENDBRANCH   2  14
TORSDOF 2
ENDMDL
MODEL 2
REMARK VINA RESULT:      -5.0      1.281      2.377
REMARK  2 active torsions:
REMARK  status: ('A' for Active; 'I' for Inactive)
REMARK    1  A    between atoms: C_1  and  C_3 
REMARK    2  A    between atoms: C_2  and  O_13 
ROOT
HETATM    1  C   UNL     1      62.070   9.299   3.402  1.00  0.00     0.052 C 
HETATM    2  C   UNL     1      62.874   7.225   2.201  1.00  0.00     0.060 C 
HETATM    3  C   UNL     1      63.201   8.254   3.297  1.00  0.00     0.058 C 
HETATM    4  C   UNL     1      60.742   8.574   3.722  1.00  0.00     0.025 C 
HETATM    5  C   UNL     1      61.925  10.003   2.030  1.00  0.00     0.025 C 
HETATM    6  C   UNL     1      60.412   7.546   2.626  1.00  0.00    -0.010 C 
HETATM    7  C   UNL     1      61.599   8.981   0.928  1.00  0.00    -0.010 C 
HETATM    8  C   UNL     1      61.549   6.517   2.537  1.00  0.00     0.042 C 
HETATM    9  C   UNL     1      62.731   7.947   0.852  1.00  0.00     0.042 C 
HETATM   10  C   UNL     1      60.282   8.268   1.274  1.00  0.00     0.009 C 
ENDROOT
BRANCH   1  11
HETATM   11  C   UNL     1      62.392  10.321   4.480  1.00  0.00     0.182 C 
HETATM   12  O   UNL     1      63.008  10.125   5.515  1.00  0.00    -0.647 OA
HETATM   13  O   UNL     1      61.921  11.554   4.204  1.00  0.00    -0.647 OA
ENDBRANCH   1  11
BRANCH   2  14
HETATM   14  O   UNL     1      63.922   6.271   2.106  1.00  0.00    -0.390 OA
HETATM   15  H   UNL     1      64.149   5.951   2.993  1.00  0.00     0.210 HD
ENDBRANCH   2  14
TORSDOF 2
ENDMDL
MODEL 3
REMARK VINA RESULT:      -5.0      1.757      2.994
REMARK  2 active torsions:
REMARK  status: ('A' for Active; 'I' for Inactive)
REMARK    1  A    between atoms: C_1  and  C_3 
REMARK    2  A    between atoms: C_2  and  O_13 
ROOT
HETATM    1  C   UNL     1      63.355   7.954   4.719  1.00  0.00     0.052 C 
HETATM    2  C   UNL     1      61.721   9.314   3.352  1.00  0.00     0.060 C 
HETATM    3  C   UNL     1      62.766   9.360   4.480  1.00  0.00     0.058 C 
HETATM    4  C   UNL     1      64.001   7.448   3.408  1.00  0.00     0.025 C 
HETATM    5  C   UNL     1      62.199   6.996   5.098  1.00  0.00     0.025 C 
HETATM    6  C   UNL     1      62.956   7.399   2.278  1.00  0.00    -0.010 C 
HETATM    7  C   UNL     1      61.149   6.944   3.975  1.00  0.00    -0.010 C 
HETATM    8  C   UNL     1      62.382   8.807   2.057  1.00  0.00     0.042 C 
HETATM    9  C   UNL     1      60.587   8.355   3.747  1.00  0.00     0.042 C 
HETATM   10  C   UNL     1      61.816   6.449   2.681  1.00  0.00     0.009 C 
ENDROOT
BRANCH   1  11
HETATM   11  C   UNL     1      64.384   7.995   5.837  1.00  0.00     0.182 C 
HETATM   12  O   UNL     1      64.473   7.225   6.779  1.00  0.00    -0.647 OA
HETATM   13  O   UNL     1      65.264   9.010   5.716  1.00  0.00    -0.647 OA
ENDBRANCH   1  11
BRANCH   2  14
HETATM   14  O   UNL     1      61.179  10.610   3.142  1.00  0.00    -0.390 OA
HETATM   15  H   UNL     1      61.860  11.189   2.766  1.00  0.00     0.210 HD
ENDBRANCH   2  14
TORSDOF 2
ENDMDL
MODEL 4
REMARK VINA RESULT:      -4.9      1.590      2.722
REMARK  2 active torsions:
REMARK  status: ('A' for Active; 'I' for Inactive)
REMARK    1  A    between atoms: C_1  and  C_3 
REMARK    2  A    between atoms: C_2  and  O_13 
ROOT
HETATM    1  C   UNL     1      62.012   9.501   3.039  1.00  0.00     0.052 C 
HETATM    2  C   UNL     1      62.278   7.592   1.403  1.00  0.00     0.060 C 
HETATM    3  C   UNL     1      62.222   9.122   1.558  1.00  0.00     0.058 C 
HETATM    4  C   UNL     1      63.172   8.917   3.878  1.00  0.00     0.025 C 
HETATM    5  C   UNL     1      60.687   8.864   3.524  1.00  0.00     0.025 C 
HETATM    6  C   UNL     1      63.228   7.386   3.727  1.00  0.00    -0.010 C 
HETATM    7  C   UNL     1      60.733   7.334   3.373  1.00  0.00    -0.010 C 
HETATM    8  C   UNL     1      63.436   7.030   2.247  1.00  0.00     0.042 C 
HETATM    9  C   UNL     1      60.955   6.983   1.894  1.00  0.00     0.042 C 
HETATM   10  C   UNL     1      61.899   6.779   4.207  1.00  0.00     0.009 C 
ENDROOT
BRANCH   1  11
HETATM   11  C   UNL     1      61.951  11.012   3.195  1.00  0.00     0.182 C 
HETATM   12  O   UNL     1      61.844  11.637   4.237  1.00  0.00    -0.647 OA
HETATM   13  O   UNL     1      62.032  11.673   2.022  1.00  0.00    -0.647 OA
ENDBRANCH   1  11
BRANCH   2  14
HETATM   14  O   UNL     1      62.464   7.251   0.037  1.00  0.00    -0.390 OA
HETATM   15  H   UNL     1      62.197   7.998  -0.522  1.00  0.00     0.210 HD
ENDBRANCH   2  14
TORSDOF 2
ENDMDL
MODEL 5
REMARK VINA RESULT:      -4.8      6.032      7.795
REMARK  2 active torsions:
REMARK  status: ('A' for Active; 'I' for Inactive)
REMARK    1  A    between atoms: C_1  and  C_3 
REMARK    2  A    between atoms: C_2  and  O_13 
ROOT
HETATM    1  C   UNL     1      67.039   5.184   7.540  1.00  0.00     0.052 C 
HETATM    2  C   UNL     1      66.694   7.536   6.679  1.00  0.00     0.060 C 
HETATM    3  C   UNL     1      67.183   6.686   7.865  1.00  0.00     0.058 C 
HETATM    4  C   UNL     1      67.862   4.862   6.271  1.00  0.00     0.025 C 
HETATM    5  C   UNL     1      65.548   4.887   7.246  1.00  0.00     0.025 C 
HETATM    6  C   UNL     1      67.372   5.709   5.082  1.00  0.00    -0.010 C 
HETATM    7  C   UNL     1      65.050   5.733   6.062  1.00  0.00    -0.010 C 
HETATM    8  C   UNL     1      67.523   7.199   5.426  1.00  0.00     0.042 C 
HETATM    9  C   UNL     1      65.215   7.221   6.403  1.00  0.00     0.042 C 
HETATM   10  C   UNL     1      65.888   5.402   4.816  1.00  0.00     0.009 C 
ENDROOT
BRANCH   1  11
HETATM   11  C   UNL     1      67.517   4.342   8.711  1.00  0.00     0.182 C 
HETATM   12  O   UNL     1      67.100   3.244   9.042  1.00  0.00    -0.647 OA
HETATM   13  O   UNL     1      68.508   4.923   9.417  1.00  0.00    -0.647 OA
ENDBRANCH   1  11
BRANCH   2  14
HETATM   14  O   UNL     1      66.822   8.916   6.988  1.00  0.00    -0.390 OA
HETATM   15  H   UNL     1      67.050   9.408   6.183  1.00  0.00     0.210 HD
ENDBRANCH   2  14
TORSDOF 2
ENDMDL
MODEL 6
REMARK VINA RESULT:      -4.8      5.032      6.814
REMARK  2 active torsions:
REMARK  status: ('A' for Active; 'I' for Inactive)
REMARK    1  A    between atoms: C_1  and  C_3 
REMARK    2  A    between atoms: C_2  and  O_13 
ROOT
HETATM    1  C   UNL     1      65.644   7.167   5.964  1.00  0.00     0.052 C 
HETATM    2  C   UNL     1      67.236   6.263   7.706  1.00  0.00     0.060 C 
HETATM    3  C   UNL     1      66.595   7.534   7.122  1.00  0.00     0.058 C 
HETATM    4  C   UNL     1      64.553   6.207   6.492  1.00  0.00     0.025 C 
HETATM    5  C   UNL     1      66.460   6.429   4.874  1.00  0.00     0.025 C 
HETATM    6  C   UNL     1      65.192   4.934   7.074  1.00  0.00    -0.010 C 
HETATM    7  C   UNL     1      67.106   5.157   5.450  1.00  0.00    -0.010 C 
HETATM    8  C   UNL     1      66.135   5.321   8.224  1.00  0.00     0.042 C 
HETATM    9  C   UNL     1      68.037   5.546   6.608  1.00  0.00     0.042 C 
HETATM   10  C   UNL     1      66.003   4.224   5.976  1.00  0.00     0.009 C 
ENDROOT
BRANCH   1  11
HETATM   11  C   UNL     1      65.012   8.421   5.381  1.00  0.00     0.182 C 
HETATM   12  O   UNL     1      65.112   9.558   5.809  1.00  0.00    -0.647 OA
HETATM   13  O   UNL     1      64.279   8.183   4.274  1.00  0.00    -0.647 OA
ENDBRANCH   1  11
BRANCH   2  14
HETATM   14  O   UNL     1      68.115   6.609   8.767  1.00  0.00    -0.390 OA
HETATM   15  H   UNL     1      68.912   6.059   8.719  1.00  0.00     0.210 HD
ENDBRANCH   2  14
TORSDOF 2
ENDMDL
MODEL 7
REMARK VINA RESULT:      -4.7      5.322      6.750
REMARK  2 active torsions:
REMARK  status: ('A' for Active; 'I' for Inactive)
REMARK    1  A    between atoms: C_1  and  C_3 
REMARK    2  A    between atoms: C_2  and  O_13 
ROOT
HETATM    1  C   UNL     1      67.210   6.016   6.860  1.00  0.00     0.052 C 
HETATM    2  C   UNL     1      64.925   6.963   6.339  1.00  0.00     0.060 C 
HETATM    3  C   UNL     1      65.888   6.537   7.461  1.00  0.00     0.058 C 
HETATM    4  C   UNL     1      67.846   7.132   5.999  1.00  0.00     0.025 C 
HETATM    5  C   UNL     1      66.890   4.811   5.942  1.00  0.00     0.025 C 
HETATM    6  C   UNL     1      66.885   7.558   4.874  1.00  0.00    -0.010 C 
HETATM    7  C   UNL     1      65.927   5.228   4.817  1.00  0.00    -0.010 C 
HETATM    8  C   UNL     1      65.576   8.071   5.493  1.00  0.00     0.042 C 
HETATM    9  C   UNL     1      64.625   5.753   5.440  1.00  0.00     0.042 C 
HETATM   10  C   UNL     1      66.577   6.343   3.982  1.00  0.00     0.009 C 
ENDROOT
BRANCH   1  11
HETATM   11  C   UNL     1      68.163   5.590   7.965  1.00  0.00     0.182 C 
HETATM   12  O   UNL     1      69.045   4.751   7.888  1.00  0.00    -0.647 OA
HETATM   13  O   UNL     1      67.960   6.246   9.126  1.00  0.00    -0.647 OA
ENDBRANCH   1  11
BRANCH   2  14
HETATM   14  O   UNL     1      63.708   7.434   6.900  1.00  0.00    -0.390 OA
HETATM   15  H   UNL     1      63.058   6.714   6.913  1.00  0.00     0.210 HD
ENDBRANCH   2  14
TORSDOF 2
ENDMDL
MODEL 8
REMARK VINA RESULT:      -4.6      4.538      6.404
REMARK  2 active torsions:
REMARK  status: ('A' for Active; 'I' for Inactive)
REMARK    1  A    between atoms: C_1  and  C_3 
REMARK    2  A    between atoms: C_2  and  O_13 
ROOT
HETATM    1  C   UNL     1      64.833   6.617   5.942  1.00  0.00     0.052 C 
HETATM    2  C   UNL     1      67.232   6.452   6.724  1.00  0.00     0.060 C 
HETATM    3  C   UNL     1      65.776   6.689   7.162  1.00  0.00     0.058 C 
HETATM    4  C   UNL     1      64.977   5.229   5.276  1.00  0.00     0.025 C 
HETATM    5  C   UNL     1      65.270   7.698   4.922  1.00  0.00     0.025 C 
HETATM    6  C   UNL     1      66.432   4.991   4.834  1.00  0.00    -0.010 C 
HETATM    7  C   UNL     1      66.725   7.469   4.479  1.00  0.00    -0.010 C 
HETATM    8  C   UNL     1      67.353   5.067   6.062  1.00  0.00     0.042 C 
HETATM    9  C   UNL     1      67.641   7.532   5.710  1.00  0.00     0.042 C 
HETATM   10  C   UNL     1      66.844   6.081   3.829  1.00  0.00     0.009 C 
ENDROOT
BRANCH   1  11
HETATM   11  C   UNL     1      63.395   6.856   6.369  1.00  0.00     0.182 C 
HETATM   12  O   UNL     1      62.934   7.877   6.853  1.00  0.00    -0.647 OA
HETATM   13  O   UNL     1      62.594   5.791   6.164  1.00  0.00    -0.647 OA
ENDBRANCH   1  11
BRANCH   2  14
HETATM   14  O   UNL     1      68.093   6.527   7.851  1.00  0.00    -0.390 OA
HETATM   15  H   UNL     1      68.647   5.731   7.887  1.00  0.00     0.210 HD
ENDBRANCH   2  14
TORSDOF 2
ENDMDL
MODEL 9
REMARK VINA RESULT:      -4.5     15.343     16.458
REMARK  2 active torsions:
REMARK  status: ('A' for Active; 'I' for Inactive)
REMARK    1  A    between atoms: C_1  and  C_3 
REMARK    2  A    between atoms: C_2  and  O_13 
ROOT
HETATM    1  C   UNL     1      77.272  12.476   5.070  1.00  0.00     0.052 C 
HETATM    2  C   UNL     1      77.782  10.490   6.549  1.00  0.00     0.060 C 
HETATM    3  C   UNL     1      77.263  11.938   6.517  1.00  0.00     0.058 C 
HETATM    4  C   UNL     1      76.385  11.566   4.189  1.00  0.00     0.025 C 
HETATM    5  C   UNL     1      78.724  12.414   4.533  1.00  0.00     0.025 C 
HETATM    6  C   UNL     1      76.904  10.117   4.218  1.00  0.00    -0.010 C 
HETATM    7  C   UNL     1      79.251  10.969   4.563  1.00  0.00    -0.010 C 
HETATM    8  C   UNL     1      76.889   9.602   5.665  1.00  0.00     0.042 C 
HETATM    9  C   UNL     1      79.221  10.453   6.009  1.00  0.00     0.042 C 
HETATM   10  C   UNL     1      78.348  10.084   3.688  1.00  0.00     0.009 C 
ENDROOT
BRANCH   1  11
HETATM   11  C   UNL     1      76.765  13.908   5.034  1.00  0.00     0.182 C 
HETATM   12  O   UNL     1      76.608  14.653   5.987  1.00  0.00    -0.647 OA
HETATM   13  O   UNL     1      76.478  14.341   3.790  1.00  0.00    -0.647 OA
ENDBRANCH   1  11
BRANCH   2  14
HETATM   14  O   UNL     1      77.778  10.006   7.884  1.00  0.00    -0.390 OA
HETATM   15  H   UNL     1      77.064   9.358   7.990  1.00  0.00     0.210 HD
ENDBRANCH   2  14
TORSDOF 2
ENDMDL
