MODEL 1
REMARK VINA RESULT:      -6.7      0.000      0.000
REMARK  3 active torsions:
REMARK  status: ('A' for Active; 'I' for Inactive)
REMARK    1  A    between atoms: O_1  and  C_2 
REMARK    2  A    between atoms: O_1  and  C_4 
REMARK    3  A    between atoms: C_3  and  O_9 
ROOT
HETATM    1  C   UNL     1      77.854   9.317  17.600  1.00  0.00     0.076 A 
HETATM    2  C   UNL     1      77.248   8.108  15.167  1.00  0.00     0.065 A 
HETATM    3  C   UNL     1      78.200   9.945  16.400  1.00  0.00     0.040 A 
HETATM    4  C   UNL     1      77.266   8.050  17.574  1.00  0.00     0.040 A 
HETATM    5  C   UNL     1      76.960   7.445  16.355  1.00  0.00     0.039 A 
HETATM    6  C   UNL     1      77.872   9.353  15.179  1.00  0.00     0.039 A 
ENDROOT
BRANCH   1   7
HETATM    7  O   UNL     1      78.111   9.832  18.852  1.00  0.00    -0.311 OA
BRANCH   7   8
HETATM    8  C   UNL     1      77.631  11.074  19.201  1.00  0.00     0.076 A 
HETATM    9  C   UNL     1      76.558  11.715  18.572  1.00  0.00     0.037 A 
HETATM   10  C   UNL     1      76.167  12.991  18.983  1.00  0.00     0.003 A 
HETATM   11  C   UNL     1      76.808  13.606  20.059  1.00  0.00     0.000 A 
HETATM   12  C   UNL     1      77.835  12.943  20.728  1.00  0.00     0.003 A 
HETATM   13  C   UNL     1      78.243  11.679  20.300  1.00  0.00     0.037 A 
ENDBRANCH   7   8
ENDBRANCH   1   7
BRANCH   2  14
HETATM   14  O   UNL     1      76.905   7.498  13.999  1.00  0.00    -0.361 OA
HETATM   15  H   UNL     1      77.430   6.798  13.664  1.00  0.00     0.217 HD
ENDBRANCH   2  14
TORSDOF 3
ENDMDL
MODEL 2
REMARK VINA RESULT:      -6.2      1.292      2.229
REMARK  3 active torsions:
REMARK  status: ('A' for Active; 'I' for Inactive)
REMARK    1  A    between atoms: O_1  and  C_2 
REMARK    2  A    between atoms: O_1  and  C_4 
REMARK    3  A    between atoms: C_3  and  O_9 
ROOT
HETATM    1  C   UNL     1      77.384   9.454  17.307  1.00  0.00     0.076 A 
HETATM    2  C   UNL     1      76.865   6.758  16.849  1.00  0.00     0.065 A 
HETATM    3  C   UNL     1      76.914   8.644  18.345  1.00  0.00     0.040 A 
HETATM    4  C   UNL     1      77.526   8.921  16.023  1.00  0.00     0.040 A 
HETATM    5  C   UNL     1      77.267   7.569  15.794  1.00  0.00     0.039 A 
HETATM    6  C   UNL     1      76.679   7.285  18.124  1.00  0.00     0.039 A 
ENDROOT
BRANCH   1   7
HETATM    7  O   UNL     1      77.669  10.796  17.433  1.00  0.00    -0.311 OA
BRANCH   7   8
HETATM    8  C   UNL     1      77.378  11.458  18.604  1.00  0.00     0.076 A 
HETATM    9  C   UNL     1      78.146  11.381  19.770  1.00  0.00     0.037 A 
HETATM   10  C   UNL     1      77.747  12.070  20.918  1.00  0.00     0.003 A 
HETATM   11  C   UNL     1      76.614  12.882  20.886  1.00  0.00     0.000 A 
HETATM   12  C   UNL     1      75.882  13.011  19.708  1.00  0.00     0.003 A 
HETATM   13  C   UNL     1      76.266  12.301  18.568  1.00  0.00     0.037 A 
ENDBRANCH   7   8
ENDBRANCH   1   7
BRANCH   2  14
HETATM   14  O   UNL     1      76.653   5.437  16.591  1.00  0.00    -0.361 OA
HETATM   15  H   UNL     1      76.854   4.794  17.243  1.00  0.00     0.217 HD
ENDBRANCH   2  14
TORSDOF 3
ENDMDL
MODEL 3
REMARK VINA RESULT:      -6.0      3.338      6.399
REMARK  3 active torsions:
REMARK  status: ('A' for Active; 'I' for Inactive)
REMARK    1  A    between atoms: O_1  and  C_2 
REMARK    2  A    between atoms: O_1  and  C_4 
REMARK    3  A    between atoms: C_3  and  O_9 
ROOT
HETATM    1  C   UNL     1      76.987   7.073  16.893  1.00  0.00     0.076 A 
HETATM    2  C   UNL     1      77.584   9.057  15.034  1.00  0.00     0.065 A 
HETATM    3  C   UNL     1      76.892   6.803  15.525  1.00  0.00     0.040 A 
HETATM    4  C   UNL     1      77.315   8.361  17.324  1.00  0.00     0.040 A 
HETATM    5  C   UNL     1      77.616   9.355  16.392  1.00  0.00     0.039 A 
HETATM    6  C   UNL     1      77.217   7.789  14.591  1.00  0.00     0.039 A 
ENDROOT
BRANCH   1   7
HETATM    7  O   UNL     1      76.713   6.161  17.889  1.00  0.00    -0.311 OA
BRANCH   7   8
HETATM    8  C   UNL     1      76.172   4.935  17.574  1.00  0.00     0.076 A 
HETATM    9  C   UNL     1      74.986   4.752  16.855  1.00  0.00     0.037 A 
HETATM   10  C   UNL     1      74.506   3.463  16.613  1.00  0.00     0.003 A 
HETATM   11  C   UNL     1      75.238   2.354  17.037  1.00  0.00     0.000 A 
HETATM   12  C   UNL     1      76.452   2.532  17.697  1.00  0.00     0.003 A 
HETATM   13  C   UNL     1      76.918   3.821  17.963  1.00  0.00     0.037 A 
ENDBRANCH   7   8
ENDBRANCH   1   7
BRANCH   2  14
HETATM   14  O   UNL     1      77.915  10.046  14.158  1.00  0.00    -0.361 OA
HETATM   15  H   UNL     1      77.269  10.386  13.570  1.00  0.00     0.217 HD
ENDBRANCH   2  14
TORSDOF 3
ENDMDL
MODEL 4
REMARK VINA RESULT:      -5.5     17.046     19.274
REMARK  3 active torsions:
REMARK  status: ('A' for Active; 'I' for Inactive)
REMARK    1  A    between atoms: O_1  and  C_2 
REMARK    2  A    between atoms: O_1  and  C_4 
REMARK    3  A    between atoms: C_3  and  O_9 
ROOT
HETATM    1  C   UNL     1      63.361   9.009   4.972  1.00  0.00     0.076 A 
HETATM    2  C   UNL     1      61.989  10.569   3.119  1.00  0.00     0.065 A 
HETATM    3  C   UNL     1      63.012   8.475   3.728  1.00  0.00     0.040 A 
HETATM    4  C   UNL     1      62.958  10.304   5.307  1.00  0.00     0.040 A 
HETATM    5  C   UNL     1      62.272  11.087   4.378  1.00  0.00     0.039 A 
HETATM    6  C   UNL     1      62.348   9.266   2.787  1.00  0.00     0.039 A 
ENDROOT
BRANCH   1   7
HETATM    7  O   UNL     1      64.037   8.319   5.954  1.00  0.00    -0.311 OA
BRANCH   7   8
HETATM    8  C   UNL     1      65.163   7.593   5.639  1.00  0.00     0.076 A 
HETATM    9  C   UNL     1      66.372   8.151   5.209  1.00  0.00     0.037 A 
HETATM   10  C   UNL     1      67.449   7.323   4.884  1.00  0.00     0.003 A 
HETATM   11  C   UNL     1      67.341   5.941   5.044  1.00  0.00     0.000 A 
HETATM   12  C   UNL     1      66.160   5.388   5.534  1.00  0.00     0.003 A 
HETATM   13  C   UNL     1      65.074   6.214   5.832  1.00  0.00     0.037 A 
ENDBRANCH   7   8
ENDBRANCH   1   7
BRANCH   2  14
HETATM   14  O   UNL     1      61.346  11.376   2.230  1.00  0.00    -0.361 OA
HETATM   15  H   UNL     1      60.431  11.257   2.065  1.00  0.00     0.217 HD
ENDBRANCH   2  14
TORSDOF 3
ENDMDL
MODEL 5
REMARK VINA RESULT:      -5.5     17.267     19.505
REMARK  3 active torsions:
REMARK  status: ('A' for Active; 'I' for Inactive)
REMARK    1  A    between atoms: O_1  and  C_2 
REMARK    2  A    between atoms: O_1  and  C_4 
REMARK    3  A    between atoms: C_3  and  O_9 
ROOT
HETATM    1  C   UNL     1      63.827   7.666   5.195  1.00  0.00     0.076 A 
HETATM    2  C   UNL     1      66.223   7.298   6.564  1.00  0.00     0.065 A 
HETATM    3  C   UNL     1      64.991   8.302   4.753  1.00  0.00     0.040 A 
HETATM    4  C   UNL     1      63.856   6.903   6.365  1.00  0.00     0.040 A 
HETATM    5  C   UNL     1      65.058   6.717   7.050  1.00  0.00     0.039 A 
HETATM    6  C   UNL     1      66.200   8.096   5.422  1.00  0.00     0.039 A 
ENDROOT
BRANCH   1   7
HETATM    7  O   UNL     1      62.596   7.785   4.589  1.00  0.00    -0.311 OA
BRANCH   7   8
HETATM    8  C   UNL     1      62.371   8.787   3.672  1.00  0.00     0.076 A 
HETATM    9  C   UNL     1      62.300   8.595   2.288  1.00  0.00     0.037 A 
HETATM   10  C   UNL     1      62.096   9.685   1.439  1.00  0.00     0.003 A 
HETATM   11  C   UNL     1      61.905  10.960   1.973  1.00  0.00     0.000 A 
HETATM   12  C   UNL     1      61.911  11.144   3.354  1.00  0.00     0.003 A 
HETATM   13  C   UNL     1      62.142  10.058   4.201  1.00  0.00     0.037 A 
ENDBRANCH   7   8
ENDBRANCH   1   7
BRANCH   2  14
HETATM   14  O   UNL     1      67.381   7.067   7.243  1.00  0.00    -0.361 OA
HETATM   15  H   UNL     1      68.199   7.065   6.786  1.00  0.00     0.217 HD
ENDBRANCH   2  14
TORSDOF 3
ENDMDL
MODEL 6
REMARK VINA RESULT:      -5.3     17.966     20.264
REMARK  3 active torsions:
REMARK  status: ('A' for Active; 'I' for Inactive)
REMARK    1  A    between atoms: O_1  and  C_2 
REMARK    2  A    between atoms: O_1  and  C_4 
REMARK    3  A    between atoms: C_3  and  O_9 
ROOT
HETATM    1  C   UNL     1      62.322   8.530   3.427  1.00  0.00     0.076 A 
HETATM    2  C   UNL     1      61.948  11.048   2.303  1.00  0.00     0.065 A 
HETATM    3  C   UNL     1      62.108   8.658   2.052  1.00  0.00     0.040 A 
HETATM    4  C   UNL     1      62.278   9.663   4.244  1.00  0.00     0.040 A 
HETATM    5  C   UNL     1      62.092  10.925   3.680  1.00  0.00     0.039 A 
HETATM    6  C   UNL     1      61.948   9.923   1.482  1.00  0.00     0.039 A 
ENDROOT
BRANCH   1   7
HETATM    7  O   UNL     1      62.516   7.331   4.078  1.00  0.00    -0.311 OA
BRANCH   7   8
HETATM    8  C   UNL     1      63.659   7.121   4.815  1.00  0.00     0.076 A 
HETATM    9  C   UNL     1      63.681   6.888   6.195  1.00  0.00     0.037 A 
HETATM   10  C   UNL     1      64.899   6.716   6.856  1.00  0.00     0.003 A 
HETATM   11  C   UNL     1      66.093   6.719   6.134  1.00  0.00     0.000 A 
HETATM   12  C   UNL     1      66.069   6.887   4.751  1.00  0.00     0.003 A 
HETATM   13  C   UNL     1      64.853   7.086   4.094  1.00  0.00     0.037 A 
ENDBRANCH   7   8
ENDBRANCH   1   7
BRANCH   2  14
HETATM   14  O   UNL     1      61.801  12.301   1.788  1.00  0.00    -0.361 OA
HETATM   15  H   UNL     1      61.566  13.014   2.350  1.00  0.00     0.217 HD
ENDBRANCH   2  14
TORSDOF 3
ENDMDL
MODEL 7
REMARK VINA RESULT:      -5.1     13.561     15.856
REMARK  3 active torsions:
REMARK  status: ('A' for Active; 'I' for Inactive)
REMARK    1  A    between atoms: O_1  and  C_2 
REMARK    2  A    between atoms: O_1  and  C_4 
REMARK    3  A    between atoms: C_3  and  O_9 
ROOT
HETATM    1  C   UNL     1      67.289   5.560   6.275  1.00  0.00     0.076 A 
HETATM    2  C   UNL     1      65.912   7.963   6.000  1.00  0.00     0.065 A 
HETATM    3  C   UNL     1      66.099   5.769   6.977  1.00  0.00     0.040 A 
HETATM    4  C   UNL     1      67.820   6.586   5.490  1.00  0.00     0.040 A 
HETATM    5  C   UNL     1      67.130   7.791   5.351  1.00  0.00     0.039 A 
HETATM    6  C   UNL     1      65.393   6.964   6.819  1.00  0.00     0.039 A 
ENDROOT
BRANCH   1   7
HETATM    7  O   UNL     1      68.043   4.408   6.344  1.00  0.00    -0.311 OA
BRANCH   7   8
HETATM    8  C   UNL     1      68.388   3.881   7.567  1.00  0.00     0.076 A 
HETATM    9  C   UNL     1      67.888   2.680   8.083  1.00  0.00     0.037 A 
HETATM   10  C   UNL     1      68.281   2.246   9.351  1.00  0.00     0.003 A 
HETATM   11  C   UNL     1      69.217   2.978  10.082  1.00  0.00     0.000 A 
HETATM   12  C   UNL     1      69.765   4.140   9.543  1.00  0.00     0.003 A 
HETATM   13  C   UNL     1      69.352   4.589   8.287  1.00  0.00     0.037 A 
ENDBRANCH   7   8
ENDBRANCH   1   7
BRANCH   2  14
HETATM   14  O   UNL     1      65.253   9.141   5.814  1.00  0.00    -0.361 OA
HETATM   15  H   UNL     1      65.675   9.847   5.366  1.00  0.00     0.217 HD
ENDBRANCH   2  14
TORSDOF 3
ENDMDL
MODEL 8
REMARK VINA RESULT:      -4.9      7.481     10.094
REMARK  3 active torsions:
REMARK  status: ('A' for Active; 'I' for Inactive)
REMARK    1  A    between atoms: O_1  and  C_2 
REMARK    2  A    between atoms: O_1  and  C_4 
REMARK    3  A    between atoms: C_3  and  O_9 
ROOT
HETATM    1  C   UNL     1      76.804   1.233  17.730  1.00  0.00     0.076 A 
HETATM    2  C   UNL     1      74.944   3.189  17.051  1.00  0.00     0.065 A 
HETATM    3  C   UNL     1      77.117   2.585  17.898  1.00  0.00     0.040 A 
HETATM    4  C   UNL     1      75.582   0.870  17.157  1.00  0.00     0.040 A 
HETATM    5  C   UNL     1      74.650   1.851  16.818  1.00  0.00     0.039 A 
HETATM    6  C   UNL     1      76.174   3.567  17.584  1.00  0.00     0.039 A 
ENDROOT
BRANCH   1   7
HETATM    7  O   UNL     1      77.654   0.192  18.035  1.00  0.00    -0.311 OA
BRANCH   7   8
HETATM    8  C   UNL     1      77.979  -0.074  19.346  1.00  0.00     0.076 A 
HETATM    9  C   UNL     1      79.090   0.454  20.011  1.00  0.00     0.037 A 
HETATM   10  C   UNL     1      79.348   0.097  21.337  1.00  0.00     0.003 A 
HETATM   11  C   UNL     1      78.466  -0.743  22.018  1.00  0.00     0.000 A 
HETATM   12  C   UNL     1      77.324  -1.219  21.378  1.00  0.00     0.003 A 
HETATM   13  C   UNL     1      77.081  -0.883  20.045  1.00  0.00     0.037 A 
ENDBRANCH   7   8
ENDBRANCH   1   7
BRANCH   2  14
HETATM   14  O   UNL     1      73.995   4.114  16.737  1.00  0.00    -0.361 OA
HETATM   15  H   UNL     1      73.663   4.166  15.862  1.00  0.00     0.217 HD
ENDBRANCH   2  14
TORSDOF 3
ENDMDL
MODEL 9
REMARK VINA RESULT:      -4.5      8.336     11.760
REMARK  3 active torsions:
REMARK  status: ('A' for Active; 'I' for Inactive)
REMARK    1  A    between atoms: O_1  and  C_2 
REMARK    2  A    between atoms: O_1  and  C_4 
REMARK    3  A    between atoms: C_3  and  O_9 
ROOT
HETATM    1  C   UNL     1      75.669   0.424  16.162  1.00  0.00     0.076 A 
HETATM    2  C   UNL     1      76.230   2.466  17.968  1.00  0.00     0.065 A 
HETATM    3  C   UNL     1      76.889   0.439  16.846  1.00  0.00     0.040 A 
HETATM    4  C   UNL     1      74.764   1.473  16.337  1.00  0.00     0.040 A 
HETATM    5  C   UNL     1      75.044   2.496  17.243  1.00  0.00     0.039 A 
HETATM    6  C   UNL     1      77.160   1.448  17.772  1.00  0.00     0.039 A 
ENDROOT
BRANCH   1   7
HETATM    7  O   UNL     1      75.299  -0.540  15.250  1.00  0.00    -0.311 OA
BRANCH   7   8
HETATM    8  C   UNL     1      76.169  -0.919  14.253  1.00  0.00     0.076 A 
HETATM    9  C   UNL     1      76.554  -0.102  13.184  1.00  0.00     0.037 A 
HETATM   10  C   UNL     1      77.421  -0.593  12.205  1.00  0.00     0.003 A 
HETATM   11  C   UNL     1      77.951  -1.878  12.322  1.00  0.00     0.000 A 
HETATM   12  C   UNL     1      77.620  -2.670  13.419  1.00  0.00     0.003 A 
HETATM   13  C   UNL     1      76.732  -2.189  14.383  1.00  0.00     0.037 A 
ENDBRANCH   7   8
ENDBRANCH   1   7
BRANCH   2  14
HETATM   14  O   UNL     1      76.452   3.466  18.866  1.00  0.00    -0.361 OA
HETATM   15  H   UNL     1      75.742   3.803  19.377  1.00  0.00     0.217 HD
ENDBRANCH   2  14
TORSDOF 3
ENDMDL
