MODEL 1
REMARK VINA RESULT:      -5.7      0.000      0.000
REMARK  2 active torsions:
REMARK  status: ('A' for Active; 'I' for Inactive)
REMARK    1  A    between atoms: C_1  and  C_2 
REMARK    2  A    between atoms: C_3  and  O_9 
ROOT
HETATM    1  C   UNL     1      78.151  10.811  19.139  1.00  0.00     0.043 A 
HETATM    2  C   UNL     1      79.295  10.894  19.946  1.00  0.00     0.079 A 
HETATM    3  C   UNL     1      77.118  11.744  19.328  1.00  0.00     0.024 A 
HETATM    4  C   UNL     1      79.414  11.891  20.911  1.00  0.00     0.038 A 
HETATM    5  C   UNL     1      77.228  12.746  20.305  1.00  0.00    -0.061 A 
HETATM    6  C   UNL     1      78.384  12.814  21.090  1.00  0.00     0.009 A 
HETATM    7  C   UNL     1      76.120  13.734  20.525  1.00  0.00     0.048 C 
ENDROOT
BRANCH   1   8
HETATM    8  C   UNL     1      78.047   9.741  18.103  1.00  0.00     0.158 C 
HETATM    9  O   UNL     1      78.780   9.791  17.114  1.00  0.00    -0.293 OA
HETATM   10  C   UNL     1      77.055   8.623  18.286  1.00  0.00     0.097 C 
ENDBRANCH   1   8
BRANCH   2  11
HETATM   11  O   UNL     1      80.348  10.025  19.848  1.00  0.00    -0.360 OA
HETATM   12  H   UNL     1      80.460   9.350  20.489  1.00  0.00     0.217 HD
ENDBRANCH   2  11
TORSDOF 2
ENDMDL
MODEL 2
REMARK VINA RESULT:      -5.4      1.633      3.715
REMARK  2 active torsions:
REMARK  status: ('A' for Active; 'I' for Inactive)
REMARK    1  A    between atoms: C_1  and  C_2 
REMARK    2  A    between atoms: C_3  and  O_9 
ROOT
HETATM    1  C   UNL     1      79.248  12.354  21.398  1.00  0.00     0.043 A 
HETATM    2  C   UNL     1      79.331  11.301  20.474  1.00  0.00     0.079 A 
HETATM    3  C   UNL     1      78.122  13.194  21.368  1.00  0.00     0.024 A 
HETATM    4  C   UNL     1      78.313  11.082  19.551  1.00  0.00     0.038 A 
HETATM    5  C   UNL     1      77.096  12.984  20.434  1.00  0.00    -0.061 A 
HETATM    6  C   UNL     1      77.198  11.921  19.530  1.00  0.00     0.009 A 
HETATM    7  C   UNL     1      75.900  13.889  20.385  1.00  0.00     0.048 C 
ENDROOT
BRANCH   1   8
HETATM    8  C   UNL     1      80.346  12.567  22.386  1.00  0.00     0.158 C 
HETATM    9  O   UNL     1      81.465  12.883  21.980  1.00  0.00    -0.293 OA
HETATM   10  C   UNL     1      80.066  12.396  23.856  1.00  0.00     0.097 C 
ENDBRANCH   1   8
BRANCH   2  11
HETATM   11  O   UNL     1      80.392  10.437  20.414  1.00  0.00    -0.360 OA
HETATM   12  H   UNL     1      81.027  10.425  21.104  1.00  0.00     0.217 HD
ENDBRANCH   2  11
TORSDOF 2
ENDMDL
MODEL 3
REMARK VINA RESULT:      -5.4     20.139     21.868
REMARK  2 active torsions:
REMARK  status: ('A' for Active; 'I' for Inactive)
REMARK    1  A    between atoms: C_1  and  C_2 
REMARK    2  A    between atoms: C_3  and  O_9 
ROOT
HETATM    1  C   UNL     1      63.067   9.067   4.692  1.00  0.00     0.043 A 
HETATM    2  C   UNL     1      62.749  10.367   5.113  1.00  0.00     0.079 A 
HETATM    3  C   UNL     1      62.778   8.694   3.369  1.00  0.00     0.024 A 
HETATM    4  C   UNL     1      62.169  11.277   4.235  1.00  0.00     0.038 A 
HETATM    5  C   UNL     1      62.185   9.605   2.480  1.00  0.00    -0.061 A 
HETATM    6  C   UNL     1      61.887  10.898   2.922  1.00  0.00     0.009 A 
HETATM    7  C   UNL     1      61.857   9.205   1.072  1.00  0.00     0.048 C 
ENDROOT
BRANCH   1   8
HETATM    8  C   UNL     1      63.698   8.108   5.647  1.00  0.00     0.158 C 
HETATM    9  O   UNL     1      63.112   7.833   6.694  1.00  0.00    -0.293 OA
HETATM   10  C   UNL     1      65.032   7.495   5.311  1.00  0.00     0.097 C 
ENDBRANCH   1   8
BRANCH   2  11
HETATM   11  O   UNL     1      62.978  10.822   6.384  1.00  0.00    -0.360 OA
HETATM   12  H   UNL     1      62.648  10.344   7.120  1.00  0.00     0.217 HD
ENDBRANCH   2  11
TORSDOF 2
ENDMDL
MODEL 4
REMARK VINA RESULT:      -5.1     21.447     23.320
REMARK  2 active torsions:
REMARK  status: ('A' for Active; 'I' for Inactive)
REMARK    1  A    between atoms: C_1  and  C_2 
REMARK    2  A    between atoms: C_3  and  O_9 
ROOT
HETATM    1  C   UNL     1      62.218  10.188   3.497  1.00  0.00     0.043 A 
HETATM    2  C   UNL     1      62.071  10.593   2.162  1.00  0.00     0.079 A 
HETATM    3  C   UNL     1      62.224   8.815   3.792  1.00  0.00     0.024 A 
HETATM    4  C   UNL     1      61.947   9.654   1.143  1.00  0.00     0.038 A 
HETATM    5  C   UNL     1      62.090   7.862   2.769  1.00  0.00    -0.061 A 
HETATM    6  C   UNL     1      61.957   8.292   1.445  1.00  0.00     0.009 A 
HETATM    7  C   UNL     1      62.077   6.394   3.080  1.00  0.00     0.048 C 
ENDROOT
BRANCH   1   8
HETATM    8  C   UNL     1      62.359  11.211   4.575  1.00  0.00     0.158 C 
HETATM    9  O   UNL     1      61.810  12.305   4.439  1.00  0.00    -0.293 OA
HETATM   10  C   UNL     1      63.165  10.888   5.806  1.00  0.00     0.097 C 
ENDBRANCH   1   8
BRANCH   2  11
HETATM   11  O   UNL     1      62.040  11.907   1.775  1.00  0.00    -0.360 OA
HETATM   12  H   UNL     1      61.976  12.584   2.420  1.00  0.00     0.217 HD
ENDBRANCH   2  11
TORSDOF 2
ENDMDL
MODEL 5
REMARK VINA RESULT:      -4.8     20.681     22.476
REMARK  2 active torsions:
REMARK  status: ('A' for Active; 'I' for Inactive)
REMARK    1  A    between atoms: C_1  and  C_2 
REMARK    2  A    between atoms: C_3  and  O_9 
ROOT
HETATM    1  C   UNL     1      62.142   9.829   4.055  1.00  0.00     0.043 A 
HETATM    2  C   UNL     1      63.110   9.530   5.025  1.00  0.00     0.079 A 
HETATM    3  C   UNL     1      61.378   8.782   3.515  1.00  0.00     0.024 A 
HETATM    4  C   UNL     1      63.305   8.221   5.456  1.00  0.00     0.038 A 
HETATM    5  C   UNL     1      61.575   7.458   3.939  1.00  0.00    -0.061 A 
HETATM    6  C   UNL     1      62.540   7.188   4.915  1.00  0.00     0.009 A 
HETATM    7  C   UNL     1      60.775   6.333   3.351  1.00  0.00     0.048 C 
ENDROOT
BRANCH   1   8
HETATM    8  C   UNL     1      61.942  11.242   3.613  1.00  0.00     0.158 C 
HETATM    9  O   UNL     1      61.894  12.133   4.462  1.00  0.00    -0.293 OA
HETATM   10  C   UNL     1      61.806  11.549   2.146  1.00  0.00     0.097 C 
ENDBRANCH   1   8
BRANCH   2  11
HETATM   11  O   UNL     1      63.914  10.477   5.602  1.00  0.00    -0.360 OA
HETATM   12  H   UNL     1      63.623  10.938   6.364  1.00  0.00     0.217 HD
ENDBRANCH   2  11
TORSDOF 2
ENDMDL
MODEL 6
REMARK VINA RESULT:      -4.8      1.936      3.838
REMARK  2 active torsions:
REMARK  status: ('A' for Active; 'I' for Inactive)
REMARK    1  A    between atoms: C_1  and  C_2 
REMARK    2  A    between atoms: C_3  and  O_9 
ROOT
HETATM    1  C   UNL     1      77.579  11.582  19.460  1.00  0.00     0.043 A 
HETATM    2  C   UNL     1      78.805  11.218  20.037  1.00  0.00     0.079 A 
HETATM    3  C   UNL     1      77.120  10.872  18.339  1.00  0.00     0.024 A 
HETATM    4  C   UNL     1      79.549  10.162  19.518  1.00  0.00     0.038 A 
HETATM    5  C   UNL     1      77.870   9.811  17.806  1.00  0.00    -0.061 A 
HETATM    6  C   UNL     1      79.084   9.461  18.406  1.00  0.00     0.009 A 
HETATM    7  C   UNL     1      77.393   9.061  16.597  1.00  0.00     0.048 C 
ENDROOT
BRANCH   1   8
HETATM    8  C   UNL     1      76.791  12.711  20.037  1.00  0.00     0.158 C 
HETATM    9  O   UNL     1      76.140  12.523  21.066  1.00  0.00    -0.293 OA
HETATM   10  C   UNL     1      76.810  14.055  19.358  1.00  0.00     0.097 C 
ENDBRANCH   1   8
BRANCH   2  11
HETATM   11  O   UNL     1      79.345  11.856  21.121  1.00  0.00    -0.360 OA
HETATM   12  H   UNL     1      79.540  11.374  21.901  1.00  0.00     0.217 HD
ENDBRANCH   2  11
TORSDOF 2
ENDMDL
MODEL 7
REMARK VINA RESULT:      -4.6     14.897     16.602
REMARK  2 active torsions:
REMARK  status: ('A' for Active; 'I' for Inactive)
REMARK    1  A    between atoms: C_1  and  C_2 
REMARK    2  A    between atoms: C_3  and  O_9 
ROOT
HETATM    1  C   UNL     1      68.134   2.299   9.606  1.00  0.00     0.043 A 
HETATM    2  C   UNL     1      69.322   2.748  10.202  1.00  0.00     0.079 A 
HETATM    3  C   UNL     1      67.641   2.981   8.481  1.00  0.00     0.024 A 
HETATM    4  C   UNL     1      70.010   3.841   9.683  1.00  0.00     0.038 A 
HETATM    5  C   UNL     1      68.326   4.089   7.958  1.00  0.00    -0.061 A 
HETATM    6  C   UNL     1      69.514   4.510   8.564  1.00  0.00     0.009 A 
HETATM    7  C   UNL     1      67.794   4.832   6.767  1.00  0.00     0.048 C 
ENDROOT
BRANCH   1   8
HETATM    8  C   UNL     1      67.416   1.119  10.171  1.00  0.00     0.158 C 
HETATM    9  O   UNL     1      67.113   1.118  11.365  1.00  0.00    -0.293 OA
HETATM   10  C   UNL     1      67.073  -0.042   9.276  1.00  0.00     0.097 C 
ENDBRANCH   1   8
BRANCH   2  11
HETATM   11  O   UNL     1      69.875   2.160  11.309  1.00  0.00    -0.360 OA
HETATM   12  H   UNL     1      69.340   1.655  11.889  1.00  0.00     0.217 HD
ENDBRANCH   2  11
TORSDOF 2
ENDMDL
MODEL 8
REMARK VINA RESULT:      -4.6     15.994     17.653
REMARK  2 active torsions:
REMARK  status: ('A' for Active; 'I' for Inactive)
REMARK    1  A    between atoms: C_1  and  C_2 
REMARK    2  A    between atoms: C_3  and  O_9 
ROOT
HETATM    1  C   UNL     1      66.967   6.673   6.606  1.00  0.00     0.043 A 
HETATM    2  C   UNL     1      65.961   6.716   7.583  1.00  0.00     0.079 A 
HETATM    3  C   UNL     1      68.217   6.130   6.944  1.00  0.00     0.024 A 
HETATM    4  C   UNL     1      66.191   6.219   8.862  1.00  0.00     0.038 A 
HETATM    5  C   UNL     1      68.458   5.635   8.236  1.00  0.00    -0.061 A 
HETATM    6  C   UNL     1      67.435   5.679   9.189  1.00  0.00     0.009 A 
HETATM    7  C   UNL     1      69.798   5.071   8.608  1.00  0.00     0.048 C 
ENDROOT
BRANCH   1   8
HETATM    8  C   UNL     1      66.698   7.203   5.236  1.00  0.00     0.158 C 
HETATM    9  O   UNL     1      66.353   8.378   5.106  1.00  0.00    -0.293 OA
HETATM   10  C   UNL     1      66.857   6.296   4.045  1.00  0.00     0.097 C 
ENDBRANCH   1   8
BRANCH   2  11
HETATM   11  O   UNL     1      64.715   7.238   7.356  1.00  0.00    -0.360 OA
HETATM   12  H   UNL     1      64.556   8.151   7.498  1.00  0.00     0.217 HD
ENDBRANCH   2  11
TORSDOF 2
ENDMDL
MODEL 9
REMARK VINA RESULT:      -4.3     15.858     18.180
REMARK  2 active torsions:
REMARK  status: ('A' for Active; 'I' for Inactive)
REMARK    1  A    between atoms: C_1  and  C_2 
REMARK    2  A    between atoms: C_3  and  O_9 
ROOT
HETATM    1  C   UNL     1      67.338   6.326   6.865  1.00  0.00     0.043 A 
HETATM    2  C   UNL     1      67.030   7.600   6.363  1.00  0.00     0.079 A 
HETATM    3  C   UNL     1      67.429   5.249   5.969  1.00  0.00     0.024 A 
HETATM    4  C   UNL     1      66.829   7.797   5.000  1.00  0.00     0.038 A 
HETATM    5  C   UNL     1      67.219   5.440   4.594  1.00  0.00    -0.061 A 
HETATM    6  C   UNL     1      66.923   6.721   4.117  1.00  0.00     0.009 A 
HETATM    7  C   UNL     1      67.295   4.288   3.635  1.00  0.00     0.048 C 
ENDROOT
BRANCH   1   8
HETATM    8  C   UNL     1      67.560   6.137   8.329  1.00  0.00     0.158 C 
HETATM    9  O   UNL     1      66.718   6.560   9.122  1.00  0.00    -0.293 OA
HETATM   10  C   UNL     1      68.801   5.432   8.807  1.00  0.00     0.097 C 
ENDBRANCH   1   8
BRANCH   2  11
HETATM   11  O   UNL     1      66.906   8.710   7.155  1.00  0.00    -0.360 OA
HETATM   12  H   UNL     1      66.075   9.136   7.240  1.00  0.00     0.217 HD
ENDBRANCH   2  11
TORSDOF 2
ENDMDL
