MODEL 1
REMARK VINA RESULT:      -6.0      0.000      0.000
REMARK  1 active torsions:
REMARK  status: ('A' for Active; 'I' for Inactive)
REMARK    1  A    between atoms: C_4  and  O_8 
ROOT
HETATM    1  C   UNL     1      77.640  10.634  15.436  1.00  0.00     0.250 A 
HETATM    2  C   UNL     1      77.692   9.882  14.163  1.00  0.00     0.112 A 
HETATM    3  N   UNL     1      77.382   9.916  16.596  1.00  0.00    -0.318 N 
HETATM    4  C   UNL     1      77.511   8.560  14.121  1.00  0.00     0.083 A 
HETATM    5  C   UNL     1      77.179   8.501  16.578  1.00  0.00     0.050 A 
HETATM    6  C   UNL     1      77.250   7.809  15.353  1.00  0.00     0.024 A 
HETATM    7  O   UNL     1      77.830  11.849  15.394  1.00  0.00    -0.268 OA
HETATM    8  C   UNL     1      77.320  10.640  17.855  1.00  0.00     0.159 C 
HETATM    9  C   UNL     1      77.061   6.419  15.328  1.00  0.00     0.016 A 
HETATM   10  C   UNL     1      76.909   7.776  17.750  1.00  0.00     0.031 A 
HETATM   11  C   UNL     1      76.791   5.713  16.500  1.00  0.00     0.001 A 
HETATM   12  C   UNL     1      76.712   6.393  17.710  1.00  0.00     0.002 A 
ENDROOT
BRANCH   4  13
HETATM   13  O   UNL     1      77.548   7.837  12.947  1.00  0.00    -0.360 OA
HETATM   14  H   UNL     1      76.866   7.936  12.313  1.00  0.00     0.217 HD
ENDBRANCH   4  13
TORSDOF 1
ENDMDL
MODEL 2
REMARK VINA RESULT:      -5.9     18.728     19.646
REMARK  1 active torsions:
REMARK  status: ('A' for Active; 'I' for Inactive)
REMARK    1  A    between atoms: C_4  and  O_8 
ROOT
HETATM    1  C   UNL     1      62.815  10.371   5.058  1.00  0.00     0.250 A 
HETATM    2  C   UNL     1      62.165  11.321   4.130  1.00  0.00     0.112 A 
HETATM    3  N   UNL     1      63.109   9.102   4.576  1.00  0.00    -0.318 N 
HETATM    4  C   UNL     1      61.878  10.986   2.870  1.00  0.00     0.083 A 
HETATM    5  C   UNL     1      62.807   8.716   3.233  1.00  0.00     0.050 A 
HETATM    6  C   UNL     1      62.201   9.648   2.368  1.00  0.00     0.024 A 
HETATM    7  O   UNL     1      63.060  10.759   6.200  1.00  0.00    -0.268 OA
HETATM    8  C   UNL     1      63.742   8.153   5.477  1.00  0.00     0.159 C 
HETATM    9  C   UNL     1      61.910   9.279   1.045  1.00  0.00     0.016 A 
HETATM   10  C   UNL     1      63.095   7.430   2.749  1.00  0.00     0.031 A 
HETATM   11  C   UNL     1      62.201   7.998   0.579  1.00  0.00     0.001 A 
HETATM   12  C   UNL     1      62.790   7.073   1.433  1.00  0.00     0.002 A 
ENDROOT
BRANCH   4  13
HETATM   13  O   UNL     1      61.266  11.851   1.987  1.00  0.00    -0.360 OA
HETATM   14  H   UNL     1      61.610  11.960   1.122  1.00  0.00     0.217 HD
ENDBRANCH   4  13
TORSDOF 1
ENDMDL
MODEL 3
REMARK VINA RESULT:      -5.3      4.165      5.644
REMARK  1 active torsions:
REMARK  status: ('A' for Active; 'I' for Inactive)
REMARK    1  A    between atoms: C_4  and  O_8 
ROOT
HETATM    1  C   UNL     1      76.944  13.196  20.472  1.00  0.00     0.250 A 
HETATM    2  C   UNL     1      78.199  12.838  21.168  1.00  0.00     0.112 A 
HETATM    3  N   UNL     1      76.580  12.433  19.370  1.00  0.00    -0.318 N 
HETATM    4  C   UNL     1      78.955  11.814  20.767  1.00  0.00     0.083 A 
HETATM    5  C   UNL     1      77.375  11.335  18.917  1.00  0.00     0.050 A 
HETATM    6  C   UNL     1      78.558  11.008  19.609  1.00  0.00     0.024 A 
HETATM    7  O   UNL     1      76.294  14.145  20.910  1.00  0.00    -0.268 OA
HETATM    8  C   UNL     1      75.353  12.776  18.670  1.00  0.00     0.159 C 
HETATM    9  C   UNL     1      79.339   9.925  19.175  1.00  0.00     0.016 A 
HETATM   10  C   UNL     1      77.013  10.570  17.796  1.00  0.00     0.031 A 
HETATM   11  C   UNL     1      78.966   9.176  18.060  1.00  0.00     0.001 A 
HETATM   12  C   UNL     1      77.805   9.501  17.369  1.00  0.00     0.002 A 
ENDROOT
BRANCH   4  13
HETATM   13  O   UNL     1      80.133  11.463  21.394  1.00  0.00    -0.360 OA
HETATM   14  H   UNL     1      80.550  10.649  21.189  1.00  0.00     0.217 HD
ENDBRANCH   4  13
TORSDOF 1
ENDMDL
MODEL 4
REMARK VINA RESULT:      -5.3      3.830      5.596
REMARK  1 active torsions:
REMARK  status: ('A' for Active; 'I' for Inactive)
REMARK    1  A    between atoms: C_4  and  O_8 
ROOT
HETATM    1  C   UNL     1      78.061  12.946  21.240  1.00  0.00     0.250 A 
HETATM    2  C   UNL     1      76.797  13.241  20.531  1.00  0.00     0.112 A 
HETATM    3  N   UNL     1      78.835  11.895  20.764  1.00  0.00    -0.318 N 
HETATM    4  C   UNL     1      76.412  12.537  19.464  1.00  0.00     0.083 A 
HETATM    5  C   UNL     1      78.441  11.122  19.628  1.00  0.00     0.050 A 
HETATM    6  C   UNL     1      77.240  11.437  18.963  1.00  0.00     0.024 A 
HETATM    7  O   UNL     1      78.355  13.648  22.207  1.00  0.00    -0.268 OA
HETATM    8  C   UNL     1      80.077  11.587  21.455  1.00  0.00     0.159 C 
HETATM    9  C   UNL     1      76.852  10.689  17.840  1.00  0.00     0.016 A 
HETATM   10  C   UNL     1      79.219  10.054  19.153  1.00  0.00     0.031 A 
HETATM   11  C   UNL     1      77.634   9.629  17.382  1.00  0.00     0.001 A 
HETATM   12  C   UNL     1      78.815   9.311  18.041  1.00  0.00     0.002 A 
ENDROOT
BRANCH   4  13
HETATM   13  O   UNL     1      75.235  12.787  18.788  1.00  0.00    -0.360 OA
HETATM   14  H   UNL     1      74.640  12.087  18.608  1.00  0.00     0.217 HD
ENDBRANCH   4  13
TORSDOF 1
ENDMDL
MODEL 5
REMARK VINA RESULT:      -5.1      5.988      8.387
REMARK  1 active torsions:
REMARK  status: ('A' for Active; 'I' for Inactive)
REMARK    1  A    between atoms: C_4  and  O_8 
ROOT
HETATM    1  C   UNL     1      76.221  -0.251  18.024  1.00  0.00     0.250 A 
HETATM    2  C   UNL     1      77.425   0.284  18.697  1.00  0.00     0.112 A 
HETATM    3  N   UNL     1      75.382   0.657  17.391  1.00  0.00    -0.318 N 
HETATM    4  C   UNL     1      77.710   1.588  18.691  1.00  0.00     0.083 A 
HETATM    5  C   UNL     1      75.661   2.059  17.377  1.00  0.00     0.050 A 
HETATM    6  C   UNL     1      76.823   2.538  18.012  1.00  0.00     0.024 A 
HETATM    7  O   UNL     1      76.035  -1.467  18.061  1.00  0.00    -0.268 OA
HETATM    8  C   UNL     1      74.190   0.149  16.732  1.00  0.00     0.159 C 
HETATM    9  C   UNL     1      77.109   3.912  17.994  1.00  0.00     0.016 A 
HETATM   10  C   UNL     1      74.807   2.978  16.745  1.00  0.00     0.031 A 
HETATM   11  C   UNL     1      76.250   4.812  17.364  1.00  0.00     0.001 A 
HETATM   12  C   UNL     1      75.098   4.345  16.744  1.00  0.00     0.002 A 
ENDROOT
BRANCH   4  13
HETATM   13  O   UNL     1      78.822   2.114  19.316  1.00  0.00    -0.360 OA
HETATM   14  H   UNL     1      79.526   1.551  19.572  1.00  0.00     0.217 HD
ENDBRANCH   4  13
TORSDOF 1
ENDMDL
MODEL 6
REMARK VINA RESULT:      -5.0     18.754     19.982
REMARK  1 active torsions:
REMARK  status: ('A' for Active; 'I' for Inactive)
REMARK    1  A    between atoms: C_4  and  O_8 
ROOT
HETATM    1  C   UNL     1      63.112   6.752   2.637  1.00  0.00     0.250 A 
HETATM    2  C   UNL     1      63.266   7.001   4.087  1.00  0.00     0.112 A 
HETATM    3  N   UNL     1      62.687   7.812   1.846  1.00  0.00    -0.318 N 
HETATM    4  C   UNL     1      63.021   8.198   4.624  1.00  0.00     0.083 A 
HETATM    5  C   UNL     1      62.412   9.102   2.396  1.00  0.00     0.050 A 
HETATM    6  C   UNL     1      62.582   9.313   3.778  1.00  0.00     0.024 A 
HETATM    7  O   UNL     1      63.370   5.625   2.216  1.00  0.00    -0.268 OA
HETATM    8  C   UNL     1      62.523   7.583   0.420  1.00  0.00     0.159 C 
HETATM    9  C   UNL     1      62.323  10.579   4.325  1.00  0.00     0.016 A 
HETATM   10  C   UNL     1      61.973  10.170   1.597  1.00  0.00     0.031 A 
HETATM   11  C   UNL     1      61.886  11.630   3.519  1.00  0.00     0.001 A 
HETATM   12  C   UNL     1      61.708  11.423   2.156  1.00  0.00     0.002 A 
ENDROOT
BRANCH   4  13
HETATM   13  O   UNL     1      63.151   8.454   5.973  1.00  0.00    -0.360 OA
HETATM   14  H   UNL     1      62.398   8.683   6.482  1.00  0.00     0.217 HD
ENDBRANCH   4  13
TORSDOF 1
ENDMDL
MODEL 7
REMARK VINA RESULT:      -4.9     11.812     13.468
REMARK  1 active torsions:
REMARK  status: ('A' for Active; 'I' for Inactive)
REMARK    1  A    between atoms: C_4  and  O_8 
ROOT
HETATM    1  C   UNL     1      69.238   0.453   7.924  1.00  0.00     0.250 A 
HETATM    2  C   UNL     1      69.563   0.648   9.354  1.00  0.00     0.112 A 
HETATM    3  N   UNL     1      68.875   1.575   7.190  1.00  0.00    -0.318 N 
HETATM    4  C   UNL     1      69.525   1.854   9.924  1.00  0.00     0.083 A 
HETATM    5  C   UNL     1      68.820   2.877   7.778  1.00  0.00     0.050 A 
HETATM    6  C   UNL     1      69.150   3.033   9.138  1.00  0.00     0.024 A 
HETATM    7  O   UNL     1      69.310  -0.688   7.468  1.00  0.00    -0.268 OA
HETATM    8  C   UNL     1      68.545   1.400   5.785  1.00  0.00     0.159 C 
HETATM    9  C   UNL     1      69.108   4.310   9.720  1.00  0.00     0.016 A 
HETATM   10  C   UNL     1      68.444   4.009   7.037  1.00  0.00     0.031 A 
HETATM   11  C   UNL     1      68.730   5.424   8.972  1.00  0.00     0.001 A 
HETATM   12  C   UNL     1      68.395   5.272   7.632  1.00  0.00     0.002 A 
ENDROOT
BRANCH   4  13
HETATM   13  O   UNL     1      69.817   2.061  11.256  1.00  0.00    -0.360 OA
HETATM   14  H   UNL     1      69.190   2.477  11.815  1.00  0.00     0.217 HD
ENDBRANCH   4  13
TORSDOF 1
ENDMDL
MODEL 8
REMARK VINA RESULT:      -4.9     18.022     19.221
REMARK  1 active torsions:
REMARK  status: ('A' for Active; 'I' for Inactive)
REMARK    1  A    between atoms: C_4  and  O_8 
ROOT
HETATM    1  C   UNL     1      64.187   6.949   4.666  1.00  0.00     0.250 A 
HETATM    2  C   UNL     1      63.899   8.096   5.554  1.00  0.00     0.112 A 
HETATM    3  N   UNL     1      63.744   7.028   3.352  1.00  0.00    -0.318 N 
HETATM    4  C   UNL     1      63.249   9.177   5.116  1.00  0.00     0.083 A 
HETATM    5  C   UNL     1      63.041   8.171   2.859  1.00  0.00     0.050 A 
HETATM    6  C   UNL     1      62.795   9.254   3.724  1.00  0.00     0.024 A 
HETATM    7  O   UNL     1      64.802   5.995   5.140  1.00  0.00    -0.268 OA
HETATM    8  C   UNL     1      64.012   5.906   2.467  1.00  0.00     0.159 C 
HETATM    9  C   UNL     1      62.114  10.384   3.245  1.00  0.00     0.016 A 
HETATM   10  C   UNL     1      62.585   8.246   1.533  1.00  0.00     0.031 A 
HETATM   11  C   UNL     1      61.666  10.443   1.926  1.00  0.00     0.001 A 
HETATM   12  C   UNL     1      61.899   9.372   1.072  1.00  0.00     0.002 A 
ENDROOT
BRANCH   4  13
HETATM   13  O   UNL     1      62.962  10.257   5.925  1.00  0.00    -0.360 OA
HETATM   14  H   UNL     1      63.486  10.428   6.683  1.00  0.00     0.217 HD
ENDBRANCH   4  13
TORSDOF 1
ENDMDL
MODEL 9
REMARK VINA RESULT:      -4.8      3.994      6.646
REMARK  1 active torsions:
REMARK  status: ('A' for Active; 'I' for Inactive)
REMARK    1  A    between atoms: C_4  and  O_8 
ROOT
HETATM    1  C   UNL     1      77.243  11.054  18.448  1.00  0.00     0.250 A 
HETATM    2  C   UNL     1      76.426  12.203  18.895  1.00  0.00     0.112 A 
HETATM    3  N   UNL     1      78.389  10.760  19.176  1.00  0.00    -0.318 N 
HETATM    4  C   UNL     1      76.761  12.929  19.964  1.00  0.00     0.083 A 
HETATM    5  C   UNL     1      78.774  11.525  20.321  1.00  0.00     0.050 A 
HETATM    6  C   UNL     1      77.967  12.603  20.732  1.00  0.00     0.024 A 
HETATM    7  O   UNL     1      76.861  10.426  17.462  1.00  0.00    -0.268 OA
HETATM    8  C   UNL     1      79.208   9.638  18.746  1.00  0.00     0.159 C 
HETATM    9  C   UNL     1      78.333  13.353  21.860  1.00  0.00     0.016 A 
HETATM   10  C   UNL     1      79.938  11.233  21.050  1.00  0.00     0.031 A 
HETATM   11  C   UNL     1      79.492  13.053  22.573  1.00  0.00     0.001 A 
HETATM   12  C   UNL     1      80.296  11.994  22.166  1.00  0.00     0.002 A 
ENDROOT
BRANCH   4  13
HETATM   13  O   UNL     1      76.020  14.008  20.398  1.00  0.00    -0.360 OA
HETATM   14  H   UNL     1      75.149  14.138  20.079  1.00  0.00     0.217 HD
ENDBRANCH   4  13
TORSDOF 1
ENDMDL
