MODEL 1
REMARK VINA RESULT:      -6.1      0.000      0.000
REMARK  3 active torsions:
REMARK  status: ('A' for Active; 'I' for Inactive)
REMARK    1  A    between atoms: C_3  and  C_6 
REMARK    2  A    between atoms: C_6  and  C_10 
REMARK    3  A    between atoms: O_7  and  C_10 
ROOT
HETATM    1  N   UNL     1      79.364  10.617  19.886  1.00  0.00    -0.365 N 
HETATM    2  C   UNL     1      79.138   9.723  18.874  1.00  0.00     0.096 A 
HETATM    3  C   UNL     1      77.967  10.078  18.232  1.00  0.00    -0.028 A 
HETATM    4  C   UNL     1      77.462  11.239  18.906  1.00  0.00    -0.002 A 
HETATM    5  C   UNL     1      78.352  11.548  19.933  1.00  0.00     0.042 A 
HETATM    6  C   UNL     1      76.319  12.048  18.738  1.00  0.00     0.014 A 
HETATM    7  C   UNL     1      78.163  12.633  20.798  1.00  0.00     0.030 A 
HETATM    8  C   UNL     1      76.108  13.129  19.600  1.00  0.00     0.001 A 
HETATM    9  C   UNL     1      77.019  13.418  20.613  1.00  0.00     0.002 A 
HETATM   10  H   UNL     1      80.139  10.596  20.493  1.00  0.00     0.165 HD
ENDROOT
BRANCH   3  11
HETATM   11  C   UNL     1      77.345   9.389  17.053  1.00  0.00     0.067 C 
BRANCH  11  12
HETATM   12  C   UNL     1      77.939   9.831  15.716  1.00  0.00     0.168 C 
BRANCH  12  13
HETATM   13  O   UNL     1      77.413  11.086  15.288  1.00  0.00    -0.401 OA
HETATM   14  H   UNL     1      76.558  11.242  15.719  1.00  0.00     0.209 HD
ENDBRANCH  12  13
ENDBRANCH  11  12
ENDBRANCH   3  11
TORSDOF 3
ENDMDL
MODEL 2
REMARK VINA RESULT:      -5.8      3.898      5.467
REMARK  3 active torsions:
REMARK  status: ('A' for Active; 'I' for Inactive)
REMARK    1  A    between atoms: C_3  and  C_6 
REMARK    2  A    between atoms: C_6  and  C_10 
REMARK    3  A    between atoms: O_7  and  C_10 
ROOT
HETATM    1  N   UNL     1      77.804   9.646  17.550  1.00  0.00    -0.365 N 
HETATM    2  C   UNL     1      77.207   8.680  18.315  1.00  0.00     0.096 A 
HETATM    3  C   UNL     1      76.805   7.653  17.483  1.00  0.00    -0.028 A 
HETATM    4  C   UNL     1      77.170   8.033  16.150  1.00  0.00    -0.002 A 
HETATM    5  C   UNL     1      77.787   9.281  16.223  1.00  0.00     0.042 A 
HETATM    6  C   UNL     1      77.019   7.430  14.884  1.00  0.00     0.014 A 
HETATM    7  C   UNL     1      78.271   9.954  15.095  1.00  0.00     0.030 A 
HETATM    8  C   UNL     1      77.487   8.092  13.745  1.00  0.00     0.001 A 
HETATM    9  C   UNL     1      78.107   9.335  13.851  1.00  0.00     0.002 A 
HETATM   10  H   UNL     1      78.189  10.483  17.899  1.00  0.00     0.165 HD
ENDROOT
BRANCH   3  11
HETATM   11  C   UNL     1      76.124   6.380  17.894  1.00  0.00     0.067 C 
BRANCH  11  12
HETATM   12  C   UNL     1      77.037   5.158  17.816  1.00  0.00     0.168 C 
BRANCH  12  13
HETATM   13  O   UNL     1      76.856   4.285  18.930  1.00  0.00    -0.401 OA
HETATM   14  H   UNL     1      76.539   4.795  19.692  1.00  0.00     0.209 HD
ENDBRANCH  12  13
ENDBRANCH  11  12
ENDBRANCH   3  11
TORSDOF 3
ENDMDL
MODEL 3
REMARK VINA RESULT:      -5.7      2.990      4.576
REMARK  3 active torsions:
REMARK  status: ('A' for Active; 'I' for Inactive)
REMARK    1  A    between atoms: C_3  and  C_6 
REMARK    2  A    between atoms: C_6  and  C_10 
REMARK    3  A    between atoms: O_7  and  C_10 
ROOT
HETATM    1  N   UNL     1      79.249  10.774  19.871  1.00  0.00    -0.365 N 
HETATM    2  C   UNL     1      80.004  11.156  20.948  1.00  0.00     0.096 A 
HETATM    3  C   UNL     1      79.372  12.214  21.570  1.00  0.00    -0.028 A 
HETATM    4  C   UNL     1      78.183  12.487  20.816  1.00  0.00    -0.002 A 
HETATM    5  C   UNL     1      78.136  11.576  19.763  1.00  0.00     0.042 A 
HETATM    6  C   UNL     1      77.147  13.438  20.932  1.00  0.00     0.014 A 
HETATM    7  C   UNL     1      77.099  11.559  18.821  1.00  0.00     0.030 A 
HETATM    8  C   UNL     1      76.109  13.443  19.995  1.00  0.00     0.001 A 
HETATM    9  C   UNL     1      76.085  12.515  18.957  1.00  0.00     0.002 A 
HETATM   10  H   UNL     1      79.471  10.033  19.261  1.00  0.00     0.165 HD
ENDROOT
BRANCH   3  11
HETATM   11  C   UNL     1      79.834  12.937  22.801  1.00  0.00     0.067 C 
BRANCH  11  12
HETATM   12  C   UNL     1      81.346  12.870  23.007  1.00  0.00     0.168 C 
BRANCH  12  13
HETATM   13  O   UNL     1      82.037  13.815  22.191  1.00  0.00    -0.401 OA
HETATM   14  H   UNL     1      82.991  13.750  22.359  1.00  0.00     0.209 HD
ENDBRANCH  12  13
ENDBRANCH  11  12
ENDBRANCH   3  11
TORSDOF 3
ENDMDL
MODEL 4
REMARK VINA RESULT:      -5.6     20.332     22.247
REMARK  3 active torsions:
REMARK  status: ('A' for Active; 'I' for Inactive)
REMARK    1  A    between atoms: C_3  and  C_6 
REMARK    2  A    between atoms: C_6  and  C_10 
REMARK    3  A    between atoms: O_7  and  C_10 
ROOT
HETATM    1  N   UNL     1      61.561  10.716   1.989  1.00  0.00    -0.365 N 
HETATM    2  C   UNL     1      61.862  11.059   3.280  1.00  0.00     0.096 A 
HETATM    3  C   UNL     1      62.505   9.992   3.875  1.00  0.00    -0.028 A 
HETATM    4  C   UNL     1      62.579   8.952   2.890  1.00  0.00    -0.002 A 
HETATM    5  C   UNL     1      61.980   9.432   1.727  1.00  0.00     0.042 A 
HETATM    6  C   UNL     1      63.095   7.639   2.890  1.00  0.00     0.014 A 
HETATM    7  C   UNL     1      61.877   8.669   0.557  1.00  0.00     0.030 A 
HETATM    8  C   UNL     1      62.992   6.859   1.733  1.00  0.00     0.001 A 
HETATM    9  C   UNL     1      62.394   7.369   0.584  1.00  0.00     0.002 A 
HETATM   10  H   UNL     1      61.108  11.304   1.341  1.00  0.00     0.165 HD
ENDROOT
BRANCH   3  11
HETATM   11  C   UNL     1      63.033   9.931   5.278  1.00  0.00     0.067 C 
BRANCH  11  12
HETATM   12  C   UNL     1      63.117  11.301   5.949  1.00  0.00     0.168 C 
BRANCH  12  13
HETATM   13  O   UNL     1      64.415  11.552   6.487  1.00  0.00    -0.401 OA
HETATM   14  H   UNL     1      64.971  10.766   6.369  1.00  0.00     0.209 HD
ENDBRANCH  12  13
ENDBRANCH  11  12
ENDBRANCH   3  11
TORSDOF 3
ENDMDL
MODEL 5
REMARK VINA RESULT:      -5.5     13.927     14.621
REMARK  3 active torsions:
REMARK  status: ('A' for Active; 'I' for Inactive)
REMARK    1  A    between atoms: C_3  and  C_6 
REMARK    2  A    between atoms: C_6  and  C_10 
REMARK    3  A    between atoms: O_7  and  C_10 
ROOT
HETATM    1  N   UNL     1      73.395  23.842  13.430  1.00  0.00    -0.365 N 
HETATM    2  C   UNL     1      73.153  22.747  12.645  1.00  0.00     0.096 A 
HETATM    3  C   UNL     1      71.804  22.456  12.708  1.00  0.00    -0.028 A 
HETATM    4  C   UNL     1      71.214  23.422  13.588  1.00  0.00    -0.002 A 
HETATM    5  C   UNL     1      72.230  24.269  14.024  1.00  0.00     0.042 A 
HETATM    6  C   UNL     1      69.903  23.643  14.061  1.00  0.00     0.014 A 
HETATM    7  C   UNL     1      72.003  25.335  14.904  1.00  0.00     0.030 A 
HETATM    8  C   UNL     1      69.659  24.696  14.948  1.00  0.00     0.001 A 
HETATM    9  C   UNL     1      70.694  25.531  15.360  1.00  0.00     0.002 A 
HETATM   10  H   UNL     1      74.277  24.264  13.553  1.00  0.00     0.165 HD
ENDROOT
BRANCH   3  11
HETATM   11  C   UNL     1      71.090  21.349  11.990  1.00  0.00     0.067 C 
BRANCH  11  12
HETATM   12  C   UNL     1      71.727  20.994  10.647  1.00  0.00     0.168 C 
BRANCH  12  13
HETATM   13  O   UNL     1      70.832  20.266   9.808  1.00  0.00    -0.401 OA
HETATM   14  H   UNL     1      70.393  20.878   9.196  1.00  0.00     0.209 HD
ENDBRANCH  12  13
ENDBRANCH  11  12
ENDBRANCH   3  11
TORSDOF 3
ENDMDL
MODEL 6
REMARK VINA RESULT:      -5.2      2.570      4.627
REMARK  3 active torsions:
REMARK  status: ('A' for Active; 'I' for Inactive)
REMARK    1  A    between atoms: C_3  and  C_6 
REMARK    2  A    between atoms: C_6  and  C_10 
REMARK    3  A    between atoms: O_7  and  C_10 
ROOT
HETATM    1  N   UNL     1      76.137  12.866  18.760  1.00  0.00    -0.365 N 
HETATM    2  C   UNL     1      76.450  13.200  20.051  1.00  0.00     0.096 A 
HETATM    3  C   UNL     1      77.347  12.269  20.536  1.00  0.00    -0.028 A 
HETATM    4  C   UNL     1      77.570  11.321  19.483  1.00  0.00    -0.002 A 
HETATM    5  C   UNL     1      76.800  11.718  18.392  1.00  0.00     0.042 A 
HETATM    6  C   UNL     1      78.352  10.153  19.367  1.00  0.00     0.014 A 
HETATM    7  C   UNL     1      76.779  11.012  17.182  1.00  0.00     0.030 A 
HETATM    8  C   UNL     1      78.335   9.429  18.171  1.00  0.00     0.001 A 
HETATM    9  C   UNL     1      77.562   9.855  17.094  1.00  0.00     0.002 A 
HETATM   10  H   UNL     1      75.525  13.374  18.179  1.00  0.00     0.165 HD
ENDROOT
BRANCH   3  11
HETATM   11  C   UNL     1      77.974  12.252  21.900  1.00  0.00     0.067 C 
BRANCH  11  12
HETATM   12  C   UNL     1      79.443  12.673  21.891  1.00  0.00     0.168 C 
BRANCH  12  13
HETATM   13  O   UNL     1      80.319  11.548  21.830  1.00  0.00    -0.401 OA
HETATM   14  H   UNL     1      79.860  10.803  21.412  1.00  0.00     0.209 HD
ENDBRANCH  12  13
ENDBRANCH  11  12
ENDBRANCH   3  11
TORSDOF 3
ENDMDL
MODEL 7
REMARK VINA RESULT:      -4.9     19.661     21.352
REMARK  3 active torsions:
REMARK  status: ('A' for Active; 'I' for Inactive)
REMARK    1  A    between atoms: C_3  and  C_6 
REMARK    2  A    between atoms: C_6  and  C_10 
REMARK    3  A    between atoms: O_7  and  C_10 
ROOT
HETATM    1  N   UNL     1      62.834   7.666   1.977  1.00  0.00    -0.365 N 
HETATM    2  C   UNL     1      63.286   6.997   3.083  1.00  0.00     0.096 A 
HETATM    3  C   UNL     1      63.212   7.849   4.167  1.00  0.00    -0.028 A 
HETATM    4  C   UNL     1      62.700   9.096   3.680  1.00  0.00    -0.002 A 
HETATM    5  C   UNL     1      62.477   8.952   2.312  1.00  0.00     0.042 A 
HETATM    6  C   UNL     1      62.416  10.340   4.281  1.00  0.00     0.014 A 
HETATM    7  C   UNL     1      61.976   9.987   1.512  1.00  0.00     0.030 A 
HETATM    8  C   UNL     1      61.925  11.388   3.497  1.00  0.00     0.001 A 
HETATM    9  C   UNL     1      61.705  11.212   2.133  1.00  0.00     0.002 A 
HETATM   10  H   UNL     1      62.773   7.282   1.072  1.00  0.00     0.165 HD
ENDROOT
BRANCH   3  11
HETATM   11  C   UNL     1      63.587   7.531   5.585  1.00  0.00     0.067 C 
BRANCH  11  12
HETATM   12  C   UNL     1      65.082   7.679   5.859  1.00  0.00     0.168 C 
BRANCH  12  13
HETATM   13  O   UNL     1      65.479   9.048   5.927  1.00  0.00    -0.401 OA
HETATM   14  H   UNL     1      66.315   9.166   5.448  1.00  0.00     0.209 HD
ENDBRANCH  12  13
ENDBRANCH  11  12
ENDBRANCH   3  11
TORSDOF 3
ENDMDL
MODEL 8
REMARK VINA RESULT:      -4.9     19.483     21.314
REMARK  3 active torsions:
REMARK  status: ('A' for Active; 'I' for Inactive)
REMARK    1  A    between atoms: C_3  and  C_6 
REMARK    2  A    between atoms: C_6  and  C_10 
REMARK    3  A    between atoms: O_7  and  C_10 
ROOT
HETATM    1  N   UNL     1      62.280  10.787   4.260  1.00  0.00    -0.365 N 
HETATM    2  C   UNL     1      62.907  10.135   5.288  1.00  0.00     0.096 A 
HETATM    3  C   UNL     1      63.295   8.888   4.840  1.00  0.00    -0.028 A 
HETATM    4  C   UNL     1      62.865   8.786   3.476  1.00  0.00    -0.002 A 
HETATM    5  C   UNL     1      62.234   9.983   3.144  1.00  0.00     0.042 A 
HETATM    6  C   UNL     1      62.949   7.775   2.496  1.00  0.00     0.014 A 
HETATM    7  C   UNL     1      61.688  10.227   1.878  1.00  0.00     0.030 A 
HETATM    8  C   UNL     1      62.400   7.997   1.229  1.00  0.00     0.001 A 
HETATM    9  C   UNL     1      61.782   9.206   0.924  1.00  0.00     0.002 A 
HETATM   10  H   UNL     1      61.914  11.700   4.312  1.00  0.00     0.165 HD
ENDROOT
BRANCH   3  11
HETATM   11  C   UNL     1      64.031   7.841   5.624  1.00  0.00     0.067 C 
BRANCH  11  12
HETATM   12  C   UNL     1      65.548   7.928   5.467  1.00  0.00     0.168 C 
BRANCH  12  13
HETATM   13  O   UNL     1      66.125   8.869   6.372  1.00  0.00    -0.401 OA
HETATM   14  H   UNL     1      66.264   9.713   5.914  1.00  0.00     0.209 HD
ENDBRANCH  12  13
ENDBRANCH  11  12
ENDBRANCH   3  11
TORSDOF 3
ENDMDL
MODEL 9
REMARK VINA RESULT:      -4.8     13.882     15.466
REMARK  3 active torsions:
REMARK  status: ('A' for Active; 'I' for Inactive)
REMARK    1  A    between atoms: C_3  and  C_6 
REMARK    2  A    between atoms: C_6  and  C_10 
REMARK    3  A    between atoms: O_7  and  C_10 
ROOT
HETATM    1  N   UNL     1      71.451  25.828  15.713  1.00  0.00    -0.365 N 
HETATM    2  C   UNL     1      72.442  25.231  14.980  1.00  0.00     0.096 A 
HETATM    3  C   UNL     1      71.862  24.298  14.143  1.00  0.00    -0.028 A 
HETATM    4  C   UNL     1      70.452  24.331  14.400  1.00  0.00    -0.002 A 
HETATM    5  C   UNL     1      70.227  25.291  15.385  1.00  0.00     0.042 A 
HETATM    6  C   UNL     1      69.347  23.619  13.888  1.00  0.00     0.014 A 
HETATM    7  C   UNL     1      68.950  25.585  15.879  1.00  0.00     0.030 A 
HETATM    8  C   UNL     1      68.066  23.892  14.377  1.00  0.00     0.001 A 
HETATM    9  C   UNL     1      67.871  24.863  15.356  1.00  0.00     0.002 A 
HETATM   10  H   UNL     1      71.593  26.539  16.380  1.00  0.00     0.165 HD
ENDROOT
BRANCH   3  11
HETATM   11  C   UNL     1      72.569  23.422  13.150  1.00  0.00     0.067 C 
BRANCH  11  12
HETATM   12  C   UNL     1      73.771  22.690  13.743  1.00  0.00     0.168 C 
BRANCH  12  13
HETATM   13  O   UNL     1      73.391  21.806  14.796  1.00  0.00    -0.401 OA
HETATM   14  H   UNL     1      72.765  21.148  14.456  1.00  0.00     0.209 HD
ENDBRANCH  12  13
ENDBRANCH  11  12
ENDBRANCH   3  11
TORSDOF 3
ENDMDL
