MODEL 1
REMARK VINA RESULT:      -4.8      0.000      0.000
REMARK  4 active torsions:
REMARK  status: ('A' for Active; 'I' for Inactive)
REMARK    1  A    between atoms: C_3  and  C_4 
REMARK    2  A    between atoms: C_4  and  C_7 
REMARK    3  A    between atoms: O_5  and  C_7 
REMARK    4  A    between atoms: O_5  and  C_9 
ROOT
HETATM    1  N   UNL     1      77.144   3.471  17.918  1.00  0.00    -0.369 N 
ATOM      2  HN  UNL     1      77.869   4.146  18.159  1.00  0.00     0.165 HD
HETATM    3  C   UNL     1      76.015   3.852  17.267  1.00  0.00     0.011 A 
HETATM    4  C   UNL     1      77.269   2.165  18.236  1.00  0.00     0.088 A 
HETATM    5  C   UNL     1      75.026   2.942  16.902  1.00  0.00     0.025 A 
HETATM    6  C   UNL     1      76.323   1.202  17.928  1.00  0.00     0.017 A 
HETATM    7  C   UNL     1      75.183   1.601  17.241  1.00  0.00     0.003 A 
ENDROOT
BRANCH   3   8
HETATM    8  C   UNL     1      75.892   5.317  16.936  1.00  0.00     0.083 C 
BRANCH   8   9
HETATM    9  C   UNL     1      77.030   6.186  17.486  1.00  0.00     0.173 C 
BRANCH   9  10
HETATM   10  O   UNL     1      76.615   7.346  18.207  1.00  0.00    -0.391 OA
BRANCH  10  11
HETATM   11  C   UNL     1      77.091   8.571  17.656  1.00  0.00     0.163 C 
HETATM   12  C   UNL     1      77.693   9.402  18.774  1.00  0.00     0.033 C 
ENDBRANCH  10  11
ENDBRANCH   9  10
ENDBRANCH   8   9
ENDBRANCH   3   8
TORSDOF 4
ENDMDL
MODEL 2
REMARK VINA RESULT:      -4.7      3.248      4.625
REMARK  4 active torsions:
REMARK  status: ('A' for Active; 'I' for Inactive)
REMARK    1  A    between atoms: C_3  and  C_4 
REMARK    2  A    between atoms: C_4  and  C_7 
REMARK    3  A    between atoms: O_5  and  C_7 
REMARK    4  A    between atoms: O_5  and  C_9 
ROOT
HETATM    1  N   UNL     1      76.875   7.529  17.968  1.00  0.00    -0.369 N 
ATOM      2  HN  UNL     1      76.884   7.824  18.945  1.00  0.00     0.165 HD
HETATM    3  C   UNL     1      77.233   8.380  16.973  1.00  0.00     0.011 A 
HETATM    4  C   UNL     1      76.505   6.280  17.617  1.00  0.00     0.088 A 
HETATM    5  C   UNL     1      77.258   7.989  15.636  1.00  0.00     0.025 A 
HETATM    6  C   UNL     1      76.482   5.820  16.311  1.00  0.00     0.017 A 
HETATM    7  C   UNL     1      76.874   6.694  15.304  1.00  0.00     0.003 A 
ENDROOT
BRANCH   3   8
HETATM    8  C   UNL     1      77.629   9.773  17.389  1.00  0.00     0.083 C 
BRANCH   8   9
HETATM    9  C   UNL     1      78.305   9.854  18.763  1.00  0.00     0.173 C 
BRANCH   9  10
HETATM   10  O   UNL     1      78.504  11.174  19.267  1.00  0.00    -0.391 OA
BRANCH  10  11
HETATM   11  C   UNL     1      77.367  11.719  19.930  1.00  0.00     0.163 C 
HETATM   12  C   UNL     1      77.446  13.233  19.859  1.00  0.00     0.033 C 
ENDBRANCH  10  11
ENDBRANCH   9  10
ENDBRANCH   8   9
ENDBRANCH   3   8
TORSDOF 4
ENDMDL
MODEL 3
REMARK VINA RESULT:      -4.5     18.575     19.616
REMARK  4 active torsions:
REMARK  status: ('A' for Active; 'I' for Inactive)
REMARK    1  A    between atoms: C_3  and  C_4 
REMARK    2  A    between atoms: C_4  and  C_7 
REMARK    3  A    between atoms: O_5  and  C_7 
REMARK    4  A    between atoms: O_5  and  C_9 
ROOT
HETATM    1  N   UNL     1      62.342  10.709   4.216  1.00  0.00    -0.369 N 
ATOM      2  HN  UNL     1      62.412  11.130   5.142  1.00  0.00     0.165 HD
HETATM    3  C   UNL     1      62.732   9.427   3.995  1.00  0.00     0.011 A 
HETATM    4  C   UNL     1      61.857  11.403   3.166  1.00  0.00     0.088 A 
HETATM    5  C   UNL     1      62.615   8.822   2.745  1.00  0.00     0.025 A 
HETATM    6  C   UNL     1      61.729  10.882   1.889  1.00  0.00     0.017 A 
HETATM    7  C   UNL     1      62.111   9.562   1.681  1.00  0.00     0.003 A 
ENDROOT
BRANCH   3   8
HETATM    8  C   UNL     1      63.282   8.677   5.180  1.00  0.00     0.083 C 
BRANCH   8   9
HETATM    9  C   UNL     1      64.773   8.335   5.075  1.00  0.00     0.173 C 
BRANCH   9  10
HETATM   10  O   UNL     1      65.614   8.978   6.033  1.00  0.00    -0.391 OA
BRANCH  10  11
HETATM   11  C   UNL     1      66.701   8.175   6.480  1.00  0.00     0.163 C 
HETATM   12  C   UNL     1      67.533   7.774   5.276  1.00  0.00     0.033 C 
ENDBRANCH  10  11
ENDBRANCH   9  10
ENDBRANCH   8   9
ENDBRANCH   3   8
TORSDOF 4
ENDMDL
MODEL 4
REMARK VINA RESULT:      -4.4      2.688      5.229
REMARK  4 active torsions:
REMARK  status: ('A' for Active; 'I' for Inactive)
REMARK    1  A    between atoms: C_3  and  C_4 
REMARK    2  A    between atoms: C_4  and  C_7 
REMARK    3  A    between atoms: O_5  and  C_7 
REMARK    4  A    between atoms: O_5  and  C_9 
ROOT
HETATM    1  N   UNL     1      77.183   3.704  18.117  1.00  0.00    -0.369 N 
ATOM      2  HN  UNL     1      77.990   3.422  18.673  1.00  0.00     0.165 HD
HETATM    3  C   UNL     1      76.291   2.791  17.658  1.00  0.00     0.011 A 
HETATM    4  C   UNL     1      76.963   5.000  17.811  1.00  0.00     0.088 A 
HETATM    5  C   UNL     1      75.165   3.158  16.923  1.00  0.00     0.025 A 
HETATM    6  C   UNL     1      75.881   5.444  17.069  1.00  0.00     0.017 A 
HETATM    7  C   UNL     1      74.962   4.501  16.624  1.00  0.00     0.003 A 
ENDROOT
BRANCH   3   8
HETATM    8  C   UNL     1      76.566   1.350  18.002  1.00  0.00     0.083 C 
BRANCH   8   9
HETATM    9  C   UNL     1      77.906   1.115  18.710  1.00  0.00     0.173 C 
BRANCH   9  10
HETATM   10  O   UNL     1      77.924   1.439  20.100  1.00  0.00    -0.391 OA
BRANCH  10  11
HETATM   11  C   UNL     1      78.887   0.708  20.852  1.00  0.00     0.163 C 
HETATM   12  C   UNL     1      78.154  -0.249  21.774  1.00  0.00     0.033 C 
ENDBRANCH  10  11
ENDBRANCH   9  10
ENDBRANCH   8   9
ENDBRANCH   3   8
TORSDOF 4
ENDMDL
MODEL 5
REMARK VINA RESULT:      -4.4      3.038      5.827
REMARK  4 active torsions:
REMARK  status: ('A' for Active; 'I' for Inactive)
REMARK    1  A    between atoms: C_3  and  C_4 
REMARK    2  A    between atoms: C_4  and  C_7 
REMARK    3  A    between atoms: O_5  and  C_7 
REMARK    4  A    between atoms: O_5  and  C_9 
ROOT
HETATM    1  N   UNL     1      76.087   2.670  18.317  1.00  0.00    -0.369 N 
ATOM      2  HN  UNL     1      76.132   1.787  18.824  1.00  0.00     0.165 HD
HETATM    3  C   UNL     1      75.241   2.838  17.268  1.00  0.00     0.011 A 
HETATM    4  C   UNL     1      76.867   3.716  18.662  1.00  0.00     0.088 A 
HETATM    5  C   UNL     1      75.141   4.046  16.581  1.00  0.00     0.025 A 
HETATM    6  C   UNL     1      76.844   4.942  18.018  1.00  0.00     0.017 A 
HETATM    7  C   UNL     1      75.957   5.108  16.961  1.00  0.00     0.003 A 
ENDROOT
BRANCH   3   8
HETATM    8  C   UNL     1      74.391   1.652  16.893  1.00  0.00     0.083 C 
BRANCH   8   9
HETATM    9  C   UNL     1      74.688   0.382  17.700  1.00  0.00     0.173 C 
BRANCH   9  10
HETATM   10  O   UNL     1      74.216   0.393  19.048  1.00  0.00    -0.391 OA
BRANCH  10  11
HETATM   11  C   UNL     1      74.143  -0.898  19.646  1.00  0.00     0.163 C 
HETATM   12  C   UNL     1      75.466  -1.607  19.427  1.00  0.00     0.033 C 
ENDBRANCH  10  11
ENDBRANCH   9  10
ENDBRANCH   8   9
ENDBRANCH   3   8
TORSDOF 4
ENDMDL
MODEL 6
REMARK VINA RESULT:      -4.4     17.223     18.345
REMARK  4 active torsions:
REMARK  status: ('A' for Active; 'I' for Inactive)
REMARK    1  A    between atoms: C_3  and  C_4 
REMARK    2  A    between atoms: C_4  and  C_7 
REMARK    3  A    between atoms: O_5  and  C_7 
REMARK    4  A    between atoms: O_5  and  C_9 
ROOT
HETATM    1  N   UNL     1      63.816   9.739   5.501  1.00  0.00    -0.369 N 
ATOM      2  HN  UNL     1      64.445   9.624   6.296  1.00  0.00     0.165 HD
HETATM    3  C   UNL     1      63.763   8.816   4.506  1.00  0.00     0.011 A 
HETATM    4  C   UNL     1      63.007  10.813   5.398  1.00  0.00     0.088 A 
HETATM    5  C   UNL     1      62.890   8.938   3.427  1.00  0.00     0.025 A 
HETATM    6  C   UNL     1      62.126  11.019   4.349  1.00  0.00     0.017 A 
HETATM    7  C   UNL     1      62.065  10.056   3.349  1.00  0.00     0.003 A 
ENDROOT
BRANCH   3   8
HETATM    8  C   UNL     1      64.687   7.632   4.636  1.00  0.00     0.083 C 
BRANCH   8   9
HETATM    9  C   UNL     1      65.868   7.856   5.588  1.00  0.00     0.173 C 
BRANCH   9  10
HETATM   10  O   UNL     1      65.598   7.596   6.965  1.00  0.00    -0.391 OA
BRANCH  10  11
HETATM   11  C   UNL     1      66.696   7.029   7.674  1.00  0.00     0.163 C 
HETATM   12  C   UNL     1      67.595   6.316   6.680  1.00  0.00     0.033 C 
ENDBRANCH  10  11
ENDBRANCH   9  10
ENDBRANCH   8   9
ENDBRANCH   3   8
TORSDOF 4
ENDMDL
MODEL 7
REMARK VINA RESULT:      -4.2     12.620     13.628
REMARK  4 active torsions:
REMARK  status: ('A' for Active; 'I' for Inactive)
REMARK    1  A    between atoms: C_3  and  C_4 
REMARK    2  A    between atoms: C_4  and  C_7 
REMARK    3  A    between atoms: O_5  and  C_7 
REMARK    4  A    between atoms: O_5  and  C_9 
ROOT
HETATM    1  N   UNL     1      66.931   4.017   8.729  1.00  0.00    -0.369 N 
ATOM      2  HN  UNL     1      65.934   3.805   8.732  1.00  0.00     0.165 HD
HETATM    3  C   UNL     1      67.379   5.297   8.793  1.00  0.00     0.011 A 
HETATM    4  C   UNL     1      67.856   3.036   8.663  1.00  0.00     0.088 A 
HETATM    5  C   UNL     1      68.737   5.607   8.823  1.00  0.00     0.025 A 
HETATM    6  C   UNL     1      69.222   3.261   8.666  1.00  0.00     0.017 A 
HETATM    7  C   UNL     1      69.667   4.575   8.755  1.00  0.00     0.003 A 
ENDROOT
BRANCH   3   8
HETATM    8  C   UNL     1      66.328   6.375   8.853  1.00  0.00     0.083 C 
BRANCH   8   9
HETATM    9  C   UNL     1      65.696   6.716   7.498  1.00  0.00     0.173 C 
BRANCH   9  10
HETATM   10  O   UNL     1      66.120   7.952   6.922  1.00  0.00    -0.391 OA
BRANCH  10  11
HETATM   11  C   UNL     1      66.510   7.850   5.556  1.00  0.00     0.163 C 
HETATM   12  C   UNL     1      67.883   7.209   5.491  1.00  0.00     0.033 C 
ENDBRANCH  10  11
ENDBRANCH   9  10
ENDBRANCH   8   9
ENDBRANCH   3   8
TORSDOF 4
ENDMDL
MODEL 8
REMARK VINA RESULT:      -4.2      2.934      5.575
REMARK  4 active torsions:
REMARK  status: ('A' for Active; 'I' for Inactive)
REMARK    1  A    between atoms: C_3  and  C_4 
REMARK    2  A    between atoms: C_4  and  C_7 
REMARK    3  A    between atoms: O_5  and  C_7 
REMARK    4  A    between atoms: O_5  and  C_9 
ROOT
HETATM    1  N   UNL     1      76.221   2.781  18.307  1.00  0.00    -0.369 N 
ATOM      2  HN  UNL     1      76.357   1.922  18.838  1.00  0.00     0.165 HD
HETATM    3  C   UNL     1      75.302   2.855  17.310  1.00  0.00     0.011 A 
HETATM    4  C   UNL     1      76.948   3.888  18.568  1.00  0.00     0.088 A 
HETATM    5  C   UNL     1      75.078   4.029  16.593  1.00  0.00     0.025 A 
HETATM    6  C   UNL     1      76.801   5.086  17.888  1.00  0.00     0.017 A 
HETATM    7  C   UNL     1      75.841   5.155  16.885  1.00  0.00     0.003 A 
ENDROOT
BRANCH   3   8
HETATM    8  C   UNL     1      74.513   1.602  17.029  1.00  0.00     0.083 C 
BRANCH   8   9
HETATM    9  C   UNL     1      75.248   0.576  16.158  1.00  0.00     0.173 C 
BRANCH   9  10
HETATM   10  O   UNL     1      76.667   0.544  16.321  1.00  0.00    -0.391 OA
BRANCH  10  11
HETATM   11  C   UNL     1      77.326  -0.387  15.468  1.00  0.00     0.163 C 
HETATM   12  C   UNL     1      76.612  -0.406  14.130  1.00  0.00     0.033 C 
ENDBRANCH  10  11
ENDBRANCH   9  10
ENDBRANCH   8   9
ENDBRANCH   3   8
TORSDOF 4
ENDMDL
MODEL 9
REMARK VINA RESULT:      -4.1     14.687     15.618
REMARK  4 active torsions:
REMARK  status: ('A' for Active; 'I' for Inactive)
REMARK    1  A    between atoms: C_3  and  C_4 
REMARK    2  A    between atoms: C_4  and  C_7 
REMARK    3  A    between atoms: O_5  and  C_7 
REMARK    4  A    between atoms: O_5  and  C_9 
ROOT
HETATM    1  N   UNL     1      66.984   7.503   7.718  1.00  0.00    -0.369 N 
ATOM      2  HN  UNL     1      66.632   8.460   7.721  1.00  0.00     0.165 HD
HETATM    3  C   UNL     1      67.337   6.886   6.561  1.00  0.00     0.011 A 
HETATM    4  C   UNL     1      67.116   6.802   8.863  1.00  0.00     0.088 A 
HETATM    5  C   UNL     1      67.849   5.590   6.537  1.00  0.00     0.025 A 
HETATM    6  C   UNL     1      67.597   5.505   8.923  1.00  0.00     0.017 A 
HETATM    7  C   UNL     1      67.976   4.893   7.734  1.00  0.00     0.003 A 
ENDROOT
BRANCH   3   8
HETATM    8  C   UNL     1      67.167   7.684   5.294  1.00  0.00     0.083 C 
BRANCH   8   9
HETATM    9  C   UNL     1      65.708   7.983   4.927  1.00  0.00     0.173 C 
BRANCH   9  10
HETATM   10  O   UNL     1      65.104   9.051   5.657  1.00  0.00    -0.391 OA
BRANCH  10  11
HETATM   11  C   UNL     1      63.802   9.402   5.199  1.00  0.00     0.163 C 
HETATM   12  C   UNL     1      63.445   8.506   4.027  1.00  0.00     0.033 C 
ENDBRANCH  10  11
ENDBRANCH   9  10
ENDBRANCH   8   9
ENDBRANCH   3   8
TORSDOF 4
ENDMDL
