MODEL 1
REMARK VINA RESULT:      -5.8      0.000      0.000
REMARK  2 active torsions:
REMARK  status: ('A' for Active; 'I' for Inactive)
REMARK    1  A    between atoms: C_3  and  C_8 
REMARK    2  A    between atoms: C_6  and  N_9 
ROOT
HETATM    1  N   UNL     1      78.863  11.966  23.229  1.00  0.00    -0.321 N 
ATOM      2  HN  UNL     1      77.970  11.542  23.481  1.00  0.00     0.169 HD
HETATM    3  C   UNL     1      79.203  12.440  21.956  1.00  0.00     0.123 A 
HETATM    4  N   UNL     1      80.431  12.945  21.775  1.00  0.00    -0.309 N 
ATOM      5  HN  UNL     1      80.816  13.305  20.902  1.00  0.00     0.176 HD
HETATM    6  C   UNL     1      79.871  12.152  24.044  1.00  0.00     0.160 A 
HETATM    7  S   UNL     1      81.211  12.874  23.244  1.00  0.00     0.024 SA
ENDROOT
BRANCH   3   8
HETATM    8  C   UNL     1      78.218  12.385  20.869  1.00  0.00     0.009 A 
HETATM    9  C   UNL     1      77.260  13.400  20.728  1.00  0.00     0.015 A 
HETATM   10  C   UNL     1      76.335  13.370  19.680  1.00  0.00     0.001 A 
HETATM   11  C   UNL     1      76.354  12.320  18.764  1.00  0.00     0.000 A 
HETATM   12  C   UNL     1      77.293  11.300  18.894  1.00  0.00     0.001 A 
HETATM   13  C   UNL     1      78.219  11.331  19.942  1.00  0.00     0.015 A 
ENDBRANCH   3   8
BRANCH   6  14
HETATM   14  N   UNL     1      79.867  11.810  25.342  1.00  0.00    -0.379 N 
HETATM   15  H   UNL     1      79.628  10.893  25.608  1.00  0.00     0.158 HD
HETATM   16  H   UNL     1      80.105  12.476  26.028  1.00  0.00     0.158 HD
ENDBRANCH   6  14
TORSDOF 2
ENDMDL
MODEL 2
REMARK VINA RESULT:      -5.1     20.712     22.417
REMARK  2 active torsions:
REMARK  status: ('A' for Active; 'I' for Inactive)
REMARK    1  A    between atoms: C_3  and  C_8 
REMARK    2  A    between atoms: C_6  and  N_9 
ROOT
HETATM    1  N   UNL     1      65.472   8.460   6.025  1.00  0.00    -0.321 N 
ATOM      2  HN  UNL     1      65.887   9.384   5.910  1.00  0.00     0.169 HD
HETATM    3  C   UNL     1      64.228   8.062   5.521  1.00  0.00     0.123 A 
HETATM    4  N   UNL     1      63.807   6.817   5.783  1.00  0.00    -0.309 N 
ATOM      5  HN  UNL     1      62.919   6.404   5.497  1.00  0.00     0.176 HD
HETATM    6  C   UNL     1      66.020   7.457   6.667  1.00  0.00     0.160 A 
HETATM    7  S   UNL     1      65.005   6.069   6.664  1.00  0.00     0.024 SA
ENDROOT
BRANCH   3   8
HETATM    8  C   UNL     1      63.431   8.999   4.721  1.00  0.00     0.009 A 
HETATM    9  C   UNL     1      62.995   8.641   3.436  1.00  0.00     0.015 A 
HETATM   10  C   UNL     1      62.213   9.517   2.677  1.00  0.00     0.001 A 
HETATM   11  C   UNL     1      61.863  10.764   3.192  1.00  0.00     0.000 A 
HETATM   12  C   UNL     1      62.294  11.138   4.462  1.00  0.00     0.001 A 
HETATM   13  C   UNL     1      63.075  10.262   5.222  1.00  0.00     0.015 A 
ENDBRANCH   3   8
BRANCH   6  14
HETATM   14  N   UNL     1      67.220   7.509   7.267  1.00  0.00    -0.379 N 
HETATM   15  H   UNL     1      67.321   7.983   8.123  1.00  0.00     0.158 HD
HETATM   16  H   UNL     1      67.998   7.072   6.850  1.00  0.00     0.158 HD
ENDBRANCH   6  14
TORSDOF 2
ENDMDL
MODEL 3
REMARK VINA RESULT:      -5.1     20.727     22.400
REMARK  2 active torsions:
REMARK  status: ('A' for Active; 'I' for Inactive)
REMARK    1  A    between atoms: C_3  and  C_8 
REMARK    2  A    between atoms: C_6  and  N_9 
ROOT
HETATM    1  N   UNL     1      65.469   8.470   5.954  1.00  0.00    -0.321 N 
ATOM      2  HN  UNL     1      65.905   9.374   5.769  1.00  0.00     0.169 HD
HETATM    3  C   UNL     1      64.191   8.086   5.533  1.00  0.00     0.123 A 
HETATM    4  N   UNL     1      63.747   6.870   5.882  1.00  0.00    -0.309 N 
ATOM      5  HN  UNL     1      62.835   6.472   5.662  1.00  0.00     0.176 HD
HETATM    6  C   UNL     1      66.019   7.486   6.622  1.00  0.00     0.160 A 
HETATM    7  S   UNL     1      64.966   6.132   6.743  1.00  0.00     0.024 SA
ENDROOT
BRANCH   3   8
HETATM    8  C   UNL     1      63.382   9.004   4.723  1.00  0.00     0.009 A 
HETATM    9  C   UNL     1      63.027  10.266   5.222  1.00  0.00     0.015 A 
HETATM   10  C   UNL     1      62.279  11.157   4.446  1.00  0.00     0.001 A 
HETATM   11  C   UNL     1      61.873  10.794   3.163  1.00  0.00     0.000 A 
HETATM   12  C   UNL     1      62.210   9.541   2.656  1.00  0.00     0.001 A 
HETATM   13  C   UNL     1      62.958   8.650   3.431  1.00  0.00     0.015 A 
ENDBRANCH   3   8
BRANCH   6  14
HETATM   14  N   UNL     1      67.249   7.531   7.159  1.00  0.00    -0.379 N 
HETATM   15  H   UNL     1      68.026   7.735   6.592  1.00  0.00     0.158 HD
HETATM   16  H   UNL     1      67.372   7.361   8.122  1.00  0.00     0.158 HD
ENDBRANCH   6  14
TORSDOF 2
ENDMDL
MODEL 4
REMARK VINA RESULT:      -5.1      4.271      5.203
REMARK  2 active torsions:
REMARK  status: ('A' for Active; 'I' for Inactive)
REMARK    1  A    between atoms: C_3  and  C_8 
REMARK    2  A    between atoms: C_6  and  N_9 
ROOT
HETATM    1  N   UNL     1      78.674  11.026  24.393  1.00  0.00    -0.321 N 
ATOM      2  HN  UNL     1      78.678  11.044  23.373  1.00  0.00     0.169 HD
HETATM    3  C   UNL     1      79.500  11.796  25.220  1.00  0.00     0.123 A 
HETATM    4  N   UNL     1      79.395  11.636  26.547  1.00  0.00    -0.309 N 
ATOM      5  HN  UNL     1      79.944  12.115  27.261  1.00  0.00     0.176 HD
HETATM    6  C   UNL     1      77.896  10.277  25.135  1.00  0.00     0.160 A 
HETATM    7  S   UNL     1      78.199  10.508  26.811  1.00  0.00     0.024 SA
ENDROOT
BRANCH   3   8
HETATM    8  C   UNL     1      80.438  12.756  24.626  1.00  0.00     0.009 A 
HETATM    9  C   UNL     1      80.842  13.891  25.345  1.00  0.00     0.015 A 
HETATM   10  C   UNL     1      81.756  14.796  24.797  1.00  0.00     0.001 A 
HETATM   11  C   UNL     1      82.272  14.580  23.521  1.00  0.00     0.000 A 
HETATM   12  C   UNL     1      81.874  13.463  22.790  1.00  0.00     0.001 A 
HETATM   13  C   UNL     1      80.961  12.557  23.338  1.00  0.00     0.015 A 
ENDBRANCH   3   8
BRANCH   6  14
HETATM   14  N   UNL     1      76.981   9.422  24.648  1.00  0.00    -0.379 N 
HETATM   15  H   UNL     1      76.024   9.580  24.813  1.00  0.00     0.158 HD
HETATM   16  H   UNL     1      77.270   8.638  24.126  1.00  0.00     0.158 HD
ENDBRANCH   6  14
TORSDOF 2
ENDMDL
MODEL 5
REMARK VINA RESULT:      -4.9     18.057     19.322
REMARK  2 active torsions:
REMARK  status: ('A' for Active; 'I' for Inactive)
REMARK    1  A    between atoms: C_3  and  C_8 
REMARK    2  A    between atoms: C_6  and  N_9 
ROOT
HETATM    1  N   UNL     1      66.033   6.091   7.623  1.00  0.00    -0.321 N 
ATOM      2  HN  UNL     1      65.475   5.507   8.245  1.00  0.00     0.169 HD
HETATM    3  C   UNL     1      67.426   6.032   7.489  1.00  0.00     0.123 A 
HETATM    4  N   UNL     1      68.018   6.891   6.647  1.00  0.00    -0.309 N 
ATOM      5  HN  UNL     1      69.019   6.971   6.468  1.00  0.00     0.176 HD
HETATM    6  C   UNL     1      65.560   7.015   6.823  1.00  0.00     0.160 A 
HETATM    7  S   UNL     1      66.813   7.803   5.949  1.00  0.00     0.024 SA
ENDROOT
BRANCH   3   8
HETATM    8  C   UNL     1      68.191   5.040   8.252  1.00  0.00     0.009 A 
HETATM    9  C   UNL     1      69.540   5.270   8.563  1.00  0.00     0.015 A 
HETATM   10  C   UNL     1      70.269   4.342   9.312  1.00  0.00     0.001 A 
HETATM   11  C   UNL     1      69.660   3.169   9.754  1.00  0.00     0.000 A 
HETATM   12  C   UNL     1      68.324   2.921   9.447  1.00  0.00     0.001 A 
HETATM   13  C   UNL     1      67.594   3.849   8.699  1.00  0.00     0.015 A 
ENDBRANCH   3   8
BRANCH   6  14
HETATM   14  N   UNL     1      64.257   7.321   6.709  1.00  0.00    -0.379 N 
HETATM   15  H   UNL     1      63.951   8.239   6.886  1.00  0.00     0.158 HD
HETATM   16  H   UNL     1      63.610   6.626   6.447  1.00  0.00     0.158 HD
ENDBRANCH   6  14
TORSDOF 2
ENDMDL
MODEL 6
REMARK VINA RESULT:      -4.8      9.892     11.161
REMARK  2 active torsions:
REMARK  status: ('A' for Active; 'I' for Inactive)
REMARK    1  A    between atoms: C_3  and  C_8 
REMARK    2  A    between atoms: C_6  and  N_9 
ROOT
HETATM    1  N   UNL     1      77.290   4.545  18.062  1.00  0.00    -0.321 N 
ATOM      2  HN  UNL     1      78.174   4.691  18.549  1.00  0.00     0.169 HD
HETATM    3  C   UNL     1      76.685   3.303  17.835  1.00  0.00     0.123 A 
HETATM    4  N   UNL     1      75.532   3.275  17.152  1.00  0.00    -0.309 N 
ATOM      5  HN  UNL     1      74.998   2.444  16.900  1.00  0.00     0.176 HD
HETATM    6  C   UNL     1      76.541   5.491  17.552  1.00  0.00     0.160 A 
HETATM    7  S   UNL     1      75.138   4.852  16.791  1.00  0.00     0.024 SA
ENDROOT
BRANCH   3   8
HETATM    8  C   UNL     1      77.311   2.081  18.353  1.00  0.00     0.009 A 
HETATM    9  C   UNL     1      77.072   0.845  17.734  1.00  0.00     0.015 A 
HETATM   10  C   UNL     1      77.685  -0.320  18.205  1.00  0.00     0.001 A 
HETATM   11  C   UNL     1      78.539  -0.264  19.304  1.00  0.00     0.000 A 
HETATM   12  C   UNL     1      78.781   0.954  19.935  1.00  0.00     0.001 A 
HETATM   13  C   UNL     1      78.169   2.120  19.465  1.00  0.00     0.015 A 
ENDBRANCH   3   8
BRANCH   6  14
HETATM   14  N   UNL     1      76.837   6.801  17.603  1.00  0.00    -0.379 N 
HETATM   15  H   UNL     1      76.384   7.382  18.254  1.00  0.00     0.158 HD
HETATM   16  H   UNL     1      77.507   7.177  16.988  1.00  0.00     0.158 HD
ENDBRANCH   6  14
TORSDOF 2
ENDMDL
MODEL 7
REMARK VINA RESULT:      -4.7      5.112      6.502
REMARK  2 active torsions:
REMARK  status: ('A' for Active; 'I' for Inactive)
REMARK    1  A    between atoms: C_3  and  C_8 
REMARK    2  A    between atoms: C_6  and  N_9 
ROOT
HETATM    1  N   UNL     1      78.573  10.892  25.251  1.00  0.00    -0.321 N 
ATOM      2  HN  UNL     1      78.571  11.414  24.375  1.00  0.00     0.169 HD
HETATM    3  C   UNL     1      79.355  11.196  26.372  1.00  0.00     0.123 A 
HETATM    4  N   UNL     1      79.266  10.393  27.443  1.00  0.00    -0.309 N 
ATOM      5  HN  UNL     1      79.789  10.485  28.313  1.00  0.00     0.176 HD
HETATM    6  C   UNL     1      77.844   9.834  25.505  1.00  0.00     0.160 A 
HETATM    7  S   UNL     1      78.141   9.220  27.083  1.00  0.00     0.024 SA
ENDROOT
BRANCH   3   8
HETATM    8  C   UNL     1      80.231  12.373  26.355  1.00  0.00     0.009 A 
HETATM    9  C   UNL     1      80.201  13.264  25.271  1.00  0.00     0.015 A 
HETATM   10  C   UNL     1      81.013  14.402  25.259  1.00  0.00     0.001 A 
HETATM   11  C   UNL     1      81.869  14.659  26.328  1.00  0.00     0.000 A 
HETATM   12  C   UNL     1      81.917  13.780  27.407  1.00  0.00     0.001 A 
HETATM   13  C   UNL     1      81.105  12.643  27.421  1.00  0.00     0.015 A 
ENDBRANCH   3   8
BRANCH   6  14
HETATM   14  N   UNL     1      76.980   9.284  24.636  1.00  0.00    -0.379 N 
HETATM   15  H   UNL     1      77.189   9.275  23.675  1.00  0.00     0.158 HD
HETATM   16  H   UNL     1      76.138   8.890  24.962  1.00  0.00     0.158 HD
ENDBRANCH   6  14
TORSDOF 2
ENDMDL
MODEL 8
REMARK VINA RESULT:      -4.7     21.784     22.953
REMARK  2 active torsions:
REMARK  status: ('A' for Active; 'I' for Inactive)
REMARK    1  A    between atoms: C_3  and  C_8 
REMARK    2  A    between atoms: C_6  and  N_9 
ROOT
HETATM    1  N   UNL     1      63.409   6.596   5.428  1.00  0.00    -0.321 N 
ATOM      2  HN  UNL     1      62.581   6.280   4.924  1.00  0.00     0.169 HD
HETATM    3  C   UNL     1      63.930   7.896   5.396  1.00  0.00     0.123 A 
HETATM    4  N   UNL     1      65.047   8.148   6.093  1.00  0.00    -0.309 N 
ATOM      5  HN  UNL     1      65.542   9.038   6.143  1.00  0.00     0.176 HD
HETATM    6  C   UNL     1      64.153   5.851   6.207  1.00  0.00     0.160 A 
HETATM    7  S   UNL     1      65.475   6.734   6.862  1.00  0.00     0.024 SA
ENDROOT
BRANCH   3   8
HETATM    8  C   UNL     1      63.245   8.938   4.623  1.00  0.00     0.009 A 
HETATM    9  C   UNL     1      62.848   8.695   3.300  1.00  0.00     0.015 A 
HETATM   10  C   UNL     1      62.172   9.674   2.565  1.00  0.00     0.001 A 
HETATM   11  C   UNL     1      61.890  10.909   3.144  1.00  0.00     0.000 A 
HETATM   12  C   UNL     1      62.284  11.170   4.454  1.00  0.00     0.001 A 
HETATM   13  C   UNL     1      62.959  10.192   5.189  1.00  0.00     0.015 A 
ENDBRANCH   3   8
BRANCH   6  14
HETATM   14  N   UNL     1      63.922   4.551   6.455  1.00  0.00    -0.379 N 
HETATM   15  H   UNL     1      64.652   3.975   6.775  1.00  0.00     0.158 HD
HETATM   16  H   UNL     1      63.022   4.176   6.317  1.00  0.00     0.158 HD
ENDBRANCH   6  14
TORSDOF 2
ENDMDL
MODEL 9
REMARK VINA RESULT:      -4.6     23.177     24.166
REMARK  2 active torsions:
REMARK  status: ('A' for Active; 'I' for Inactive)
REMARK    1  A    between atoms: C_3  and  C_8 
REMARK    2  A    between atoms: C_6  and  N_9 
ROOT
HETATM    1  N   UNL     1      62.366   6.808   4.297  1.00  0.00    -0.321 N 
ATOM      2  HN  UNL     1      61.782   6.556   3.499  1.00  0.00     0.169 HD
HETATM    3  C   UNL     1      62.831   8.096   4.586  1.00  0.00     0.123 A 
HETATM    4  N   UNL     1      63.616   8.261   5.660  1.00  0.00    -0.309 N 
ATOM      5  HN  UNL     1      64.038   9.134   5.974  1.00  0.00     0.176 HD
HETATM    6  C   UNL     1      62.797   5.976   5.213  1.00  0.00     0.160 A 
HETATM    7  S   UNL     1      63.772   6.770   6.385  1.00  0.00     0.024 SA
ENDROOT
BRANCH   3   8
HETATM    8  C   UNL     1      62.445   9.222   3.726  1.00  0.00     0.009 A 
HETATM    9  C   UNL     1      62.246  10.497   4.275  1.00  0.00     0.015 A 
HETATM   10  C   UNL     1      61.905  11.581   3.460  1.00  0.00     0.001 A 
HETATM   11  C   UNL     1      61.752  11.399   2.087  1.00  0.00     0.000 A 
HETATM   12  C   UNL     1      61.937  10.137   1.527  1.00  0.00     0.001 A 
HETATM   13  C   UNL     1      62.280   9.054   2.342  1.00  0.00     0.015 A 
ENDBRANCH   3   8
BRANCH   6  14
HETATM   14  N   UNL     1      62.524   4.661   5.230  1.00  0.00    -0.379 N 
HETATM   15  H   UNL     1      61.590   4.353   5.267  1.00  0.00     0.158 HD
HETATM   16  H   UNL     1      63.259   4.006   5.204  1.00  0.00     0.158 HD
ENDBRANCH   6  14
TORSDOF 2
ENDMDL
