MODEL 1
REMARK VINA RESULT:      -4.7      0.000      0.000
REMARK  4 active torsions:
REMARK  status: ('A' for Active; 'I' for Inactive)
REMARK    1  A    between atoms: C_1  and  C_3 
REMARK    2  A    between atoms: C_3  and  C_10 
REMARK    3  A    between atoms: C_4  and  C_11 
REMARK    4  A    between atoms: C_10  and  C_11 
ROOT
HETATM    1  C   UNL     1      62.157  10.349   4.067  1.00  0.00     0.166 C 
HETATM    2  O   UNL     1      61.846  11.540   4.137  1.00  0.00    -0.292 OA
ENDROOT
BRANCH   1   3
HETATM    3  C   UNL     1      61.691   9.499   2.976  1.00  0.00     0.050 A 
HETATM    4  S   UNL     1      60.714   8.118   3.239  1.00  0.00    -0.098 SA
HETATM    5  C   UNL     1      60.680   7.733   1.574  1.00  0.00     0.050 A 
HETATM    6  C   UNL     1      61.395   8.638   0.822  1.00  0.00     0.009 A 
HETATM    7  C   UNL     1      61.982   9.652   1.632  1.00  0.00     0.023 A 
ENDBRANCH   1   3
BRANCH   1   8
HETATM    8  C   UNL     1      63.067   9.738   5.128  1.00  0.00     0.095 C 
BRANCH   8   9
HETATM    9  C   UNL     1      64.026   8.707   4.541  1.00  0.00     0.121 C 
BRANCH   9  10
HETATM   10  C   UNL     1      65.044   8.264   5.556  1.00  0.00     0.172 C 
HETATM   11  O   UNL     1      64.834   7.642   6.583  1.00  0.00    -0.648 OA
HETATM   12  O   UNL     1      66.297   8.597   5.194  1.00  0.00    -0.648 OA
ENDBRANCH   9  10
ENDBRANCH   8   9
ENDBRANCH   1   8
TORSDOF 4
ENDMDL
MODEL 2
REMARK VINA RESULT:      -4.6      3.196      5.561
REMARK  4 active torsions:
REMARK  status: ('A' for Active; 'I' for Inactive)
REMARK    1  A    between atoms: C_1  and  C_3 
REMARK    2  A    between atoms: C_3  and  C_10 
REMARK    3  A    between atoms: C_4  and  C_11 
REMARK    4  A    between atoms: C_10  and  C_11 
ROOT
HETATM    1  C   UNL     1      64.373   7.764   5.985  1.00  0.00     0.166 C 
HETATM    2  O   UNL     1      63.435   7.507   6.744  1.00  0.00    -0.292 OA
ENDROOT
BRANCH   1   3
HETATM    3  C   UNL     1      65.625   7.016   6.036  1.00  0.00     0.050 A 
HETATM    4  S   UNL     1      66.481   6.752   7.495  1.00  0.00    -0.098 SA
HETATM    5  C   UNL     1      67.732   5.905   6.694  1.00  0.00     0.050 A 
HETATM    6  C   UNL     1      67.508   5.816   5.339  1.00  0.00     0.009 A 
HETATM    7  C   UNL     1      66.295   6.462   4.960  1.00  0.00     0.023 A 
ENDBRANCH   1   3
BRANCH   1   8
HETATM    8  C   UNL     1      64.230   8.876   4.951  1.00  0.00     0.095 C 
BRANCH   8   9
HETATM    9  C   UNL     1      62.794   9.379   4.840  1.00  0.00     0.121 C 
BRANCH   9  10
HETATM   10  C   UNL     1      62.703  10.851   5.138  1.00  0.00     0.172 C 
HETATM   11  O   UNL     1      62.079  11.689   4.510  1.00  0.00    -0.648 OA
HETATM   12  O   UNL     1      63.380  11.184   6.253  1.00  0.00    -0.648 OA
ENDBRANCH   9  10
ENDBRANCH   8   9
ENDBRANCH   1   8
TORSDOF 4
ENDMDL
MODEL 3
REMARK VINA RESULT:      -4.6      2.335      3.155
REMARK  4 active torsions:
REMARK  status: ('A' for Active; 'I' for Inactive)
REMARK    1  A    between atoms: C_1  and  C_3 
REMARK    2  A    between atoms: C_3  and  C_10 
REMARK    3  A    between atoms: C_4  and  C_11 
REMARK    4  A    between atoms: C_10  and  C_11 
ROOT
HETATM    1  C   UNL     1      63.463   7.886   5.666  1.00  0.00     0.166 C 
HETATM    2  O   UNL     1      63.098   7.589   6.806  1.00  0.00    -0.292 OA
ENDROOT
BRANCH   1   3
HETATM    3  C   UNL     1      62.912   9.039   4.962  1.00  0.00     0.050 A 
HETATM    4  S   UNL     1      62.163   8.908   3.428  1.00  0.00    -0.098 SA
HETATM    5  C   UNL     1      61.878  10.592   3.341  1.00  0.00     0.050 A 
HETATM    6  C   UNL     1      62.339  11.250   4.459  1.00  0.00     0.009 A 
HETATM    7  C   UNL     1      62.940  10.354   5.390  1.00  0.00     0.023 A 
ENDBRANCH   1   3
BRANCH   1   8
HETATM    8  C   UNL     1      64.531   7.049   4.968  1.00  0.00     0.095 C 
BRANCH   8   9
HETATM    9  C   UNL     1      65.863   7.785   4.864  1.00  0.00     0.121 C 
BRANCH   9  10
HETATM   10  C   UNL     1      66.485   7.989   6.219  1.00  0.00     0.172 C 
HETATM   11  O   UNL     1      66.559   9.034   6.842  1.00  0.00    -0.648 OA
HETATM   12  O   UNL     1      66.948   6.839   6.742  1.00  0.00    -0.648 OA
ENDBRANCH   9  10
ENDBRANCH   8   9
ENDBRANCH   1   8
TORSDOF 4
ENDMDL
MODEL 4
REMARK VINA RESULT:      -4.5     19.067     19.970
REMARK  4 active torsions:
REMARK  status: ('A' for Active; 'I' for Inactive)
REMARK    1  A    between atoms: C_1  and  C_3 
REMARK    2  A    between atoms: C_3  and  C_10 
REMARK    3  A    between atoms: C_4  and  C_11 
REMARK    4  A    between atoms: C_10  and  C_11 
ROOT
HETATM    1  C   UNL     1      75.541   1.867  17.668  1.00  0.00     0.166 C 
HETATM    2  O   UNL     1      74.650   1.612  18.482  1.00  0.00    -0.292 OA
ENDROOT
BRANCH   1   3
HETATM    3  C   UNL     1      75.878   0.945  16.589  1.00  0.00     0.050 A 
HETATM    4  S   UNL     1      74.766   0.523  15.357  1.00  0.00    -0.098 SA
HETATM    5  C   UNL     1      75.879  -0.539  14.613  1.00  0.00     0.050 A 
HETATM    6  C   UNL     1      77.081  -0.576  15.282  1.00  0.00     0.009 A 
HETATM    7  C   UNL     1      77.078   0.275  16.424  1.00  0.00     0.023 A 
ENDBRANCH   1   3
BRANCH   1   8
HETATM    8  C   UNL     1      76.305   3.184  17.766  1.00  0.00     0.095 C 
BRANCH   8   9
HETATM    9  C   UNL     1      75.649   4.293  16.949  1.00  0.00     0.121 C 
BRANCH   9  10
HETATM   10  C   UNL     1      76.483   5.545  16.955  1.00  0.00     0.172 C 
HETATM   11  O   UNL     1      76.853   6.184  15.985  1.00  0.00    -0.648 OA
HETATM   12  O   UNL     1      76.774   5.954  18.203  1.00  0.00    -0.648 OA
ENDBRANCH   9  10
ENDBRANCH   8   9
ENDBRANCH   1   8
TORSDOF 4
ENDMDL
MODEL 5
REMARK VINA RESULT:      -4.5      5.324      8.334
REMARK  4 active torsions:
REMARK  status: ('A' for Active; 'I' for Inactive)
REMARK    1  A    between atoms: C_1  and  C_3 
REMARK    2  A    between atoms: C_3  and  C_10 
REMARK    3  A    between atoms: C_4  and  C_11 
REMARK    4  A    between atoms: C_10  and  C_11 
ROOT
HETATM    1  C   UNL     1      66.569   5.202   8.184  1.00  0.00     0.166 C 
HETATM    2  O   UNL     1      65.596   4.453   8.074  1.00  0.00    -0.292 OA
ENDROOT
BRANCH   1   3
HETATM    3  C   UNL     1      67.883   4.698   8.569  1.00  0.00     0.050 A 
HETATM    4  S   UNL     1      68.114   3.128   9.213  1.00  0.00    -0.098 SA
HETATM    5  C   UNL     1      69.795   3.373   9.404  1.00  0.00     0.050 A 
HETATM    6  C   UNL     1      70.184   4.625   8.983  1.00  0.00     0.009 A 
HETATM    7  C   UNL     1      69.080   5.389   8.507  1.00  0.00     0.023 A 
ENDBRANCH   1   3
BRANCH   1   8
HETATM    8  C   UNL     1      66.417   6.692   7.895  1.00  0.00     0.095 C 
BRANCH   8   9
HETATM    9  C   UNL     1      65.546   6.955   6.670  1.00  0.00     0.121 C 
BRANCH   9  10
HETATM   10  C   UNL     1      65.942   8.233   5.980  1.00  0.00     0.172 C 
HETATM   11  O   UNL     1      65.237   9.207   5.781  1.00  0.00    -0.648 OA
HETATM   12  O   UNL     1      67.236   8.229   5.610  1.00  0.00    -0.648 OA
ENDBRANCH   9  10
ENDBRANCH   8   9
ENDBRANCH   1   8
TORSDOF 4
ENDMDL
MODEL 6
REMARK VINA RESULT:      -4.4      2.589      5.259
REMARK  4 active torsions:
REMARK  status: ('A' for Active; 'I' for Inactive)
REMARK    1  A    between atoms: C_1  and  C_3 
REMARK    2  A    between atoms: C_3  and  C_10 
REMARK    3  A    between atoms: C_4  and  C_11 
REMARK    4  A    between atoms: C_10  and  C_11 
ROOT
HETATM    1  C   UNL     1      64.719   8.743   5.149  1.00  0.00     0.166 C 
HETATM    2  O   UNL     1      64.781   9.788   5.802  1.00  0.00    -0.292 OA
ENDROOT
BRANCH   1   3
HETATM    3  C   UNL     1      65.644   7.639   5.384  1.00  0.00     0.050 A 
HETATM    4  S   UNL     1      65.417   6.499   6.641  1.00  0.00    -0.098 SA
HETATM    5  C   UNL     1      66.857   5.666   6.247  1.00  0.00     0.050 A 
HETATM    6  C   UNL     1      67.505   6.237   5.175  1.00  0.00     0.009 A 
HETATM    7  C   UNL     1      66.808   7.378   4.682  1.00  0.00     0.023 A 
ENDBRANCH   1   3
BRANCH   1   8
HETATM    8  C   UNL     1      63.643   8.577   4.081  1.00  0.00     0.095 C 
BRANCH   8   9
HETATM    9  C   UNL     1      62.317   9.207   4.496  1.00  0.00     0.121 C 
BRANCH   9  10
HETATM   10  C   UNL     1      62.055  10.481   3.739  1.00  0.00     0.172 C 
HETATM   11  O   UNL     1      61.925  11.599   4.207  1.00  0.00    -0.648 OA
HETATM   12  O   UNL     1      62.012  10.280   2.409  1.00  0.00    -0.648 OA
ENDBRANCH   9  10
ENDBRANCH   8   9
ENDBRANCH   1   8
TORSDOF 4
ENDMDL
MODEL 7
REMARK VINA RESULT:      -4.4      7.082      9.192
REMARK  4 active torsions:
REMARK  status: ('A' for Active; 'I' for Inactive)
REMARK    1  A    between atoms: C_1  and  C_3 
REMARK    2  A    between atoms: C_3  and  C_10 
REMARK    3  A    between atoms: C_4  and  C_11 
REMARK    4  A    between atoms: C_10  and  C_11 
ROOT
HETATM    1  C   UNL     1      69.361   5.172   8.803  1.00  0.00     0.166 C 
HETATM    2  O   UNL     1      70.478   5.552   8.444  1.00  0.00    -0.292 OA
ENDROOT
BRANCH   1   3
HETATM    3  C   UNL     1      68.144   5.658   8.160  1.00  0.00     0.050 A 
HETATM    4  S   UNL     1      66.866   6.384   9.039  1.00  0.00    -0.098 SA
HETATM    5  C   UNL     1      65.918   6.591   7.631  1.00  0.00     0.050 A 
HETATM    6  C   UNL     1      66.557   6.122   6.506  1.00  0.00     0.009 A 
HETATM    7  C   UNL     1      67.839   5.580   6.813  1.00  0.00     0.023 A 
ENDBRANCH   1   3
BRANCH   1   8
HETATM    8  C   UNL     1      69.231   4.156   9.933  1.00  0.00     0.095 C 
BRANCH   8   9
HETATM    9  C   UNL     1      68.586   2.855   9.466  1.00  0.00     0.121 C 
BRANCH   9  10
HETATM   10  C   UNL     1      68.703   1.778  10.511  1.00  0.00     0.172 C 
HETATM   11  O   UNL     1      67.836   0.995  10.858  1.00  0.00    -0.648 OA
HETATM   12  O   UNL     1      69.940   1.718  11.039  1.00  0.00    -0.648 OA
ENDBRANCH   9  10
ENDBRANCH   8   9
ENDBRANCH   1   8
TORSDOF 4
ENDMDL
MODEL 8
REMARK VINA RESULT:      -4.3     20.094     20.749
REMARK  4 active torsions:
REMARK  status: ('A' for Active; 'I' for Inactive)
REMARK    1  A    between atoms: C_1  and  C_3 
REMARK    2  A    between atoms: C_3  and  C_10 
REMARK    3  A    between atoms: C_4  and  C_11 
REMARK    4  A    between atoms: C_10  and  C_11 
ROOT
HETATM    1  C   UNL     1      75.466   0.874  17.932  1.00  0.00     0.166 C 
HETATM    2  O   UNL     1      74.505   1.245  18.610  1.00  0.00    -0.292 OA
ENDROOT
BRANCH   1   3
HETATM    3  C   UNL     1      75.343  -0.203  16.955  1.00  0.00     0.050 A 
HETATM    4  S   UNL     1      76.702  -0.913  16.192  1.00  0.00    -0.098 SA
HETATM    5  C   UNL     1      75.724  -1.959  15.258  1.00  0.00     0.050 A 
HETATM    6  C   UNL     1      74.384  -1.781  15.519  1.00  0.00     0.009 A 
HETATM    7  C   UNL     1      74.166  -0.764  16.494  1.00  0.00     0.023 A 
ENDBRANCH   1   3
BRANCH   1   8
HETATM    8  C   UNL     1      76.818   1.561  18.092  1.00  0.00     0.095 C 
BRANCH   8   9
HETATM    9  C   UNL     1      76.783   3.016  17.633  1.00  0.00     0.121 C 
BRANCH   9  10
HETATM   10  C   UNL     1      76.966   3.960  18.790  1.00  0.00     0.172 C 
HETATM   11  O   UNL     1      77.166   3.663  19.955  1.00  0.00    -0.648 OA
HETATM   12  O   UNL     1      76.930   5.248  18.402  1.00  0.00    -0.648 OA
ENDBRANCH   9  10
ENDBRANCH   8   9
ENDBRANCH   1   8
TORSDOF 4
ENDMDL
MODEL 9
REMARK VINA RESULT:      -4.2      5.898      7.544
REMARK  4 active torsions:
REMARK  status: ('A' for Active; 'I' for Inactive)
REMARK    1  A    between atoms: C_1  and  C_3 
REMARK    2  A    between atoms: C_3  and  C_10 
REMARK    3  A    between atoms: C_4  and  C_11 
REMARK    4  A    between atoms: C_10  and  C_11 
ROOT
HETATM    1  C   UNL     1      66.931   5.597   8.247  1.00  0.00     0.166 C 
HETATM    2  O   UNL     1      65.990   4.894   8.626  1.00  0.00    -0.292 OA
ENDROOT
BRANCH   1   3
HETATM    3  C   UNL     1      66.962   6.177   6.909  1.00  0.00     0.050 A 
HETATM    4  S   UNL     1      67.211   5.233   5.502  1.00  0.00    -0.098 SA
HETATM    5  C   UNL     1      67.147   6.603   4.481  1.00  0.00     0.050 A 
HETATM    6  C   UNL     1      66.935   7.764   5.190  1.00  0.00     0.009 A 
HETATM    7  C   UNL     1      66.834   7.518   6.590  1.00  0.00     0.023 A 
ENDBRANCH   1   3
BRANCH   1   8
HETATM    8  C   UNL     1      68.089   5.892   9.195  1.00  0.00     0.095 C 
BRANCH   8   9
HETATM    9  C   UNL     1      69.410   5.323   8.686  1.00  0.00     0.121 C 
BRANCH   9  10
HETATM   10  C   UNL     1      69.627   3.917   9.177  1.00  0.00     0.172 C 
HETATM   11  O   UNL     1      70.048   3.579  10.269  1.00  0.00    -0.648 OA
HETATM   12  O   UNL     1      69.257   3.000   8.264  1.00  0.00    -0.648 OA
ENDBRANCH   9  10
ENDBRANCH   8   9
ENDBRANCH   1   8
TORSDOF 4
ENDMDL
