MODEL 1
REMARK VINA RESULT:      -4.9      0.000      0.000
REMARK  1 active torsions:
REMARK  status: ('A' for Active; 'I' for Inactive)
REMARK    1  A    between atoms: N_7  and  O_11 
ROOT
HETATM    1  N   UNL     1      75.975   0.577  16.157  1.00  0.00    -0.066 N 
HETATM    2  C   UNL     1      74.774   1.303  16.589  1.00  0.00     0.193 C 
HETATM    3  C   UNL     1      76.578   0.208  17.452  1.00  0.00     0.193 C 
HETATM    4  C   UNL     1      76.347   2.626  18.072  1.00  0.00     0.013 C 
HETATM    5  C   UNL     1      75.206   2.707  17.084  1.00  0.00     0.087 C 
HETATM    6  C   UNL     1      77.310   1.457  17.976  1.00  0.00     0.087 C 
HETATM    7  N   UNL     1      76.554   3.602  18.890  1.00  0.00    -0.277 N 
ATOM      8  HN  UNL     1      75.921   4.402  18.881  1.00  0.00     0.193 HD
HETATM    9  C   UNL     1      74.187   0.450  17.713  1.00  0.00     0.036 C 
HETATM   10  C   UNL     1      75.409  -0.138  18.405  1.00  0.00     0.036 C 
HETATM   11  C   UNL     1      75.711  -0.599  15.315  1.00  0.00     0.270 C 
HETATM   12  H   UNL     1      76.571   1.141  15.550  1.00  0.00     0.280 HD
ENDROOT
BRANCH   7  13
HETATM   13  O   UNL     1      77.562   3.589  19.733  1.00  0.00    -0.290 OA
HETATM   14  H   UNL     1      77.486   4.024  20.560  1.00  0.00     0.244 HD
ENDBRANCH   7  13
TORSDOF 1
ENDMDL
MODEL 2
REMARK VINA RESULT:      -4.8     11.115     12.209
REMARK  1 active torsions:
REMARK  status: ('A' for Active; 'I' for Inactive)
REMARK    1  A    between atoms: N_7  and  O_11 
ROOT
HETATM    1  N   UNL     1      68.284   4.517   7.165  1.00  0.00    -0.066 N 
HETATM    2  C   UNL     1      69.023   5.439   8.036  1.00  0.00     0.193 C 
HETATM    3  C   UNL     1      67.295   3.953   8.103  1.00  0.00     0.193 C 
HETATM    4  C   UNL     1      69.236   3.466   9.612  1.00  0.00     0.013 C 
HETATM    5  C   UNL     1      69.967   4.605   8.939  1.00  0.00     0.087 C 
HETATM    6  C   UNL     1      68.022   2.871   8.922  1.00  0.00     0.087 C 
HETATM    7  N   UNL     1      69.721   2.942  10.687  1.00  0.00    -0.277 N 
ATOM      8  HN  UNL     1      70.576   3.329  11.088  1.00  0.00     0.193 HD
HETATM    9  C   UNL     1      67.944   6.162   8.843  1.00  0.00     0.036 C 
HETATM   10  C   UNL     1      66.865   5.105   9.044  1.00  0.00     0.036 C 
HETATM   11  C   UNL     1      67.644   5.152   6.003  1.00  0.00     0.270 C 
HETATM   12  H   UNL     1      68.895   3.831   6.720  1.00  0.00     0.280 HD
ENDROOT
BRANCH   7  13
HETATM   13  O   UNL     1      69.139   1.923  11.278  1.00  0.00    -0.290 OA
HETATM   14  H   UNL     1      69.551   1.509  12.011  1.00  0.00     0.244 HD
ENDBRANCH   7  13
TORSDOF 1
ENDMDL
MODEL 3
REMARK VINA RESULT:      -4.8     18.235     19.055
REMARK  1 active torsions:
REMARK  status: ('A' for Active; 'I' for Inactive)
REMARK    1  A    between atoms: N_7  and  O_11 
ROOT
HETATM    1  N   UNL     1      63.644   7.285   3.863  1.00  0.00    -0.066 N 
HETATM    2  C   UNL     1      62.311   7.765   4.247  1.00  0.00     0.193 C 
HETATM    3  C   UNL     1      64.383   7.420   5.133  1.00  0.00     0.193 C 
HETATM    4  C   UNL     1      63.526   9.775   5.199  1.00  0.00     0.013 C 
HETATM    5  C   UNL     1      62.363   9.311   4.353  1.00  0.00     0.087 C 
HETATM    6  C   UNL     1      64.768   8.905   5.269  1.00  0.00     0.087 C 
HETATM    7  N   UNL     1      63.495  10.945   5.741  1.00  0.00    -0.277 N 
ATOM      8  HN  UNL     1      62.667  11.529   5.619  1.00  0.00     0.193 HD
HETATM    9  C   UNL     1      62.031   7.104   5.597  1.00  0.00     0.036 C 
HETATM   10  C   UNL     1      63.398   7.041   6.265  1.00  0.00     0.036 C 
HETATM   11  C   UNL     1      63.674   5.906   3.351  1.00  0.00     0.270 C 
HETATM   12  H   UNL     1      64.034   7.809   3.080  1.00  0.00     0.280 HD
ENDROOT
BRANCH   7  13
HETATM   13  O   UNL     1      64.505  11.403   6.447  1.00  0.00    -0.290 OA
HETATM   14  H   UNL     1      64.406  11.548   7.367  1.00  0.00     0.244 HD
ENDBRANCH   7  13
TORSDOF 1
ENDMDL
MODEL 4
REMARK VINA RESULT:      -4.3     20.906     21.796
REMARK  1 active torsions:
REMARK  status: ('A' for Active; 'I' for Inactive)
REMARK    1  A    between atoms: N_7  and  O_11 
ROOT
HETATM    1  N   UNL     1      62.804   7.725   2.162  1.00  0.00    -0.066 N 
HETATM    2  C   UNL     1      61.699   8.316   1.397  1.00  0.00     0.193 C 
HETATM    3  C   UNL     1      62.363   7.963   3.549  1.00  0.00     0.193 C 
HETATM    4  C   UNL     1      62.031  10.353   2.868  1.00  0.00     0.013 C 
HETATM    5  C   UNL     1      61.839   9.858   1.452  1.00  0.00     0.087 C 
HETATM    6  C   UNL     1      62.691   9.431   3.877  1.00  0.00     0.087 C 
HETATM    7  N   UNL     1      61.747  11.577   3.161  1.00  0.00    -0.277 N 
ATOM      8  HN  UNL     1      61.363  12.186   2.438  1.00  0.00     0.193 HD
HETATM    9  C   UNL     1      60.433   7.826   2.099  1.00  0.00     0.036 C 
HETATM   10  C   UNL     1      60.827   7.766   3.569  1.00  0.00     0.036 C 
HETATM   11  C   UNL     1      63.041   6.298   1.895  1.00  0.00     0.270 C 
HETATM   12  H   UNL     1      63.706   8.137   1.921  1.00  0.00     0.280 HD
ENDROOT
BRANCH   7  13
HETATM   13  O   UNL     1      61.941  12.057   4.369  1.00  0.00    -0.290 OA
HETATM   14  H   UNL     1      61.531  11.649   5.106  1.00  0.00     0.244 HD
ENDBRANCH   7  13
TORSDOF 1
ENDMDL
MODEL 5
REMARK VINA RESULT:      -4.3      1.710      2.658
REMARK  1 active torsions:
REMARK  status: ('A' for Active; 'I' for Inactive)
REMARK    1  A    between atoms: N_7  and  O_11 
ROOT
HETATM    1  N   UNL     1      75.060   1.084  18.329  1.00  0.00    -0.066 N 
HETATM    2  C   UNL     1      76.510   0.939  18.155  1.00  0.00     0.193 C 
HETATM    3  C   UNL     1      74.679   1.768  17.078  1.00  0.00     0.193 C 
HETATM    4  C   UNL     1      76.493   3.414  17.611  1.00  0.00     0.013 C 
HETATM    5  C   UNL     1      77.170   2.319  18.403  1.00  0.00     0.087 C 
HETATM    6  C   UNL     1      75.024   3.257  17.260  1.00  0.00     0.087 C 
HETATM    7  N   UNL     1      77.131   4.506  17.355  1.00  0.00    -0.277 N 
ATOM      8  HN  UNL     1      78.099   4.601  17.662  1.00  0.00     0.193 HD
HETATM    9  C   UNL     1      76.684   0.467  16.712  1.00  0.00     0.036 C 
HETATM   10  C   UNL     1      75.564   1.171  15.957  1.00  0.00     0.036 C 
HETATM   11  C   UNL     1      74.334  -0.183  18.509  1.00  0.00     0.270 C 
HETATM   12  H   UNL     1      74.820   1.587  19.184  1.00  0.00     0.280 HD
ENDROOT
BRANCH   7  13
HETATM   13  O   UNL     1      76.563   5.498  16.707  1.00  0.00    -0.290 OA
HETATM   14  H   UNL     1      77.084   6.074  16.182  1.00  0.00     0.244 HD
ENDBRANCH   7  13
TORSDOF 1
ENDMDL
MODEL 6
REMARK VINA RESULT:      -4.3     12.526     13.546
REMARK  1 active torsions:
REMARK  status: ('A' for Active; 'I' for Inactive)
REMARK    1  A    between atoms: N_7  and  O_11 
ROOT
HETATM    1  N   UNL     1      67.474   3.570   9.192  1.00  0.00    -0.066 N 
HETATM    2  C   UNL     1      68.485   4.634   9.189  1.00  0.00     0.193 C 
HETATM    3  C   UNL     1      66.979   3.629   7.804  1.00  0.00     0.193 C 
HETATM    4  C   UNL     1      66.667   6.087   8.185  1.00  0.00     0.013 C 
HETATM    5  C   UNL     1      67.754   6.000   9.233  1.00  0.00     0.087 C 
HETATM    6  C   UNL     1      65.990   4.806   7.732  1.00  0.00     0.087 C 
HETATM    7  N   UNL     1      66.252   7.242   7.789  1.00  0.00    -0.277 N 
ATOM      8  HN  UNL     1      66.690   8.084   8.165  1.00  0.00     0.193 HD
HETATM    9  C   UNL     1      69.257   4.434   7.885  1.00  0.00     0.036 C 
HETATM   10  C   UNL     1      68.203   3.934   6.907  1.00  0.00     0.036 C 
HETATM   11  C   UNL     1      67.989   2.236   9.539  1.00  0.00     0.270 C 
HETATM   12  H   UNL     1      66.762   3.713   9.910  1.00  0.00     0.280 HD
ENDROOT
BRANCH   7  13
HETATM   13  O   UNL     1      65.280   7.360   6.913  1.00  0.00    -0.290 OA
HETATM   14  H   UNL     1      64.669   8.068   6.984  1.00  0.00     0.244 HD
ENDBRANCH   7  13
TORSDOF 1
ENDMDL
MODEL 7
REMARK VINA RESULT:      -4.2     14.203     15.149
REMARK  1 active torsions:
REMARK  status: ('A' for Active; 'I' for Inactive)
REMARK    1  A    between atoms: N_7  and  O_11 
ROOT
HETATM    1  N   UNL     1      77.335  11.404   4.822  1.00  0.00    -0.066 N 
HETATM    2  C   UNL     1      77.880  10.113   5.257  1.00  0.00     0.193 C 
HETATM    3  C   UNL     1      77.999  12.335   5.755  1.00  0.00     0.193 C 
HETATM    4  C   UNL     1      77.187  10.829   7.587  1.00  0.00     0.013 C 
HETATM    5  C   UNL     1      77.174   9.706   6.575  1.00  0.00     0.087 C 
HETATM    6  C   UNL     1      77.227  12.261   7.085  1.00  0.00     0.087 C 
HETATM    7  N   UNL     1      77.041  10.561   8.841  1.00  0.00    -0.277 N 
ATOM      8  HN  UNL     1      76.953   9.588   9.135  1.00  0.00     0.193 HD
HETATM    9  C   UNL     1      79.374  10.368   5.458  1.00  0.00     0.036 C 
HETATM   10  C   UNL     1      79.437  11.802   5.968  1.00  0.00     0.036 C 
HETATM   11  C   UNL     1      77.608  11.743   3.417  1.00  0.00     0.270 C 
HETATM   12  H   UNL     1      76.315  11.423   4.848  1.00  0.00     0.280 HD
ENDROOT
BRANCH   7  13
HETATM   13  O   UNL     1      77.002  11.512   9.747  1.00  0.00    -0.290 OA
HETATM   14  H   UNL     1      77.656  11.547  10.417  1.00  0.00     0.244 HD
ENDBRANCH   7  13
TORSDOF 1
ENDMDL
MODEL 8
REMARK VINA RESULT:      -4.1     14.249     15.235
REMARK  1 active torsions:
REMARK  status: ('A' for Active; 'I' for Inactive)
REMARK    1  A    between atoms: N_7  and  O_11 
ROOT
HETATM    1  N   UNL     1      68.353   6.027   7.517  1.00  0.00    -0.066 N 
HETATM    2  C   UNL     1      67.800   5.303   6.366  1.00  0.00     0.193 C 
HETATM    3  C   UNL     1      67.130   6.567   8.141  1.00  0.00     0.193 C 
HETATM    4  C   UNL     1      66.546   7.449   5.868  1.00  0.00     0.013 C 
HETATM    5  C   UNL     1      67.394   6.339   5.288  1.00  0.00     0.087 C 
HETATM    6  C   UNL     1      66.727   7.812   7.331  1.00  0.00     0.087 C 
HETATM    7  N   UNL     1      65.783   8.142   5.093  1.00  0.00    -0.277 N 
ATOM      8  HN  UNL     1      65.736   7.908   4.101  1.00  0.00     0.193 HD
HETATM    9  C   UNL     1      66.594   4.548   6.924  1.00  0.00     0.036 C 
HETATM   10  C   UNL     1      66.036   5.482   7.990  1.00  0.00     0.036 C 
HETATM   11  C   UNL     1      69.129   5.196   8.449  1.00  0.00     0.270 C 
HETATM   12  H   UNL     1      69.040   6.729   7.239  1.00  0.00     0.280 HD
ENDROOT
BRANCH   7  13
HETATM   13  O   UNL     1      65.064   9.142   5.551  1.00  0.00    -0.290 OA
HETATM   14  H   UNL     1      65.019   9.302   6.474  1.00  0.00     0.244 HD
ENDBRANCH   7  13
TORSDOF 1
ENDMDL
MODEL 9
REMARK VINA RESULT:      -4.1      9.998     11.372
REMARK  1 active torsions:
REMARK  status: ('A' for Active; 'I' for Inactive)
REMARK    1  A    between atoms: N_7  and  O_11 
ROOT
HETATM    1  N   UNL     1      80.283   0.351   6.683  1.00  0.00    -0.066 N 
HETATM    2  C   UNL     1      80.266   1.435   5.694  1.00  0.00     0.193 C 
HETATM    3  C   UNL     1      78.896   0.388   7.185  1.00  0.00     0.193 C 
HETATM    4  C   UNL     1      79.258   2.843   7.545  1.00  0.00     0.013 C 
HETATM    5  C   UNL     1      80.301   2.787   6.452  1.00  0.00     0.087 C 
HETATM    6  C   UNL     1      78.819   1.545   8.198  1.00  0.00     0.087 C 
HETATM    7  N   UNL     1      78.854   3.987   7.984  1.00  0.00    -0.277 N 
ATOM      8  HN  UNL     1      79.220   4.840   7.562  1.00  0.00     0.193 HD
HETATM    9  C   UNL     1      78.961   1.240   4.923  1.00  0.00     0.036 C 
HETATM   10  C   UNL     1      77.991   0.710   5.971  1.00  0.00     0.036 C 
HETATM   11  C   UNL     1      80.639  -0.969   6.141  1.00  0.00     0.270 C 
HETATM   12  H   UNL     1      81.002   0.487   7.395  1.00  0.00     0.280 HD
ENDROOT
BRANCH   7  13
HETATM   13  O   UNL     1      77.981   4.078   8.962  1.00  0.00    -0.290 OA
HETATM   14  H   UNL     1      77.085   4.277   8.774  1.00  0.00     0.244 HD
ENDBRANCH   7  13
TORSDOF 1
ENDMDL
