MODEL 1
REMARK VINA RESULT:      -5.4      0.000      0.000
REMARK  2 active torsions:
REMARK  status: ('A' for Active; 'I' for Inactive)
REMARK    1  A    between atoms: C_1  and  C_3 
REMARK    2  A    between atoms: C_3  and  O_10 
ROOT
HETATM    1  C   UNL     1      62.786   9.511   4.137  1.00  0.00     0.067 A 
HETATM    2  C   UNL     1      62.632   8.882   2.888  1.00  0.00     0.058 A 
HETATM    3  N   UNL     1      62.929   7.592   2.494  1.00  0.00    -0.364 N 
HETATM    4  C   UNL     1      62.598   7.408   1.179  1.00  0.00     0.089 A 
HETATM    5  C   UNL     1      62.106   9.535   1.772  1.00  0.00    -0.007 A 
HETATM    6  C   UNL     1      62.093   8.597   0.702  1.00  0.00     0.030 A 
HETATM    7  C   UNL     1      62.377  10.854   4.232  1.00  0.00     0.020 A 
HETATM    8  C   UNL     1      61.854  11.528   3.129  1.00  0.00     0.002 A 
HETATM    9  C   UNL     1      61.717  10.882   1.896  1.00  0.00     0.014 A 
HETATM   10  H   UNL     1      63.324   6.903   3.076  1.00  0.00     0.165 HD
ENDROOT
BRANCH   1  11
HETATM   11  C   UNL     1      63.357   8.751   5.279  1.00  0.00     0.295 C 
HETATM   12  O   UNL     1      62.776   7.827   5.828  1.00  0.00    -0.259 OA
BRANCH  11  13
HETATM   13  O   UNL     1      64.586   9.225   5.605  1.00  0.00    -0.322 OA
HETATM   14  C   UNL     1      65.624   8.246   5.552  1.00  0.00     0.213 C 
ENDBRANCH  11  13
ENDBRANCH   1  11
TORSDOF 2
ENDMDL
MODEL 2
REMARK VINA RESULT:      -5.3      1.999      3.534
REMARK  2 active torsions:
REMARK  status: ('A' for Active; 'I' for Inactive)
REMARK    1  A    between atoms: C_1  and  C_3 
REMARK    2  A    between atoms: C_3  and  O_10 
ROOT
HETATM    1  C   UNL     1      64.630   8.044   4.816  1.00  0.00     0.067 A 
HETATM    2  C   UNL     1      63.753   9.144   4.790  1.00  0.00     0.058 A 
HETATM    3  N   UNL     1      63.661  10.235   5.631  1.00  0.00    -0.364 N 
HETATM    4  C   UNL     1      62.661  11.072   5.215  1.00  0.00     0.089 A 
HETATM    5  C   UNL     1      62.763   9.297   3.818  1.00  0.00    -0.007 A 
HETATM    6  C   UNL     1      62.081  10.514   4.099  1.00  0.00     0.030 A 
HETATM    7  C   UNL     1      64.481   7.081   3.802  1.00  0.00     0.020 A 
HETATM    8  C   UNL     1      63.497   7.212   2.823  1.00  0.00     0.002 A 
HETATM    9  C   UNL     1      62.631   8.311   2.822  1.00  0.00     0.014 A 
HETATM   10  H   UNL     1      64.232  10.388   6.418  1.00  0.00     0.165 HD
ENDROOT
BRANCH   1  11
HETATM   11  C   UNL     1      65.657   7.948   5.887  1.00  0.00     0.295 C 
HETATM   12  O   UNL     1      66.161   8.923   6.423  1.00  0.00    -0.259 OA
BRANCH  11  13
HETATM   13  O   UNL     1      65.935   6.651   6.169  1.00  0.00    -0.322 OA
HETATM   14  C   UNL     1      65.681   6.279   7.524  1.00  0.00     0.213 C 
ENDBRANCH  11  13
ENDBRANCH   1  11
TORSDOF 2
ENDMDL
MODEL 3
REMARK VINA RESULT:      -5.3     19.844     21.418
REMARK  2 active torsions:
REMARK  status: ('A' for Active; 'I' for Inactive)
REMARK    1  A    between atoms: C_1  and  C_3 
REMARK    2  A    between atoms: C_3  and  O_10 
ROOT
HETATM    1  C   UNL     1      76.836   2.046  18.380  1.00  0.00     0.067 A 
HETATM    2  C   UNL     1      76.565   3.333  17.881  1.00  0.00     0.058 A 
HETATM    3  N   UNL     1      77.199   4.536  18.118  1.00  0.00    -0.364 N 
HETATM    4  C   UNL     1      76.601   5.538  17.402  1.00  0.00     0.089 A 
HETATM    5  C   UNL     1      75.521   3.594  16.991  1.00  0.00    -0.007 A 
HETATM    6  C   UNL     1      75.554   4.986  16.700  1.00  0.00     0.030 A 
HETATM    7  C   UNL     1      76.005   1.000  17.941  1.00  0.00     0.020 A 
HETATM    8  C   UNL     1      74.954   1.238  17.056  1.00  0.00     0.002 A 
HETATM    9  C   UNL     1      74.700   2.528  16.578  1.00  0.00     0.014 A 
HETATM   10  H   UNL     1      77.971   4.657  18.717  1.00  0.00     0.165 HD
ENDROOT
BRANCH   1  11
HETATM   11  C   UNL     1      77.964   1.847  19.328  1.00  0.00     0.295 C 
HETATM   12  O   UNL     1      78.173   2.577  20.285  1.00  0.00    -0.259 OA
BRANCH  11  13
HETATM   13  O   UNL     1      78.700   0.763  18.978  1.00  0.00    -0.322 OA
HETATM   14  C   UNL     1      79.182   0.001  20.085  1.00  0.00     0.213 C 
ENDBRANCH  11  13
ENDBRANCH   1  11
TORSDOF 2
ENDMDL
MODEL 4
REMARK VINA RESULT:      -5.3     19.496     21.298
REMARK  2 active torsions:
REMARK  status: ('A' for Active; 'I' for Inactive)
REMARK    1  A    between atoms: C_1  and  C_3 
REMARK    2  A    between atoms: C_3  and  O_10 
ROOT
HETATM    1  C   UNL     1      76.145   2.926  17.557  1.00  0.00     0.067 A 
HETATM    2  C   UNL     1      76.997   1.999  18.185  1.00  0.00     0.058 A 
HETATM    3  N   UNL     1      78.122   2.200  18.959  1.00  0.00    -0.364 N 
HETATM    4  C   UNL     1      78.631   1.000  19.378  1.00  0.00     0.089 A 
HETATM    5  C   UNL     1      76.801   0.619  18.105  1.00  0.00    -0.007 A 
HETATM    6  C   UNL     1      77.839   0.002  18.858  1.00  0.00     0.030 A 
HETATM    7  C   UNL     1      75.057   2.408  16.832  1.00  0.00     0.020 A 
HETATM    8  C   UNL     1      74.845   1.034  16.735  1.00  0.00     0.002 A 
HETATM    9  C   UNL     1      75.710   0.131  17.362  1.00  0.00     0.014 A 
HETATM   10  H   UNL     1      78.504   3.080  19.179  1.00  0.00     0.165 HD
ENDROOT
BRANCH   1  11
HETATM   11  C   UNL     1      76.420   4.382  17.685  1.00  0.00     0.295 C 
HETATM   12  O   UNL     1      77.014   4.872  18.634  1.00  0.00    -0.259 OA
BRANCH  11  13
HETATM   13  O   UNL     1      75.929   5.059  16.618  1.00  0.00    -0.322 OA
HETATM   14  C   UNL     1      76.742   6.153  16.193  1.00  0.00     0.213 C 
ENDBRANCH  11  13
ENDBRANCH   1  11
TORSDOF 2
ENDMDL
MODEL 5
REMARK VINA RESULT:      -5.0      3.990      7.336
REMARK  2 active torsions:
REMARK  status: ('A' for Active; 'I' for Inactive)
REMARK    1  A    between atoms: C_1  and  C_3 
REMARK    2  A    between atoms: C_3  and  O_10 
ROOT
HETATM    1  C   UNL     1      66.944   6.754   6.020  1.00  0.00     0.067 A 
HETATM    2  C   UNL     1      67.476   6.182   7.190  1.00  0.00     0.058 A 
HETATM    3  N   UNL     1      67.660   6.725   8.446  1.00  0.00    -0.364 N 
HETATM    4  C   UNL     1      68.201   5.793   9.291  1.00  0.00     0.089 A 
HETATM    5  C   UNL     1      67.932   4.864   7.246  1.00  0.00    -0.007 A 
HETATM    6  C   UNL     1      68.388   4.633   8.574  1.00  0.00     0.030 A 
HETATM    7  C   UNL     1      66.876   5.935   4.879  1.00  0.00     0.020 A 
HETATM    8  C   UNL     1      67.330   4.616   4.911  1.00  0.00     0.002 A 
HETATM    9  C   UNL     1      67.861   4.072   6.085  1.00  0.00     0.014 A 
HETATM   10  H   UNL     1      67.435   7.649   8.698  1.00  0.00     0.165 HD
ENDROOT
BRANCH   1  11
HETATM   11  C   UNL     1      66.482   8.168   6.036  1.00  0.00     0.295 C 
HETATM   12  O   UNL     1      66.694   8.932   6.965  1.00  0.00    -0.259 OA
BRANCH  11  13
HETATM   13  O   UNL     1      65.813   8.467   4.894  1.00  0.00    -0.322 OA
HETATM   14  C   UNL     1      64.434   8.780   5.089  1.00  0.00     0.213 C 
ENDBRANCH  11  13
ENDBRANCH   1  11
TORSDOF 2
ENDMDL
MODEL 6
REMARK VINA RESULT:      -4.8      6.442      9.650
REMARK  2 active torsions:
REMARK  status: ('A' for Active; 'I' for Inactive)
REMARK    1  A    between atoms: C_1  and  C_3 
REMARK    2  A    between atoms: C_3  and  O_10 
ROOT
HETATM    1  C   UNL     1      67.731   4.595   8.270  1.00  0.00     0.067 A 
HETATM    2  C   UNL     1      68.018   3.450   9.036  1.00  0.00     0.058 A 
HETATM    3  N   UNL     1      67.217   2.377   9.375  1.00  0.00    -0.364 N 
HETATM    4  C   UNL     1      67.922   1.478  10.128  1.00  0.00     0.089 A 
HETATM    5  C   UNL     1      69.269   3.219   9.610  1.00  0.00    -0.007 A 
HETATM    6  C   UNL     1      69.194   1.976  10.297  1.00  0.00     0.030 A 
HETATM    7  C   UNL     1      68.772   5.522   8.089  1.00  0.00     0.020 A 
HETATM    8  C   UNL     1      70.029   5.314   8.656  1.00  0.00     0.002 A 
HETATM    9  C   UNL     1      70.288   4.171   9.420  1.00  0.00     0.014 A 
HETATM   10  H   UNL     1      66.274   2.275   9.114  1.00  0.00     0.165 HD
ENDROOT
BRANCH   1  11
HETATM   11  C   UNL     1      66.372   4.773   7.694  1.00  0.00     0.295 C 
HETATM   12  O   UNL     1      65.422   4.061   7.983  1.00  0.00    -0.259 OA
BRANCH  11  13
HETATM   13  O   UNL     1      66.351   5.816   6.827  1.00  0.00    -0.322 OA
HETATM   14  C   UNL     1      65.065   6.415   6.663  1.00  0.00     0.213 C 
ENDBRANCH  11  13
ENDBRANCH   1  11
TORSDOF 2
ENDMDL
MODEL 7
REMARK VINA RESULT:      -4.7      2.433      4.057
REMARK  2 active torsions:
REMARK  status: ('A' for Active; 'I' for Inactive)
REMARK    1  A    between atoms: C_1  and  C_3 
REMARK    2  A    between atoms: C_3  and  O_10 
ROOT
HETATM    1  C   UNL     1      62.197   9.479   2.608  1.00  0.00     0.067 A 
HETATM    2  C   UNL     1      63.053   8.653   3.359  1.00  0.00     0.058 A 
HETATM    3  N   UNL     1      63.592   7.418   3.060  1.00  0.00    -0.364 N 
HETATM    4  C   UNL     1      64.389   6.986   4.087  1.00  0.00     0.089 A 
HETATM    5  C   UNL     1      63.519   9.003   4.628  1.00  0.00    -0.007 A 
HETATM    6  C   UNL     1      64.356   7.943   5.075  1.00  0.00     0.030 A 
HETATM    7  C   UNL     1      61.819  10.705   3.186  1.00  0.00     0.020 A 
HETATM    8  C   UNL     1      62.269  11.073   4.453  1.00  0.00     0.002 A 
HETATM    9  C   UNL     1      63.115  10.231   5.184  1.00  0.00     0.014 A 
HETATM   10  H   UNL     1      63.427   6.918   2.228  1.00  0.00     0.165 HD
ENDROOT
BRANCH   1  11
HETATM   11  C   UNL     1      61.739   9.037   1.265  1.00  0.00     0.295 C 
HETATM   12  O   UNL     1      62.497   8.855   0.324  1.00  0.00    -0.259 OA
BRANCH  11  13
HETATM   13  O   UNL     1      60.393   8.870   1.247  1.00  0.00    -0.322 OA
HETATM   14  C   UNL     1      59.942   7.848   0.358  1.00  0.00     0.213 C 
ENDBRANCH  11  13
ENDBRANCH   1  11
TORSDOF 2
ENDMDL
MODEL 8
REMARK VINA RESULT:      -4.5     19.357     20.992
REMARK  2 active torsions:
REMARK  status: ('A' for Active; 'I' for Inactive)
REMARK    1  A    between atoms: C_1  and  C_3 
REMARK    2  A    between atoms: C_3  and  O_10 
ROOT
HETATM    1  C   UNL     1      74.942   1.338  17.170  1.00  0.00     0.067 A 
HETATM    2  C   UNL     1      76.125   1.118  17.899  1.00  0.00     0.058 A 
HETATM    3  N   UNL     1      76.651  -0.048  18.420  1.00  0.00    -0.364 N 
HETATM    4  C   UNL     1      77.841   0.207  19.048  1.00  0.00     0.089 A 
HETATM    5  C   UNL     1      77.013   2.144  18.225  1.00  0.00    -0.007 A 
HETATM    6  C   UNL     1      78.087   1.558  18.950  1.00  0.00     0.030 A 
HETATM    7  C   UNL     1      74.676   2.657  16.762  1.00  0.00     0.020 A 
HETATM    8  C   UNL     1      75.547   3.699  17.080  1.00  0.00     0.002 A 
HETATM    9  C   UNL     1      76.714   3.456  17.812  1.00  0.00     0.014 A 
HETATM   10  H   UNL     1      76.231  -0.935  18.351  1.00  0.00     0.165 HD
ENDROOT
BRANCH   1  11
HETATM   11  C   UNL     1      74.043   0.194  16.864  1.00  0.00     0.295 C 
HETATM   12  O   UNL     1      73.763  -0.155  15.727  1.00  0.00    -0.259 OA
BRANCH  11  13
HETATM   13  O   UNL     1      73.598  -0.386  18.007  1.00  0.00    -0.322 OA
HETATM   14  C   UNL     1      72.999  -1.668  17.818  1.00  0.00     0.213 C 
ENDBRANCH  11  13
ENDBRANCH   1  11
TORSDOF 2
ENDMDL
MODEL 9
REMARK VINA RESULT:      -4.5      4.095      7.315
REMARK  2 active torsions:
REMARK  status: ('A' for Active; 'I' for Inactive)
REMARK    1  A    between atoms: C_1  and  C_3 
REMARK    2  A    between atoms: C_3  and  O_10 
ROOT
HETATM    1  C   UNL     1      66.909   6.522   7.483  1.00  0.00     0.067 A 
HETATM    2  C   UNL     1      67.216   5.386   6.711  1.00  0.00     0.058 A 
HETATM    3  N   UNL     1      66.840   5.050   5.426  1.00  0.00    -0.364 N 
HETATM    4  C   UNL     1      67.387   3.847   5.069  1.00  0.00     0.089 A 
HETATM    5  C   UNL     1      68.020   4.347   7.183  1.00  0.00    -0.007 A 
HETATM    6  C   UNL     1      68.117   3.384   6.140  1.00  0.00     0.030 A 
HETATM    7  C   UNL     1      67.457   6.584   8.777  1.00  0.00     0.020 A 
HETATM    8  C   UNL     1      68.259   5.556   9.270  1.00  0.00     0.002 A 
HETATM    9  C   UNL     1      68.544   4.433   8.486  1.00  0.00     0.014 A 
HETATM   10  H   UNL     1      66.260   5.597   4.848  1.00  0.00     0.165 HD
ENDROOT
BRANCH   1  11
HETATM   11  C   UNL     1      66.042   7.587   6.913  1.00  0.00     0.295 C 
HETATM   12  O   UNL     1      66.457   8.690   6.592  1.00  0.00    -0.259 OA
BRANCH  11  13
HETATM   13  O   UNL     1      64.761   7.156   6.805  1.00  0.00    -0.322 OA
HETATM   14  C   UNL     1      64.086   7.613   5.632  1.00  0.00     0.213 C 
ENDBRANCH  11  13
ENDBRANCH   1  11
TORSDOF 2
ENDMDL
