MODEL 1
REMARK VINA RESULT:      -4.9      0.000      0.000
REMARK  0 active torsions:
REMARK  status: ('A' for Active; 'I' for Inactive)
ROOT
HETATM    1  C   UNL     1      61.683   8.140   2.162  1.00  0.00     0.056 C 
HETATM    2  C   UNL     1      61.703   9.615   4.138  1.00  0.00     0.056 C 
HETATM    3  C   UNL     1      62.999   7.515   2.560  1.00  0.00     0.131 C 
HETATM    4  C   UNL     1      61.887  10.847   3.277  1.00  0.00     0.131 C 
HETATM    5  C   UNL     1      60.910   8.560   3.393  1.00  0.00     0.024 C 
HETATM    6  C   UNL     1      62.076  10.692   1.784  1.00  0.00     0.079 C 
HETATM    7  C   UNL     1      63.791   8.120   3.703  1.00  0.00     0.079 C 
HETATM    8  O   UNL     1      63.482   6.590   1.899  1.00  0.00    -0.298 OA
HETATM    9  O   UNL     1      61.960  11.963   3.797  1.00  0.00    -0.298 OA
HETATM   10  C   UNL     1      63.050   9.086   4.627  1.00  0.00     0.019 C 
HETATM   11  C   UNL     1      61.900   9.297   1.185  1.00  0.00     0.019 C 
ENDROOT
TORSDOF 0
ENDMDL
MODEL 2
REMARK VINA RESULT:      -4.9      0.113      3.819
REMARK  0 active torsions:
REMARK  status: ('A' for Active; 'I' for Inactive)
ROOT
HETATM    1  C   UNL     1      61.772   9.589   4.112  1.00  0.00     0.056 C 
HETATM    2  C   UNL     1      61.668   8.041   2.196  1.00  0.00     0.056 C 
HETATM    3  C   UNL     1      61.894  10.785   3.198  1.00  0.00     0.131 C 
HETATM    4  C   UNL     1      63.014   7.441   2.543  1.00  0.00     0.131 C 
HETATM    5  C   UNL     1      60.952   8.503   3.450  1.00  0.00     0.024 C 
HETATM    6  C   UNL     1      63.818   8.025   3.685  1.00  0.00     0.079 C 
HETATM    7  C   UNL     1      62.109  10.562   1.714  1.00  0.00     0.079 C 
HETATM    8  O   UNL     1      61.927  11.930   3.660  1.00  0.00    -0.298 OA
HETATM    9  O   UNL     1      63.487   6.536   1.854  1.00  0.00    -0.298 OA
HETATM   10  C   UNL     1      61.819   9.163   1.171  1.00  0.00     0.019 C 
HETATM   11  C   UNL     1      63.151   9.093   4.552  1.00  0.00     0.019 C 
ENDROOT
TORSDOF 0
ENDMDL
MODEL 3
REMARK VINA RESULT:      -4.7      6.133      8.061
REMARK  0 active torsions:
REMARK  status: ('A' for Active; 'I' for Inactive)
ROOT
HETATM    1  C   UNL     1      66.197   6.787   7.766  1.00  0.00     0.056 C 
HETATM    2  C   UNL     1      67.099   4.820   6.585  1.00  0.00     0.056 C 
HETATM    3  C   UNL     1      66.630   7.711   6.652  1.00  0.00     0.131 C 
HETATM    4  C   UNL     1      68.180   4.628   7.627  1.00  0.00     0.131 C 
HETATM    5  C   UNL     1      65.857   5.421   7.212  1.00  0.00     0.024 C 
HETATM    6  C   UNL     1      68.326   5.638   8.744  1.00  0.00     0.079 C 
HETATM    7  C   UNL     1      67.515   7.172   5.546  1.00  0.00     0.079 C 
HETATM    8  O   UNL     1      66.359   8.915   6.693  1.00  0.00    -0.298 OA
HETATM    9  O   UNL     1      68.984   3.699   7.525  1.00  0.00    -0.298 OA
HETATM   10  C   UNL     1      67.615   5.653   5.412  1.00  0.00     0.019 C 
HETATM   11  C   UNL     1      67.257   6.723   8.868  1.00  0.00     0.019 C 
ENDROOT
TORSDOF 0
ENDMDL
MODEL 4
REMARK VINA RESULT:      -4.7      6.133      7.314
REMARK  0 active torsions:
REMARK  status: ('A' for Active; 'I' for Inactive)
ROOT
HETATM    1  C   UNL     1      67.032   4.704   6.816  1.00  0.00     0.056 C 
HETATM    2  C   UNL     1      66.102   6.755   7.818  1.00  0.00     0.056 C 
HETATM    3  C   UNL     1      68.062   4.580   7.914  1.00  0.00     0.131 C 
HETATM    4  C   UNL     1      66.591   7.602   6.662  1.00  0.00     0.131 C 
HETATM    5  C   UNL     1      65.773   5.352   7.348  1.00  0.00     0.024 C 
HETATM    6  C   UNL     1      67.432   6.966   5.577  1.00  0.00     0.079 C 
HETATM    7  C   UNL     1      68.232   5.719   8.900  1.00  0.00     0.079 C 
HETATM    8  O   UNL     1      68.831   3.615   7.949  1.00  0.00    -0.298 OA
HETATM    9  O   UNL     1      66.372   8.815   6.644  1.00  0.00    -0.298 OA
HETATM   10  C   UNL     1      67.114   6.758   8.963  1.00  0.00     0.019 C 
HETATM   11  C   UNL     1      67.607   5.448   5.608  1.00  0.00     0.019 C 
ENDROOT
TORSDOF 0
ENDMDL
MODEL 5
REMARK VINA RESULT:      -4.5      2.237      3.231
REMARK  0 active torsions:
REMARK  status: ('A' for Active; 'I' for Inactive)
ROOT
HETATM    1  C   UNL     1      63.520   8.757   5.132  1.00  0.00     0.056 C 
HETATM    2  C   UNL     1      62.735   8.054   2.903  1.00  0.00     0.056 C 
HETATM    3  C   UNL     1      62.599   7.774   5.816  1.00  0.00     0.131 C 
HETATM    4  C   UNL     1      62.071   9.392   2.660  1.00  0.00     0.131 C 
HETATM    5  C   UNL     1      63.955   8.218   3.787  1.00  0.00     0.024 C 
HETATM    6  C   UNL     1      62.055  10.427   3.763  1.00  0.00     0.079 C 
HETATM    7  C   UNL     1      61.558   7.039   4.993  1.00  0.00     0.079 C 
HETATM    8  O   UNL     1      62.615   7.646   7.044  1.00  0.00    -0.298 OA
HETATM    9  O   UNL     1      61.482   9.609   1.599  1.00  0.00    -0.298 OA
HETATM   10  C   UNL     1      61.739   7.047   3.476  1.00  0.00     0.019 C 
HETATM   11  C   UNL     1      62.866  10.136   5.026  1.00  0.00     0.019 C 
ENDROOT
TORSDOF 0
ENDMDL
MODEL 6
REMARK VINA RESULT:      -4.4     19.500     21.113
REMARK  0 active torsions:
REMARK  status: ('A' for Active; 'I' for Inactive)
ROOT
HETATM    1  C   UNL     1      76.412   0.614  17.946  1.00  0.00     0.056 C 
HETATM    2  C   UNL     1      74.278   0.990  16.770  1.00  0.00     0.056 C 
HETATM    3  C   UNL     1      76.670   2.099  18.047  1.00  0.00     0.131 C 
HETATM    4  C   UNL     1      74.823   0.396  15.488  1.00  0.00     0.131 C 
HETATM    5  C   UNL     1      74.925   0.337  17.975  1.00  0.00     0.024 C 
HETATM    6  C   UNL     1      76.276  -0.018  15.418  1.00  0.00     0.079 C 
HETATM    7  C   UNL     1      75.772   3.059  17.293  1.00  0.00     0.079 C 
HETATM    8  O   UNL     1      77.662   2.525  18.647  1.00  0.00    -0.298 OA
HETATM    9  O   UNL     1      74.110   0.322  14.485  1.00  0.00    -0.298 OA
HETATM   10  C   UNL     1      74.442   2.509  16.779  1.00  0.00     0.019 C 
HETATM   11  C   UNL     1      77.092   0.023  16.710  1.00  0.00     0.019 C 
ENDROOT
TORSDOF 0
ENDMDL
MODEL 7
REMARK VINA RESULT:      -4.2      1.501      3.714
REMARK  0 active torsions:
REMARK  status: ('A' for Active; 'I' for Inactive)
ROOT
HETATM    1  C   UNL     1      61.752   9.095   3.004  1.00  0.00     0.056 C 
HETATM    2  C   UNL     1      63.509   7.611   3.892  1.00  0.00     0.056 C 
HETATM    3  C   UNL     1      62.137  10.198   3.961  1.00  0.00     0.131 C 
HETATM    4  C   UNL     1      62.483   6.667   4.482  1.00  0.00     0.131 C 
HETATM    5  C   UNL     1      62.966   8.270   2.639  1.00  0.00     0.024 C 
HETATM    6  C   UNL     1      61.014   7.021   4.406  1.00  0.00     0.079 C 
HETATM    7  C   UNL     1      63.133   9.905   5.066  1.00  0.00     0.079 C 
HETATM    8  O   UNL     1      61.572  11.295   3.917  1.00  0.00    -0.298 OA
HETATM    9  O   UNL     1      62.845   5.657   5.088  1.00  0.00    -0.298 OA
HETATM   10  C   UNL     1      63.970   8.634   4.929  1.00  0.00     0.019 C 
HETATM   11  C   UNL     1      60.618   8.243   3.578  1.00  0.00     0.019 C 
ENDROOT
TORSDOF 0
ENDMDL
MODEL 8
REMARK VINA RESULT:      -3.9     12.937     14.133
REMARK  0 active torsions:
REMARK  status: ('A' for Active; 'I' for Inactive)
ROOT
HETATM    1  C   UNL     1      59.293   1.812  13.098  1.00  0.00     0.056 C 
HETATM    2  C   UNL     1      57.662   0.308  14.175  1.00  0.00     0.056 C 
HETATM    3  C   UNL     1      58.268   2.273  12.088  1.00  0.00     0.131 C 
HETATM    4  C   UNL     1      58.416  -0.921  13.712  1.00  0.00     0.131 C 
HETATM    5  C   UNL     1      58.618   1.462  14.406  1.00  0.00     0.024 C 
HETATM    6  C   UNL     1      59.619  -0.761  12.809  1.00  0.00     0.079 C 
HETATM    7  C   UNL     1      56.933   1.559  12.010  1.00  0.00     0.079 C 
HETATM    8  O   UNL     1      58.548   3.147  11.262  1.00  0.00    -0.298 OA
HETATM    9  O   UNL     1      58.007  -2.047  14.004  1.00  0.00    -0.298 OA
HETATM   10  C   UNL     1      56.550   0.668  13.191  1.00  0.00     0.019 C 
HETATM   11  C   UNL     1      60.127   0.656  12.543  1.00  0.00     0.019 C 
ENDROOT
TORSDOF 0
ENDMDL
MODEL 9
REMARK VINA RESULT:      -3.9     19.861     21.637
REMARK  0 active torsions:
REMARK  status: ('A' for Active; 'I' for Inactive)
ROOT
HETATM    1  C   UNL     1      75.839  -0.624  15.729  1.00  0.00     0.056 C 
HETATM    2  C   UNL     1      76.973   0.782  17.406  1.00  0.00     0.056 C 
HETATM    3  C   UNL     1      74.782   0.429  15.493  1.00  0.00     0.131 C 
HETATM    4  C   UNL     1      76.602  -0.167  18.525  1.00  0.00     0.131 C 
HETATM    5  C   UNL     1      77.152   0.025  16.105  1.00  0.00     0.024 C 
HETATM    6  C   UNL     1      75.715  -1.356  18.231  1.00  0.00     0.079 C 
HETATM    7  C   UNL     1      74.721   1.634  16.412  1.00  0.00     0.079 C 
HETATM    8  O   UNL     1      73.910   0.265  14.635  1.00  0.00    -0.298 OA
HETATM    9  O   UNL     1      76.954   0.070  19.683  1.00  0.00    -0.298 OA
HETATM   10  C   UNL     1      75.947   1.908  17.282  1.00  0.00     0.019 C 
HETATM   11  C   UNL     1      75.372  -1.645  16.769  1.00  0.00     0.019 C 
ENDROOT
TORSDOF 0
ENDMDL
