MODEL 1
REMARK VINA RESULT:      -5.0      0.000      0.000
REMARK  3 active torsions:
REMARK  status: ('A' for Active; 'I' for Inactive)
REMARK    1  A    between atoms: C_3  and  C_5 
REMARK    2  A    between atoms: N_4  and  C_7 
REMARK    3  A    between atoms: C_5  and  C_7 
ROOT
HETATM    1  N   UNL     1      72.833  22.956  12.780  1.00  0.00    -0.369 N 
ATOM      2  HN  UNL     1      73.348  22.478  12.041  1.00  0.00     0.165 HD
HETATM    3  C   UNL     1      71.514  22.718  12.984  1.00  0.00     0.010 A 
HETATM    4  C   UNL     1      73.440  23.850  13.592  1.00  0.00     0.088 A 
HETATM    5  C   UNL     1      70.789  23.365  13.980  1.00  0.00     0.025 A 
HETATM    6  C   UNL     1      72.793  24.531  14.607  1.00  0.00     0.017 A 
HETATM    7  C   UNL     1      71.441  24.281  14.802  1.00  0.00     0.003 A 
ENDROOT
BRANCH   3   8
HETATM    8  C   UNL     1      70.843  21.733  12.056  1.00  0.00     0.084 C 
BRANCH   8   9
HETATM    9  C   UNL     1      71.740  21.367  10.867  1.00  0.00     0.237 C 
BRANCH   9  10
HETATM   10  N   UNL     1      71.135  20.288  10.073  1.00  0.00    -0.079 N 
HETATM   11  C   UNL     1      71.085  19.045  10.832  1.00  0.00     0.267 C 
HETATM   12  H   UNL     1      71.690  20.142   9.230  1.00  0.00     0.276 HD
HETATM   13  H   UNL     1      70.182  20.558   9.830  1.00  0.00     0.276 HD
ENDBRANCH   9  10
ENDBRANCH   8   9
ENDBRANCH   3   8
TORSDOF 3
ENDMDL
MODEL 2
REMARK VINA RESULT:      -4.9     13.737     14.577
REMARK  3 active torsions:
REMARK  status: ('A' for Active; 'I' for Inactive)
REMARK    1  A    between atoms: C_3  and  C_5 
REMARK    2  A    between atoms: N_4  and  C_7 
REMARK    3  A    between atoms: C_5  and  C_7 
ROOT
HETATM    1  N   UNL     1      77.979  11.276  20.601  1.00  0.00    -0.369 N 
ATOM      2  HN  UNL     1      78.650  10.700  21.108  1.00  0.00     0.165 HD
HETATM    3  C   UNL     1      77.645  11.000  19.317  1.00  0.00     0.010 A 
HETATM    4  C   UNL     1      77.390  12.344  21.185  1.00  0.00     0.088 A 
HETATM    5  C   UNL     1      76.739  11.779  18.602  1.00  0.00     0.025 A 
HETATM    6  C   UNL     1      76.477  13.164  20.547  1.00  0.00     0.017 A 
HETATM    7  C   UNL     1      76.148  12.872  19.230  1.00  0.00     0.003 A 
ENDROOT
BRANCH   3   8
HETATM    8  C   UNL     1      78.326   9.818  18.669  1.00  0.00     0.084 C 
BRANCH   8   9
HETATM    9  C   UNL     1      77.455   9.189  17.574  1.00  0.00     0.237 C 
BRANCH   9  10
HETATM   10  N   UNL     1      76.664   8.075  18.116  1.00  0.00    -0.079 N 
HETATM   11  C   UNL     1      76.969   6.830  17.422  1.00  0.00     0.267 C 
HETATM   12  H   UNL     1      75.672   8.284  18.004  1.00  0.00     0.276 HD
HETATM   13  H   UNL     1      76.897   7.961  19.103  1.00  0.00     0.276 HD
ENDBRANCH   9  10
ENDBRANCH   8   9
ENDBRANCH   3   8
TORSDOF 3
ENDMDL
MODEL 3
REMARK VINA RESULT:      -4.9     14.387     15.293
REMARK  3 active torsions:
REMARK  status: ('A' for Active; 'I' for Inactive)
REMARK    1  A    between atoms: C_3  and  C_5 
REMARK    2  A    between atoms: N_4  and  C_7 
REMARK    3  A    between atoms: C_5  and  C_7 
ROOT
HETATM    1  N   UNL     1      78.326  11.396  20.205  1.00  0.00    -0.369 N 
ATOM      2  HN  UNL     1      79.057  10.730  20.454  1.00  0.00     0.165 HD
HETATM    3  C   UNL     1      78.148  12.540  20.912  1.00  0.00     0.010 A 
HETATM    4  C   UNL     1      77.500  11.173  19.159  1.00  0.00     0.088 A 
HETATM    5  C   UNL     1      77.151  13.459  20.597  1.00  0.00     0.025 A 
HETATM    6  C   UNL     1      76.490  12.037  18.777  1.00  0.00     0.017 A 
HETATM    7  C   UNL     1      76.315  13.201  19.513  1.00  0.00     0.003 A 
ENDROOT
BRANCH   3   8
HETATM    8  C   UNL     1      79.063  12.768  22.091  1.00  0.00     0.084 C 
BRANCH   8   9
HETATM    9  C   UNL     1      80.348  11.936  21.985  1.00  0.00     0.237 C 
BRANCH   9  10
HETATM   10  N   UNL     1      81.484  12.656  22.579  1.00  0.00    -0.079 N 
HETATM   11  C   UNL     1      81.139  13.184  23.893  1.00  0.00     0.267 C 
HETATM   12  H   UNL     1      81.745  13.430  21.967  1.00  0.00     0.276 HD
HETATM   13  H   UNL     1      82.262  12.005  22.685  1.00  0.00     0.276 HD
ENDBRANCH   9  10
ENDBRANCH   8   9
ENDBRANCH   3   8
TORSDOF 3
ENDMDL
MODEL 4
REMARK VINA RESULT:      -4.7     13.473     14.240
REMARK  3 active torsions:
REMARK  status: ('A' for Active; 'I' for Inactive)
REMARK    1  A    between atoms: C_3  and  C_5 
REMARK    2  A    between atoms: N_4  and  C_7 
REMARK    3  A    between atoms: C_5  and  C_7 
ROOT
HETATM    1  N   UNL     1      78.851  11.237  20.416  1.00  0.00    -0.369 N 
ATOM      2  HN  UNL     1      79.633  10.615  20.618  1.00  0.00     0.165 HD
HETATM    3  C   UNL     1      78.002  10.989  19.388  1.00  0.00     0.010 A 
HETATM    4  C   UNL     1      78.622  12.340  21.164  1.00  0.00     0.088 A 
HETATM    5  C   UNL     1      76.933  11.830  19.088  1.00  0.00     0.025 A 
HETATM    6  C   UNL     1      77.581  13.222  20.935  1.00  0.00     0.017 A 
HETATM    7  C   UNL     1      76.723  12.959  19.877  1.00  0.00     0.003 A 
ENDROOT
BRANCH   3   8
HETATM    8  C   UNL     1      78.281   9.766  18.548  1.00  0.00     0.084 C 
BRANCH   8   9
HETATM    9  C   UNL     1      77.450   9.759  17.257  1.00  0.00     0.237 C 
BRANCH   9  10
HETATM   10  N   UNL     1      78.320   9.608  16.081  1.00  0.00    -0.079 N 
HETATM   11  C   UNL     1      77.721  10.226  14.906  1.00  0.00     0.267 C 
HETATM   12  H   UNL     1      78.464   8.615  15.899  1.00  0.00     0.276 HD
HETATM   13  H   UNL     1      79.209  10.070  16.273  1.00  0.00     0.276 HD
ENDBRANCH   9  10
ENDBRANCH   8   9
ENDBRANCH   3   8
TORSDOF 3
ENDMDL
MODEL 5
REMARK VINA RESULT:      -4.4     15.741     16.686
REMARK  3 active torsions:
REMARK  status: ('A' for Active; 'I' for Inactive)
REMARK    1  A    between atoms: C_3  and  C_5 
REMARK    2  A    between atoms: N_4  and  C_7 
REMARK    3  A    between atoms: C_5  and  C_7 
ROOT
HETATM    1  N   UNL     1      80.115  11.161  20.866  1.00  0.00    -0.369 N 
ATOM      2  HN  UNL     1      81.026  10.707  20.923  1.00  0.00     0.165 HD
HETATM    3  C   UNL     1      79.746  12.112  21.760  1.00  0.00     0.010 A 
HETATM    4  C   UNL     1      79.230  10.839  19.896  1.00  0.00     0.088 A 
HETATM    5  C   UNL     1      78.505  12.739  21.707  1.00  0.00     0.025 A 
HETATM    6  C   UNL     1      77.980  11.418  19.771  1.00  0.00     0.017 A 
HETATM    7  C   UNL     1      77.614  12.386  20.696  1.00  0.00     0.003 A 
ENDROOT
BRANCH   3   8
HETATM    8  C   UNL     1      80.735  12.448  22.851  1.00  0.00     0.084 C 
BRANCH   8   9
HETATM    9  C   UNL     1      80.078  12.436  24.238  1.00  0.00     0.237 C 
BRANCH   9  10
HETATM   10  N   UNL     1      81.041  12.844  25.271  1.00  0.00    -0.079 N 
HETATM   11  C   UNL     1      80.678  14.134  25.845  1.00  0.00     0.267 C 
HETATM   12  H   UNL     1      81.969  12.915  24.854  1.00  0.00     0.276 HD
HETATM   13  H   UNL     1      81.036  12.146  26.015  1.00  0.00     0.276 HD
ENDBRANCH   9  10
ENDBRANCH   8   9
ENDBRANCH   3   8
TORSDOF 3
ENDMDL
MODEL 6
REMARK VINA RESULT:      -4.1     14.463     15.671
REMARK  3 active torsions:
REMARK  status: ('A' for Active; 'I' for Inactive)
REMARK    1  A    between atoms: C_3  and  C_5 
REMARK    2  A    between atoms: N_4  and  C_7 
REMARK    3  A    between atoms: C_5  and  C_7 
ROOT
HETATM    1  N   UNL     1      76.973  11.918  19.126  1.00  0.00    -0.369 N 
ATOM      2  HN  UNL     1      76.321  12.687  19.277  1.00  0.00     0.165 HD
HETATM    3  C   UNL     1      78.062  11.754  19.917  1.00  0.00     0.010 A 
HETATM    4  C   UNL     1      76.783  11.023  18.131  1.00  0.00     0.088 A 
HETATM    5  C   UNL     1      78.970  10.717  19.724  1.00  0.00     0.025 A 
HETATM    6  C   UNL     1      77.634   9.962  17.877  1.00  0.00     0.017 A 
HETATM    7  C   UNL     1      78.748   9.810  18.691  1.00  0.00     0.003 A 
ENDROOT
BRANCH   3   8
HETATM    8  C   UNL     1      78.275  12.773  21.012  1.00  0.00     0.084 C 
BRANCH   8   9
HETATM    9  C   UNL     1      79.523  12.459  21.847  1.00  0.00     0.237 C 
BRANCH   9  10
HETATM   10  N   UNL     1      79.146  11.904  23.155  1.00  0.00    -0.079 N 
HETATM   11  C   UNL     1      80.033  12.389  24.205  1.00  0.00     0.267 C 
HETATM   12  H   UNL     1      79.203  10.887  23.115  1.00  0.00     0.276 HD
HETATM   13  H   UNL     1      78.195  12.202  23.372  1.00  0.00     0.276 HD
ENDBRANCH   9  10
ENDBRANCH   8   9
ENDBRANCH   3   8
TORSDOF 3
ENDMDL
MODEL 7
REMARK VINA RESULT:      -4.0     16.782     18.252
REMARK  3 active torsions:
REMARK  status: ('A' for Active; 'I' for Inactive)
REMARK    1  A    between atoms: C_3  and  C_5 
REMARK    2  A    between atoms: N_4  and  C_7 
REMARK    3  A    between atoms: C_5  and  C_7 
ROOT
HETATM    1  N   UNL     1      62.553   8.834   2.463  1.00  0.00    -0.369 N 
ATOM      2  HN  UNL     1      62.794   7.893   2.155  1.00  0.00     0.165 HD
HETATM    3  C   UNL     1      62.645   9.191   3.768  1.00  0.00     0.010 A 
HETATM    4  C   UNL     1      62.131   9.772   1.587  1.00  0.00     0.088 A 
HETATM    5  C   UNL     1      62.312  10.467   4.214  1.00  0.00     0.025 A 
HETATM    6  C   UNL     1      61.786  11.063   1.947  1.00  0.00     0.017 A 
HETATM    7  C   UNL     1      61.880  11.413   3.287  1.00  0.00     0.003 A 
ENDROOT
BRANCH   3   8
HETATM    8  C   UNL     1      63.097   8.128   4.741  1.00  0.00     0.084 C 
BRANCH   8   9
HETATM    9  C   UNL     1      64.625   7.991   4.766  1.00  0.00     0.237 C 
BRANCH   9  10
HETATM   10  N   UNL     1      65.177   8.565   6.003  1.00  0.00    -0.079 N 
HETATM   11  C   UNL     1      66.521   8.063   6.258  1.00  0.00     0.267 C 
HETATM   12  H   UNL     1      64.573   8.314   6.785  1.00  0.00     0.276 HD
HETATM   13  H   UNL     1      65.224   9.579   5.898  1.00  0.00     0.276 HD
ENDBRANCH   9  10
ENDBRANCH   8   9
ENDBRANCH   3   8
TORSDOF 3
ENDMDL
MODEL 8
REMARK VINA RESULT:      -4.0     16.867     18.322
REMARK  3 active torsions:
REMARK  status: ('A' for Active; 'I' for Inactive)
REMARK    1  A    between atoms: C_3  and  C_5 
REMARK    2  A    between atoms: N_4  and  C_7 
REMARK    3  A    between atoms: C_5  and  C_7 
ROOT
HETATM    1  N   UNL     1      67.037   4.179   8.856  1.00  0.00    -0.369 N 
ATOM      2  HN  UNL     1      66.022   4.098   8.910  1.00  0.00     0.165 HD
HETATM    3  C   UNL     1      67.643   5.391   8.791  1.00  0.00     0.010 A 
HETATM    4  C   UNL     1      67.827   3.083   8.845  1.00  0.00     0.088 A 
HETATM    5  C   UNL     1      69.026   5.525   8.707  1.00  0.00     0.025 A 
HETATM    6  C   UNL     1      69.208   3.131   8.769  1.00  0.00     0.017 A 
HETATM    7  C   UNL     1      69.815   4.377   8.698  1.00  0.00     0.003 A 
ENDROOT
BRANCH   3   8
HETATM    8  C   UNL     1      66.747   6.607   8.782  1.00  0.00     0.084 C 
BRANCH   8   9
HETATM    9  C   UNL     1      66.314   6.984   7.359  1.00  0.00     0.237 C 
BRANCH   9  10
HETATM   10  N   UNL     1      67.138   8.086   6.841  1.00  0.00    -0.079 N 
HETATM   11  C   UNL     1      67.599   7.803   5.488  1.00  0.00     0.267 C 
HETATM   12  H   UNL     1      67.947   8.213   7.450  1.00  0.00     0.276 HD
HETATM   13  H   UNL     1      66.570   8.934   6.819  1.00  0.00     0.276 HD
ENDBRANCH   9  10
ENDBRANCH   8   9
ENDBRANCH   3   8
TORSDOF 3
ENDMDL
MODEL 9
REMARK VINA RESULT:      -4.0     18.838     20.930
REMARK  3 active torsions:
REMARK  status: ('A' for Active; 'I' for Inactive)
REMARK    1  A    between atoms: C_3  and  C_5 
REMARK    2  A    between atoms: N_4  and  C_7 
REMARK    3  A    between atoms: C_5  and  C_7 
ROOT
HETATM    1  N   UNL     1      77.278   3.888  18.119  1.00  0.00    -0.369 N 
ATOM      2  HN  UNL     1      78.121   3.708  18.663  1.00  0.00     0.165 HD
HETATM    3  C   UNL     1      76.465   2.876  17.726  1.00  0.00     0.010 A 
HETATM    4  C   UNL     1      76.929   5.144  17.763  1.00  0.00     0.088 A 
HETATM    5  C   UNL     1      75.314   3.098  16.974  1.00  0.00     0.025 A 
HETATM    6  C   UNL     1      75.800   5.449  17.022  1.00  0.00     0.017 A 
HETATM    7  C   UNL     1      74.980   4.403  16.622  1.00  0.00     0.003 A 
ENDROOT
BRANCH   3   8
HETATM    8  C   UNL     1      76.877   1.475  18.112  1.00  0.00     0.084 C 
BRANCH   8   9
HETATM    9  C   UNL     1      76.439   0.443  17.065  1.00  0.00     0.237 C 
BRANCH   9  10
HETATM   10  N   UNL     1      77.610  -0.165  16.415  1.00  0.00    -0.079 N 
HETATM   11  C   UNL     1      77.341  -0.445  15.010  1.00  0.00     0.267 C 
HETATM   12  H   UNL     1      77.840  -1.037  16.891  1.00  0.00     0.276 HD
HETATM   13  H   UNL     1      78.390   0.491  16.471  1.00  0.00     0.276 HD
ENDBRANCH   9  10
ENDBRANCH   8   9
ENDBRANCH   3   8
TORSDOF 3
ENDMDL
