MODEL 1
REMARK VINA RESULT:      -5.6      0.000      0.000
REMARK  2 active torsions:
REMARK  status: ('A' for Active; 'I' for Inactive)
REMARK    1  A    between atoms: N_1  and  O_8 
REMARK    2  A    between atoms: C_5  and  C_7 
ROOT
HETATM    1  N   UNL     1      63.549   7.092   4.339  1.00  0.00    -0.156 NA
HETATM    2  N   UNL     1      64.515   8.823   5.428  1.00  0.00    -0.360 N 
HETATM    3  C   UNL     1      64.592   6.480   5.216  1.00  0.00     0.086 C 
HETATM    4  C   UNL     1      65.289   7.730   5.760  1.00  0.00     0.099 C 
HETATM    5  C   UNL     1      63.248   8.416   4.910  1.00  0.00     0.218 C 
HETATM    6  S   UNL     1      66.682   7.836   6.652  1.00  0.00    -0.063 SA
HETATM    7  C   UNL     1      64.019   5.640   6.373  1.00  0.00     0.042 C 
HETATM    8  C   UNL     1      65.506   5.626   4.334  1.00  0.00     0.042 C 
HETATM    9  H   UNL     1      64.799   9.760   5.535  1.00  0.00     0.162 HD
ENDROOT
BRANCH   5  10
HETATM   10  C   UNL     1      62.674   9.387   3.904  1.00  0.00    -0.019 A 
HETATM   11  C   UNL     1      62.322  10.698   4.260  1.00  0.00     0.010 A 
HETATM   12  C   UNL     1      61.850  11.600   3.304  1.00  0.00     0.001 A 
HETATM   13  C   UNL     1      61.717  11.205   1.973  1.00  0.00     0.000 A 
HETATM   14  C   UNL     1      62.044   9.900   1.606  1.00  0.00     0.001 A 
HETATM   15  C   UNL     1      62.514   9.000   2.561  1.00  0.00     0.010 A 
ENDBRANCH   5  10
BRANCH   1  16
HETATM   16  O   UNL     1      62.344   6.284   4.379  1.00  0.00    -0.310 OA
HETATM   17  H   UNL     1      62.172   6.005   5.291  1.00  0.00     0.237 HD
ENDBRANCH   1  16
TORSDOF 2
ENDMDL
MODEL 2
REMARK VINA RESULT:      -5.5      2.135      2.717
REMARK  2 active torsions:
REMARK  status: ('A' for Active; 'I' for Inactive)
REMARK    1  A    between atoms: N_1  and  O_8 
REMARK    2  A    between atoms: C_5  and  C_7 
ROOT
HETATM    1  N   UNL     1      65.756   7.890   5.708  1.00  0.00    -0.156 NA
HETATM    2  N   UNL     1      64.131   6.349   5.383  1.00  0.00    -0.360 N 
HETATM    3  C   UNL     1      66.259   6.638   6.349  1.00  0.00     0.086 C 
HETATM    4  C   UNL     1      65.030   5.732   6.229  1.00  0.00     0.099 C 
HETATM    5  C   UNL     1      64.725   7.478   4.739  1.00  0.00     0.218 C 
HETATM    6  S   UNL     1      64.773   4.240   6.901  1.00  0.00    -0.063 SA
HETATM    7  C   UNL     1      67.463   6.007   5.624  1.00  0.00     0.042 C 
HETATM    8  C   UNL     1      66.617   6.965   7.800  1.00  0.00     0.042 C 
HETATM    9  H   UNL     1      63.204   6.051   5.242  1.00  0.00     0.162 HD
ENDROOT
BRANCH   5  10
HETATM   10  C   UNL     1      63.733   8.572   4.417  1.00  0.00    -0.019 A 
HETATM   11  C   UNL     1      63.534   9.665   5.275  1.00  0.00     0.010 A 
HETATM   12  C   UNL     1      62.658  10.697   4.931  1.00  0.00     0.001 A 
HETATM   13  C   UNL     1      61.961  10.652   3.724  1.00  0.00     0.000 A 
HETATM   14  C   UNL     1      62.134   9.565   2.869  1.00  0.00     0.001 A 
HETATM   15  C   UNL     1      63.007   8.534   3.213  1.00  0.00     0.010 A 
ENDBRANCH   5  10
BRANCH   1  16
HETATM   16  O   UNL     1      66.838   8.537   4.988  1.00  0.00    -0.310 OA
HETATM   17  H   UNL     1      67.433   8.968   5.620  1.00  0.00     0.237 HD
ENDBRANCH   1  16
TORSDOF 2
ENDMDL
MODEL 3
REMARK VINA RESULT:      -5.5      1.682      2.321
REMARK  2 active torsions:
REMARK  status: ('A' for Active; 'I' for Inactive)
REMARK    1  A    between atoms: N_1  and  O_8 
REMARK    2  A    between atoms: C_5  and  C_7 
ROOT
HETATM    1  N   UNL     1      65.579   7.261   4.517  1.00  0.00    -0.156 NA
HETATM    2  N   UNL     1      64.555   7.548   6.513  1.00  0.00    -0.360 N 
HETATM    3  C   UNL     1      66.403   6.498   5.502  1.00  0.00     0.086 C 
HETATM    4  C   UNL     1      65.735   6.902   6.819  1.00  0.00     0.099 C 
HETATM    5  C   UNL     1      64.247   7.422   5.124  1.00  0.00     0.218 C 
HETATM    6  S   UNL     1      66.232   6.597   8.370  1.00  0.00    -0.063 SA
HETATM    7  C   UNL     1      66.342   4.971   5.315  1.00  0.00     0.042 C 
HETATM    8  C   UNL     1      67.846   6.995   5.392  1.00  0.00     0.042 C 
HETATM    9  H   UNL     1      63.998   8.031   7.166  1.00  0.00     0.162 HD
ENDROOT
BRANCH   5  10
HETATM   10  C   UNL     1      63.476   8.601   4.574  1.00  0.00    -0.019 A 
HETATM   11  C   UNL     1      62.838   8.548   3.324  1.00  0.00     0.010 A 
HETATM   12  C   UNL     1      62.079   9.624   2.859  1.00  0.00     0.001 A 
HETATM   13  C   UNL     1      61.949  10.776   3.634  1.00  0.00     0.000 A 
HETATM   14  C   UNL     1      62.592  10.853   4.868  1.00  0.00     0.001 A 
HETATM   15  C   UNL     1      63.351   9.779   5.332  1.00  0.00     0.010 A 
ENDBRANCH   5  10
BRANCH   1  16
HETATM   16  O   UNL     1      65.443   6.489   3.295  1.00  0.00    -0.310 OA
HETATM   17  H   UNL     1      65.575   7.069   2.530  1.00  0.00     0.237 HD
ENDBRANCH   1  16
TORSDOF 2
ENDMDL
MODEL 4
REMARK VINA RESULT:      -5.3     18.149     19.815
REMARK  2 active torsions:
REMARK  status: ('A' for Active; 'I' for Inactive)
REMARK    1  A    between atoms: N_1  and  O_8 
REMARK    2  A    between atoms: C_5  and  C_7 
ROOT
HETATM    1  N   UNL     1      76.755   0.386  17.797  1.00  0.00    -0.156 NA
HETATM    2  N   UNL     1      74.609   0.686  18.446  1.00  0.00    -0.360 N 
HETATM    3  C   UNL     1      76.318  -0.930  18.351  1.00  0.00     0.086 C 
HETATM    4  C   UNL     1      74.940  -0.569  18.913  1.00  0.00     0.099 C 
HETATM    5  C   UNL     1      75.527   1.117  17.440  1.00  0.00     0.218 C 
HETATM    6  S   UNL     1      73.933  -1.485  19.858  1.00  0.00    -0.063 SA
HETATM    7  C   UNL     1      76.191  -2.042  17.293  1.00  0.00     0.042 C 
HETATM    8  C   UNL     1      77.315  -1.336  19.439  1.00  0.00     0.042 C 
HETATM    9  H   UNL     1      73.841   1.215  18.763  1.00  0.00     0.162 HD
ENDROOT
BRANCH   5  10
HETATM   10  C   UNL     1      75.711   2.617  17.402  1.00  0.00    -0.019 A 
HETATM   11  C   UNL     1      76.788   3.246  18.047  1.00  0.00     0.010 A 
HETATM   12  C   UNL     1      76.976   4.626  17.951  1.00  0.00     0.001 A 
HETATM   13  C   UNL     1      76.087   5.404  17.210  1.00  0.00     0.000 A 
HETATM   14  C   UNL     1      75.002   4.798  16.579  1.00  0.00     0.001 A 
HETATM   15  C   UNL     1      74.813   3.420  16.677  1.00  0.00     0.010 A 
ENDBRANCH   5  10
BRANCH   1  16
HETATM   16  O   UNL     1      77.535   0.171  16.592  1.00  0.00    -0.310 OA
HETATM   17  H   UNL     1      77.850  -0.746  16.570  1.00  0.00     0.237 HD
ENDBRANCH   1  16
TORSDOF 2
ENDMDL
MODEL 5
REMARK VINA RESULT:      -5.3      3.598      6.615
REMARK  2 active torsions:
REMARK  status: ('A' for Active; 'I' for Inactive)
REMARK    1  A    between atoms: N_1  and  O_8 
REMARK    2  A    between atoms: C_5  and  C_7 
ROOT
HETATM    1  N   UNL     1      66.171   7.061   5.490  1.00  0.00    -0.156 NA
HETATM    2  N   UNL     1      64.787   6.179   7.047  1.00  0.00    -0.360 N 
HETATM    3  C   UNL     1      64.789   7.403   5.036  1.00  0.00     0.086 C 
HETATM    4  C   UNL     1      63.946   6.619   6.046  1.00  0.00     0.099 C 
HETATM    5  C   UNL     1      66.078   6.779   6.933  1.00  0.00     0.218 C 
HETATM    6  S   UNL     1      62.309   6.358   6.049  1.00  0.00    -0.063 SA
HETATM    7  C   UNL     1      64.462   8.905   5.115  1.00  0.00     0.042 C 
HETATM    8  C   UNL     1      64.626   6.892   3.603  1.00  0.00     0.042 C 
HETATM    9  H   UNL     1      64.531   5.537   7.748  1.00  0.00     0.162 HD
ENDROOT
BRANCH   5  10
HETATM   10  C   UNL     1      67.194   5.898   7.445  1.00  0.00    -0.019 A 
HETATM   11  C   UNL     1      67.783   6.107   8.702  1.00  0.00     0.010 A 
HETATM   12  C   UNL     1      68.771   5.246   9.184  1.00  0.00     0.001 A 
HETATM   13  C   UNL     1      69.192   4.161   8.416  1.00  0.00     0.000 A 
HETATM   14  C   UNL     1      68.631   3.950   7.157  1.00  0.00     0.001 A 
HETATM   15  C   UNL     1      67.646   4.811   6.675  1.00  0.00     0.010 A 
ENDBRANCH   5  10
BRANCH   1  16
HETATM   16  O   UNL     1      67.044   8.203   5.294  1.00  0.00    -0.310 OA
HETATM   17  H   UNL     1      67.969   7.911   5.320  1.00  0.00     0.237 HD
ENDBRANCH   1  16
TORSDOF 2
ENDMDL
MODEL 6
REMARK VINA RESULT:      -5.1      1.966      2.327
REMARK  2 active torsions:
REMARK  status: ('A' for Active; 'I' for Inactive)
REMARK    1  A    between atoms: N_1  and  O_8 
REMARK    2  A    between atoms: C_5  and  C_7 
ROOT
HETATM    1  N   UNL     1      64.464   6.681   5.911  1.00  0.00    -0.156 NA
HETATM    2  N   UNL     1      65.558   6.987   3.955  1.00  0.00    -0.360 N 
HETATM    3  C   UNL     1      65.465   5.575   5.837  1.00  0.00     0.086 C 
HETATM    4  C   UNL     1      66.013   5.770   4.421  1.00  0.00     0.099 C 
HETATM    5  C   UNL     1      64.940   7.737   5.002  1.00  0.00     0.218 C 
HETATM    6  S   UNL     1      67.029   4.786   3.557  1.00  0.00    -0.063 SA
HETATM    7  C   UNL     1      66.599   5.690   6.872  1.00  0.00     0.042 C 
HETATM    8  C   UNL     1      64.716   4.252   6.006  1.00  0.00     0.042 C 
HETATM    9  H   UNL     1      65.647   7.297   3.025  1.00  0.00     0.162 HD
ENDROOT
BRANCH   5  10
HETATM   10  C   UNL     1      63.839   8.650   4.513  1.00  0.00    -0.019 A 
HETATM   11  C   UNL     1      63.488   9.821   5.204  1.00  0.00     0.010 A 
HETATM   12  C   UNL     1      62.510  10.683   4.705  1.00  0.00     0.001 A 
HETATM   13  C   UNL     1      61.861  10.389   3.507  1.00  0.00     0.000 A 
HETATM   14  C   UNL     1      62.184   9.221   2.817  1.00  0.00     0.001 A 
HETATM   15  C   UNL     1      63.160   8.359   3.316  1.00  0.00     0.010 A 
ENDBRANCH   5  10
BRANCH   1  16
HETATM   16  O   UNL     1      64.425   7.213   7.261  1.00  0.00    -0.310 OA
HETATM   17  H   UNL     1      64.903   6.615   7.857  1.00  0.00     0.237 HD
ENDBRANCH   1  16
TORSDOF 2
ENDMDL
MODEL 7
REMARK VINA RESULT:      -5.0      2.927      5.955
REMARK  2 active torsions:
REMARK  status: ('A' for Active; 'I' for Inactive)
REMARK    1  A    between atoms: N_1  and  O_8 
REMARK    2  A    between atoms: C_5  and  C_7 
ROOT
HETATM    1  N   UNL     1      64.629   6.127   5.397  1.00  0.00    -0.156 NA
HETATM    2  N   UNL     1      65.115   8.263   5.962  1.00  0.00    -0.360 N 
HETATM    3  C   UNL     1      63.635   6.969   4.667  1.00  0.00     0.086 C 
HETATM    4  C   UNL     1      63.936   8.352   5.251  1.00  0.00     0.099 C 
HETATM    5  C   UNL     1      65.760   7.010   5.729  1.00  0.00     0.218 C 
HETATM    6  S   UNL     1      63.092   9.766   5.058  1.00  0.00    -0.063 SA
HETATM    7  C   UNL     1      63.829   6.979   3.139  1.00  0.00     0.042 C 
HETATM    8  C   UNL     1      62.236   6.464   5.027  1.00  0.00     0.042 C 
HETATM    9  H   UNL     1      65.465   8.969   6.552  1.00  0.00     0.162 HD
ENDROOT
BRANCH   5  10
HETATM   10  C   UNL     1      66.572   6.527   6.909  1.00  0.00    -0.019 A 
HETATM   11  C   UNL     1      67.807   5.881   6.742  1.00  0.00     0.010 A 
HETATM   12  C   UNL     1      68.572   5.497   7.845  1.00  0.00     0.001 A 
HETATM   13  C   UNL     1      68.113   5.748   9.138  1.00  0.00     0.000 A 
HETATM   14  C   UNL     1      66.880   6.371   9.322  1.00  0.00     0.001 A 
HETATM   15  C   UNL     1      66.116   6.754   8.220  1.00  0.00     0.010 A 
ENDBRANCH   5  10
BRANCH   1  16
HETATM   16  O   UNL     1      65.105   5.069   4.525  1.00  0.00    -0.310 OA
HETATM   17  H   UNL     1      66.020   4.847   4.756  1.00  0.00     0.237 HD
ENDBRANCH   1  16
TORSDOF 2
ENDMDL
MODEL 8
REMARK VINA RESULT:      -5.0      2.443      2.912
REMARK  2 active torsions:
REMARK  status: ('A' for Active; 'I' for Inactive)
REMARK    1  A    between atoms: N_1  and  O_8 
REMARK    2  A    between atoms: C_5  and  C_7 
ROOT
HETATM    1  N   UNL     1      62.296   7.548   5.469  1.00  0.00    -0.156 NA
HETATM    2  N   UNL     1      62.191   6.531   3.452  1.00  0.00    -0.360 N 
HETATM    3  C   UNL     1      62.218   6.086   5.763  1.00  0.00     0.086 C 
HETATM    4  C   UNL     1      61.974   5.517   4.362  1.00  0.00     0.099 C 
HETATM    5  C   UNL     1      62.778   7.670   4.083  1.00  0.00     0.218 C 
HETATM    6  S   UNL     1      61.586   3.966   3.925  1.00  0.00    -0.063 SA
HETATM    7  C   UNL     1      63.510   5.500   6.362  1.00  0.00     0.042 C 
HETATM    8  C   UNL     1      61.037   5.859   6.709  1.00  0.00     0.042 C 
HETATM    9  H   UNL     1      61.971   6.476   2.493  1.00  0.00     0.162 HD
ENDROOT
BRANCH   5  10
HETATM   10  C   UNL     1      62.397   8.978   3.429  1.00  0.00    -0.019 A 
HETATM   11  C   UNL     1      62.210  10.152   4.176  1.00  0.00     0.010 A 
HETATM   12  C   UNL     1      61.918  11.364   3.548  1.00  0.00     0.001 A 
HETATM   13  C   UNL     1      61.804  11.425   2.160  1.00  0.00     0.000 A 
HETATM   14  C   UNL     1      61.968  10.266   1.404  1.00  0.00     0.001 A 
HETATM   15  C   UNL     1      62.258   9.054   2.031  1.00  0.00     0.010 A 
ENDBRANCH   5  10
BRANCH   1  16
HETATM   16  O   UNL     1      63.263   8.171   6.355  1.00  0.00    -0.310 OA
HETATM   17  H   UNL     1      62.923   9.029   6.652  1.00  0.00     0.237 HD
ENDBRANCH   1  16
TORSDOF 2
ENDMDL
MODEL 9
REMARK VINA RESULT:      -4.8     23.967     24.997
REMARK  2 active torsions:
REMARK  status: ('A' for Active; 'I' for Inactive)
REMARK    1  A    between atoms: N_1  and  O_8 
REMARK    2  A    between atoms: C_5  and  C_7 
ROOT
HETATM    1  N   UNL     1      49.270  22.012  17.854  1.00  0.00    -0.156 NA
HETATM    2  N   UNL     1      48.007  22.229  19.717  1.00  0.00    -0.360 N 
HETATM    3  C   UNL     1      47.944  22.510  17.381  1.00  0.00     0.086 C 
HETATM    4  C   UNL     1      47.129  22.450  18.676  1.00  0.00     0.099 C 
HETATM    5  C   UNL     1      49.361  22.359  19.282  1.00  0.00     0.218 C 
HETATM    6  S   UNL     1      45.500  22.669  18.887  1.00  0.00    -0.063 SA
HETATM    7  C   UNL     1      47.977  23.949  16.834  1.00  0.00     0.042 C 
HETATM    8  C   UNL     1      47.433  21.541  16.312  1.00  0.00     0.042 C 
HETATM    9  H   UNL     1      47.735  22.012  20.639  1.00  0.00     0.162 HD
ENDROOT
BRANCH   5  10
HETATM   10  C   UNL     1      50.322  21.483  20.053  1.00  0.00    -0.019 A 
HETATM   11  C   UNL     1      49.933  20.238  20.573  1.00  0.00     0.010 A 
HETATM   12  C   UNL     1      50.851  19.415  21.229  1.00  0.00     0.001 A 
HETATM   13  C   UNL     1      52.176  19.824  21.381  1.00  0.00     0.000 A 
HETATM   14  C   UNL     1      52.574  21.065  20.887  1.00  0.00     0.001 A 
HETATM   15  C   UNL     1      51.657  21.887  20.233  1.00  0.00     0.010 A 
ENDBRANCH   5  10
BRANCH   1  16
HETATM   16  O   UNL     1      50.331  22.699  17.140  1.00  0.00    -0.310 OA
HETATM   17  H   UNL     1      51.069  22.088  16.991  1.00  0.00     0.237 HD
ENDBRANCH   1  16
TORSDOF 2
ENDMDL
