MODEL 1
REMARK VINA RESULT:      -4.3      0.000      0.000
REMARK  1 active torsions:
REMARK  status: ('A' for Active; 'I' for Inactive)
REMARK    1  A    between atoms: C_4  and  O_10 
ROOT
HETATM    1  C   UNL     1      66.905   4.078   8.054  1.00  0.00     0.138 C 
HETATM    2  C   UNL     1      68.160   4.961   8.097  1.00  0.00     0.017 C 
HETATM    3  C   UNL     1      65.613   4.832   7.811  1.00  0.00     0.117 C 
HETATM    4  C   UNL     1      65.966   6.319   7.667  1.00  0.00     0.064 C 
HETATM    5  O   UNL     1      66.925   2.856   8.191  1.00  0.00    -0.297 OA
HETATM    6  C   UNL     1      68.227   5.690   6.738  1.00  0.00     0.020 C 
HETATM    7  C   UNL     1      67.930   5.995   9.219  1.00  0.00     0.020 C 
HETATM    8  C   UNL     1      66.947   6.503   6.496  1.00  0.00     0.039 C 
HETATM    9  C   UNL     1      66.652   6.804   8.956  1.00  0.00     0.039 C 
HETATM   10  C   UNL     1      69.424   4.148   8.347  1.00  0.00     0.023 C 
ENDROOT
BRANCH   4  11
HETATM   11  O   UNL     1      64.794   7.088   7.447  1.00  0.00    -0.389 OA
HETATM   12  H   UNL     1      64.026   6.619   7.810  1.00  0.00     0.210 HD
ENDBRANCH   4  11
TORSDOF 1
ENDMDL
MODEL 2
REMARK VINA RESULT:      -4.3     11.793     13.247
REMARK  1 active torsions:
REMARK  status: ('A' for Active; 'I' for Inactive)
REMARK    1  A    between atoms: C_4  and  O_10 
ROOT
HETATM    1  C   UNL     1      74.684   0.267  15.407  1.00  0.00     0.138 C 
HETATM    2  C   UNL     1      75.667  -0.763  15.981  1.00  0.00     0.017 C 
HETATM    3  C   UNL     1      74.389   1.435  16.327  1.00  0.00     0.117 C 
HETATM    4  C   UNL     1      75.206   1.230  17.610  1.00  0.00     0.064 C 
HETATM    5  O   UNL     1      74.176   0.177  14.290  1.00  0.00    -0.297 OA
HETATM    6  C   UNL     1      76.971   0.003  16.289  1.00  0.00     0.020 C 
HETATM    7  C   UNL     1      75.050  -1.270  17.301  1.00  0.00     0.020 C 
HETATM    8  C   UNL     1      76.703   1.161  17.261  1.00  0.00     0.039 C 
HETATM    9  C   UNL     1      74.796  -0.101  18.263  1.00  0.00     0.039 C 
HETATM   10  C   UNL     1      75.921  -1.913  15.014  1.00  0.00     0.023 C 
ENDROOT
BRANCH   4  11
HETATM   11  O   UNL     1      74.967   2.289  18.524  1.00  0.00    -0.389 OA
HETATM   12  H   UNL     1      75.646   2.973  18.412  1.00  0.00     0.210 HD
ENDBRANCH   4  11
TORSDOF 1
ENDMDL
MODEL 3
REMARK VINA RESULT:      -4.3      2.498      4.571
REMARK  1 active torsions:
REMARK  status: ('A' for Active; 'I' for Inactive)
REMARK    1  A    between atoms: C_4  and  O_10 
ROOT
HETATM    1  C   UNL     1      65.541   8.288   5.689  1.00  0.00     0.138 C 
HETATM    2  C   UNL     1      65.211   7.058   4.832  1.00  0.00     0.017 C 
HETATM    3  C   UNL     1      66.662   8.077   6.688  1.00  0.00     0.117 C 
HETATM    4  C   UNL     1      67.156   6.632   6.527  1.00  0.00     0.064 C 
HETATM    5  O   UNL     1      64.965   9.370   5.582  1.00  0.00    -0.297 OA
HETATM    6  C   UNL     1      66.509   6.683   4.088  1.00  0.00     0.020 C 
HETATM    7  C   UNL     1      64.840   5.928   5.814  1.00  0.00     0.020 C 
HETATM    8  C   UNL     1      67.646   6.413   5.086  1.00  0.00     0.039 C 
HETATM    9  C   UNL     1      65.990   5.666   6.797  1.00  0.00     0.039 C 
HETATM   10  C   UNL     1      64.076   7.332   3.852  1.00  0.00     0.023 C 
ENDROOT
BRANCH   4  11
HETATM   11  O   UNL     1      68.204   6.363   7.445  1.00  0.00    -0.389 OA
HETATM   12  H   UNL     1      68.062   5.493   7.853  1.00  0.00     0.210 HD
ENDBRANCH   4  11
TORSDOF 1
ENDMDL
MODEL 4
REMARK VINA RESULT:      -4.2      6.840      7.876
REMARK  1 active torsions:
REMARK  status: ('A' for Active; 'I' for Inactive)
REMARK    1  A    between atoms: C_4  and  O_10 
ROOT
HETATM    1  C   UNL     1      61.218   7.068   2.858  1.00  0.00     0.138 C 
HETATM    2  C   UNL     1      62.576   7.255   2.168  1.00  0.00     0.017 C 
HETATM    3  C   UNL     1      60.665   8.320   3.510  1.00  0.00     0.117 C 
HETATM    4  C   UNL     1      61.673   9.451   3.264  1.00  0.00     0.064 C 
HETATM    5  O   UNL     1      60.605   6.001   2.882  1.00  0.00    -0.297 OA
HETATM    6  C   UNL     1      62.376   8.354   1.103  1.00  0.00     0.020 C 
HETATM    7  C   UNL     1      63.550   7.765   3.249  1.00  0.00     0.020 C 
HETATM    8  C   UNL     1      61.865   9.650   1.750  1.00  0.00     0.039 C 
HETATM    9  C   UNL     1      63.029   9.063   3.879  1.00  0.00     0.039 C 
HETATM   10  C   UNL     1      63.080   5.963   1.536  1.00  0.00     0.023 C 
ENDROOT
BRANCH   4  11
HETATM   11  O   UNL     1      61.220  10.657   3.860  1.00  0.00    -0.389 OA
HETATM   12  H   UNL     1      61.191  10.550   4.825  1.00  0.00     0.210 HD
ENDBRANCH   4  11
TORSDOF 1
ENDMDL
MODEL 5
REMARK VINA RESULT:      -4.1     11.670     12.883
REMARK  1 active torsions:
REMARK  status: ('A' for Active; 'I' for Inactive)
REMARK    1  A    between atoms: C_4  and  O_10 
ROOT
HETATM    1  C   UNL     1      77.270  12.462   5.913  1.00  0.00     0.138 C 
HETATM    2  C   UNL     1      77.496  11.828   4.533  1.00  0.00     0.017 C 
HETATM    3  C   UNL     1      77.635  11.570   7.083  1.00  0.00     0.117 C 
HETATM    4  C   UNL     1      78.152  10.244   6.508  1.00  0.00     0.064 C 
HETATM    5  O   UNL     1      76.841  13.603   6.078  1.00  0.00    -0.297 OA
HETATM    6  C   UNL     1      78.992  11.459   4.462  1.00  0.00     0.020 C 
HETATM    7  C   UNL     1      76.650  10.538   4.501  1.00  0.00     0.020 C 
HETATM    8  C   UNL     1      79.372  10.513   5.610  1.00  0.00     0.039 C 
HETATM    9  C   UNL     1      77.049   9.601   5.649  1.00  0.00     0.039 C 
HETATM   10  C   UNL     1      77.107  12.770   3.400  1.00  0.00     0.023 C 
ENDROOT
BRANCH   4  11
HETATM   11  O   UNL     1      78.504   9.353   7.556  1.00  0.00    -0.389 OA
HETATM   12  H   UNL     1      77.732   8.816   7.796  1.00  0.00     0.210 HD
ENDBRANCH   4  11
TORSDOF 1
ENDMDL
MODEL 6
REMARK VINA RESULT:      -4.1      5.701      7.408
REMARK  1 active torsions:
REMARK  status: ('A' for Active; 'I' for Inactive)
REMARK    1  A    between atoms: C_4  and  O_10 
ROOT
HETATM    1  C   UNL     1      62.842   9.346   4.774  1.00  0.00     0.138 C 
HETATM    2  C   UNL     1      62.938   7.817   4.679  1.00  0.00     0.017 C 
HETATM    3  C   UNL     1      62.032   9.995   3.668  1.00  0.00     0.117 C 
HETATM    4  C   UNL     1      61.523   8.874   2.751  1.00  0.00     0.064 C 
HETATM    5  O   UNL     1      63.360  10.010   5.671  1.00  0.00    -0.297 OA
HETATM    6  C   UNL     1      61.490   7.286   4.711  1.00  0.00     0.020 C 
HETATM    7  C   UNL     1      63.567   7.502   3.307  1.00  0.00     0.020 C 
HETATM    8  C   UNL     1      60.665   7.891   3.566  1.00  0.00     0.039 C 
HETATM    9  C   UNL     1      62.725   8.107   2.175  1.00  0.00     0.039 C 
HETATM   10  C   UNL     1      63.765   7.225   5.814  1.00  0.00     0.023 C 
ENDROOT
BRANCH   4  11
HETATM   11  O   UNL     1      60.762   9.416   1.682  1.00  0.00    -0.389 OA
HETATM   12  H   UNL     1      60.134  10.069   2.030  1.00  0.00     0.210 HD
ENDBRANCH   4  11
TORSDOF 1
ENDMDL
MODEL 7
REMARK VINA RESULT:      -4.0      2.111      3.015
REMARK  1 active torsions:
REMARK  status: ('A' for Active; 'I' for Inactive)
REMARK    1  A    between atoms: C_4  and  O_10 
ROOT
HETATM    1  C   UNL     1      69.280   3.236   9.719  1.00  0.00     0.138 C 
HETATM    2  C   UNL     1      69.581   4.379   8.739  1.00  0.00     0.017 C 
HETATM    3  C   UNL     1      67.926   2.581   9.524  1.00  0.00     0.117 C 
HETATM    4  C   UNL     1      67.238   3.287   8.347  1.00  0.00     0.064 C 
HETATM    5  O   UNL     1      70.062   2.857  10.589  1.00  0.00    -0.297 OA
HETATM    6  C   UNL     1      69.492   3.775   7.322  1.00  0.00     0.020 C 
HETATM    7  C   UNL     1      68.458   5.420   8.922  1.00  0.00     0.020 C 
HETATM    8  C   UNL     1      68.108   3.152   7.085  1.00  0.00     0.039 C 
HETATM    9  C   UNL     1      67.084   4.782   8.673  1.00  0.00     0.039 C 
HETATM   10  C   UNL     1      70.952   4.998   8.987  1.00  0.00     0.023 C 
ENDROOT
BRANCH   4  11
HETATM   11  O   UNL     1      65.954   2.727   8.116  1.00  0.00    -0.389 OA
HETATM   12  H   UNL     1      65.450   2.719   8.945  1.00  0.00     0.210 HD
ENDBRANCH   4  11
TORSDOF 1
ENDMDL
MODEL 8
REMARK VINA RESULT:      -4.0      1.843      4.053
REMARK  1 active torsions:
REMARK  status: ('A' for Active; 'I' for Inactive)
REMARK    1  A    between atoms: C_4  and  O_10 
ROOT
HETATM    1  C   UNL     1      67.406   4.292   8.745  1.00  0.00     0.138 C 
HETATM    2  C   UNL     1      68.378   4.692   7.626  1.00  0.00     0.017 C 
HETATM    3  C   UNL     1      67.958   3.272   9.722  1.00  0.00     0.117 C 
HETATM    4  C   UNL     1      69.389   2.937   9.282  1.00  0.00     0.064 C 
HETATM    5  O   UNL     1      66.274   4.757   8.866  1.00  0.00    -0.297 OA
HETATM    6  C   UNL     1      69.634   5.258   8.321  1.00  0.00     0.020 C 
HETATM    7  C   UNL     1      68.749   3.392   6.883  1.00  0.00     0.020 C 
HETATM    8  C   UNL     1      70.239   4.220   9.278  1.00  0.00     0.039 C 
HETATM    9  C   UNL     1      69.359   2.370   7.852  1.00  0.00     0.039 C 
HETATM   10  C   UNL     1      67.767   5.715   6.677  1.00  0.00     0.023 C 
ENDROOT
BRANCH   4  11
HETATM   11  O   UNL     1      69.964   1.975  10.152  1.00  0.00    -0.389 OA
HETATM   12  H   UNL     1      69.258   1.492  10.612  1.00  0.00     0.210 HD
ENDBRANCH   4  11
TORSDOF 1
ENDMDL
MODEL 9
REMARK VINA RESULT:      -4.0     12.016     13.771
REMARK  1 active torsions:
REMARK  status: ('A' for Active; 'I' for Inactive)
REMARK    1  A    between atoms: C_4  and  O_10 
ROOT
HETATM    1  C   UNL     1      75.721  -0.065  18.492  1.00  0.00     0.138 C 
HETATM    2  C   UNL     1      76.570   0.975  17.749  1.00  0.00     0.017 C 
HETATM    3  C   UNL     1      74.594  -0.659  17.671  1.00  0.00     0.117 C 
HETATM    4  C   UNL     1      74.649  -0.017  16.278  1.00  0.00     0.064 C 
HETATM    5  O   UNL     1      75.929  -0.413  19.654  1.00  0.00    -0.297 OA
HETATM    6  C   UNL     1      77.147   0.263  16.507  1.00  0.00     0.020 C 
HETATM    7  C   UNL     1      75.602   2.087  17.295  1.00  0.00     0.020 C 
HETATM    8  C   UNL     1      76.017  -0.302  15.634  1.00  0.00     0.039 C 
HETATM    9  C   UNL     1      74.485   1.506  16.416  1.00  0.00     0.039 C 
HETATM   10  C   UNL     1      77.683   1.537  18.625  1.00  0.00     0.023 C 
ENDROOT
BRANCH   4  11
HETATM   11  O   UNL     1      73.608  -0.524  15.457  1.00  0.00    -0.389 OA
HETATM   12  H   UNL     1      73.103  -1.191  15.949  1.00  0.00     0.210 HD
ENDBRANCH   4  11
TORSDOF 1
ENDMDL
