MODEL 1
REMARK VINA RESULT:      -4.7      0.000      0.000
REMARK  1 active torsions:
REMARK  status: ('A' for Active; 'I' for Inactive)
REMARK    1  A    between atoms: C_1  and  C_7 
ROOT
HETATM    1  C   UNL     1      76.591   2.651  17.968  1.00  0.00     0.140 A 
HETATM    2  C   UNL     1      75.446   2.501  17.096  1.00  0.00     0.098 A 
HETATM    3  N   UNL     1      77.393   1.571  18.030  1.00  0.00    -0.318 N 
ATOM      4  HN  UNL     1      78.241   1.500  18.592  1.00  0.00     0.174 HD
HETATM    5  C   UNL     1      75.451   1.253  16.521  1.00  0.00     0.115 A 
HETATM    6  S   UNL     1      76.793   0.378  17.056  1.00  0.00     0.000 SA
HETATM    7 CL   UNL     1      74.255   3.699  16.816  1.00  0.00    -0.079 Cl
HETATM    8 CL   UNL     1      74.342   0.553  15.419  1.00  0.00    -0.073 Cl
ENDROOT
BRANCH   1   9
HETATM    9  C   UNL     1      76.924   3.845  18.754  1.00  0.00     0.229 C 
HETATM   10  O   UNL     1      76.945   4.997  18.341  1.00  0.00    -0.643 OA
HETATM   11  O   UNL     1      77.231   3.613  20.055  1.00  0.00    -0.643 OA
ENDBRANCH   1   9
TORSDOF 1
ENDMDL
MODEL 2
REMARK VINA RESULT:      -4.4      2.217      2.285
REMARK  1 active torsions:
REMARK  status: ('A' for Active; 'I' for Inactive)
REMARK    1  A    between atoms: C_1  and  C_7 
ROOT
HETATM    1  C   UNL     1      76.245   2.838  17.973  1.00  0.00     0.140 A 
HETATM    2  C   UNL     1      76.744   1.481  17.913  1.00  0.00     0.098 A 
HETATM    3  N   UNL     1      75.123   3.054  17.262  1.00  0.00    -0.318 N 
ATOM      4  HN  UNL     1      74.634   3.946  17.191  1.00  0.00     0.174 HD
HETATM    5  C   UNL     1      75.927   0.712  17.120  1.00  0.00     0.115 A 
HETATM    6  S   UNL     1      74.656   1.650  16.523  1.00  0.00     0.000 SA
HETATM    7 CL   UNL     1      78.148   0.909  18.711  1.00  0.00    -0.079 Cl
HETATM    8 CL   UNL     1      76.048  -0.946  16.709  1.00  0.00    -0.073 Cl
ENDROOT
BRANCH   1   9
HETATM    9  C   UNL     1      76.851   3.946  18.722  1.00  0.00     0.229 C 
HETATM   10  O   UNL     1      77.057   5.075  18.298  1.00  0.00    -0.643 OA
HETATM   11  O   UNL     1      77.204   3.655  20.000  1.00  0.00    -0.643 OA
ENDBRANCH   1   9
TORSDOF 1
ENDMDL
MODEL 3
REMARK VINA RESULT:      -4.3     20.749     21.214
REMARK  1 active torsions:
REMARK  status: ('A' for Active; 'I' for Inactive)
REMARK    1  A    between atoms: C_1  and  C_7 
ROOT
HETATM    1  C   UNL     1      62.351   9.930   4.106  1.00  0.00     0.140 A 
HETATM    2  C   UNL     1      62.034  10.049   2.699  1.00  0.00     0.098 A 
HETATM    3  N   UNL     1      62.424   8.665   4.559  1.00  0.00    -0.318 N 
ATOM      4  HN  UNL     1      62.636   8.395   5.520  1.00  0.00     0.174 HD
HETATM    5  C   UNL     1      61.879   8.802   2.143  1.00  0.00     0.115 A 
HETATM    6  S   UNL     1      62.119   7.614   3.319  1.00  0.00     0.000 SA
HETATM    7 CL   UNL     1      61.875  11.525   1.844  1.00  0.00    -0.079 Cl
HETATM    8 CL   UNL     1      61.503   8.363   0.531  1.00  0.00    -0.073 Cl
ENDROOT
BRANCH   1   9
HETATM    9  C   UNL     1      62.588  11.044   5.032  1.00  0.00     0.229 C 
HETATM   10  O   UNL     1      63.327  11.026   6.008  1.00  0.00    -0.643 OA
HETATM   11  O   UNL     1      61.909  12.185   4.750  1.00  0.00    -0.643 OA
ENDBRANCH   1   9
TORSDOF 1
ENDMDL
MODEL 4
REMARK VINA RESULT:      -4.3     19.642     20.162
REMARK  1 active torsions:
REMARK  status: ('A' for Active; 'I' for Inactive)
REMARK    1  A    between atoms: C_1  and  C_7 
ROOT
HETATM    1  C   UNL     1      62.683   8.593   4.711  1.00  0.00     0.140 A 
HETATM    2  C   UNL     1      62.523  10.004   4.432  1.00  0.00     0.098 A 
HETATM    3  N   UNL     1      62.373   7.780   3.684  1.00  0.00    -0.318 N 
ATOM      4  HN  UNL     1      62.426   6.761   3.703  1.00  0.00     0.174 HD
HETATM    5  C   UNL     1      62.080  10.183   3.144  1.00  0.00     0.115 A 
HETATM    6  S   UNL     1      61.893   8.685   2.386  1.00  0.00     0.000 SA
HETATM    7 CL   UNL     1      62.839  11.271   5.540  1.00  0.00    -0.079 Cl
HETATM    8 CL   UNL     1      61.728  11.631   2.301  1.00  0.00    -0.073 Cl
ENDROOT
BRANCH   1   9
HETATM    9  C   UNL     1      63.139   8.012   5.980  1.00  0.00     0.229 C 
HETATM   10  O   UNL     1      62.423   7.624   6.894  1.00  0.00    -0.643 OA
HETATM   11  O   UNL     1      64.486   7.913   6.119  1.00  0.00    -0.643 OA
ENDBRANCH   1   9
TORSDOF 1
ENDMDL
MODEL 5
REMARK VINA RESULT:      -4.2     20.928     21.413
REMARK  1 active torsions:
REMARK  status: ('A' for Active; 'I' for Inactive)
REMARK    1  A    between atoms: C_1  and  C_7 
ROOT
HETATM    1  C   UNL     1      61.913   9.772   2.869  1.00  0.00     0.140 A 
HETATM    2  C   UNL     1      62.767   8.769   3.469  1.00  0.00     0.098 A 
HETATM    3  N   UNL     1      61.066   9.302   1.935  1.00  0.00    -0.318 N 
ATOM      4  HN  UNL     1      60.396   9.865   1.412  1.00  0.00     0.174 HD
HETATM    5  C   UNL     1      62.500   7.536   2.924  1.00  0.00     0.115 A 
HETATM    6  S   UNL     1      61.278   7.671   1.765  1.00  0.00     0.000 SA
HETATM    7 CL   UNL     1      63.940   9.067   4.680  1.00  0.00    -0.079 Cl
HETATM    8 CL   UNL     1      63.209   6.014   3.263  1.00  0.00    -0.073 Cl
ENDROOT
BRANCH   1   9
HETATM    9  C   UNL     1      61.908  11.204   3.195  1.00  0.00     0.229 C 
HETATM   10  O   UNL     1      61.862  11.687   4.319  1.00  0.00    -0.643 OA
HETATM   11  O   UNL     1      61.959  12.040   2.127  1.00  0.00    -0.643 OA
ENDBRANCH   1   9
TORSDOF 1
ENDMDL
MODEL 6
REMARK VINA RESULT:      -4.1     14.205     14.786
REMARK  1 active torsions:
REMARK  status: ('A' for Active; 'I' for Inactive)
REMARK    1  A    between atoms: C_1  and  C_7 
ROOT
HETATM    1  C   UNL     1      66.941   6.836   7.004  1.00  0.00     0.140 A 
HETATM    2  C   UNL     1      67.543   5.617   6.506  1.00  0.00     0.098 A 
HETATM    3  N   UNL     1      67.174   7.084   8.307  1.00  0.00    -0.318 N 
ATOM      4  HN  UNL     1      66.829   7.894   8.823  1.00  0.00     0.174 HD
HETATM    5  C   UNL     1      68.229   4.984   7.514  1.00  0.00     0.115 A 
HETATM    6  S   UNL     1      68.105   5.875   8.943  1.00  0.00     0.000 SA
HETATM    7 CL   UNL     1      67.420   5.043   4.898  1.00  0.00    -0.079 Cl
HETATM    8 CL   UNL     1      69.118   3.521   7.478  1.00  0.00    -0.073 Cl
ENDROOT
BRANCH   1   9
HETATM    9  C   UNL     1      66.132   7.779   6.222  1.00  0.00     0.229 C 
HETATM   10  O   UNL     1      66.543   8.525   5.342  1.00  0.00    -0.643 OA
HETATM   11  O   UNL     1      64.810   7.800   6.530  1.00  0.00    -0.643 OA
ENDBRANCH   1   9
TORSDOF 1
ENDMDL
MODEL 7
REMARK VINA RESULT:      -4.0     19.270     19.710
REMARK  1 active torsions:
REMARK  status: ('A' for Active; 'I' for Inactive)
REMARK    1  A    between atoms: C_1  and  C_7 
ROOT
HETATM    1  C   UNL     1      62.852   9.263   5.199  1.00  0.00     0.140 A 
HETATM    2  C   UNL     1      62.523   8.607   3.952  1.00  0.00     0.098 A 
HETATM    3  N   UNL     1      63.010   8.431   6.246  1.00  0.00    -0.318 N 
ATOM      4  HN  UNL     1      63.243   8.719   7.197  1.00  0.00     0.174 HD
HETATM    5  C   UNL     1      62.448   7.248   4.140  1.00  0.00     0.115 A 
HETATM    6  S   UNL     1      62.770   6.871   5.754  1.00  0.00     0.000 SA
HETATM    7 CL   UNL     1      62.263   9.402   2.457  1.00  0.00    -0.079 Cl
HETATM    8 CL   UNL     1      62.096   6.007   3.013  1.00  0.00    -0.073 Cl
ENDROOT
BRANCH   1   9
HETATM    9  C   UNL     1      63.018  10.709   5.394  1.00  0.00     0.229 C 
HETATM   10  O   UNL     1      62.280  11.584   4.962  1.00  0.00    -0.643 OA
HETATM   11  O   UNL     1      64.102  11.073   6.125  1.00  0.00    -0.643 OA
ENDBRANCH   1   9
TORSDOF 1
ENDMDL
MODEL 8
REMARK VINA RESULT:      -3.9     20.449     20.887
REMARK  1 active torsions:
REMARK  status: ('A' for Active; 'I' for Inactive)
REMARK    1  A    between atoms: C_1  and  C_7 
ROOT
HETATM    1  C   UNL     1      62.605  10.199   4.127  1.00  0.00     0.140 A 
HETATM    2  C   UNL     1      62.724   9.148   3.140  1.00  0.00     0.098 A 
HETATM    3  N   UNL     1      62.036  11.332   3.674  1.00  0.00    -0.318 N 
ATOM      4  HN  UNL     1      61.874  12.172   4.229  1.00  0.00     0.174 HD
HETATM    5  C   UNL     1      62.211   9.569   1.938  1.00  0.00     0.115 A 
HETATM    6  S   UNL     1      61.640  11.152   2.079  1.00  0.00     0.000 SA
HETATM    7 CL   UNL     1      63.404   7.601   3.423  1.00  0.00    -0.079 Cl
HETATM    8 CL   UNL     1      62.097   8.736   0.446  1.00  0.00    -0.073 Cl
ENDROOT
BRANCH   1   9
HETATM    9  C   UNL     1      63.043  10.120   5.527  1.00  0.00     0.229 C 
HETATM   10  O   UNL     1      63.569  11.019   6.170  1.00  0.00    -0.643 OA
HETATM   11  O   UNL     1      62.829   8.924   6.132  1.00  0.00    -0.643 OA
ENDBRANCH   1   9
TORSDOF 1
ENDMDL
MODEL 9
REMARK VINA RESULT:      -3.8     21.406     22.014
REMARK  1 active torsions:
REMARK  status: ('A' for Active; 'I' for Inactive)
REMARK    1  A    between atoms: C_1  and  C_7 
ROOT
HETATM    1  C   UNL     1      61.997   8.919   2.357  1.00  0.00     0.140 A 
HETATM    2  C   UNL     1      62.064  10.239   2.947  1.00  0.00     0.098 A 
HETATM    3  N   UNL     1      62.305   7.914   3.197  1.00  0.00    -0.318 N 
ATOM      4  HN  UNL     1      62.310   6.923   2.953  1.00  0.00     0.174 HD
HETATM    5  C   UNL     1      62.436  10.147   4.266  1.00  0.00     0.115 A 
HETATM    6  S   UNL     1      62.672   8.529   4.687  1.00  0.00     0.000 SA
HETATM    7 CL   UNL     1      61.729  11.705   2.127  1.00  0.00    -0.079 Cl
HETATM    8 CL   UNL     1      62.666  11.387   5.426  1.00  0.00    -0.073 Cl
ENDROOT
BRANCH   1   9
HETATM    9  C   UNL     1      61.634   8.615   0.967  1.00  0.00     0.229 C 
HETATM   10  O   UNL     1      62.414   8.417   0.045  1.00  0.00    -0.643 OA
HETATM   11  O   UNL     1      60.301   8.555   0.719  1.00  0.00    -0.643 OA
ENDBRANCH   1   9
TORSDOF 1
ENDMDL
