MODEL 1
REMARK VINA RESULT:      -5.2      0.000      0.000
REMARK  2 active torsions:
REMARK  status: ('A' for Active; 'I' for Inactive)
REMARK    1  A    between atoms: C_1  and  C_4 
REMARK    2  A    between atoms: C_3  and  O_5 
ROOT
HETATM    1  C   UNL     1      62.561   8.940   3.304  1.00  0.00    -0.021 A 
HETATM    2  C   UNL     1      62.318   9.203   1.932  1.00  0.00     0.074 A 
HETATM    3  C   UNL     1      62.369  10.022   4.196  1.00  0.00     0.010 A 
HETATM    4  C   UNL     1      61.918  10.491   1.519  1.00  0.00     0.037 A 
HETATM    5  C   UNL     1      61.970  11.294   3.771  1.00  0.00     0.001 A 
HETATM    6  C   UNL     1      61.761  11.536   2.428  1.00  0.00     0.003 A 
ENDROOT
BRANCH   1   7
HETATM    7  C   UNL     1      63.057   7.599   3.850  1.00  0.00     0.024 C 
HETATM    8  C   UNL     1      62.218   7.011   5.000  1.00  0.00     0.037 C 
HETATM    9  C   UNL     1      62.699   7.355   6.410  1.00  0.00     0.233 C 
HETATM   10  N   UNL     1      64.130   7.143   6.595  1.00  0.00    -0.075 N 
HETATM   11  C   UNL     1      64.921   7.877   5.616  1.00  0.00     0.233 C 
HETATM   12  H   UNL     1      64.391   7.454   7.530  1.00  0.00     0.277 HD
HETATM   13  H   UNL     1      64.320   6.148   6.471  1.00  0.00     0.277 HD
HETATM   14  C   UNL     1      64.562   7.479   4.186  1.00  0.00     0.037 C 
ENDBRANCH   1   7
BRANCH   2  15
HETATM   15  O   UNL     1      62.321   8.340   0.870  1.00  0.00    -0.355 OA
HETATM   16  C   UNL     1      61.133   7.685   0.469  1.00  0.00     0.210 C 
ENDBRANCH   2  15
TORSDOF 2
ENDMDL
MODEL 2
REMARK VINA RESULT:      -5.2      1.423      2.839
REMARK  2 active torsions:
REMARK  status: ('A' for Active; 'I' for Inactive)
REMARK    1  A    between atoms: C_1  and  C_4 
REMARK    2  A    between atoms: C_3  and  O_5 
ROOT
HETATM    1  C   UNL     1      62.757   8.631   3.519  1.00  0.00    -0.021 A 
HETATM    2  C   UNL     1      62.220   9.656   2.701  1.00  0.00     0.074 A 
HETATM    3  C   UNL     1      63.016   7.392   2.887  1.00  0.00     0.010 A 
HETATM    4  C   UNL     1      61.963   9.410   1.336  1.00  0.00     0.037 A 
HETATM    5  C   UNL     1      62.756   7.163   1.532  1.00  0.00     0.001 A 
HETATM    6  C   UNL     1      62.212   8.167   0.756  1.00  0.00     0.003 A 
ENDROOT
BRANCH   1   7
HETATM    7  C   UNL     1      63.015   8.773   5.022  1.00  0.00     0.024 C 
HETATM    8  C   UNL     1      64.437   9.229   5.400  1.00  0.00     0.037 C 
HETATM    9  C   UNL     1      65.430   8.107   5.700  1.00  0.00     0.233 C 
HETATM   10  N   UNL     1      64.901   7.102   6.616  1.00  0.00    -0.075 N 
HETATM   11  C   UNL     1      63.650   6.531   6.134  1.00  0.00     0.233 C 
HETATM   12  H   UNL     1      65.587   6.355   6.717  1.00  0.00     0.277 HD
HETATM   13  H   UNL     1      64.716   7.557   7.511  1.00  0.00     0.277 HD
HETATM   14  C   UNL     1      62.581   7.602   5.934  1.00  0.00     0.037 C 
ENDBRANCH   1   7
BRANCH   2  15
HETATM   15  O   UNL     1      61.968  10.967   3.005  1.00  0.00    -0.355 OA
HETATM   16  C   UNL     1      61.690  11.904   1.983  1.00  0.00     0.210 C 
ENDBRANCH   2  15
TORSDOF 2
ENDMDL
MODEL 3
REMARK VINA RESULT:      -5.2      1.536      2.633
REMARK  2 active torsions:
REMARK  status: ('A' for Active; 'I' for Inactive)
REMARK    1  A    between atoms: C_1  and  C_4 
REMARK    2  A    between atoms: C_3  and  O_5 
ROOT
HETATM    1  C   UNL     1      62.916   8.573   3.369  1.00  0.00    -0.021 A 
HETATM    2  C   UNL     1      62.626   9.727   4.138  1.00  0.00     0.074 A 
HETATM    3  C   UNL     1      62.581   8.631   1.995  1.00  0.00     0.010 A 
HETATM    4  C   UNL     1      62.026  10.850   3.530  1.00  0.00     0.037 A 
HETATM    5  C   UNL     1      61.988   9.752   1.406  1.00  0.00     0.001 A 
HETATM    6  C   UNL     1      61.692  10.859   2.177  1.00  0.00     0.003 A 
ENDROOT
BRANCH   1   7
HETATM    7  C   UNL     1      63.507   7.281   3.941  1.00  0.00     0.024 C 
HETATM    8  C   UNL     1      62.660   6.604   5.035  1.00  0.00     0.037 C 
HETATM    9  C   UNL     1      63.018   6.980   6.473  1.00  0.00     0.233 C 
HETATM   10  N   UNL     1      64.450   6.907   6.745  1.00  0.00    -0.075 N 
HETATM   11  C   UNL     1      65.222   7.724   5.819  1.00  0.00     0.233 C 
HETATM   12  H   UNL     1      64.621   7.234   7.695  1.00  0.00     0.277 HD
HETATM   13  H   UNL     1      64.743   5.936   6.630  1.00  0.00     0.277 HD
HETATM   14  C   UNL     1      64.992   7.305   4.369  1.00  0.00     0.037 C 
ENDBRANCH   1   7
BRANCH   2  15
HETATM   15  O   UNL     1      62.926   9.997   5.446  1.00  0.00    -0.355 OA
HETATM   16  C   UNL     1      63.078  11.331   5.892  1.00  0.00     0.210 C 
ENDBRANCH   2  15
TORSDOF 2
ENDMDL
MODEL 4
REMARK VINA RESULT:      -4.9      2.610      4.253
REMARK  2 active torsions:
REMARK  status: ('A' for Active; 'I' for Inactive)
REMARK    1  A    between atoms: C_1  and  C_4 
REMARK    2  A    between atoms: C_3  and  O_5 
ROOT
HETATM    1  C   UNL     1      64.962   7.937   4.825  1.00  0.00    -0.021 A 
HETATM    2  C   UNL     1      64.054   9.024   4.892  1.00  0.00     0.074 A 
HETATM    3  C   UNL     1      64.710   6.969   3.824  1.00  0.00     0.010 A 
HETATM    4  C   UNL     1      62.966   9.094   3.998  1.00  0.00     0.037 A 
HETATM    5  C   UNL     1      63.627   7.052   2.943  1.00  0.00     0.001 A 
HETATM    6  C   UNL     1      62.741   8.107   3.039  1.00  0.00     0.003 A 
ENDROOT
BRANCH   1   7
HETATM    7  C   UNL     1      66.136   7.733   5.785  1.00  0.00     0.024 C 
HETATM    8  C   UNL     1      67.412   7.155   5.143  1.00  0.00     0.037 C 
HETATM    9  C   UNL     1      67.555   5.635   5.216  1.00  0.00     0.233 C 
HETATM   10  N   UNL     1      67.305   5.099   6.550  1.00  0.00    -0.075 N 
HETATM   11  C   UNL     1      65.997   5.491   7.058  1.00  0.00     0.233 C 
HETATM   12  H   UNL     1      67.351   4.081   6.509  1.00  0.00     0.277 HD
HETATM   13  H   UNL     1      68.014   5.475   7.179  1.00  0.00     0.277 HD
HETATM   14  C   UNL     1      65.848   7.009   7.121  1.00  0.00     0.037 C 
ENDBRANCH   1   7
BRANCH   2  15
HETATM   15  O   UNL     1      64.101  10.146   5.676  1.00  0.00    -0.355 OA
HETATM   16  C   UNL     1      63.024  11.063   5.687  1.00  0.00     0.210 C 
ENDBRANCH   2  15
TORSDOF 2
ENDMDL
MODEL 5
REMARK VINA RESULT:      -4.8      5.476      8.321
REMARK  2 active torsions:
REMARK  status: ('A' for Active; 'I' for Inactive)
REMARK    1  A    between atoms: C_1  and  C_4 
REMARK    2  A    between atoms: C_3  and  O_5 
ROOT
HETATM    1  C   UNL     1      67.978   4.987   7.106  1.00  0.00    -0.021 A 
HETATM    2  C   UNL     1      68.492   3.669   7.029  1.00  0.00     0.074 A 
HETATM    3  C   UNL     1      68.158   5.663   8.337  1.00  0.00     0.010 A 
HETATM    4  C   UNL     1      69.134   3.094   8.146  1.00  0.00     0.037 A 
HETATM    5  C   UNL     1      68.798   5.079   9.435  1.00  0.00     0.001 A 
HETATM    6  C   UNL     1      69.273   3.785   9.348  1.00  0.00     0.003 A 
ENDROOT
BRANCH   1   7
HETATM    7  C   UNL     1      67.211   5.681   5.977  1.00  0.00     0.024 C 
HETATM    8  C   UNL     1      67.602   7.151   5.730  1.00  0.00     0.037 C 
HETATM    9  C   UNL     1      66.751   8.190   6.460  1.00  0.00     0.233 C 
HETATM   10  N   UNL     1      65.318   7.959   6.321  1.00  0.00    -0.075 N 
HETATM   11  C   UNL     1      64.937   6.622   6.757  1.00  0.00     0.233 C 
HETATM   12  H   UNL     1      64.817   8.645   6.885  1.00  0.00     0.277 HD
HETATM   13  H   UNL     1      65.079   8.049   5.333  1.00  0.00     0.277 HD
HETATM   14  C   UNL     1      65.671   5.540   5.969  1.00  0.00     0.037 C 
ENDBRANCH   1   7
BRANCH   2  15
HETATM   15  O   UNL     1      68.556   2.824   5.954  1.00  0.00    -0.355 OA
HETATM   16  C   UNL     1      69.050   1.506   6.101  1.00  0.00     0.210 C 
ENDBRANCH   2  15
TORSDOF 2
ENDMDL
MODEL 6
REMARK VINA RESULT:      -4.7      2.591      4.511
REMARK  2 active torsions:
REMARK  status: ('A' for Active; 'I' for Inactive)
REMARK    1  A    between atoms: C_1  and  C_4 
REMARK    2  A    between atoms: C_3  and  O_5 
ROOT
HETATM    1  C   UNL     1      62.298   8.875   2.523  1.00  0.00    -0.021 A 
HETATM    2  C   UNL     1      62.240   9.992   3.394  1.00  0.00     0.074 A 
HETATM    3  C   UNL     1      63.042   7.760   2.978  1.00  0.00     0.010 A 
HETATM    4  C   UNL     1      62.911   9.957   4.634  1.00  0.00     0.037 A 
HETATM    5  C   UNL     1      63.701   7.740   4.212  1.00  0.00     0.001 A 
HETATM    6  C   UNL     1      63.652   8.847   5.036  1.00  0.00     0.003 A 
ENDROOT
BRANCH   1   7
HETATM    7  C   UNL     1      61.660   8.831   1.133  1.00  0.00     0.024 C 
HETATM    8  C   UNL     1      60.303   8.105   1.059  1.00  0.00     0.037 C 
HETATM    9  C   UNL     1      60.368   6.625   0.681  1.00  0.00     0.233 C 
HETATM   10  N   UNL     1      61.207   6.367  -0.484  1.00  0.00    -0.075 N 
HETATM   11  C   UNL     1      62.557   6.886  -0.309  1.00  0.00     0.233 C 
HETATM   12  H   UNL     1      61.258   5.360  -0.636  1.00  0.00     0.277 HD
HETATM   13  H   UNL     1      60.788   6.840  -1.285  1.00  0.00     0.277 HD
HETATM   14  C   UNL     1      62.554   8.391  -0.049  1.00  0.00     0.037 C 
ENDBRANCH   1   7
BRANCH   2  15
HETATM   15  O   UNL     1      61.524  11.152   3.271  1.00  0.00    -0.355 OA
HETATM   16  C   UNL     1      61.719  12.005   2.159  1.00  0.00     0.210 C 
ENDBRANCH   2  15
TORSDOF 2
ENDMDL
MODEL 7
REMARK VINA RESULT:      -4.6      4.496      6.408
REMARK  2 active torsions:
REMARK  status: ('A' for Active; 'I' for Inactive)
REMARK    1  A    between atoms: C_1  and  C_4 
REMARK    2  A    between atoms: C_3  and  O_5 
ROOT
HETATM    1  C   UNL     1      66.682   6.419   6.939  1.00  0.00    -0.021 A 
HETATM    2  C   UNL     1      65.467   7.018   6.519  1.00  0.00     0.074 A 
HETATM    3  C   UNL     1      67.819   6.671   6.135  1.00  0.00     0.010 A 
HETATM    4  C   UNL     1      65.435   7.807   5.350  1.00  0.00     0.037 A 
HETATM    5  C   UNL     1      67.771   7.458   4.979  1.00  0.00     0.001 A 
HETATM    6  C   UNL     1      66.574   8.013   4.573  1.00  0.00     0.003 A 
ENDROOT
BRANCH   1   7
HETATM    7  C   UNL     1      66.814   5.497   8.153  1.00  0.00     0.024 C 
HETATM    8  C   UNL     1      67.975   5.835   9.107  1.00  0.00     0.037 C 
HETATM    9  C   UNL     1      69.281   5.085   8.847  1.00  0.00     0.233 C 
HETATM   10  N   UNL     1      69.094   3.648   8.678  1.00  0.00    -0.075 N 
HETATM   11  C   UNL     1      68.137   3.344   7.623  1.00  0.00     0.233 C 
HETATM   12  H   UNL     1      69.990   3.224   8.442  1.00  0.00     0.277 HD
HETATM   13  H   UNL     1      68.728   3.273   9.554  1.00  0.00     0.277 HD
HETATM   14  C   UNL     1      66.773   3.972   7.899  1.00  0.00     0.037 C 
ENDBRANCH   1   7
BRANCH   2  15
HETATM   15  O   UNL     1      64.248   7.036   7.141  1.00  0.00    -0.355 OA
HETATM   16  C   UNL     1      63.054   7.104   6.386  1.00  0.00     0.210 C 
ENDBRANCH   2  15
TORSDOF 2
ENDMDL
MODEL 8
REMARK VINA RESULT:      -4.4      3.701      5.483
REMARK  2 active torsions:
REMARK  status: ('A' for Active; 'I' for Inactive)
REMARK    1  A    between atoms: C_1  and  C_4 
REMARK    2  A    between atoms: C_3  and  O_5 
ROOT
HETATM    1  C   UNL     1      65.096   6.589   6.694  1.00  0.00    -0.021 A 
HETATM    2  C   UNL     1      65.869   7.628   6.119  1.00  0.00     0.074 A 
HETATM    3  C   UNL     1      63.712   6.595   6.398  1.00  0.00     0.010 A 
HETATM    4  C   UNL     1      65.252   8.603   5.309  1.00  0.00     0.037 A 
HETATM    5  C   UNL     1      63.115   7.569   5.591  1.00  0.00     0.001 A 
HETATM    6  C   UNL     1      63.880   8.587   5.058  1.00  0.00     0.003 A 
ENDROOT
BRANCH   1   7
HETATM    7  C   UNL     1      65.654   5.519   7.637  1.00  0.00     0.024 C 
HETATM    8  C   UNL     1      66.238   6.053   8.959  1.00  0.00     0.037 C 
HETATM    9  C   UNL     1      67.743   6.321   8.953  1.00  0.00     0.233 C 
HETATM   10  N   UNL     1      68.520   5.216   8.402  1.00  0.00    -0.075 N 
HETATM   11  C   UNL     1      68.083   4.859   7.059  1.00  0.00     0.233 C 
HETATM   12  H   UNL     1      69.502   5.489   8.367  1.00  0.00     0.277 HD
HETATM   13  H   UNL     1      68.385   4.404   9.005  1.00  0.00     0.277 HD
HETATM   14  C   UNL     1      66.609   4.463   7.032  1.00  0.00     0.037 C 
ENDBRANCH   1   7
BRANCH   2  15
HETATM   15  O   UNL     1      67.225   7.817   6.144  1.00  0.00    -0.355 OA
HETATM   16  C   UNL     1      67.964   7.902   4.941  1.00  0.00     0.210 C 
ENDBRANCH   2  15
TORSDOF 2
ENDMDL
MODEL 9
REMARK VINA RESULT:      -4.2     11.259     13.726
REMARK  2 active torsions:
REMARK  status: ('A' for Active; 'I' for Inactive)
REMARK    1  A    between atoms: C_1  and  C_4 
REMARK    2  A    between atoms: C_3  and  O_5 
ROOT
HETATM    1  C   UNL     1      56.611   1.728  12.919  1.00  0.00    -0.021 A 
HETATM    2  C   UNL     1      57.596   2.379  12.134  1.00  0.00     0.074 A 
HETATM    3  C   UNL     1      57.084   0.946  14.000  1.00  0.00     0.010 A 
HETATM    4  C   UNL     1      58.963   2.221  12.440  1.00  0.00     0.037 A 
HETATM    5  C   UNL     1      58.444   0.800  14.292  1.00  0.00     0.001 A 
HETATM    6  C   UNL     1      59.389   1.423  13.502  1.00  0.00     0.003 A 
ENDROOT
BRANCH   1   7
HETATM    7  C   UNL     1      55.108   1.782  12.636  1.00  0.00     0.024 C 
HETATM    8  C   UNL     1      54.506   3.199  12.571  1.00  0.00     0.037 C 
HETATM    9  C   UNL     1      53.914   3.724  13.879  1.00  0.00     0.233 C 
HETATM   10  N   UNL     1      53.028   2.767  14.532  1.00  0.00    -0.075 N 
HETATM   11  C   UNL     1      53.687   1.490  14.772  1.00  0.00     0.233 C 
HETATM   12  H   UNL     1      52.725   3.154  15.425  1.00  0.00     0.277 HD
HETATM   13  H   UNL     1      52.233   2.601  13.914  1.00  0.00     0.277 HD
HETATM   14  C   UNL     1      54.191   0.862  13.475  1.00  0.00     0.037 C 
ENDBRANCH   1   7
BRANCH   2  15
HETATM   15  O   UNL     1      57.437   3.269  11.106  1.00  0.00    -0.355 OA
HETATM   16  C   UNL     1      58.400   3.358  10.073  1.00  0.00     0.210 C 
ENDBRANCH   2  15
TORSDOF 2
ENDMDL
