MODEL 1
REMARK VINA RESULT:      -6.3      0.000      0.000
REMARK  1 active torsions:
REMARK  status: ('A' for Active; 'I' for Inactive)
REMARK    1  A    between atoms: C_6  and  C_7 
REMARK       I    between atoms: C_7  and  N_10 
ROOT
HETATM    1  C   UNL     1      63.251   8.591   3.686  1.00  0.00     0.005 A 
HETATM    2  C   UNL     1      62.329   9.348   2.917  1.00  0.00     0.027 A 
HETATM    3  C   UNL     1      62.024   8.616   1.673  1.00  0.00     0.194 A 
HETATM    4  C   UNL     1      63.547   7.371   2.920  1.00  0.00    -0.010 A 
HETATM    5  C   UNL     1      62.822   7.388   1.710  1.00  0.00     0.026 A 
HETATM    6  C   UNL     1      63.684   9.143   4.899  1.00  0.00     0.043 A 
HETATM    7  O   UNL     1      61.277   8.977   0.788  1.00  0.00    -0.287 OA
HETATM    8  C   UNL     1      61.827  10.590   3.265  1.00  0.00     0.016 A 
HETATM    9  C   UNL     1      64.383   6.286   3.136  1.00  0.00     0.013 A 
HETATM   10  C   UNL     1      62.895   6.409   0.729  1.00  0.00     0.016 A 
HETATM   11  C   UNL     1      63.181  10.419   5.266  1.00  0.00     0.018 A 
HETATM   12  C   UNL     1      62.270  11.130   4.459  1.00  0.00     0.002 A 
HETATM   13  C   UNL     1      64.476   5.273   2.162  1.00  0.00     0.001 A 
HETATM   14  C   UNL     1      63.745   5.335   0.967  1.00  0.00     0.001 A 
ENDROOT
BRANCH   6  15
HETATM   15  C   UNL     1      64.600   8.445   5.852  1.00  0.00     0.250 C 
HETATM   16  O   UNL     1      65.778   8.761   5.988  1.00  0.00    -0.268 OA
HETATM   17  N   UNL     1      64.126   7.384   6.574  1.00  0.00    -0.366 N 
HETATM   18  H   UNL     1      63.185   7.109   6.483  1.00  0.00     0.159 HD
HETATM   19  H   UNL     1      64.725   6.896   7.184  1.00  0.00     0.159 HD
ENDBRANCH   6  15
TORSDOF 1
ENDMDL
MODEL 2
REMARK VINA RESULT:      -6.3      1.805      3.800
REMARK  1 active torsions:
REMARK  status: ('A' for Active; 'I' for Inactive)
REMARK    1  A    between atoms: C_6  and  C_7 
REMARK       I    between atoms: C_7  and  N_10 
ROOT
HETATM    1  C   UNL     1      63.163   8.631   3.484  1.00  0.00     0.005 A 
HETATM    2  C   UNL     1      63.666   9.117   4.719  1.00  0.00     0.027 A 
HETATM    3  C   UNL     1      64.609   8.128   5.277  1.00  0.00     0.194 A 
HETATM    4  C   UNL     1      63.780   7.315   3.259  1.00  0.00    -0.010 A 
HETATM    5  C   UNL     1      64.638   7.008   4.335  1.00  0.00     0.026 A 
HETATM    6  C   UNL     1      62.224   9.426   2.813  1.00  0.00     0.043 A 
HETATM    7  O   UNL     1      65.218   8.223   6.322  1.00  0.00    -0.287 OA
HETATM    8  C   UNL     1      63.301  10.310   5.318  1.00  0.00     0.016 A 
HETATM    9  C   UNL     1      63.658   6.361   2.261  1.00  0.00     0.013 A 
HETATM   10  C   UNL     1      65.353   5.825   4.466  1.00  0.00     0.016 A 
HETATM   11  C   UNL     1      61.836  10.650   3.418  1.00  0.00     0.018 A 
HETATM   12  C   UNL     1      62.365  11.082   4.652  1.00  0.00     0.002 A 
HETATM   13  C   UNL     1      64.372   5.151   2.361  1.00  0.00     0.001 A 
HETATM   14  C   UNL     1      65.208   4.881   3.455  1.00  0.00     0.001 A 
ENDROOT
BRANCH   6  15
HETATM   15  C   UNL     1      61.649   9.087   1.476  1.00  0.00     0.250 C 
HETATM   16  O   UNL     1      62.319   9.091   0.448  1.00  0.00    -0.268 OA
HETATM   17  N   UNL     1      60.315   8.802   1.378  1.00  0.00    -0.366 N 
HETATM   18  H   UNL     1      59.753   8.792   2.186  1.00  0.00     0.159 HD
HETATM   19  H   UNL     1      59.916   8.605   0.499  1.00  0.00     0.159 HD
ENDBRANCH   6  15
TORSDOF 1
ENDMDL
MODEL 3
REMARK VINA RESULT:      -6.3      1.326      4.020
REMARK  1 active torsions:
REMARK  status: ('A' for Active; 'I' for Inactive)
REMARK    1  A    between atoms: C_6  and  C_7 
REMARK       I    between atoms: C_7  and  N_10 
ROOT
HETATM    1  C   UNL     1      64.009   7.643   4.203  1.00  0.00     0.005 A 
HETATM    2  C   UNL     1      63.689   7.064   2.948  1.00  0.00     0.027 A 
HETATM    3  C   UNL     1      62.857   8.009   2.179  1.00  0.00     0.194 A 
HETATM    4  C   UNL     1      63.365   8.965   4.241  1.00  0.00    -0.010 A 
HETATM    5  C   UNL     1      62.667   9.182   3.035  1.00  0.00     0.026 A 
HETATM    6  C   UNL     1      64.775   6.875   5.091  1.00  0.00     0.043 A 
HETATM    7  O   UNL     1      62.406   7.833   1.067  1.00  0.00    -0.287 OA
HETATM    8  C   UNL     1      64.067   5.799   2.530  1.00  0.00     0.016 A 
HETATM    9  C   UNL     1      63.293   9.965   5.198  1.00  0.00     0.013 A 
HETATM   10  C   UNL     1      61.914  10.312   2.749  1.00  0.00     0.016 A 
HETATM   11  C   UNL     1      65.166   5.575   4.678  1.00  0.00     0.018 A 
HETATM   12  C   UNL     1      64.815   5.046   3.419  1.00  0.00     0.002 A 
HETATM   13  C   UNL     1      62.540  11.127   4.937  1.00  0.00     0.001 A 
HETATM   14  C   UNL     1      61.852  11.298   3.727  1.00  0.00     0.001 A 
ENDROOT
BRANCH   6  15
HETATM   15  C   UNL     1      65.249   7.365   6.421  1.00  0.00     0.250 C 
HETATM   16  O   UNL     1      64.716   7.036   7.475  1.00  0.00    -0.268 OA
HETATM   17  N   UNL     1      66.293   8.249   6.471  1.00  0.00    -0.366 N 
HETATM   18  H   UNL     1      66.739   8.530   5.640  1.00  0.00     0.159 HD
HETATM   19  H   UNL     1      66.597   8.603   7.338  1.00  0.00     0.159 HD
ENDBRANCH   6  15
TORSDOF 1
ENDMDL
MODEL 4
REMARK VINA RESULT:      -5.8      4.128      6.808
REMARK  1 active torsions:
REMARK  status: ('A' for Active; 'I' for Inactive)
REMARK    1  A    between atoms: C_6  and  C_7 
REMARK       I    between atoms: C_7  and  N_10 
ROOT
HETATM    1  C   UNL     1      66.585   5.721   5.741  1.00  0.00     0.005 A 
HETATM    2  C   UNL     1      66.982   4.606   4.957  1.00  0.00     0.027 A 
HETATM    3  C   UNL     1      67.866   3.741   5.762  1.00  0.00     0.194 A 
HETATM    4  C   UNL     1      67.232   5.572   7.054  1.00  0.00    -0.010 A 
HETATM    5  C   UNL     1      68.007   4.393   7.065  1.00  0.00     0.026 A 
HETATM    6  C   UNL     1      65.760   6.676   5.133  1.00  0.00     0.043 A 
HETATM    7  O   UNL     1      68.386   2.707   5.400  1.00  0.00    -0.287 OA
HETATM    8  C   UNL     1      66.625   4.388   3.638  1.00  0.00     0.016 A 
HETATM    9  C   UNL     1      67.249   6.346   8.204  1.00  0.00     0.013 A 
HETATM   10  C   UNL     1      68.782   3.966   8.134  1.00  0.00     0.016 A 
HETATM   11  C   UNL     1      65.390   6.468   3.778  1.00  0.00     0.018 A 
HETATM   12  C   UNL     1      65.818   5.344   3.044  1.00  0.00     0.002 A 
HETATM   13  C   UNL     1      68.022   5.938   9.308  1.00  0.00     0.001 A 
HETATM   14  C   UNL     1      68.787   4.762   9.273  1.00  0.00     0.001 A 
ENDROOT
BRANCH   6  15
HETATM   15  C   UNL     1      65.205   7.869   5.840  1.00  0.00     0.250 C 
HETATM   16  O   UNL     1      65.837   8.912   5.975  1.00  0.00    -0.268 OA
HETATM   17  N   UNL     1      63.959   7.791   6.400  1.00  0.00    -0.366 N 
HETATM   18  H   UNL     1      63.429   6.966   6.307  1.00  0.00     0.159 HD
HETATM   19  H   UNL     1      63.591   8.559   6.894  1.00  0.00     0.159 HD
ENDBRANCH   6  15
TORSDOF 1
ENDMDL
MODEL 5
REMARK VINA RESULT:      -5.8      5.893      7.359
REMARK  1 active torsions:
REMARK  status: ('A' for Active; 'I' for Inactive)
REMARK    1  A    between atoms: C_6  and  C_7 
REMARK       I    between atoms: C_7  and  N_10 
ROOT
HETATM    1  C   UNL     1      68.052   4.438   7.536  1.00  0.00     0.005 A 
HETATM    2  C   UNL     1      67.126   5.337   6.945  1.00  0.00     0.027 A 
HETATM    3  C   UNL     1      66.798   4.866   5.586  1.00  0.00     0.194 A 
HETATM    4  C   UNL     1      68.326   3.391   6.539  1.00  0.00    -0.010 A 
HETATM    5  C   UNL     1      67.585   3.651   5.368  1.00  0.00     0.026 A 
HETATM    6  C   UNL     1      68.507   4.737   8.827  1.00  0.00     0.043 A 
HETATM    7  O   UNL     1      66.041   5.399   4.801  1.00  0.00    -0.287 OA
HETATM    8  C   UNL     1      66.640   6.489   7.538  1.00  0.00     0.016 A 
HETATM    9  C   UNL     1      69.155   2.280   6.525  1.00  0.00     0.013 A 
HETATM   10  C   UNL     1      67.635   2.883   4.213  1.00  0.00     0.016 A 
HETATM   11  C   UNL     1      68.021   5.919   9.445  1.00  0.00     0.018 A 
HETATM   12  C   UNL     1      67.104   6.780   8.809  1.00  0.00     0.002 A 
HETATM   13  C   UNL     1      69.226   1.478   5.369  1.00  0.00     0.001 A 
HETATM   14  C   UNL     1      68.478   1.778   4.221  1.00  0.00     0.001 A 
ENDROOT
BRANCH   6  15
HETATM   15  C   UNL     1      69.429   3.860   9.609  1.00  0.00     0.250 C 
HETATM   16  O   UNL     1      70.644   4.031   9.632  1.00  0.00    -0.268 OA
HETATM   17  N   UNL     1      68.912   2.796  10.297  1.00  0.00    -0.366 N 
HETATM   18  H   UNL     1      67.941   2.635  10.296  1.00  0.00     0.159 HD
HETATM   19  H   UNL     1      69.511   2.193  10.793  1.00  0.00     0.159 HD
ENDBRANCH   6  15
TORSDOF 1
ENDMDL
MODEL 6
REMARK VINA RESULT:      -5.8      6.583      9.020
REMARK  1 active torsions:
REMARK  status: ('A' for Active; 'I' for Inactive)
REMARK    1  A    between atoms: C_6  and  C_7 
REMARK       I    between atoms: C_7  and  N_10 
ROOT
HETATM    1  C   UNL     1      68.397   3.130   7.838  1.00  0.00     0.005 A 
HETATM    2  C   UNL     1      68.334   2.891   6.441  1.00  0.00     0.027 A 
HETATM    3  C   UNL     1      67.799   4.091   5.770  1.00  0.00     0.194 A 
HETATM    4  C   UNL     1      67.885   4.490   8.063  1.00  0.00    -0.010 A 
HETATM    5  C   UNL     1      67.517   5.064   6.828  1.00  0.00     0.026 A 
HETATM    6  C   UNL     1      68.856   2.085   8.651  1.00  0.00     0.043 A 
HETATM    7  O   UNL     1      67.611   4.229   4.580  1.00  0.00    -0.287 OA
HETATM    8  C   UNL     1      68.685   1.707   5.815  1.00  0.00     0.016 A 
HETATM    9  C   UNL     1      67.676   5.257   9.199  1.00  0.00     0.013 A 
HETATM   10  C   UNL     1      66.959   6.326   6.676  1.00  0.00     0.016 A 
HETATM   11  C   UNL     1      69.215   0.863   8.023  1.00  0.00     0.018 A 
HETATM   12  C   UNL     1      69.127   0.679   6.628  1.00  0.00     0.002 A 
HETATM   13  C   UNL     1      67.116   6.544   9.079  1.00  0.00     0.001 A 
HETATM   14  C   UNL     1      66.755   7.073   7.830  1.00  0.00     0.001 A 
ENDROOT
BRANCH   6  15
HETATM   15  C   UNL     1      69.042   2.199  10.129  1.00  0.00     0.250 C 
HETATM   16  O   UNL     1      68.364   1.565  10.932  1.00  0.00    -0.268 OA
HETATM   17  N   UNL     1      69.974   3.074  10.617  1.00  0.00    -0.366 N 
HETATM   18  H   UNL     1      70.532   3.595   9.996  1.00  0.00     0.159 HD
HETATM   19  H   UNL     1      70.087   3.181  11.589  1.00  0.00     0.159 HD
ENDBRANCH   6  15
TORSDOF 1
ENDMDL
MODEL 7
REMARK VINA RESULT:      -5.7      2.000      5.442
REMARK  1 active torsions:
REMARK  status: ('A' for Active; 'I' for Inactive)
REMARK    1  A    between atoms: C_6  and  C_7 
REMARK       I    between atoms: C_7  and  N_10 
ROOT
HETATM    1  C   UNL     1      63.183   7.662   2.900  1.00  0.00     0.005 A 
HETATM    2  C   UNL     1      63.971   7.134   3.955  1.00  0.00     0.027 A 
HETATM    3  C   UNL     1      64.027   8.117   5.054  1.00  0.00     0.194 A 
HETATM    4  C   UNL     1      62.742   9.000   3.323  1.00  0.00    -0.010 A 
HETATM    5  C   UNL     1      63.254   9.279   4.608  1.00  0.00     0.026 A 
HETATM    6  C   UNL     1      63.039   6.876   1.748  1.00  0.00     0.043 A 
HETATM    7  O   UNL     1      64.616   7.991   6.106  1.00  0.00    -0.287 OA
HETATM    8  C   UNL     1      64.614   5.908   3.939  1.00  0.00     0.016 A 
HETATM    9  C   UNL     1      61.990   9.994   2.717  1.00  0.00     0.013 A 
HETATM   10  C   UNL     1      63.065  10.470   5.293  1.00  0.00     0.016 A 
HETATM   11  C   UNL     1      63.696   5.618   1.715  1.00  0.00     0.018 A 
HETATM   12  C   UNL     1      64.472   5.145   2.792  1.00  0.00     0.002 A 
HETATM   13  C   UNL     1      61.775  11.213   3.388  1.00  0.00     0.001 A 
HETATM   14  C   UNL     1      62.312  11.453   4.662  1.00  0.00     0.001 A 
ENDROOT
BRANCH   6  15
HETATM   15  C   UNL     1      62.191   7.260   0.579  1.00  0.00     0.250 C 
HETATM   16  O   UNL     1      60.967   7.315   0.640  1.00  0.00    -0.268 OA
HETATM   17  N   UNL     1      62.792   7.521  -0.622  1.00  0.00    -0.366 N 
HETATM   18  H   UNL     1      63.773   7.484  -0.699  1.00  0.00     0.159 HD
HETATM   19  H   UNL     1      62.245   7.746  -1.408  1.00  0.00     0.159 HD
ENDBRANCH   6  15
TORSDOF 1
ENDMDL
MODEL 8
REMARK VINA RESULT:      -5.7      2.288      3.737
REMARK  1 active torsions:
REMARK  status: ('A' for Active; 'I' for Inactive)
REMARK    1  A    between atoms: C_6  and  C_7 
REMARK       I    between atoms: C_7  and  N_10 
ROOT
HETATM    1  C   UNL     1      63.577   8.270   3.819  1.00  0.00     0.005 A 
HETATM    2  C   UNL     1      63.367   7.319   2.786  1.00  0.00     0.027 A 
HETATM    3  C   UNL     1      64.440   6.308   2.836  1.00  0.00     0.194 A 
HETATM    4  C   UNL     1      64.804   7.869   4.526  1.00  0.00    -0.010 A 
HETATM    5  C   UNL     1      65.327   6.701   3.933  1.00  0.00     0.026 A 
HETATM    6  C   UNL     1      62.668   9.332   3.912  1.00  0.00     0.043 A 
HETATM    7  O   UNL     1      64.569   5.355   2.096  1.00  0.00    -0.287 OA
HETATM    8  C   UNL     1      62.339   7.358   1.860  1.00  0.00     0.016 A 
HETATM    9  C   UNL     1      65.518   8.412   5.582  1.00  0.00     0.013 A 
HETATM   10  C   UNL     1      66.500   6.071   4.326  1.00  0.00     0.016 A 
HETATM   11  C   UNL     1      61.611   9.387   2.966  1.00  0.00     0.018 A 
HETATM   12  C   UNL     1      61.453   8.417   1.956  1.00  0.00     0.002 A 
HETATM   13  C   UNL     1      66.710   7.795   6.008  1.00  0.00     0.001 A 
HETATM   14  C   UNL     1      67.201   6.639   5.384  1.00  0.00     0.001 A 
ENDROOT
BRANCH   6  15
HETATM   15  C   UNL     1      62.713  10.375   4.980  1.00  0.00     0.250 C 
HETATM   16  O   UNL     1      62.986  10.115   6.148  1.00  0.00    -0.268 OA
HETATM   17  N   UNL     1      62.398  11.668   4.661  1.00  0.00    -0.366 N 
HETATM   18  H   UNL     1      62.175  11.905   3.732  1.00  0.00     0.159 HD
HETATM   19  H   UNL     1      62.396  12.361   5.360  1.00  0.00     0.159 HD
ENDBRANCH   6  15
TORSDOF 1
ENDMDL
MODEL 9
REMARK VINA RESULT:      -5.6      4.917      7.220
REMARK  1 active torsions:
REMARK  status: ('A' for Active; 'I' for Inactive)
REMARK    1  A    between atoms: C_6  and  C_7 
REMARK       I    between atoms: C_7  and  N_10 
ROOT
HETATM    1  C   UNL     1      67.673   4.849   6.849  1.00  0.00     0.005 A 
HETATM    2  C   UNL     1      68.519   3.802   7.300  1.00  0.00     0.027 A 
HETATM    3  C   UNL     1      68.632   2.783   6.238  1.00  0.00     0.194 A 
HETATM    4  C   UNL     1      67.233   4.489   5.492  1.00  0.00    -0.010 A 
HETATM    5  C   UNL     1      67.797   3.248   5.128  1.00  0.00     0.026 A 
HETATM    6  C   UNL     1      67.421   5.902   7.738  1.00  0.00     0.043 A 
HETATM    7  O   UNL     1      69.274   1.755   6.291  1.00  0.00    -0.287 OA
HETATM    8  C   UNL     1      69.111   3.733   8.549  1.00  0.00     0.016 A 
HETATM    9  C   UNL     1      66.389   5.089   4.571  1.00  0.00     0.013 A 
HETATM   10  C   UNL     1      67.560   2.592   3.929  1.00  0.00     0.016 A 
HETATM   11  C   UNL     1      68.018   5.842   9.025  1.00  0.00     0.018 A 
HETATM   12  C   UNL     1      68.846   4.774   9.423  1.00  0.00     0.002 A 
HETATM   13  C   UNL     1      66.131   4.451   3.342  1.00  0.00     0.001 A 
HETATM   14  C   UNL     1      66.705   3.211   3.025  1.00  0.00     0.001 A 
ENDROOT
BRANCH   6  15
HETATM   15  C   UNL     1      66.608   7.107   7.393  1.00  0.00     0.250 C 
HETATM   16  O   UNL     1      65.383   7.120   7.462  1.00  0.00    -0.268 OA
HETATM   17  N   UNL     1      67.243   8.232   6.941  1.00  0.00    -0.366 N 
HETATM   18  H   UNL     1      68.225   8.249   6.876  1.00  0.00     0.159 HD
HETATM   19  H   UNL     1      66.718   9.023   6.682  1.00  0.00     0.159 HD
ENDBRANCH   6  15
TORSDOF 1
ENDMDL
