MODEL 1
REMARK VINA RESULT:      -5.2      0.000      0.000
REMARK  1 active torsions:
REMARK  status: ('A' for Active; 'I' for Inactive)
REMARK    1  A    between atoms: C_2  and  C_5 
ROOT
HETATM    1  C   UNL     1      64.901   8.458   5.235  1.00  0.00     0.103 A 
HETATM    2  C   UNL     1      63.094   8.944   3.701  1.00  0.00     0.012 A 
HETATM    3  C   UNL     1      63.906   9.323   4.777  1.00  0.00     0.054 A 
HETATM    4  C   UNL     1      65.077   7.204   4.643  1.00  0.00     0.102 A 
HETATM    5  O   UNL     1      65.664   8.907   6.282  1.00  0.00    -0.346 OA
HETATM    6  O   UNL     1      66.019   6.301   5.061  1.00  0.00    -0.346 OA
HETATM    7  C   UNL     1      63.287   7.692   3.098  1.00  0.00     0.018 A 
HETATM    8  C   UNL     1      64.278   6.825   3.567  1.00  0.00     0.040 A 
HETATM    9  C   UNL     1      66.847   8.119   6.447  1.00  0.00     0.202 C 
HETATM   10  C   UNL     1      66.527   6.635   6.357  1.00  0.00     0.202 C 
ENDROOT
BRANCH   2  11
HETATM   11  C   UNL     1      62.023   9.836   3.167  1.00  0.00     0.155 C 
HETATM   12  O   UNL     1      61.444  10.617   3.919  1.00  0.00    -0.293 OA
HETATM   13  C   UNL     1      61.669   9.756   1.705  1.00  0.00     0.096 C 
ENDBRANCH   2  11
TORSDOF 1
ENDMDL
MODEL 2
REMARK VINA RESULT:      -5.2     16.882     18.455
REMARK  1 active torsions:
REMARK  status: ('A' for Active; 'I' for Inactive)
REMARK    1  A    between atoms: C_2  and  C_5 
ROOT
HETATM    1  C   UNL     1      75.764   4.409  16.823  1.00  0.00     0.103 A 
HETATM    2  C   UNL     1      75.306   2.208  17.716  1.00  0.00     0.012 A 
HETATM    3  C   UNL     1      75.028   3.223  16.793  1.00  0.00     0.054 A 
HETATM    4  C   UNL     1      76.760   4.601  17.785  1.00  0.00     0.102 A 
HETATM    5  O   UNL     1      75.443   5.349  15.877  1.00  0.00    -0.346 OA
HETATM    6  O   UNL     1      77.500   5.750  17.881  1.00  0.00    -0.346 OA
HETATM    7  C   UNL     1      76.319   2.398  18.668  1.00  0.00     0.018 A 
HETATM    8  C   UNL     1      77.046   3.591  18.699  1.00  0.00     0.040 A 
HETATM    9  C   UNL     1      76.455   6.355  15.771  1.00  0.00     0.202 C 
HETATM   10  C   UNL     1      76.900   6.823  17.147  1.00  0.00     0.202 C 
ENDROOT
BRANCH   2  11
HETATM   11  C   UNL     1      74.555   0.917  17.720  1.00  0.00     0.155 C 
HETATM   12  O   UNL     1      74.229   0.401  18.787  1.00  0.00    -0.293 OA
HETATM   13  C   UNL     1      74.213   0.268  16.405  1.00  0.00     0.096 C 
ENDBRANCH   2  11
TORSDOF 1
ENDMDL
MODEL 3
REMARK VINA RESULT:      -5.1      3.412      7.260
REMARK  1 active torsions:
REMARK  status: ('A' for Active; 'I' for Inactive)
REMARK    1  A    between atoms: C_2  and  C_5 
ROOT
HETATM    1  C   UNL     1      66.803   5.802   6.816  1.00  0.00     0.103 A 
HETATM    2  C   UNL     1      68.482   5.333   8.493  1.00  0.00     0.012 A 
HETATM    3  C   UNL     1      68.018   5.219   7.177  1.00  0.00     0.054 A 
HETATM    4  C   UNL     1      66.032   6.480   7.765  1.00  0.00     0.102 A 
HETATM    5  O   UNL     1      66.425   5.660   5.505  1.00  0.00    -0.346 OA
HETATM    6  O   UNL     1      64.821   7.054   7.478  1.00  0.00    -0.346 OA
HETATM    7  C   UNL     1      67.713   6.029   9.438  1.00  0.00     0.018 A 
HETATM    8  C   UNL     1      66.493   6.604   9.073  1.00  0.00     0.040 A 
HETATM    9  C   UNL     1      65.369   6.563   5.162  1.00  0.00     0.202 C 
HETATM   10  C   UNL     1      64.294   6.574   6.237  1.00  0.00     0.202 C 
ENDROOT
BRANCH   2  11
HETATM   11  C   UNL     1      69.779   4.735   8.929  1.00  0.00     0.155 C 
HETATM   12  O   UNL     1      70.836   5.300   8.657  1.00  0.00    -0.293 OA
HETATM   13  C   UNL     1      69.764   3.439   9.696  1.00  0.00     0.096 C 
ENDBRANCH   2  11
TORSDOF 1
ENDMDL
MODEL 4
REMARK VINA RESULT:      -5.1      2.459      5.953
REMARK  1 active torsions:
REMARK  status: ('A' for Active; 'I' for Inactive)
REMARK    1  A    between atoms: C_2  and  C_5 
ROOT
HETATM    1  C   UNL     1      65.064   7.094   6.671  1.00  0.00     0.103 A 
HETATM    2  C   UNL     1      67.019   5.909   7.464  1.00  0.00     0.012 A 
HETATM    3  C   UNL     1      65.653   6.198   7.564  1.00  0.00     0.054 A 
HETATM    4  C   UNL     1      65.835   7.726   5.691  1.00  0.00     0.102 A 
HETATM    5  O   UNL     1      63.719   7.313   6.825  1.00  0.00    -0.346 OA
HETATM    6  O   UNL     1      65.322   8.632   4.800  1.00  0.00    -0.346 OA
HETATM    7  C   UNL     1      67.784   6.532   6.467  1.00  0.00     0.018 A 
HETATM    8  C   UNL     1      67.192   7.436   5.581  1.00  0.00     0.040 A 
HETATM    9  C   UNL     1      63.158   7.960   5.678  1.00  0.00     0.202 C 
HETATM   10  C   UNL     1      64.039   9.110   5.218  1.00  0.00     0.202 C 
ENDROOT
BRANCH   2  11
HETATM   11  C   UNL     1      67.694   4.951   8.388  1.00  0.00     0.155 C 
HETATM   12  O   UNL     1      67.059   4.017   8.875  1.00  0.00    -0.293 OA
HETATM   13  C   UNL     1      69.152   5.152   8.710  1.00  0.00     0.096 C 
ENDBRANCH   2  11
TORSDOF 1
ENDMDL
MODEL 5
REMARK VINA RESULT:      -5.0     17.186     18.553
REMARK  1 active torsions:
REMARK  status: ('A' for Active; 'I' for Inactive)
REMARK    1  A    between atoms: C_2  and  C_5 
ROOT
HETATM    1  C   UNL     1      75.347   2.476  17.093  1.00  0.00     0.103 A 
HETATM    2  C   UNL     1      76.392   4.627  17.459  1.00  0.00     0.012 A 
HETATM    3  C   UNL     1      75.477   3.826  16.765  1.00  0.00     0.054 A 
HETATM    4  C   UNL     1      76.142   1.910  18.094  1.00  0.00     0.102 A 
HETATM    5  O   UNL     1      74.419   1.762  16.379  1.00  0.00    -0.346 OA
HETATM    6  O   UNL     1      76.079   0.587  18.447  1.00  0.00    -0.346 OA
HETATM    7  C   UNL     1      77.175   4.059  18.475  1.00  0.00     0.018 A 
HETATM    8  C   UNL     1      77.048   2.704  18.793  1.00  0.00     0.040 A 
HETATM    9  C   UNL     1      74.121   0.511  17.007  1.00  0.00     0.202 C 
HETATM   10  C   UNL     1      75.395  -0.187  17.455  1.00  0.00     0.202 C 
ENDROOT
BRANCH   2  11
HETATM   11  C   UNL     1      76.563   6.078  17.153  1.00  0.00     0.155 C 
HETATM   12  O   UNL     1      76.543   6.903  18.064  1.00  0.00    -0.293 OA
HETATM   13  C   UNL     1      76.755   6.504  15.721  1.00  0.00     0.096 C 
ENDBRANCH   2  11
TORSDOF 1
ENDMDL
MODEL 6
REMARK VINA RESULT:      -5.0      4.735      7.455
REMARK  1 active torsions:
REMARK  status: ('A' for Active; 'I' for Inactive)
REMARK    1  A    between atoms: C_2  and  C_5 
ROOT
HETATM    1  C   UNL     1      67.947   3.377   9.097  1.00  0.00     0.103 A 
HETATM    2  C   UNL     1      67.862   5.524   7.986  1.00  0.00     0.012 A 
HETATM    3  C   UNL     1      67.230   4.340   8.387  1.00  0.00     0.054 A 
HETATM    4  C   UNL     1      69.300   3.572   9.390  1.00  0.00     0.102 A 
HETATM    5  O   UNL     1      67.254   2.252   9.468  1.00  0.00    -0.346 OA
HETATM    6  O   UNL     1      70.064   2.655  10.063  1.00  0.00    -0.346 OA
HETATM    7  C   UNL     1      69.215   5.723   8.298  1.00  0.00     0.018 A 
HETATM    8  C   UNL     1      69.931   4.750   9.001  1.00  0.00     0.040 A 
HETATM    9  C   UNL     1      67.960   1.504  10.463  1.00  0.00     0.202 C 
HETATM   10  C   UNL     1      69.431   1.371  10.100  1.00  0.00     0.202 C 
ENDROOT
BRANCH   2  11
HETATM   11  C   UNL     1      67.138   6.590   7.233  1.00  0.00     0.155 C 
HETATM   12  O   UNL     1      66.183   7.166   7.750  1.00  0.00    -0.293 OA
HETATM   13  C   UNL     1      67.595   6.939   5.840  1.00  0.00     0.096 C 
ENDBRANCH   2  11
TORSDOF 1
ENDMDL
MODEL 7
REMARK VINA RESULT:      -4.8     17.173     18.958
REMARK  1 active torsions:
REMARK  status: ('A' for Active; 'I' for Inactive)
REMARK    1  A    between atoms: C_2  and  C_5 
ROOT
HETATM    1  C   UNL     1      75.653   0.148  17.375  1.00  0.00     0.103 A 
HETATM    2  C   UNL     1      76.043   2.502  17.775  1.00  0.00     0.012 A 
HETATM    3  C   UNL     1      76.369   1.162  18.014  1.00  0.00     0.054 A 
HETATM    4  C   UNL     1      74.595   0.461  16.516  1.00  0.00     0.102 A 
HETATM    5  O   UNL     1      76.042  -1.138  17.648  1.00  0.00    -0.346 OA
HETATM    6  O   UNL     1      73.841  -0.488  15.877  1.00  0.00    -0.346 OA
HETATM    7  C   UNL     1      74.992   2.811  16.897  1.00  0.00     0.018 A 
HETATM    8  C   UNL     1      74.273   1.792  16.267  1.00  0.00     0.040 A 
HETATM    9  C   UNL     1      75.494  -2.065  16.706  1.00  0.00     0.202 C 
HETATM   10  C   UNL     1      74.020  -1.782  16.461  1.00  0.00     0.202 C 
ENDROOT
BRANCH   2  11
HETATM   11  C   UNL     1      76.783   3.623  18.425  1.00  0.00     0.155 C 
HETATM   12  O   UNL     1      77.250   3.477  19.553  1.00  0.00    -0.293 OA
HETATM   13  C   UNL     1      76.940   4.923  17.680  1.00  0.00     0.096 C 
ENDBRANCH   2  11
TORSDOF 1
ENDMDL
MODEL 8
REMARK VINA RESULT:      -4.7      1.195      2.226
REMARK  1 active torsions:
REMARK  status: ('A' for Active; 'I' for Inactive)
REMARK    1  A    between atoms: C_2  and  C_5 
ROOT
HETATM    1  C   UNL     1      64.595   7.601   4.327  1.00  0.00     0.103 A 
HETATM    2  C   UNL     1      62.641   8.461   3.190  1.00  0.00     0.012 A 
HETATM    3  C   UNL     1      63.634   7.483   3.322  1.00  0.00     0.054 A 
HETATM    4  C   UNL     1      64.590   8.702   5.187  1.00  0.00     0.102 A 
HETATM    5  O   UNL     1      65.524   6.595   4.402  1.00  0.00    -0.346 OA
HETATM    6  O   UNL     1      65.518   8.887   6.178  1.00  0.00    -0.346 OA
HETATM    7  C   UNL     1      62.629   9.556   4.068  1.00  0.00     0.018 A 
HETATM    8  C   UNL     1      63.600   9.673   5.066  1.00  0.00     0.040 A 
HETATM    9  C   UNL     1      66.234   6.626   5.644  1.00  0.00     0.202 C 
HETATM   10  C   UNL     1      66.660   8.044   5.990  1.00  0.00     0.202 C 
ENDROOT
BRANCH   2  11
HETATM   11  C   UNL     1      61.584   8.377   2.138  1.00  0.00     0.155 C 
HETATM   12  O   UNL     1      60.474   7.931   2.419  1.00  0.00    -0.293 OA
HETATM   13  C   UNL     1      61.906   8.843   0.742  1.00  0.00     0.096 C 
ENDBRANCH   2  11
TORSDOF 1
ENDMDL
MODEL 9
REMARK VINA RESULT:      -4.7      5.268      8.829
REMARK  1 active torsions:
REMARK  status: ('A' for Active; 'I' for Inactive)
REMARK    1  A    between atoms: C_2  and  C_5 
ROOT
HETATM    1  C   UNL     1      68.234   4.763   8.795  1.00  0.00     0.103 A 
HETATM    2  C   UNL     1      69.208   2.575   9.137  1.00  0.00     0.012 A 
HETATM    3  C   UNL     1      68.869   3.841   9.628  1.00  0.00     0.054 A 
HETATM    4  C   UNL     1      67.956   4.440   7.463  1.00  0.00     0.102 A 
HETATM    5  O   UNL     1      67.921   5.975   9.353  1.00  0.00    -0.346 OA
HETATM    6  O   UNL     1      67.356   5.308   6.589  1.00  0.00    -0.346 OA
HETATM    7  C   UNL     1      68.910   2.249   7.805  1.00  0.00     0.018 A 
HETATM    8  C   UNL     1      68.283   3.179   6.972  1.00  0.00     0.040 A 
HETATM    9  C   UNL     1      66.989   6.701   8.546  1.00  0.00     0.202 C 
HETATM   10  C   UNL     1      67.387   6.652   7.080  1.00  0.00     0.202 C 
ENDROOT
BRANCH   2  11
HETATM   11  C   UNL     1      69.879   1.550   9.990  1.00  0.00     0.155 C 
HETATM   12  O   UNL     1      70.156   1.810  11.159  1.00  0.00    -0.293 OA
HETATM   13  C   UNL     1      70.209   0.206   9.393  1.00  0.00     0.096 C 
ENDBRANCH   2  11
TORSDOF 1
ENDMDL
