MODEL 1
REMARK VINA RESULT:      -5.1      0.000      0.000
REMARK  2 active torsions:
REMARK  status: ('A' for Active; 'I' for Inactive)
REMARK    1  A    between atoms: C_1  and  C_6 
REMARK    2  A    between atoms: C_2  and  C_6 
ROOT
HETATM    1  C   UNL     1      62.122   8.936   3.175  1.00  0.00    -0.030 C 
HETATM    2  C   UNL     1      62.717   6.888   1.806  1.00  0.00    -0.013 C 
HETATM    3  C   UNL     1      60.306   7.353   2.383  1.00  0.00    -0.013 C 
HETATM    4  C   UNL     1      61.497   8.800   0.711  1.00  0.00    -0.013 C 
HETATM    5  C   UNL     1      60.761   8.286   3.507  1.00  0.00     0.014 C 
HETATM    6  C   UNL     1      61.961   9.735   1.850  1.00  0.00     0.014 C 
HETATM    7  C   UNL     1      63.177   7.831   2.930  1.00  0.00     0.014 C 
HETATM    8  C   UNL     1      60.151   8.161   1.093  1.00  0.00     0.009 C 
HETATM    9  C   UNL     1      61.370   6.258   2.197  1.00  0.00     0.009 C 
HETATM   10  C   UNL     1      62.542   7.690   0.509  1.00  0.00     0.009 C 
ENDROOT
BRANCH   1  11
HETATM   11  C   UNL     1      62.565   9.869   4.321  1.00  0.00     0.122 C 
BRANCH  11  12
HETATM   12  C   UNL     1      63.329   9.179   5.417  1.00  0.00     0.173 C 
HETATM   13  O   UNL     1      62.850   8.399   6.231  1.00  0.00    -0.648 OA
HETATM   14  O   UNL     1      64.613   9.558   5.519  1.00  0.00    -0.648 OA
ENDBRANCH  11  12
ENDBRANCH   1  11
TORSDOF 2
ENDMDL
MODEL 2
REMARK VINA RESULT:      -5.1      0.037      2.020
REMARK  2 active torsions:
REMARK  status: ('A' for Active; 'I' for Inactive)
REMARK    1  A    between atoms: C_1  and  C_6 
REMARK    2  A    between atoms: C_2  and  C_6 
ROOT
HETATM    1  C   UNL     1      62.128   8.953   3.185  1.00  0.00    -0.030 C 
HETATM    2  C   UNL     1      61.493   8.840   0.734  1.00  0.00    -0.013 C 
HETATM    3  C   UNL     1      62.716   6.909   1.802  1.00  0.00    -0.013 C 
HETATM    4  C   UNL     1      60.315   7.352   2.391  1.00  0.00    -0.013 C 
HETATM    5  C   UNL     1      63.159   7.828   2.942  1.00  0.00     0.014 C 
HETATM    6  C   UNL     1      60.766   8.286   3.535  1.00  0.00     0.014 C 
HETATM    7  C   UNL     1      61.931   9.763   1.881  1.00  0.00     0.014 C 
HETATM    8  C   UNL     1      61.378   6.263   2.171  1.00  0.00     0.009 C 
HETATM    9  C   UNL     1      62.562   7.754   0.526  1.00  0.00     0.009 C 
HETATM   10  C   UNL     1      60.160   8.172   1.099  1.00  0.00     0.009 C 
ENDROOT
BRANCH   1  11
HETATM   11  C   UNL     1      62.595   9.870   4.333  1.00  0.00     0.122 C 
BRANCH  11  12
HETATM   12  C   UNL     1      63.359   9.160   5.417  1.00  0.00     0.173 C 
HETATM   13  O   UNL     1      62.874   8.386   6.234  1.00  0.00    -0.648 OA
HETATM   14  O   UNL     1      64.650   9.515   5.506  1.00  0.00    -0.648 OA
ENDBRANCH  11  12
ENDBRANCH   1  11
TORSDOF 2
ENDMDL
MODEL 3
REMARK VINA RESULT:      -5.1      0.035      2.016
REMARK  2 active torsions:
REMARK  status: ('A' for Active; 'I' for Inactive)
REMARK    1  A    between atoms: C_1  and  C_6 
REMARK    2  A    between atoms: C_2  and  C_6 
ROOT
HETATM    1  C   UNL     1      62.116   8.935   3.171  1.00  0.00    -0.030 C 
HETATM    2  C   UNL     1      60.309   7.354   2.357  1.00  0.00    -0.013 C 
HETATM    3  C   UNL     1      61.522   8.828   0.707  1.00  0.00    -0.013 C 
HETATM    4  C   UNL     1      62.717   6.893   1.774  1.00  0.00    -0.013 C 
HETATM    5  C   UNL     1      61.973   9.733   1.856  1.00  0.00     0.014 C 
HETATM    6  C   UNL     1      63.163   7.808   2.936  1.00  0.00     0.014 C 
HETATM    7  C   UNL     1      60.767   8.257   3.513  1.00  0.00     0.014 C 
HETATM    8  C   UNL     1      62.568   7.731   0.493  1.00  0.00     0.009 C 
HETATM    9  C   UNL     1      60.168   8.202   1.082  1.00  0.00     0.009 C 
HETATM   10  C   UNL     1      61.359   6.259   2.120  1.00  0.00     0.009 C 
ENDROOT
BRANCH   1  11
HETATM   11  C   UNL     1      62.566   9.864   4.316  1.00  0.00     0.122 C 
BRANCH  11  12
HETATM   12  C   UNL     1      63.327   9.168   5.411  1.00  0.00     0.173 C 
HETATM   13  O   UNL     1      62.842   8.399   6.232  1.00  0.00    -0.648 OA
HETATM   14  O   UNL     1      64.616   9.531   5.504  1.00  0.00    -0.648 OA
ENDBRANCH  11  12
ENDBRANCH   1  11
TORSDOF 2
ENDMDL
MODEL 4
REMARK VINA RESULT:      -4.7      2.271      3.599
REMARK  2 active torsions:
REMARK  status: ('A' for Active; 'I' for Inactive)
REMARK    1  A    between atoms: C_1  and  C_6 
REMARK    2  A    between atoms: C_2  and  C_6 
ROOT
HETATM    1  C   UNL     1      62.396   8.472   3.976  1.00  0.00    -0.030 C 
HETATM    2  C   UNL     1      64.460   8.111   5.402  1.00  0.00    -0.013 C 
HETATM    3  C   UNL     1      62.673   6.333   5.311  1.00  0.00    -0.013 C 
HETATM    4  C   UNL     1      64.139   6.740   3.313  1.00  0.00    -0.013 C 
HETATM    5  C   UNL     1      61.677   7.368   4.784  1.00  0.00     0.014 C 
HETATM    6  C   UNL     1      63.136   7.790   2.789  1.00  0.00     0.014 C 
HETATM    7  C   UNL     1      63.464   9.152   4.866  1.00  0.00     0.014 C 
HETATM    8  C   UNL     1      63.385   5.675   4.127  1.00  0.00     0.009 C 
HETATM    9  C   UNL     1      63.694   7.051   6.210  1.00  0.00     0.009 C 
HETATM   10  C   UNL     1      65.169   7.431   4.222  1.00  0.00     0.009 C 
ENDROOT
BRANCH   1  11
HETATM   11  C   UNL     1      61.377   9.507   3.458  1.00  0.00     0.122 C 
BRANCH  11  12
HETATM   12  C   UNL     1      61.888  10.921   3.444  1.00  0.00     0.173 C 
HETATM   13  O   UNL     1      61.967  11.655   4.422  1.00  0.00    -0.648 OA
HETATM   14  O   UNL     1      62.177  11.392   2.221  1.00  0.00    -0.648 OA
ENDBRANCH  11  12
ENDBRANCH   1  11
TORSDOF 2
ENDMDL
MODEL 5
REMARK VINA RESULT:      -4.4      1.613      2.347
REMARK  2 active torsions:
REMARK  status: ('A' for Active; 'I' for Inactive)
REMARK    1  A    between atoms: C_1  and  C_6 
REMARK    2  A    between atoms: C_2  and  C_6 
ROOT
HETATM    1  C   UNL     1      63.538   7.434   4.389  1.00  0.00    -0.030 C 
HETATM    2  C   UNL     1      62.878   6.939   1.992  1.00  0.00    -0.013 C 
HETATM    3  C   UNL     1      61.118   6.956   3.800  1.00  0.00    -0.013 C 
HETATM    4  C   UNL     1      62.167   9.112   3.052  1.00  0.00    -0.013 C 
HETATM    5  C   UNL     1      62.211   6.797   4.858  1.00  0.00     0.014 C 
HETATM    6  C   UNL     1      63.274   8.944   4.116  1.00  0.00     0.014 C 
HETATM    7  C   UNL     1      63.979   6.787   3.054  1.00  0.00     0.014 C 
HETATM    8  C   UNL     1      60.874   8.446   3.551  1.00  0.00     0.009 C 
HETATM    9  C   UNL     1      61.590   6.274   2.504  1.00  0.00     0.009 C 
HETATM   10  C   UNL     1      62.611   8.431   1.746  1.00  0.00     0.009 C 
ENDROOT
BRANCH   1  11
HETATM   11  C   UNL     1      64.627   7.260   5.466  1.00  0.00     0.122 C 
BRANCH  11  12
HETATM   12  C   UNL     1      65.739   8.270   5.388  1.00  0.00     0.173 C 
HETATM   13  O   UNL     1      66.699   8.210   4.629  1.00  0.00    -0.648 OA
HETATM   14  O   UNL     1      65.667   9.243   6.310  1.00  0.00    -0.648 OA
ENDBRANCH  11  12
ENDBRANCH   1  11
TORSDOF 2
ENDMDL
MODEL 6
REMARK VINA RESULT:      -4.4      4.988      6.633
REMARK  2 active torsions:
REMARK  status: ('A' for Active; 'I' for Inactive)
REMARK    1  A    between atoms: C_1  and  C_6 
REMARK    2  A    between atoms: C_2  and  C_6 
ROOT
HETATM    1  C   UNL     1      66.633   6.447   7.137  1.00  0.00    -0.030 C 
HETATM    2  C   UNL     1      64.811   6.153   5.400  1.00  0.00    -0.013 C 
HETATM    3  C   UNL     1      66.307   8.183   5.317  1.00  0.00    -0.013 C 
HETATM    4  C   UNL     1      67.226   5.924   4.717  1.00  0.00    -0.013 C 
HETATM    5  C   UNL     1      66.697   7.948   6.778  1.00  0.00     0.014 C 
HETATM    6  C   UNL     1      67.610   5.687   6.194  1.00  0.00     0.014 C 
HETATM    7  C   UNL     1      65.208   5.910   6.865  1.00  0.00     0.014 C 
HETATM    8  C   UNL     1      67.282   7.429   4.410  1.00  0.00     0.009 C 
HETATM    9  C   UNL     1      64.876   7.660   5.104  1.00  0.00     0.009 C 
HETATM   10  C   UNL     1      65.794   5.416   4.479  1.00  0.00     0.009 C 
ENDROOT
BRANCH   1  11
HETATM   11  C   UNL     1      67.026   6.231   8.613  1.00  0.00     0.122 C 
BRANCH  11  12
HETATM   12  C   UNL     1      67.645   4.890   8.897  1.00  0.00     0.173 C 
HETATM   13  O   UNL     1      67.043   3.824   8.922  1.00  0.00    -0.648 OA
HETATM   14  O   UNL     1      68.943   4.942   9.233  1.00  0.00    -0.648 OA
ENDBRANCH  11  12
ENDBRANCH   1  11
TORSDOF 2
ENDMDL
MODEL 7
REMARK VINA RESULT:      -4.4      3.726      5.822
REMARK  2 active torsions:
REMARK  status: ('A' for Active; 'I' for Inactive)
REMARK    1  A    between atoms: C_1  and  C_6 
REMARK    2  A    between atoms: C_2  and  C_6 
ROOT
HETATM    1  C   UNL     1      65.001   6.828   5.228  1.00  0.00    -0.030 C 
HETATM    2  C   UNL     1      67.282   6.148   4.357  1.00  0.00    -0.013 C 
HETATM    3  C   UNL     1      67.107   7.823   6.234  1.00  0.00    -0.013 C 
HETATM    4  C   UNL     1      66.560   5.408   6.654  1.00  0.00    -0.013 C 
HETATM    5  C   UNL     1      65.646   8.083   5.859  1.00  0.00     0.014 C 
HETATM    6  C   UNL     1      65.088   5.672   6.266  1.00  0.00     0.014 C 
HETATM    7  C   UNL     1      65.813   6.401   3.982  1.00  0.00     0.014 C 
HETATM    8  C   UNL     1      67.166   6.686   7.257  1.00  0.00     0.009 C 
HETATM    9  C   UNL     1      67.875   7.431   4.962  1.00  0.00     0.009 C 
HETATM   10  C   UNL     1      67.354   5.020   5.396  1.00  0.00     0.009 C 
ENDROOT
BRANCH   1  11
HETATM   11  C   UNL     1      63.533   7.111   4.852  1.00  0.00     0.122 C 
BRANCH  11  12
HETATM   12  C   UNL     1      62.841   8.089   5.762  1.00  0.00     0.173 C 
HETATM   13  O   UNL     1      62.491   7.859   6.913  1.00  0.00    -0.648 OA
HETATM   14  O   UNL     1      62.527   9.257   5.181  1.00  0.00    -0.648 OA
ENDBRANCH  11  12
ENDBRANCH   1  11
TORSDOF 2
ENDMDL
MODEL 8
REMARK VINA RESULT:      -4.3      3.642      5.567
REMARK  2 active torsions:
REMARK  status: ('A' for Active; 'I' for Inactive)
REMARK    1  A    between atoms: C_1  and  C_6 
REMARK    2  A    between atoms: C_2  and  C_6 
ROOT
HETATM    1  C   UNL     1      64.838   6.949   5.146  1.00  0.00    -0.030 C 
HETATM    2  C   UNL     1      67.012   8.001   5.916  1.00  0.00    -0.013 C 
HETATM    3  C   UNL     1      66.603   5.542   6.303  1.00  0.00    -0.013 C 
HETATM    4  C   UNL     1      67.030   6.391   3.977  1.00  0.00    -0.013 C 
HETATM    5  C   UNL     1      65.103   5.765   6.103  1.00  0.00     0.014 C 
HETATM    6  C   UNL     1      65.515   6.623   3.783  1.00  0.00     0.014 C 
HETATM    7  C   UNL     1      65.506   8.227   5.707  1.00  0.00     0.014 C 
HETATM    8  C   UNL     1      67.246   5.220   4.951  1.00  0.00     0.009 C 
HETATM    9  C   UNL     1      67.215   6.826   6.887  1.00  0.00     0.009 C 
HETATM   10  C   UNL     1      67.666   7.661   4.569  1.00  0.00     0.009 C 
ENDROOT
BRANCH   1  11
HETATM   11  C   UNL     1      63.322   7.161   4.961  1.00  0.00     0.122 C 
BRANCH  11  12
HETATM   12  C   UNL     1      62.503   6.856   6.186  1.00  0.00     0.173 C 
HETATM   13  O   UNL     1      61.773   5.883   6.326  1.00  0.00    -0.648 OA
HETATM   14  O   UNL     1      62.545   7.810   7.129  1.00  0.00    -0.648 OA
ENDBRANCH  11  12
ENDBRANCH   1  11
TORSDOF 2
ENDMDL
MODEL 9
REMARK VINA RESULT:      -4.3      6.805      8.291
REMARK  2 active torsions:
REMARK  status: ('A' for Active; 'I' for Inactive)
REMARK    1  A    between atoms: C_1  and  C_6 
REMARK    2  A    between atoms: C_2  and  C_6 
ROOT
HETATM    1  C   UNL     1      67.922   5.125   7.714  1.00  0.00    -0.030 C 
HETATM    2  C   UNL     1      66.902   5.991   5.562  1.00  0.00    -0.013 C 
HETATM    3  C   UNL     1      67.415   3.533   5.805  1.00  0.00    -0.013 C 
HETATM    4  C   UNL     1      65.519   4.552   7.100  1.00  0.00    -0.013 C 
HETATM    5  C   UNL     1      68.367   3.852   6.960  1.00  0.00     0.014 C 
HETATM    6  C   UNL     1      66.485   4.880   8.259  1.00  0.00     0.014 C 
HETATM    7  C   UNL     1      67.852   6.313   6.726  1.00  0.00     0.014 C 
HETATM    8  C   UNL     1      66.011   3.294   6.365  1.00  0.00     0.009 C 
HETATM    9  C   UNL     1      67.401   4.730   4.839  1.00  0.00     0.009 C 
HETATM   10  C   UNL     1      65.493   5.732   6.113  1.00  0.00     0.009 C 
ENDROOT
BRANCH   1  11
HETATM   11  C   UNL     1      68.896   5.431   8.870  1.00  0.00     0.122 C 
BRANCH  11  12
HETATM   12  C   UNL     1      69.538   4.213   9.475  1.00  0.00     0.173 C 
HETATM   13  O   UNL     1      68.943   3.315  10.058  1.00  0.00    -0.648 OA
HETATM   14  O   UNL     1      70.879   4.211   9.420  1.00  0.00    -0.648 OA
ENDBRANCH  11  12
ENDBRANCH   1  11
TORSDOF 2
ENDMDL
