MODEL 1
REMARK VINA RESULT:      -4.2      0.000      0.000
REMARK  1 active torsions:
REMARK  status: ('A' for Active; 'I' for Inactive)
REMARK    1  A    between atoms: C_4  and  O_7 
ROOT
HETATM    1  C   UNL     1      62.050   8.945   2.607  1.00  0.00    -0.048 C 
HETATM    2  C   UNL     1      63.233   8.399   3.439  1.00  0.00     0.011 C 
HETATM    3  C   UNL     1      62.018  10.487   2.724  1.00  0.00     0.011 C 
HETATM    4  C   UNL     1      63.122  10.395   4.991  1.00  0.00     0.118 C 
HETATM    5  C   UNL     1      61.965  10.965   4.174  1.00  0.00     0.032 C 
HETATM    6  C   UNL     1      63.205   8.873   4.893  1.00  0.00     0.032 C 
HETATM    7  C   UNL     1      62.232   8.556   1.134  1.00  0.00     0.015 C 
HETATM    8  C   UNL     1      60.717   8.337   3.097  1.00  0.00     0.015 C 
ENDROOT
BRANCH   4   9
HETATM    9  O   UNL     1      62.974  10.778   6.354  1.00  0.00    -0.396 OA
HETATM   10  H   UNL     1      62.048  10.666   6.622  1.00  0.00     0.210 HD
ENDBRANCH   4   9
TORSDOF 1
ENDMDL
MODEL 2
REMARK VINA RESULT:      -4.1      6.493      8.173
REMARK  1 active torsions:
REMARK  status: ('A' for Active; 'I' for Inactive)
REMARK    1  A    between atoms: C_4  and  O_7 
ROOT
HETATM    1  C   UNL     1      68.375   4.989   8.436  1.00  0.00    -0.048 C 
HETATM    2  C   UNL     1      67.851   6.105   9.368  1.00  0.00     0.011 C 
HETATM    3  C   UNL     1      68.114   5.394   6.965  1.00  0.00     0.011 C 
HETATM    4  C   UNL     1      66.134   6.803   7.644  1.00  0.00     0.118 C 
HETATM    5  C   UNL     1      66.646   5.720   6.697  1.00  0.00     0.032 C 
HETATM    6  C   UNL     1      66.384   6.455   9.110  1.00  0.00     0.032 C 
HETATM    7  C   UNL     1      69.883   4.805   8.647  1.00  0.00     0.015 C 
HETATM    8  C   UNL     1      67.684   3.646   8.757  1.00  0.00     0.015 C 
ENDROOT
BRANCH   4   9
HETATM    9  O   UNL     1      64.740   6.998   7.431  1.00  0.00    -0.396 OA
HETATM   10  H   UNL     1      64.242   6.591   8.157  1.00  0.00     0.210 HD
ENDBRANCH   4   9
TORSDOF 1
ENDMDL
MODEL 3
REMARK VINA RESULT:      -4.1      8.912     10.318
REMARK  1 active torsions:
REMARK  status: ('A' for Active; 'I' for Inactive)
REMARK    1  A    between atoms: C_4  and  O_7 
ROOT
HETATM    1  C   UNL     1      68.149   4.464   8.126  1.00  0.00    -0.048 C 
HETATM    2  C   UNL     1      67.635   3.019   8.318  1.00  0.00     0.011 C 
HETATM    3  C   UNL     1      69.673   4.499   8.393  1.00  0.00     0.011 C 
HETATM    4  C   UNL     1      69.503   2.522   9.953  1.00  0.00     0.118 C 
HETATM    5  C   UNL     1      70.042   3.939   9.766  1.00  0.00     0.032 C 
HETATM    6  C   UNL     1      68.002   2.433   9.682  1.00  0.00     0.032 C 
HETATM    7  C   UNL     1      67.881   4.921   6.687  1.00  0.00     0.015 C 
HETATM    8  C   UNL     1      67.411   5.431   9.077  1.00  0.00     0.015 C 
ENDROOT
BRANCH   4   9
HETATM    9  O   UNL     1      69.776   2.082  11.278  1.00  0.00    -0.396 OA
HETATM   10  H   UNL     1      70.692   2.303  11.510  1.00  0.00     0.210 HD
ENDBRANCH   4   9
TORSDOF 1
ENDMDL
MODEL 4
REMARK VINA RESULT:      -4.0      1.753      2.366
REMARK  1 active torsions:
REMARK  status: ('A' for Active; 'I' for Inactive)
REMARK    1  A    between atoms: C_4  and  O_7 
ROOT
HETATM    1  C   UNL     1      61.469   7.934   1.002  1.00  0.00    -0.048 C 
HETATM    2  C   UNL     1      61.571   7.522   2.489  1.00  0.00     0.011 C 
HETATM    3  C   UNL     1      62.277   9.234   0.781  1.00  0.00     0.011 C 
HETATM    4  C   UNL     1      61.921   9.932   3.179  1.00  0.00     0.118 C 
HETATM    5  C   UNL     1      61.844  10.362   1.716  1.00  0.00     0.032 C 
HETATM    6  C   UNL     1      61.151   8.640   3.445  1.00  0.00     0.032 C 
HETATM    7  C   UNL     1      62.051   6.823   0.118  1.00  0.00     0.015 C 
HETATM    8  C   UNL     1      59.993   8.138   0.597  1.00  0.00     0.015 C 
ENDROOT
BRANCH   4   9
HETATM    9  O   UNL     1      61.410  10.971   4.006  1.00  0.00    -0.396 OA
HETATM   10  H   UNL     1      61.207  11.748   3.461  1.00  0.00     0.210 HD
ENDBRANCH   4   9
TORSDOF 1
ENDMDL
MODEL 5
REMARK VINA RESULT:      -4.0      6.431      8.098
REMARK  1 active torsions:
REMARK  status: ('A' for Active; 'I' for Inactive)
REMARK    1  A    between atoms: C_4  and  O_7 
ROOT
HETATM    1  C   UNL     1      68.099   4.690   8.141  1.00  0.00    -0.048 C 
HETATM    2  C   UNL     1      67.850   5.011   6.650  1.00  0.00     0.011 C 
HETATM    3  C   UNL     1      67.025   5.403   8.998  1.00  0.00     0.011 C 
HETATM    4  C   UNL     1      66.754   7.210   7.258  1.00  0.00     0.118 C 
HETATM    5  C   UNL     1      66.971   6.907   8.739  1.00  0.00     0.032 C 
HETATM    6  C   UNL     1      67.782   6.512   6.368  1.00  0.00     0.032 C 
HETATM    7  C   UNL     1      67.998   3.176   8.368  1.00  0.00     0.015 C 
HETATM    8  C   UNL     1      69.514   5.140   8.563  1.00  0.00     0.015 C 
ENDROOT
BRANCH   4   9
HETATM    9  O   UNL     1      66.817   8.616   7.047  1.00  0.00    -0.396 OA
HETATM   10  H   UNL     1      66.205   9.061   7.655  1.00  0.00     0.210 HD
ENDBRANCH   4   9
TORSDOF 1
ENDMDL
MODEL 6
REMARK VINA RESULT:      -3.8      1.740      3.096
REMARK  1 active torsions:
REMARK  status: ('A' for Active; 'I' for Inactive)
REMARK    1  A    between atoms: C_4  and  O_7 
ROOT
HETATM    1  C   UNL     1      63.823   7.813   4.967  1.00  0.00    -0.048 C 
HETATM    2  C   UNL     1      64.144   9.292   5.281  1.00  0.00     0.011 C 
HETATM    3  C   UNL     1      63.225   7.717   3.543  1.00  0.00     0.011 C 
HETATM    4  C   UNL     1      62.329  10.071   3.697  1.00  0.00     0.118 C 
HETATM    5  C   UNL     1      62.006   8.618   3.356  1.00  0.00     0.032 C 
HETATM    6  C   UNL     1      62.940  10.215   5.090  1.00  0.00     0.032 C 
HETATM    7  C   UNL     1      65.110   6.981   5.028  1.00  0.00     0.015 C 
HETATM    8  C   UNL     1      62.837   7.240   6.008  1.00  0.00     0.015 C 
ENDROOT
BRANCH   4   9
HETATM    9  O   UNL     1      61.143  10.853   3.612  1.00  0.00    -0.396 OA
HETATM   10  H   UNL     1      60.878  10.937   2.683  1.00  0.00     0.210 HD
ENDBRANCH   4   9
TORSDOF 1
ENDMDL
MODEL 7
REMARK VINA RESULT:      -3.7      8.349      9.762
REMARK  1 active torsions:
REMARK  status: ('A' for Active; 'I' for Inactive)
REMARK    1  A    between atoms: C_4  and  O_7 
ROOT
HETATM    1  C   UNL     1      68.903   2.966   8.394  1.00  0.00    -0.048 C 
HETATM    2  C   UNL     1      67.461   3.289   8.845  1.00  0.00     0.011 C 
HETATM    3  C   UNL     1      69.868   4.019   8.989  1.00  0.00     0.011 C 
HETATM    4  C   UNL     1      68.030   5.747   9.060  1.00  0.00     0.118 C 
HETATM    5  C   UNL     1      69.466   5.450   8.635  1.00  0.00     0.032 C 
HETATM    6  C   UNL     1      67.040   4.721   8.510  1.00  0.00     0.032 C 
HETATM    7  C   UNL     1      69.304   1.575   8.901  1.00  0.00     0.015 C 
HETATM    8  C   UNL     1      68.999   2.955   6.853  1.00  0.00     0.015 C 
ENDROOT
BRANCH   4   9
HETATM    9  O   UNL     1      67.663   7.049   8.618  1.00  0.00    -0.396 OA
HETATM   10  H   UNL     1      68.451   7.615   8.592  1.00  0.00     0.210 HD
ENDBRANCH   4   9
TORSDOF 1
ENDMDL
MODEL 8
REMARK VINA RESULT:      -3.7      1.101      2.293
REMARK  1 active torsions:
REMARK  status: ('A' for Active; 'I' for Inactive)
REMARK    1  A    between atoms: C_4  and  O_7 
ROOT
HETATM    1  C   UNL     1      61.933   8.178   3.468  1.00  0.00    -0.048 C 
HETATM    2  C   UNL     1      61.273   9.545   3.763  1.00  0.00     0.011 C 
HETATM    3  C   UNL     1      62.716   7.714   4.719  1.00  0.00     0.011 C 
HETATM    4  C   UNL     1      63.076  10.102   5.451  1.00  0.00     0.118 C 
HETATM    5  C   UNL     1      63.735   8.749   5.191  1.00  0.00     0.032 C 
HETATM    6  C   UNL     1      62.274  10.595   4.247  1.00  0.00     0.032 C 
HETATM    7  C   UNL     1      60.849   7.142   3.140  1.00  0.00     0.015 C 
HETATM    8  C   UNL     1      62.873   8.283   2.248  1.00  0.00     0.015 C 
ENDROOT
BRANCH   4   9
HETATM    9  O   UNL     1      64.074  11.060   5.784  1.00  0.00    -0.396 OA
HETATM   10  H   UNL     1      64.684  10.678   6.434  1.00  0.00     0.210 HD
ENDBRANCH   4   9
TORSDOF 1
ENDMDL
MODEL 9
REMARK VINA RESULT:      -3.5      9.036     10.397
REMARK  1 active torsions:
REMARK  status: ('A' for Active; 'I' for Inactive)
REMARK    1  A    between atoms: C_4  and  O_7 
ROOT
HETATM    1  C   UNL     1      68.849   1.949   8.412  1.00  0.00    -0.048 C 
HETATM    2  C   UNL     1      69.666   2.626   9.535  1.00  0.00     0.011 C 
HETATM    3  C   UNL     1      68.916   2.825   7.138  1.00  0.00     0.011 C 
HETATM    4  C   UNL     1      69.256   4.908   8.520  1.00  0.00     0.118 C 
HETATM    5  C   UNL     1      68.460   4.261   7.389  1.00  0.00     0.032 C 
HETATM    6  C   UNL     1      69.234   4.069   9.797  1.00  0.00     0.032 C 
HETATM    7  C   UNL     1      69.441   0.567   8.103  1.00  0.00     0.015 C 
HETATM    8  C   UNL     1      67.383   1.748   8.854  1.00  0.00     0.015 C 
ENDROOT
BRANCH   4   9
HETATM    9  O   UNL     1      68.729   6.203   8.790  1.00  0.00    -0.396 OA
HETATM   10  H   UNL     1      69.240   6.868   8.302  1.00  0.00     0.210 HD
ENDBRANCH   4   9
TORSDOF 1
ENDMDL
