MODEL 1
REMARK VINA RESULT:      -5.5      0.000      0.000
REMARK  3 active torsions:
REMARK  status: ('A' for Active; 'I' for Inactive)
REMARK    1  A    between atoms: C_1  and  C_8 
REMARK    2  A    between atoms: C_4  and  C_7 
REMARK    3  A    between atoms: C_8  and  N_9 
ROOT
HETATM    1  C   UNL     1      62.293   9.531   3.712  1.00  0.00     0.028 A 
HETATM    2  N   UNL     1      61.537  11.051   2.185  1.00  0.00    -0.260 N 
ATOM      3  HN  UNL     1      61.179  11.479   1.331  1.00  0.00     0.195 HD
HETATM    4  C   UNL     1      61.749   9.741   2.398  1.00  0.00     0.075 A 
HETATM    5  O   UNL     1      61.896  11.701   3.341  1.00  0.00    -0.242 OA
HETATM    6  C   UNL     1      62.333  10.801   4.254  1.00  0.00     0.083 A 
HETATM    7  C   UNL     1      62.729  11.366   5.559  1.00  0.00     0.079 C 
ENDROOT
BRANCH   4   8
HETATM    8  C   UNL     1      61.441   8.770   1.339  1.00  0.00    -0.007 A 
HETATM    9  C   UNL     1      62.475   8.218   0.566  1.00  0.00     0.014 A 
HETATM   10  C   UNL     1      62.196   7.291  -0.443  1.00  0.00     0.001 A 
HETATM   11  C   UNL     1      60.881   6.898  -0.687  1.00  0.00     0.000 A 
HETATM   12  C   UNL     1      59.846   7.442   0.065  1.00  0.00     0.001 A 
HETATM   13  C   UNL     1      60.124   8.382   1.062  1.00  0.00     0.014 A 
ENDBRANCH   4   8
BRANCH   1  14
HETATM   14  C   UNL     1      62.713   8.266   4.378  1.00  0.00     0.275 C 
BRANCH  14  15
HETATM   15  N   UNL     1      64.097   7.972   4.023  1.00  0.00    -0.075 N 
HETATM   16  C   UNL     1      65.004   8.323   5.106  1.00  0.00     0.267 C 
HETATM   17  H   UNL     1      64.350   8.506   3.191  1.00  0.00     0.277 HD
HETATM   18  H   UNL     1      64.180   6.970   3.844  1.00  0.00     0.277 HD
ENDBRANCH  14  15
ENDBRANCH   1  14
TORSDOF 3
ENDMDL
MODEL 2
REMARK VINA RESULT:      -5.4      2.800      4.317
REMARK  3 active torsions:
REMARK  status: ('A' for Active; 'I' for Inactive)
REMARK    1  A    between atoms: C_1  and  C_8 
REMARK    2  A    between atoms: C_4  and  C_7 
REMARK    3  A    between atoms: C_8  and  N_9 
ROOT
HETATM    1  C   UNL     1      64.763   7.676   5.361  1.00  0.00     0.028 A 
HETATM    2  N   UNL     1      62.716   8.052   6.300  1.00  0.00    -0.260 N 
ATOM      3  HN  UNL     1      61.764   8.379   6.464  1.00  0.00     0.195 HD
HETATM    4  C   UNL     1      63.461   8.265   5.202  1.00  0.00     0.075 A 
HETATM    5  O   UNL     1      63.486   7.307   7.160  1.00  0.00    -0.242 OA
HETATM    6  C   UNL     1      64.697   7.072   6.601  1.00  0.00     0.083 A 
HETATM    7  C   UNL     1      65.621   6.255   7.414  1.00  0.00     0.079 C 
ENDROOT
BRANCH   4   8
HETATM    8  C   UNL     1      62.902   9.027   4.078  1.00  0.00    -0.007 A 
HETATM    9  C   UNL     1      62.465  10.348   4.269  1.00  0.00     0.014 A 
HETATM   10  C   UNL     1      61.933  11.086   3.206  1.00  0.00     0.001 A 
HETATM   11  C   UNL     1      61.838  10.515   1.937  1.00  0.00     0.000 A 
HETATM   12  C   UNL     1      62.260   9.207   1.735  1.00  0.00     0.001 A 
HETATM   13  C   UNL     1      62.776   8.464   2.801  1.00  0.00     0.014 A 
ENDBRANCH   4   8
BRANCH   1  14
HETATM   14  C   UNL     1      65.929   7.678   4.433  1.00  0.00     0.275 C 
BRANCH  14  15
HETATM   15  N   UNL     1      65.905   6.461   3.628  1.00  0.00    -0.075 N 
HETATM   16  C   UNL     1      66.993   5.566   3.995  1.00  0.00     0.267 C 
HETATM   17  H   UNL     1      65.997   6.711   2.643  1.00  0.00     0.277 HD
HETATM   18  H   UNL     1      65.020   5.980   3.794  1.00  0.00     0.277 HD
ENDBRANCH  14  15
ENDBRANCH   1  14
TORSDOF 3
ENDMDL
MODEL 3
REMARK VINA RESULT:      -5.3      4.680      7.985
REMARK  3 active torsions:
REMARK  status: ('A' for Active; 'I' for Inactive)
REMARK    1  A    between atoms: C_1  and  C_8 
REMARK    2  A    between atoms: C_4  and  C_7 
REMARK    3  A    between atoms: C_8  and  N_9 
ROOT
HETATM    1  C   UNL     1      65.431   6.910   5.927  1.00  0.00     0.028 A 
HETATM    2  N   UNL     1      66.855   8.332   7.008  1.00  0.00    -0.260 N 
ATOM      3  HN  UNL     1      67.600   8.704   7.596  1.00  0.00     0.195 HD
HETATM    4  C   UNL     1      66.580   7.035   6.784  1.00  0.00     0.075 A 
HETATM    5  O   UNL     1      65.936   9.059   6.291  1.00  0.00    -0.242 OA
HETATM    6  C   UNL     1      65.097   8.219   5.638  1.00  0.00     0.083 A 
HETATM    7  C   UNL     1      64.070   8.873   4.804  1.00  0.00     0.079 C 
ENDROOT
BRANCH   4   8
HETATM    8  C   UNL     1      67.409   5.995   7.407  1.00  0.00    -0.007 A 
HETATM    9  C   UNL     1      67.743   6.081   8.768  1.00  0.00     0.014 A 
HETATM   10  C   UNL     1      68.530   5.097   9.374  1.00  0.00     0.001 A 
HETATM   11  C   UNL     1      68.986   4.010   8.630  1.00  0.00     0.000 A 
HETATM   12  C   UNL     1      68.669   3.915   7.280  1.00  0.00     0.001 A 
HETATM   13  C   UNL     1      67.897   4.909   6.670  1.00  0.00     0.014 A 
ENDBRANCH   4   8
BRANCH   1  14
HETATM   14  C   UNL     1      64.743   5.685   5.432  1.00  0.00     0.275 C 
BRANCH  14  15
HETATM   15  N   UNL     1      63.837   5.192   6.465  1.00  0.00    -0.075 N 
HETATM   16  C   UNL     1      62.458   5.552   6.170  1.00  0.00     0.267 C 
HETATM   17  H   UNL     1      64.103   5.597   7.363  1.00  0.00     0.277 HD
HETATM   18  H   UNL     1      63.906   4.174   6.495  1.00  0.00     0.277 HD
ENDBRANCH  14  15
ENDBRANCH   1  14
TORSDOF 3
ENDMDL
MODEL 4
REMARK VINA RESULT:      -5.2     20.175     21.525
REMARK  3 active torsions:
REMARK  status: ('A' for Active; 'I' for Inactive)
REMARK    1  A    between atoms: C_1  and  C_8 
REMARK    2  A    between atoms: C_4  and  C_7 
REMARK    3  A    between atoms: C_8  and  N_9 
ROOT
HETATM    1  C   UNL     1      76.355   3.114  17.532  1.00  0.00     0.028 A 
HETATM    2  N   UNL     1      74.249   3.578  16.778  1.00  0.00    -0.260 N 
ATOM      3  HN  UNL     1      73.287   3.483  16.454  1.00  0.00     0.195 HD
HETATM    4  C   UNL     1      75.062   2.588  17.184  1.00  0.00     0.075 A 
HETATM    5  O   UNL     1      74.966   4.745  16.886  1.00  0.00    -0.242 OA
HETATM    6  C   UNL     1      76.212   4.476  17.345  1.00  0.00     0.083 A 
HETATM    7  C   UNL     1      77.085   5.651  17.533  1.00  0.00     0.079 C 
ENDROOT
BRANCH   4   8
HETATM    8  C   UNL     1      74.574   1.203  17.200  1.00  0.00    -0.007 A 
HETATM    9  C   UNL     1      74.305   0.535  15.994  1.00  0.00     0.014 A 
HETATM   10  C   UNL     1      73.841  -0.784  15.996  1.00  0.00     0.001 A 
HETATM   11  C   UNL     1      73.647  -1.455  17.202  1.00  0.00     0.000 A 
HETATM   12  C   UNL     1      73.901  -0.805  18.404  1.00  0.00     0.001 A 
HETATM   13  C   UNL     1      74.348   0.520  18.402  1.00  0.00     0.014 A 
ENDBRANCH   4   8
BRANCH   1  14
HETATM   14  C   UNL     1      77.577   2.404  18.001  1.00  0.00     0.275 C 
BRANCH  14  15
HETATM   15  N   UNL     1      77.711   2.578  19.444  1.00  0.00    -0.075 N 
HETATM   16  C   UNL     1      78.523   1.520  20.027  1.00  0.00     0.267 C 
HETATM   17  H   UNL     1      76.784   2.558  19.870  1.00  0.00     0.277 HD
HETATM   18  H   UNL     1      78.169   3.472  19.621  1.00  0.00     0.277 HD
ENDBRANCH  14  15
ENDBRANCH   1  14
TORSDOF 3
ENDMDL
MODEL 5
REMARK VINA RESULT:      -5.1      3.259      5.063
REMARK  3 active torsions:
REMARK  status: ('A' for Active; 'I' for Inactive)
REMARK    1  A    between atoms: C_1  and  C_8 
REMARK    2  A    between atoms: C_4  and  C_7 
REMARK    3  A    between atoms: C_8  and  N_9 
ROOT
HETATM    1  C   UNL     1      64.052   6.923   6.099  1.00  0.00     0.028 A 
HETATM    2  N   UNL     1      65.483   8.699   5.994  1.00  0.00    -0.260 N 
ATOM      3  HN  UNL     1      65.907   9.597   5.760  1.00  0.00     0.195 HD
HETATM    4  C   UNL     1      64.283   8.248   5.591  1.00  0.00     0.075 A 
HETATM    5  O   UNL     1      66.029   7.716   6.782  1.00  0.00    -0.242 OA
HETATM    6  C   UNL     1      65.177   6.665   6.858  1.00  0.00     0.083 A 
HETATM    7  C   UNL     1      65.631   5.541   7.701  1.00  0.00     0.079 C 
ENDROOT
BRANCH   4   8
HETATM    8  C   UNL     1      63.436   9.091   4.736  1.00  0.00    -0.007 A 
HETATM    9  C   UNL     1      63.007  10.348   5.189  1.00  0.00     0.014 A 
HETATM   10  C   UNL     1      62.202  11.161   4.385  1.00  0.00     0.001 A 
HETATM   11  C   UNL     1      61.822  10.731   3.114  1.00  0.00     0.000 A 
HETATM   12  C   UNL     1      62.233   9.485   2.655  1.00  0.00     0.001 A 
HETATM   13  C   UNL     1      63.023   8.665   3.467  1.00  0.00     0.014 A 
ENDBRANCH   4   8
BRANCH   1  14
HETATM   14  C   UNL     1      62.888   6.015   5.896  1.00  0.00     0.275 C 
BRANCH  14  15
HETATM   15  N   UNL     1      61.698   6.619   6.485  1.00  0.00    -0.075 N 
HETATM   16  C   UNL     1      60.647   5.630   6.678  1.00  0.00     0.267 C 
HETATM   17  H   UNL     1      61.354   7.353   5.865  1.00  0.00     0.277 HD
HETATM   18  H   UNL     1      61.948   7.006   7.396  1.00  0.00     0.277 HD
ENDBRANCH  14  15
ENDBRANCH   1  14
TORSDOF 3
ENDMDL
MODEL 6
REMARK VINA RESULT:      -5.1      5.650      9.157
REMARK  3 active torsions:
REMARK  status: ('A' for Active; 'I' for Inactive)
REMARK    1  A    between atoms: C_1  and  C_8 
REMARK    2  A    between atoms: C_4  and  C_7 
REMARK    3  A    between atoms: C_8  and  N_9 
ROOT
HETATM    1  C   UNL     1      66.763   6.170   6.290  1.00  0.00     0.028 A 
HETATM    2  N   UNL     1      67.255   7.440   8.123  1.00  0.00    -0.260 N 
ATOM      3  HN  UNL     1      67.598   7.746   9.034  1.00  0.00     0.195 HD
HETATM    4  C   UNL     1      67.423   6.229   7.566  1.00  0.00     0.075 A 
HETATM    5  O   UNL     1      66.530   8.189   7.227  1.00  0.00    -0.242 OA
HETATM    6  C   UNL     1      66.247   7.442   6.133  1.00  0.00     0.083 A 
HETATM    7  C   UNL     1      65.490   8.137   5.072  1.00  0.00     0.079 C 
ENDROOT
BRANCH   4   8
HETATM    8  C   UNL     1      68.182   5.195   8.282  1.00  0.00    -0.007 A 
HETATM    9  C   UNL     1      69.555   5.367   8.521  1.00  0.00     0.014 A 
HETATM   10  C   UNL     1      70.290   4.392   9.203  1.00  0.00     0.001 A 
HETATM   11  C   UNL     1      69.660   3.236   9.662  1.00  0.00     0.000 A 
HETATM   12  C   UNL     1      68.303   3.049   9.427  1.00  0.00     0.001 A 
HETATM   13  C   UNL     1      67.573   4.016   8.729  1.00  0.00     0.014 A 
ENDBRANCH   4   8
BRANCH   1  14
HETATM   14  C   UNL     1      66.648   5.039   5.328  1.00  0.00     0.275 C 
BRANCH  14  15
HETATM   15  N   UNL     1      67.529   5.284   4.190  1.00  0.00    -0.075 N 
HETATM   16  C   UNL     1      66.902   4.872   2.942  1.00  0.00     0.267 C 
HETATM   17  H   UNL     1      68.394   4.758   4.318  1.00  0.00     0.277 HD
HETATM   18  H   UNL     1      67.721   6.285   4.139  1.00  0.00     0.277 HD
ENDBRANCH  14  15
ENDBRANCH   1  14
TORSDOF 3
ENDMDL
MODEL 7
REMARK VINA RESULT:      -4.9      1.805      4.505
REMARK  3 active torsions:
REMARK  status: ('A' for Active; 'I' for Inactive)
REMARK    1  A    between atoms: C_1  and  C_8 
REMARK    2  A    between atoms: C_4  and  C_7 
REMARK    3  A    between atoms: C_8  and  N_9 
ROOT
HETATM    1  C   UNL     1      62.153   9.871   2.902  1.00  0.00     0.028 A 
HETATM    2  N   UNL     1      62.636  10.703   4.974  1.00  0.00    -0.260 N 
ATOM      3  HN  UNL     1      62.911  10.781   5.953  1.00  0.00     0.195 HD
HETATM    4  C   UNL     1      62.646   9.587   4.224  1.00  0.00     0.075 A 
HETATM    5  O   UNL     1      62.183  11.717   4.166  1.00  0.00    -0.242 OA
HETATM    6  C   UNL     1      61.907  11.230   2.932  1.00  0.00     0.083 A 
HETATM    7  C   UNL     1      61.432  12.225   1.951  1.00  0.00     0.079 C 
ENDROOT
BRANCH   4   8
HETATM    8  C   UNL     1      63.103   8.319   4.807  1.00  0.00    -0.007 A 
HETATM    9  C   UNL     1      64.343   7.778   4.432  1.00  0.00     0.014 A 
HETATM   10  C   UNL     1      64.792   6.572   4.981  1.00  0.00     0.001 A 
HETATM   11  C   UNL     1      64.009   5.896   5.917  1.00  0.00     0.000 A 
HETATM   12  C   UNL     1      62.776   6.416   6.291  1.00  0.00     0.001 A 
HETATM   13  C   UNL     1      62.320   7.613   5.729  1.00  0.00     0.014 A 
ENDBRANCH   4   8
BRANCH   1  14
HETATM   14  C   UNL     1      61.954   8.956   1.744  1.00  0.00     0.275 C 
BRANCH  14  15
HETATM   15  N   UNL     1      60.529   8.687   1.582  1.00  0.00    -0.075 N 
HETATM   16  C   UNL     1      60.281   7.846   0.420  1.00  0.00     0.267 C 
HETATM   17  H   UNL     1      60.034   9.571   1.465  1.00  0.00     0.277 HD
HETATM   18  H   UNL     1      60.196   8.197   2.413  1.00  0.00     0.277 HD
ENDBRANCH  14  15
ENDBRANCH   1  14
TORSDOF 3
ENDMDL
MODEL 8
REMARK VINA RESULT:      -4.7     21.430     24.720
REMARK  3 active torsions:
REMARK  status: ('A' for Active; 'I' for Inactive)
REMARK    1  A    between atoms: C_1  and  C_8 
REMARK    2  A    between atoms: C_4  and  C_7 
REMARK    3  A    between atoms: C_8  and  N_9 
ROOT
HETATM    1  C   UNL     1      77.261   1.944  18.196  1.00  0.00     0.028 A 
HETATM    2  N   UNL     1      77.963   2.953  20.121  1.00  0.00    -0.260 N 
ATOM      3  HN  UNL     1      78.386   3.125  21.033  1.00  0.00     0.195 HD
HETATM    4  C   UNL     1      78.006   1.807  19.419  1.00  0.00     0.075 A 
HETATM    5  O   UNL     1      77.237   3.847  19.372  1.00  0.00    -0.242 OA
HETATM    6  C   UNL     1      76.829   3.256  18.223  1.00  0.00     0.083 A 
HETATM    7  C   UNL     1      76.056   4.118  17.308  1.00  0.00     0.079 C 
ENDROOT
BRANCH   4   8
HETATM    8  C   UNL     1      78.734   0.650  19.954  1.00  0.00    -0.007 A 
HETATM    9  C   UNL     1      79.062   0.592  21.318  1.00  0.00     0.014 A 
HETATM   10  C   UNL     1      79.753  -0.506  21.841  1.00  0.00     0.001 A 
HETATM   11  C   UNL     1      80.119  -1.562  21.009  1.00  0.00     0.000 A 
HETATM   12  C   UNL     1      79.808  -1.516  19.655  1.00  0.00     0.001 A 
HETATM   13  C   UNL     1      79.133  -0.411  19.129  1.00  0.00     0.014 A 
ENDBRANCH   4   8
BRANCH   1  14
HETATM   14  C   UNL     1      77.003   0.944  17.122  1.00  0.00     0.275 C 
BRANCH  14  15
HETATM   15  N   UNL     1      75.598   0.550  17.159  1.00  0.00    -0.075 N 
HETATM   16  C   UNL     1      75.340  -0.374  18.255  1.00  0.00     0.267 C 
HETATM   17  H   UNL     1      75.355   0.097  16.278  1.00  0.00     0.277 HD
HETATM   18  H   UNL     1      75.031   1.386  17.301  1.00  0.00     0.277 HD
ENDBRANCH  14  15
ENDBRANCH   1  14
TORSDOF 3
ENDMDL
MODEL 9
REMARK VINA RESULT:      -4.7     20.113     21.818
REMARK  3 active torsions:
REMARK  status: ('A' for Active; 'I' for Inactive)
REMARK    1  A    between atoms: C_1  and  C_8 
REMARK    2  A    between atoms: C_4  and  C_7 
REMARK    3  A    between atoms: C_8  and  N_9 
ROOT
HETATM    1  C   UNL     1      73.995  -0.298  17.668  1.00  0.00     0.028 A 
HETATM    2  N   UNL     1      74.236   0.359  15.494  1.00  0.00    -0.260 N 
ATOM      3  HN  UNL     1      74.464   0.896  14.658  1.00  0.00     0.195 HD
HETATM    4  C   UNL     1      74.507   0.698  16.766  1.00  0.00     0.075 A 
HETATM    5  O   UNL     1      73.590  -0.852  15.539  1.00  0.00    -0.242 OA
HETATM    6  C   UNL     1      73.456  -1.252  16.827  1.00  0.00     0.083 A 
HETATM    7  C   UNL     1      72.797  -2.559  17.019  1.00  0.00     0.079 C 
ENDROOT
BRANCH   4   8
HETATM    8  C   UNL     1      75.218   1.951  17.052  1.00  0.00    -0.007 A 
HETATM    9  C   UNL     1      74.672   3.180  16.647  1.00  0.00     0.014 A 
HETATM   10  C   UNL     1      75.337   4.381  16.914  1.00  0.00     0.001 A 
HETATM   11  C   UNL     1      76.554   4.369  17.596  1.00  0.00     0.000 A 
HETATM   12  C   UNL     1      77.110   3.160  17.996  1.00  0.00     0.001 A 
HETATM   13  C   UNL     1      76.453   1.959  17.713  1.00  0.00     0.014 A 
ENDBRANCH   4   8
BRANCH   1  14
HETATM   14  C   UNL     1      74.029  -0.342  19.157  1.00  0.00     0.275 C 
BRANCH  14  15
HETATM   15  N   UNL     1      75.345  -0.794  19.596  1.00  0.00    -0.075 N 
HETATM   16  C   UNL     1      75.326  -2.206  19.949  1.00  0.00     0.267 C 
HETATM   17  H   UNL     1      75.630  -0.251  20.411  1.00  0.00     0.277 HD
HETATM   18  H   UNL     1      76.005  -0.661  18.828  1.00  0.00     0.277 HD
ENDBRANCH  14  15
ENDBRANCH   1  14
TORSDOF 3
ENDMDL
