MODEL 1
REMARK VINA RESULT:      -5.5      0.000      0.000
REMARK  2 active torsions:
REMARK  status: ('A' for Active; 'I' for Inactive)
REMARK    1  A    between atoms: C_1  and  C_2 
REMARK    2  A    between atoms: C_1  and  N_12 
ROOT
HETATM    1  C   UNL     1      77.346   9.904  17.978  1.00  0.00     0.004 A 
HETATM    2  C   UNL     1      76.994   7.566  17.661  1.00  0.00     0.105 A 
HETATM    3  C   UNL     1      77.020   8.648  18.515  1.00  0.00     0.054 A 
HETATM    4  C   UNL     1      77.253   7.692  16.317  1.00  0.00     0.105 A 
HETATM    5  O   UNL     1      76.727   6.283  18.020  1.00  0.00    -0.323 OA
HETATM    6  O   UNL     1      77.185   6.501  15.664  1.00  0.00    -0.323 OA
HETATM    7  C   UNL     1      76.904   5.606  16.758  1.00  0.00     0.352 A 
HETATM    8  C   UNL     1      77.600  10.027  16.591  1.00  0.00     0.017 A 
HETATM    9  C   UNL     1      77.549   8.910  15.749  1.00  0.00     0.040 A 
ENDROOT
BRANCH   1  10
HETATM   10  C   UNL     1      77.438  11.087  18.881  1.00  0.00     0.104 C 
HETATM   11  S   UNL     1      76.526  12.481  18.757  1.00  0.00    -0.060 SA
BRANCH  10  12
HETATM   12  N   UNL     1      78.366  11.013  19.890  1.00  0.00    -0.390 N 
HETATM   13  H   UNL     1      79.208  10.523  19.748  1.00  0.00     0.157 HD
HETATM   14  H   UNL     1      78.189  11.449  20.754  1.00  0.00     0.157 HD
ENDBRANCH  10  12
ENDBRANCH   1  10
TORSDOF 2
ENDMDL
MODEL 2
REMARK VINA RESULT:      -5.2      3.979      5.010
REMARK  2 active torsions:
REMARK  status: ('A' for Active; 'I' for Inactive)
REMARK    1  A    between atoms: C_1  and  C_2 
REMARK    2  A    between atoms: C_1  and  N_12 
ROOT
HETATM    1  C   UNL     1      76.327   5.573  16.902  1.00  0.00     0.004 A 
HETATM    2  C   UNL     1      77.023   7.713  17.696  1.00  0.00     0.105 A 
HETATM    3  C   UNL     1      76.577   6.440  17.980  1.00  0.00     0.054 A 
HETATM    4  C   UNL     1      77.245   8.137  16.408  1.00  0.00     0.105 A 
HETATM    5  O   UNL     1      77.283   8.681  18.613  1.00  0.00    -0.323 OA
HETATM    6  O   UNL     1      77.671   9.428  16.355  1.00  0.00    -0.323 OA
HETATM    7  C   UNL     1      77.642   9.782  17.753  1.00  0.00     0.352 A 
HETATM    8  C   UNL     1      76.570   6.014  15.580  1.00  0.00     0.017 A 
HETATM    9  C   UNL     1      77.039   7.309  15.328  1.00  0.00     0.040 A 
ENDROOT
BRANCH   1  10
HETATM   10  C   UNL     1      75.792   4.208  17.168  1.00  0.00     0.104 C 
HETATM   11  S   UNL     1      76.651   2.935  17.826  1.00  0.00    -0.060 SA
BRANCH  10  12
HETATM   12  N   UNL     1      74.481   3.989  16.825  1.00  0.00    -0.390 N 
HETATM   13  H   UNL     1      73.759   4.295  17.420  1.00  0.00     0.157 HD
HETATM   14  H   UNL     1      74.264   3.525  15.985  1.00  0.00     0.157 HD
ENDBRANCH  10  12
ENDBRANCH   1  10
TORSDOF 2
ENDMDL
MODEL 3
REMARK VINA RESULT:      -5.2      3.980      5.426
REMARK  2 active torsions:
REMARK  status: ('A' for Active; 'I' for Inactive)
REMARK    1  A    between atoms: C_1  and  C_2 
REMARK    2  A    between atoms: C_1  and  N_12 
ROOT
HETATM    1  C   UNL     1      79.370  12.313  21.768  1.00  0.00     0.004 A 
HETATM    2  C   UNL     1      78.521  11.244  19.811  1.00  0.00     0.105 A 
HETATM    3  C   UNL     1      79.513  11.340  20.764  1.00  0.00     0.054 A 
HETATM    4  C   UNL     1      77.408  12.049  19.833  1.00  0.00     0.105 A 
HETATM    5  O   UNL     1      78.519  10.382  18.760  1.00  0.00    -0.323 OA
HETATM    6  O   UNL     1      76.565  11.795  18.796  1.00  0.00    -0.323 OA
HETATM    7  C   UNL     1      77.302  10.774  18.091  1.00  0.00     0.352 A 
HETATM    8  C   UNL     1      78.214  13.129  21.791  1.00  0.00     0.017 A 
HETATM    9  C   UNL     1      77.218  12.994  20.816  1.00  0.00     0.040 A 
ENDROOT
BRANCH   1  10
HETATM   10  C   UNL     1      80.448  12.483  22.783  1.00  0.00     0.104 C 
HETATM   11  S   UNL     1      80.224  12.571  24.437  1.00  0.00    -0.060 SA
BRANCH  10  12
HETATM   12  N   UNL     1      81.729  12.588  22.301  1.00  0.00    -0.390 N 
HETATM   13  H   UNL     1      82.342  11.821  22.364  1.00  0.00     0.157 HD
HETATM   14  H   UNL     1      82.034  13.431  21.895  1.00  0.00     0.157 HD
ENDBRANCH  10  12
ENDBRANCH   1  10
TORSDOF 2
ENDMDL
MODEL 4
REMARK VINA RESULT:      -4.8     12.646     13.574
REMARK  2 active torsions:
REMARK  status: ('A' for Active; 'I' for Inactive)
REMARK    1  A    between atoms: C_1  and  C_2 
REMARK    2  A    between atoms: C_1  and  N_12 
ROOT
HETATM    1  C   UNL     1      68.248   5.237   8.047  1.00  0.00     0.004 A 
HETATM    2  C   UNL     1      68.056   3.198   9.272  1.00  0.00     0.105 A 
HETATM    3  C   UNL     1      67.472   4.135   8.446  1.00  0.00     0.054 A 
HETATM    4  C   UNL     1      69.362   3.304   9.686  1.00  0.00     0.105 A 
HETATM    5  O   UNL     1      67.441   2.094   9.772  1.00  0.00    -0.323 OA
HETATM    6  O   UNL     1      69.731   2.280  10.501  1.00  0.00    -0.323 OA
HETATM    7  C   UNL     1      68.492   1.546  10.594  1.00  0.00     0.352 A 
HETATM    8  C   UNL     1      69.595   5.332   8.469  1.00  0.00     0.017 A 
HETATM    9  C   UNL     1      70.162   4.353   9.294  1.00  0.00     0.040 A 
ENDROOT
BRANCH   1  10
HETATM   10  C   UNL     1      67.633   6.298   7.200  1.00  0.00     0.104 C 
HETATM   11  S   UNL     1      67.464   6.244   5.539  1.00  0.00    -0.060 SA
BRANCH  10  12
HETATM   12  N   UNL     1      67.183   7.417   7.856  1.00  0.00    -0.390 N 
HETATM   13  H   UNL     1      67.486   7.605   8.773  1.00  0.00     0.157 HD
HETATM   14  H   UNL     1      66.556   8.031   7.409  1.00  0.00     0.157 HD
ENDBRANCH  10  12
ENDBRANCH   1  10
TORSDOF 2
ENDMDL
MODEL 5
REMARK VINA RESULT:      -4.7     20.562     21.309
REMARK  2 active torsions:
REMARK  status: ('A' for Active; 'I' for Inactive)
REMARK    1  A    between atoms: C_1  and  C_2 
REMARK    2  A    between atoms: C_1  and  N_12 
ROOT
HETATM    1  C   UNL     1      62.339   8.525   2.080  1.00  0.00     0.004 A 
HETATM    2  C   UNL     1      62.711   9.675   4.137  1.00  0.00     0.105 A 
HETATM    3  C   UNL     1      62.803   8.509   3.407  1.00  0.00     0.054 A 
HETATM    4  C   UNL     1      62.207  10.835   3.600  1.00  0.00     0.105 A 
HETATM    5  O   UNL     1      63.085   9.823   5.436  1.00  0.00    -0.323 OA
HETATM    6  O   UNL     1      62.198  11.858   4.495  1.00  0.00    -0.323 OA
HETATM    7  C   UNL     1      62.706  11.195   5.672  1.00  0.00     0.352 A 
HETATM    8  C   UNL     1      61.833   9.727   1.531  1.00  0.00     0.017 A 
HETATM    9  C   UNL     1      61.769  10.897   2.296  1.00  0.00     0.040 A 
ENDROOT
BRANCH   1  10
HETATM   10  C   UNL     1      62.371   7.269   1.277  1.00  0.00     0.104 C 
HETATM   11  S   UNL     1      63.432   5.998   1.499  1.00  0.00    -0.060 SA
BRANCH  10  12
HETATM   12  N   UNL     1      61.451   7.170   0.263  1.00  0.00    -0.390 N 
HETATM   13  H   UNL     1      61.748   6.961  -0.651  1.00  0.00     0.157 HD
HETATM   14  H   UNL     1      60.495   7.309   0.451  1.00  0.00     0.157 HD
ENDBRANCH  10  12
ENDBRANCH   1  10
TORSDOF 2
ENDMDL
MODEL 6
REMARK VINA RESULT:      -4.6     18.410     19.101
REMARK  2 active torsions:
REMARK  status: ('A' for Active; 'I' for Inactive)
REMARK    1  A    between atoms: C_1  and  C_2 
REMARK    2  A    between atoms: C_1  and  N_12 
ROOT
HETATM    1  C   UNL     1      62.968   8.748   3.681  1.00  0.00     0.004 A 
HETATM    2  C   UNL     1      64.816   8.615   5.184  1.00  0.00     0.105 A 
HETATM    3  C   UNL     1      63.694   9.291   4.754  1.00  0.00     0.054 A 
HETATM    4  C   UNL     1      65.219   7.433   4.611  1.00  0.00     0.105 A 
HETATM    5  O   UNL     1      65.644   9.017   6.184  1.00  0.00    -0.323 OA
HETATM    6  O   UNL     1      66.354   6.944   5.179  1.00  0.00    -0.323 OA
HETATM    7  C   UNL     1      66.646   7.980   6.139  1.00  0.00     0.352 A 
HETATM    8  C   UNL     1      63.383   7.524   3.105  1.00  0.00     0.017 A 
HETATM    9  C   UNL     1      64.518   6.855   3.577  1.00  0.00     0.040 A 
ENDROOT
BRANCH   1  10
HETATM   10  C   UNL     1      61.781   9.479   3.154  1.00  0.00     0.104 C 
HETATM   11  S   UNL     1      61.814  10.958   2.376  1.00  0.00    -0.060 SA
BRANCH  10  12
HETATM   12  N   UNL     1      60.561   8.879   3.343  1.00  0.00    -0.390 N 
HETATM   13  H   UNL     1      60.368   8.411   4.187  1.00  0.00     0.157 HD
HETATM   14  H   UNL     1      59.879   8.917   2.634  1.00  0.00     0.157 HD
ENDBRANCH  10  12
ENDBRANCH   1  10
TORSDOF 2
ENDMDL
MODEL 7
REMARK VINA RESULT:      -4.6      6.162      7.579
REMARK  2 active torsions:
REMARK  status: ('A' for Active; 'I' for Inactive)
REMARK    1  A    between atoms: C_1  and  C_2 
REMARK    2  A    between atoms: C_1  and  N_12 
ROOT
HETATM    1  C   UNL     1      76.223   2.496  17.514  1.00  0.00     0.004 A 
HETATM    2  C   UNL     1      76.589   0.247  16.808  1.00  0.00     0.105 A 
HETATM    3  C   UNL     1      77.043   1.356  17.491  1.00  0.00     0.054 A 
HETATM    4  C   UNL     1      75.367   0.226  16.181  1.00  0.00     0.105 A 
HETATM    5  O   UNL     1      77.267  -0.922  16.663  1.00  0.00    -0.323 OA
HETATM    6  O   UNL     1      75.124  -0.959  15.560  1.00  0.00    -0.323 OA
HETATM    7  C   UNL     1      76.355  -1.662  15.825  1.00  0.00     0.352 A 
HETATM    8  C   UNL     1      74.960   2.463  16.876  1.00  0.00     0.017 A 
HETATM    9  C   UNL     1      74.523   1.314  16.205  1.00  0.00     0.040 A 
ENDROOT
BRANCH   1  10
HETATM   10  C   UNL     1      76.704   3.732  18.196  1.00  0.00     0.104 C 
HETATM   11  S   UNL     1      76.771   5.256  17.516  1.00  0.00    -0.060 SA
BRANCH  10  12
HETATM   12  N   UNL     1      77.139   3.585  19.490  1.00  0.00    -0.390 N 
HETATM   13  H   UNL     1      76.673   2.966  20.098  1.00  0.00     0.157 HD
HETATM   14  H   UNL     1      77.915   4.099  19.809  1.00  0.00     0.157 HD
ENDBRANCH  10  12
ENDBRANCH   1  10
TORSDOF 2
ENDMDL
MODEL 8
REMARK VINA RESULT:      -4.5     13.886     14.781
REMARK  2 active torsions:
REMARK  status: ('A' for Active; 'I' for Inactive)
REMARK    1  A    between atoms: C_1  and  C_2 
REMARK    2  A    between atoms: C_1  and  N_12 
ROOT
HETATM    1  C   UNL     1      67.953   4.323   8.912  1.00  0.00     0.004 A 
HETATM    2  C   UNL     1      66.067   4.989   7.611  1.00  0.00     0.105 A 
HETATM    3  C   UNL     1      66.900   3.981   8.047  1.00  0.00     0.054 A 
HETATM    4  C   UNL     1      66.228   6.293   8.014  1.00  0.00     0.105 A 
HETATM    5  O   UNL     1      65.025   4.836   6.752  1.00  0.00    -0.323 OA
HETATM    6  O   UNL     1      65.307   7.124   7.457  1.00  0.00    -0.323 OA
HETATM    7  C   UNL     1      64.581   6.202   6.617  1.00  0.00     0.352 A 
HETATM    8  C   UNL     1      68.104   5.666   9.332  1.00  0.00     0.017 A 
HETATM    9  C   UNL     1      67.230   6.663   8.883  1.00  0.00     0.040 A 
ENDROOT
BRANCH   1  10
HETATM   10  C   UNL     1      68.906   3.268   9.360  1.00  0.00     0.104 C 
HETATM   11  S   UNL     1      69.067   1.749   8.684  1.00  0.00    -0.060 SA
BRANCH  10  12
HETATM   12  N   UNL     1      69.705   3.583  10.431  1.00  0.00    -0.390 N 
HETATM   13  H   UNL     1      69.762   4.514  10.746  1.00  0.00     0.157 HD
HETATM   14  H   UNL     1      70.223   2.878  10.882  1.00  0.00     0.157 HD
ENDBRANCH  10  12
ENDBRANCH   1  10
TORSDOF 2
ENDMDL
MODEL 9
REMARK VINA RESULT:      -4.4     13.398     14.381
REMARK  2 active torsions:
REMARK  status: ('A' for Active; 'I' for Inactive)
REMARK    1  A    between atoms: C_1  and  C_2 
REMARK    2  A    between atoms: C_1  and  N_12 
ROOT
HETATM    1  C   UNL     1      68.355   3.937   8.733  1.00  0.00     0.004 A 
HETATM    2  C   UNL     1      67.465   6.037   8.032  1.00  0.00     0.105 A 
HETATM    3  C   UNL     1      67.910   5.230   9.058  1.00  0.00     0.054 A 
HETATM    4  C   UNL     1      67.468   5.621   6.723  1.00  0.00     0.105 A 
HETATM    5  O   UNL     1      66.977   7.297   8.176  1.00  0.00    -0.323 OA
HETATM    6  O   UNL     1      66.979   6.568   5.878  1.00  0.00    -0.323 OA
HETATM    7  C   UNL     1      66.621   7.607   6.812  1.00  0.00     0.352 A 
HETATM    8  C   UNL     1      68.366   3.521   7.381  1.00  0.00     0.017 A 
HETATM    9  C   UNL     1      67.923   4.372   6.362  1.00  0.00     0.040 A 
ENDROOT
BRANCH   1  10
HETATM   10  C   UNL     1      68.791   3.017   9.822  1.00  0.00     0.104 C 
HETATM   11  S   UNL     1      68.062   1.568  10.223  1.00  0.00    -0.060 SA
BRANCH  10  12
HETATM   12  N   UNL     1      69.879   3.414  10.558  1.00  0.00    -0.390 N 
HETATM   13  H   UNL     1      69.887   4.303  10.982  1.00  0.00     0.157 HD
HETATM   14  H   UNL     1      70.650   2.812  10.660  1.00  0.00     0.157 HD
ENDBRANCH  10  12
ENDBRANCH   1  10
TORSDOF 2
ENDMDL
