MODEL 1
REMARK VINA RESULT:      -4.4      0.000      0.000
REMARK  3 active torsions:
REMARK  status: ('A' for Active; 'I' for Inactive)
REMARK       I    between atoms: C_1  and  N_2 
REMARK    1  A    between atoms: C_1  and  O_6 
REMARK    2  A    between atoms: N_2  and  C_3 
REMARK    3  A    between atoms: O_6  and  C_10 
ROOT
HETATM    1  C   UNL     1      66.318   7.746   6.844  1.00  0.00     0.365 C 
HETATM    2  N   UNL     1      67.548   7.159   6.945  1.00  0.00    -0.302 N 
HETATM    3  O   UNL     1      66.258   8.905   6.438  1.00  0.00    -0.238 OA
HETATM    4  H   UNL     1      68.288   7.735   6.647  1.00  0.00     0.171 HD
ENDROOT
BRANCH   1   5
HETATM    5  O   UNL     1      65.244   7.004   7.222  1.00  0.00    -0.294 OA
BRANCH   5   6
HETATM    6  C   UNL     1      64.342   6.500   6.195  1.00  0.00     0.061 C 
HETATM    7  C   UNL     1      64.976   6.558   4.793  1.00  0.00     0.046 C 
HETATM    8  C   UNL     1      64.077   5.025   6.553  1.00  0.00     0.046 C 
HETATM    9  C   UNL     1      62.998   7.242   6.222  1.00  0.00     0.046 C 
ENDBRANCH   5   6
ENDBRANCH   1   5
BRANCH   2  10
HETATM   10  C   UNL     1      67.954   5.911   7.383  1.00  0.00     0.043 A 
HETATM   11  C   UNL     1      68.476   5.508   8.647  1.00  0.00     0.037 A 
HETATM   12  C   UNL     1      68.825   4.172   8.675  1.00  0.00     0.052 A 
HETATM   13  S   UNL     1      68.475   3.383   7.200  1.00  0.00    -0.111 SA
HETATM   14  C   UNL     1      67.860   4.828   6.526  1.00  0.00     0.079 A 
ENDBRANCH   2  10
TORSDOF 3
ENDMDL
MODEL 2
REMARK VINA RESULT:      -4.2      1.821      2.303
REMARK  3 active torsions:
REMARK  status: ('A' for Active; 'I' for Inactive)
REMARK       I    between atoms: C_1  and  N_2 
REMARK    1  A    between atoms: C_1  and  O_6 
REMARK    2  A    between atoms: N_2  and  C_3 
REMARK    3  A    between atoms: O_6  and  C_10 
ROOT
HETATM    1  C   UNL     1      65.731   6.278   7.323  1.00  0.00     0.365 C 
HETATM    2  N   UNL     1      66.550   6.042   8.392  1.00  0.00    -0.302 N 
HETATM    3  O   UNL     1      64.786   7.049   7.475  1.00  0.00    -0.238 OA
HETATM    4  H   UNL     1      66.308   6.552   9.198  1.00  0.00     0.171 HD
ENDROOT
BRANCH   1   5
HETATM    5  O   UNL     1      66.014   5.620   6.169  1.00  0.00    -0.294 OA
BRANCH   5   6
HETATM    6  C   UNL     1      66.500   6.383   5.027  1.00  0.00     0.061 C 
HETATM    7  C   UNL     1      67.545   7.435   5.440  1.00  0.00     0.046 C 
HETATM    8  C   UNL     1      67.177   5.360   4.094  1.00  0.00     0.046 C 
HETATM    9  C   UNL     1      65.341   7.031   4.256  1.00  0.00     0.046 C 
ENDBRANCH   5   6
ENDBRANCH   1   5
BRANCH   2  10
HETATM   10  C   UNL     1      67.654   5.226   8.560  1.00  0.00     0.043 A 
HETATM   11  C   UNL     1      69.042   5.552   8.577  1.00  0.00     0.037 A 
HETATM   12  C   UNL     1      69.847   4.438   8.709  1.00  0.00     0.052 A 
HETATM   13  S   UNL     1      68.938   3.000   8.868  1.00  0.00    -0.111 SA
HETATM   14  C   UNL     1      67.470   3.868   8.758  1.00  0.00     0.079 A 
ENDBRANCH   2  10
TORSDOF 3
ENDMDL
MODEL 3
REMARK VINA RESULT:      -4.1     18.613     20.107
REMARK  3 active torsions:
REMARK  status: ('A' for Active; 'I' for Inactive)
REMARK       I    between atoms: C_1  and  N_2 
REMARK    1  A    between atoms: C_1  and  O_6 
REMARK    2  A    between atoms: N_2  and  C_3 
REMARK    3  A    between atoms: O_6  and  C_10 
ROOT
HETATM    1  C   UNL     1      71.669  22.191  13.528  1.00  0.00     0.365 C 
HETATM    2  N   UNL     1      70.635  23.069  13.353  1.00  0.00    -0.302 N 
HETATM    3  O   UNL     1      71.970  21.454  12.592  1.00  0.00    -0.238 OA
HETATM    4  H   UNL     1      70.237  23.038  12.454  1.00  0.00     0.171 HD
ENDROOT
BRANCH   1   5
HETATM    5  O   UNL     1      72.280  22.188  14.742  1.00  0.00    -0.294 OA
BRANCH   5   6
HETATM    6  C   UNL     1      73.647  22.681  14.841  1.00  0.00     0.061 C 
HETATM    7  C   UNL     1      74.224  23.061  13.465  1.00  0.00     0.046 C 
HETATM    8  C   UNL     1      73.574  23.951  15.710  1.00  0.00     0.046 C 
HETATM    9  C   UNL     1      74.553  21.669  15.558  1.00  0.00     0.046 C 
ENDBRANCH   5   6
ENDBRANCH   1   5
BRANCH   2  10
HETATM   10  C   UNL     1      70.041  23.990  14.196  1.00  0.00     0.043 A 
HETATM   11  C   UNL     1      70.623  25.049  14.954  1.00  0.00     0.037 A 
HETATM   12  C   UNL     1      69.696  25.717  15.729  1.00  0.00     0.052 A 
HETATM   13  S   UNL     1      68.113  25.112  15.508  1.00  0.00    -0.111 SA
HETATM   14  C   UNL     1      68.669  23.956  14.379  1.00  0.00     0.079 A 
ENDBRANCH   2  10
TORSDOF 3
ENDMDL
MODEL 4
REMARK VINA RESULT:      -4.1      1.313      2.043
REMARK  3 active torsions:
REMARK  status: ('A' for Active; 'I' for Inactive)
REMARK       I    between atoms: C_1  and  N_2 
REMARK    1  A    between atoms: C_1  and  O_6 
REMARK    2  A    between atoms: N_2  and  C_3 
REMARK    3  A    between atoms: O_6  and  C_10 
ROOT
HETATM    1  C   UNL     1      66.516   7.627   6.756  1.00  0.00     0.365 C 
HETATM    2  N   UNL     1      67.596   7.096   7.405  1.00  0.00    -0.302 N 
HETATM    3  O   UNL     1      66.445   8.849   6.648  1.00  0.00    -0.238 OA
HETATM    4  H   UNL     1      68.246   7.770   7.709  1.00  0.00     0.171 HD
ENDROOT
BRANCH   1   5
HETATM    5  O   UNL     1      65.583   6.755   6.292  1.00  0.00    -0.294 OA
BRANCH   5   6
HETATM    6  C   UNL     1      65.518   6.493   4.860  1.00  0.00     0.061 C 
HETATM    7  C   UNL     1      65.098   5.042   4.559  1.00  0.00     0.046 C 
HETATM    8  C   UNL     1      64.435   7.441   4.308  1.00  0.00     0.046 C 
HETATM    9  C   UNL     1      66.845   6.837   4.169  1.00  0.00     0.046 C 
ENDBRANCH   5   6
ENDBRANCH   1   5
BRANCH   2  10
HETATM   10  C   UNL     1      67.953   5.796   7.715  1.00  0.00     0.043 A 
HETATM   11  C   UNL     1      68.117   4.663   6.866  1.00  0.00     0.037 A 
HETATM   12  C   UNL     1      68.423   3.514   7.569  1.00  0.00     0.052 A 
HETATM   13  S   UNL     1      68.569   3.803   9.247  1.00  0.00    -0.111 SA
HETATM   14  C   UNL     1      68.221   5.463   9.031  1.00  0.00     0.079 A 
ENDBRANCH   2  10
TORSDOF 3
ENDMDL
MODEL 5
REMARK VINA RESULT:      -4.0      2.417      4.352
REMARK  3 active torsions:
REMARK  status: ('A' for Active; 'I' for Inactive)
REMARK       I    between atoms: C_1  and  N_2 
REMARK    1  A    between atoms: C_1  and  O_6 
REMARK    2  A    between atoms: N_2  and  C_3 
REMARK    3  A    between atoms: O_6  and  C_10 
ROOT
HETATM    1  C   UNL     1      66.381   6.181   8.794  1.00  0.00     0.365 C 
HETATM    2  N   UNL     1      66.250   7.083   7.774  1.00  0.00    -0.302 N 
HETATM    3  O   UNL     1      66.344   6.600   9.949  1.00  0.00    -0.238 OA
HETATM    4  H   UNL     1      66.108   8.008   8.079  1.00  0.00     0.171 HD
ENDROOT
BRANCH   1   5
HETATM    5  O   UNL     1      66.563   4.880   8.450  1.00  0.00    -0.294 OA
BRANCH   5   6
HETATM    6  C   UNL     1      67.922   4.366   8.338  1.00  0.00     0.061 C 
HETATM    7  C   UNL     1      68.972   5.432   8.702  1.00  0.00     0.046 C 
HETATM    8  C   UNL     1      68.021   3.213   9.356  1.00  0.00     0.046 C 
HETATM    9  C   UNL     1      68.186   3.787   6.940  1.00  0.00     0.046 C 
ENDBRANCH   5   6
ENDBRANCH   1   5
BRANCH   2  10
HETATM   10  C   UNL     1      66.277   6.947   6.398  1.00  0.00     0.043 A 
HETATM   11  C   UNL     1      67.372   7.038   5.489  1.00  0.00     0.037 A 
HETATM   12  C   UNL     1      66.979   6.902   4.172  1.00  0.00     0.052 A 
HETATM   13  S   UNL     1      65.302   6.607   4.025  1.00  0.00    -0.111 SA
HETATM   14  C   UNL     1      65.103   6.666   5.722  1.00  0.00     0.079 A 
ENDBRANCH   2  10
TORSDOF 3
ENDMDL
MODEL 6
REMARK VINA RESULT:      -4.0      2.884      4.908
REMARK  3 active torsions:
REMARK  status: ('A' for Active; 'I' for Inactive)
REMARK       I    between atoms: C_1  and  N_2 
REMARK    1  A    between atoms: C_1  and  O_6 
REMARK    2  A    between atoms: N_2  and  C_3 
REMARK    3  A    between atoms: O_6  and  C_10 
ROOT
HETATM    1  C   UNL     1      66.348   3.680   7.725  1.00  0.00     0.365 C 
HETATM    2  N   UNL     1      66.088   4.529   6.686  1.00  0.00    -0.302 N 
HETATM    3  O   UNL     1      65.830   2.566   7.710  1.00  0.00    -0.238 OA
HETATM    4  H   UNL     1      65.510   4.140   5.991  1.00  0.00     0.171 HD
ENDROOT
BRANCH   1   5
HETATM    5  O   UNL     1      67.154   4.144   8.717  1.00  0.00    -0.294 OA
BRANCH   5   6
HETATM    6  C   UNL     1      68.578   3.846   8.661  1.00  0.00     0.061 C 
HETATM    7  C   UNL     1      68.968   3.139   7.350  1.00  0.00     0.046 C 
HETATM    8  C   UNL     1      69.296   5.209   8.716  1.00  0.00     0.046 C 
HETATM    9  C   UNL     1      69.024   3.028   9.882  1.00  0.00     0.046 C 
ENDBRANCH   5   6
ENDBRANCH   1   5
BRANCH   2  10
HETATM   10  C   UNL     1      66.480   5.829   6.422  1.00  0.00     0.043 A 
HETATM   11  C   UNL     1      66.043   7.055   7.005  1.00  0.00     0.037 A 
HETATM   12  C   UNL     1      66.634   8.159   6.422  1.00  0.00     0.052 A 
HETATM   13  S   UNL     1      67.759   7.725   5.210  1.00  0.00    -0.111 SA
HETATM   14  C   UNL     1      67.451   6.063   5.464  1.00  0.00     0.079 A 
ENDBRANCH   2  10
TORSDOF 3
ENDMDL
MODEL 7
REMARK VINA RESULT:      -4.0      2.756      3.765
REMARK  3 active torsions:
REMARK  status: ('A' for Active; 'I' for Inactive)
REMARK       I    between atoms: C_1  and  N_2 
REMARK    1  A    between atoms: C_1  and  O_6 
REMARK    2  A    between atoms: N_2  and  C_3 
REMARK    3  A    between atoms: O_6  and  C_10 
ROOT
HETATM    1  C   UNL     1      63.015   7.368   6.254  1.00  0.00     0.365 C 
HETATM    2  N   UNL     1      64.335   7.375   6.614  1.00  0.00    -0.302 N 
HETATM    3  O   UNL     1      62.182   7.691   7.097  1.00  0.00    -0.238 OA
HETATM    4  H   UNL     1      64.492   7.674   7.538  1.00  0.00     0.171 HD
ENDROOT
BRANCH   1   5
HETATM    5  O   UNL     1      62.721   6.983   4.985  1.00  0.00    -0.294 OA
BRANCH   5   6
HETATM    6  C   UNL     1      62.394   8.003   3.999  1.00  0.00     0.061 C 
HETATM    7  C   UNL     1      62.880   9.399   4.431  1.00  0.00     0.046 C 
HETATM    8  C   UNL     1      63.142   7.601   2.712  1.00  0.00     0.046 C 
HETATM    9  C   UNL     1      60.891   8.016   3.687  1.00  0.00     0.046 C 
ENDBRANCH   5   6
ENDBRANCH   1   5
BRANCH   2  10
HETATM   10  C   UNL     1      65.490   7.045   5.929  1.00  0.00     0.043 A 
HETATM   11  C   UNL     1      66.294   7.832   5.053  1.00  0.00     0.037 A 
HETATM   12  C   UNL     1      67.344   7.116   4.511  1.00  0.00     0.052 A 
HETATM   13  S   UNL     1      67.403   5.512   5.098  1.00  0.00    -0.111 SA
HETATM   14  C   UNL     1      66.022   5.775   6.071  1.00  0.00     0.079 A 
ENDBRANCH   2  10
TORSDOF 3
ENDMDL
MODEL 8
REMARK VINA RESULT:      -3.9      4.621      5.959
REMARK  3 active torsions:
REMARK  status: ('A' for Active; 'I' for Inactive)
REMARK       I    between atoms: C_1  and  N_2 
REMARK    1  A    between atoms: C_1  and  O_6 
REMARK    2  A    between atoms: N_2  and  C_3 
REMARK    3  A    between atoms: O_6  and  C_10 
ROOT
HETATM    1  C   UNL     1      63.497   7.483   6.481  1.00  0.00     0.365 C 
HETATM    2  N   UNL     1      63.883   8.419   5.562  1.00  0.00    -0.302 N 
HETATM    3  O   UNL     1      64.367   6.938   7.157  1.00  0.00    -0.238 OA
HETATM    4  H   UNL     1      64.852   8.587   5.551  1.00  0.00     0.171 HD
ENDROOT
BRANCH   1   5
HETATM    5  O   UNL     1      62.168   7.209   6.566  1.00  0.00    -0.294 OA
BRANCH   5   6
HETATM    6  C   UNL     1      61.640   6.060   5.842  1.00  0.00     0.061 C 
HETATM    7  C   UNL     1      62.741   5.310   5.071  1.00  0.00     0.046 C 
HETATM    8  C   UNL     1      61.063   5.116   6.915  1.00  0.00     0.046 C 
HETATM    9  C   UNL     1      60.494   6.470   4.907  1.00  0.00     0.046 C 
ENDBRANCH   5   6
ENDBRANCH   1   5
BRANCH   2  10
HETATM   10  C   UNL     1      63.174   9.174   4.646  1.00  0.00     0.043 A 
HETATM   11  C   UNL     1      62.597  10.471   4.778  1.00  0.00     0.037 A 
HETATM   12  C   UNL     1      61.909  10.863   3.646  1.00  0.00     0.052 A 
HETATM   13  S   UNL     1      62.001   9.698   2.399  1.00  0.00    -0.111 SA
HETATM   14  C   UNL     1      62.958   8.671   3.375  1.00  0.00     0.079 A 
ENDBRANCH   2  10
TORSDOF 3
ENDMDL
MODEL 9
REMARK VINA RESULT:      -3.9      3.321      5.201
REMARK  3 active torsions:
REMARK  status: ('A' for Active; 'I' for Inactive)
REMARK       I    between atoms: C_1  and  N_2 
REMARK    1  A    between atoms: C_1  and  O_6 
REMARK    2  A    between atoms: N_2  and  C_3 
REMARK    3  A    between atoms: O_6  and  C_10 
ROOT
HETATM    1  C   UNL     1      68.921   3.755   9.598  1.00  0.00     0.365 C 
HETATM    2  N   UNL     1      68.797   5.028   9.114  1.00  0.00    -0.302 N 
HETATM    3  O   UNL     1      69.963   3.451  10.174  1.00  0.00    -0.238 OA
HETATM    4  H   UNL     1      69.574   5.601   9.305  1.00  0.00     0.171 HD
ENDROOT
BRANCH   1   5
HETATM    5  O   UNL     1      67.879   2.909   9.388  1.00  0.00    -0.294 OA
BRANCH   5   6
HETATM    6  C   UNL     1      68.019   1.856   8.391  1.00  0.00     0.061 C 
HETATM    7  C   UNL     1      68.536   0.543   9.009  1.00  0.00     0.046 C 
HETATM    8  C   UNL     1      66.603   1.611   7.834  1.00  0.00     0.046 C 
HETATM    9  C   UNL     1      68.913   2.306   7.227  1.00  0.00     0.046 C 
ENDBRANCH   5   6
ENDBRANCH   1   5
BRANCH   2  10
HETATM   10  C   UNL     1      67.792   5.665   8.410  1.00  0.00     0.043 A 
HETATM   11  C   UNL     1      66.518   6.132   8.848  1.00  0.00     0.037 A 
HETATM   12  C   UNL     1      65.766   6.665   7.820  1.00  0.00     0.052 A 
HETATM   13  S   UNL     1      66.609   6.659   6.333  1.00  0.00    -0.111 SA
HETATM   14  C   UNL     1      67.977   5.941   7.066  1.00  0.00     0.079 A 
ENDBRANCH   2  10
TORSDOF 3
ENDMDL
