MODEL 1
REMARK VINA RESULT:      -5.6      0.000      0.000
REMARK  3 active torsions:
REMARK  status: ('A' for Active; 'I' for Inactive)
REMARK    1  A    between atoms: C_1  and  C_8 
REMARK    2  A    between atoms: C_4  and  C_7 
REMARK    3  A    between atoms: C_8  and  O_9 
ROOT
HETATM    1  C   UNL     1      64.791   7.602   5.344  1.00  0.00     0.026 A 
HETATM    2  N   UNL     1      62.743   7.990   6.265  1.00  0.00    -0.260 N 
ATOM      3  HN  UNL     1      61.783   8.304   6.413  1.00  0.00     0.195 HD
HETATM    4  C   UNL     1      63.498   8.209   5.174  1.00  0.00     0.076 A 
HETATM    5  O   UNL     1      63.510   7.265   7.143  1.00  0.00    -0.242 OA
HETATM    6  C   UNL     1      64.726   7.029   6.599  1.00  0.00     0.083 A 
HETATM    7  C   UNL     1      65.653   6.238   7.432  1.00  0.00     0.079 C 
ENDROOT
BRANCH   4   8
HETATM    8  C   UNL     1      62.940   8.947   4.031  1.00  0.00    -0.007 A 
HETATM    9  C   UNL     1      62.856   8.379   2.753  1.00  0.00     0.014 A 
HETATM   10  C   UNL     1      62.292   9.088   1.687  1.00  0.00     0.001 A 
HETATM   11  C   UNL     1      61.821  10.383   1.880  1.00  0.00     0.000 A 
HETATM   12  C   UNL     1      61.919  10.974   3.136  1.00  0.00     0.001 A 
HETATM   13  C   UNL     1      62.474  10.261   4.203  1.00  0.00     0.014 A 
ENDBRANCH   4   8
BRANCH   1  14
HETATM   14  C   UNL     1      65.945   7.559   4.415  1.00  0.00     0.207 C 
BRANCH  14  15
HETATM   15  O   UNL     1      67.047   8.323   4.881  1.00  0.00    -0.396 OA
HETATM   16  H   UNL     1      67.621   8.553   4.133  1.00  0.00     0.209 HD
ENDBRANCH  14  15
ENDBRANCH   1  14
TORSDOF 3
ENDMDL
MODEL 2
REMARK VINA RESULT:      -5.4      2.627      6.520
REMARK  3 active torsions:
REMARK  status: ('A' for Active; 'I' for Inactive)
REMARK    1  A    between atoms: C_1  and  C_8 
REMARK    2  A    between atoms: C_4  and  C_7 
REMARK    3  A    between atoms: C_8  and  O_9 
ROOT
HETATM    1  C   UNL     1      66.416   7.268   5.736  1.00  0.00     0.026 A 
HETATM    2  N   UNL     1      65.275   6.623   7.600  1.00  0.00    -0.260 N 
ATOM      3  HN  UNL     1      65.016   6.173   8.478  1.00  0.00     0.195 HD
HETATM    4  C   UNL     1      66.426   6.459   6.924  1.00  0.00     0.076 A 
HETATM    5  O   UNL     1      64.513   7.511   6.882  1.00  0.00    -0.242 OA
HETATM    6  C   UNL     1      65.188   7.900   5.775  1.00  0.00     0.083 A 
HETATM    7  C   UNL     1      64.490   8.875   4.914  1.00  0.00     0.079 C 
ENDROOT
BRANCH   4   8
HETATM    8  C   UNL     1      67.473   5.574   7.460  1.00  0.00    -0.007 A 
HETATM    9  C   UNL     1      67.875   4.413   6.789  1.00  0.00     0.014 A 
HETATM   10  C   UNL     1      68.894   3.603   7.301  1.00  0.00     0.001 A 
HETATM   11  C   UNL     1      69.514   3.935   8.503  1.00  0.00     0.000 A 
HETATM   12  C   UNL     1      69.110   5.071   9.197  1.00  0.00     0.001 A 
HETATM   13  C   UNL     1      68.097   5.885   8.679  1.00  0.00     0.014 A 
ENDBRANCH   4   8
BRANCH   1  14
HETATM   14  C   UNL     1      67.459   7.435   4.695  1.00  0.00     0.207 C 
BRANCH  14  15
HETATM   15  O   UNL     1      68.666   7.971   5.217  1.00  0.00    -0.396 OA
HETATM   16  H   UNL     1      69.420   7.465   4.874  1.00  0.00     0.209 HD
ENDBRANCH  14  15
ENDBRANCH   1  14
TORSDOF 3
ENDMDL
MODEL 3
REMARK VINA RESULT:      -5.4      2.885      4.276
REMARK  3 active torsions:
REMARK  status: ('A' for Active; 'I' for Inactive)
REMARK    1  A    between atoms: C_1  and  C_8 
REMARK    2  A    between atoms: C_4  and  C_7 
REMARK    3  A    between atoms: C_8  and  O_9 
ROOT
HETATM    1  C   UNL     1      62.362   9.524   3.704  1.00  0.00     0.026 A 
HETATM    2  N   UNL     1      61.508  11.045   2.238  1.00  0.00    -0.260 N 
ATOM      3  HN  UNL     1      61.097  11.478   1.410  1.00  0.00     0.195 HD
HETATM    4  C   UNL     1      61.801   9.742   2.398  1.00  0.00     0.076 A 
HETATM    5  O   UNL     1      61.867  11.682   3.399  1.00  0.00    -0.242 OA
HETATM    6  C   UNL     1      62.372  10.782   4.275  1.00  0.00     0.083 A 
HETATM    7  C   UNL     1      62.786  11.329   5.583  1.00  0.00     0.079 C 
ENDROOT
BRANCH   4   8
HETATM    8  C   UNL     1      61.504   8.785   1.321  1.00  0.00    -0.007 A 
HETATM    9  C   UNL     1      62.512   8.244   0.513  1.00  0.00     0.014 A 
HETATM   10  C   UNL     1      62.210   7.311  -0.484  1.00  0.00     0.001 A 
HETATM   11  C   UNL     1      60.893   6.919  -0.700  1.00  0.00     0.000 A 
HETATM   12  C   UNL     1      59.874   7.464   0.077  1.00  0.00     0.001 A 
HETATM   13  C   UNL     1      60.178   8.390   1.080  1.00  0.00     0.014 A 
ENDBRANCH   4   8
BRANCH   1  14
HETATM   14  C   UNL     1      62.817   8.265   4.340  1.00  0.00     0.207 C 
BRANCH  14  15
HETATM   15  O   UNL     1      64.232   8.180   4.426  1.00  0.00    -0.396 OA
HETATM   16  H   UNL     1      64.614   9.070   4.374  1.00  0.00     0.209 HD
ENDBRANCH  14  15
ENDBRANCH   1  14
TORSDOF 3
ENDMDL
MODEL 4
REMARK VINA RESULT:      -5.4     17.487     18.767
REMARK  3 active torsions:
REMARK  status: ('A' for Active; 'I' for Inactive)
REMARK    1  A    between atoms: C_1  and  C_8 
REMARK    2  A    between atoms: C_4  and  C_7 
REMARK    3  A    between atoms: C_8  and  O_9 
ROOT
HETATM    1  C   UNL     1      76.334   3.461  17.691  1.00  0.00     0.026 A 
HETATM    2  N   UNL     1      74.407   3.800  16.523  1.00  0.00    -0.260 N 
ATOM      3  HN  UNL     1      73.518   3.654  16.045  1.00  0.00     0.195 HD
HETATM    4  C   UNL     1      75.155   2.860  17.129  1.00  0.00     0.076 A 
HETATM    5  O   UNL     1      75.070   4.993  16.669  1.00  0.00    -0.242 OA
HETATM    6  C   UNL     1      76.214   4.798  17.365  1.00  0.00     0.083 A 
HETATM    7  C   UNL     1      77.023   6.008  17.612  1.00  0.00     0.079 C 
ENDROOT
BRANCH   4   8
HETATM    8  C   UNL     1      74.692   1.465  17.167  1.00  0.00    -0.007 A 
HETATM    9  C   UNL     1      74.473   0.790  18.374  1.00  0.00     0.014 A 
HETATM   10  C   UNL     1      74.001  -0.527  18.386  1.00  0.00     0.001 A 
HETATM   11  C   UNL     1      73.761  -1.195  17.189  1.00  0.00     0.000 A 
HETATM   12  C   UNL     1      73.997  -0.550  15.979  1.00  0.00     0.001 A 
HETATM   13  C   UNL     1      74.459   0.770  15.968  1.00  0.00     0.014 A 
ENDBRANCH   4   8
BRANCH   1  14
HETATM   14  C   UNL     1      77.437   2.840  18.463  1.00  0.00     0.207 C 
BRANCH  14  15
HETATM   15  O   UNL     1      77.589   3.415  19.753  1.00  0.00    -0.396 OA
HETATM   16  H   UNL     1      77.377   2.752  20.430  1.00  0.00     0.209 HD
ENDBRANCH  14  15
ENDBRANCH   1  14
TORSDOF 3
ENDMDL
MODEL 5
REMARK VINA RESULT:      -5.3      2.676      6.594
REMARK  3 active torsions:
REMARK  status: ('A' for Active; 'I' for Inactive)
REMARK    1  A    between atoms: C_1  and  C_8 
REMARK    2  A    between atoms: C_4  and  C_7 
REMARK    3  A    between atoms: C_8  and  O_9 
ROOT
HETATM    1  C   UNL     1      65.496   6.872   5.913  1.00  0.00     0.026 A 
HETATM    2  N   UNL     1      66.881   8.296   7.030  1.00  0.00    -0.260 N 
ATOM      3  HN  UNL     1      67.622   8.672   7.622  1.00  0.00     0.195 HD
HETATM    4  C   UNL     1      66.611   6.996   6.813  1.00  0.00     0.076 A 
HETATM    5  O   UNL     1      65.970   9.020   6.303  1.00  0.00    -0.242 OA
HETATM    6  C   UNL     1      65.146   8.179   5.635  1.00  0.00     0.083 A 
HETATM    7  C   UNL     1      64.121   8.827   4.794  1.00  0.00     0.079 C 
ENDROOT
BRANCH   4   8
HETATM    8  C   UNL     1      67.442   5.958   7.441  1.00  0.00    -0.007 A 
HETATM    9  C   UNL     1      67.922   4.857   6.721  1.00  0.00     0.014 A 
HETATM   10  C   UNL     1      68.737   3.898   7.332  1.00  0.00     0.001 A 
HETATM   11  C   UNL     1      69.070   4.018   8.678  1.00  0.00     0.000 A 
HETATM   12  C   UNL     1      68.582   5.092   9.417  1.00  0.00     0.001 A 
HETATM   13  C   UNL     1      67.775   6.054   8.803  1.00  0.00     0.014 A 
ENDBRANCH   4   8
BRANCH   1  14
HETATM   14  C   UNL     1      64.851   5.654   5.369  1.00  0.00     0.207 C 
BRANCH  14  15
HETATM   15  O   UNL     1      64.201   4.887   6.373  1.00  0.00    -0.396 OA
HETATM   16  H   UNL     1      63.726   4.149   5.960  1.00  0.00     0.209 HD
ENDBRANCH  14  15
ENDBRANCH   1  14
TORSDOF 3
ENDMDL
MODEL 6
REMARK VINA RESULT:      -5.0      2.668      5.220
REMARK  3 active torsions:
REMARK  status: ('A' for Active; 'I' for Inactive)
REMARK    1  A    between atoms: C_1  and  C_8 
REMARK    2  A    between atoms: C_4  and  C_7 
REMARK    3  A    between atoms: C_8  and  O_9 
ROOT
HETATM    1  C   UNL     1      62.135   9.907   3.017  1.00  0.00     0.026 A 
HETATM    2  N   UNL     1      62.601  10.870   5.029  1.00  0.00    -0.260 N 
ATOM      3  HN  UNL     1      62.881  11.016   6.000  1.00  0.00     0.195 HD
HETATM    4  C   UNL     1      62.585   9.700   4.367  1.00  0.00     0.076 A 
HETATM    5  O   UNL     1      62.168  11.832   4.151  1.00  0.00    -0.242 OA
HETATM    6  C   UNL     1      61.893  11.266   2.953  1.00  0.00     0.083 A 
HETATM    7  C   UNL     1      61.432  12.193   1.901  1.00  0.00     0.079 C 
ENDROOT
BRANCH   4   8
HETATM    8  C   UNL     1      63.025   8.469   5.041  1.00  0.00    -0.007 A 
HETATM    9  C   UNL     1      62.126   7.453   5.390  1.00  0.00     0.014 A 
HETATM   10  C   UNL     1      62.572   6.277   6.001  1.00  0.00     0.001 A 
HETATM   11  C   UNL     1      63.922   6.108   6.291  1.00  0.00     0.000 A 
HETATM   12  C   UNL     1      64.828   7.116   5.976  1.00  0.00     0.001 A 
HETATM   13  C   UNL     1      64.382   8.288   5.355  1.00  0.00     0.014 A 
ENDBRANCH   4   8
BRANCH   1  14
HETATM   14  C   UNL     1      61.973   8.931   1.913  1.00  0.00     0.207 C 
BRANCH  14  15
HETATM   15  O   UNL     1      60.618   8.786   1.511  1.00  0.00    -0.396 OA
HETATM   16  H   UNL     1      60.517   7.963   1.008  1.00  0.00     0.209 HD
ENDBRANCH  14  15
ENDBRANCH   1  14
TORSDOF 3
ENDMDL
MODEL 7
REMARK VINA RESULT:      -4.8      4.804      6.358
REMARK  3 active torsions:
REMARK  status: ('A' for Active; 'I' for Inactive)
REMARK    1  A    between atoms: C_1  and  C_8 
REMARK    2  A    between atoms: C_4  and  C_7 
REMARK    3  A    between atoms: C_8  and  O_9 
ROOT
HETATM    1  C   UNL     1      68.770   3.977   8.727  1.00  0.00     0.026 A 
HETATM    2  N   UNL     1      66.550   3.599   8.382  1.00  0.00    -0.260 N 
ATOM      3  HN  UNL     1      65.588   3.673   8.049  1.00  0.00     0.195 HD
HETATM    4  C   UNL     1      67.572   4.413   8.063  1.00  0.00     0.076 A 
HETATM    5  O   UNL     1      67.047   2.650   9.240  1.00  0.00    -0.242 OA
HETATM    6  C   UNL     1      68.367   2.869   9.446  1.00  0.00     0.083 A 
HETATM    7  C   UNL     1      69.039   1.906  10.341  1.00  0.00     0.079 C 
ENDROOT
BRANCH   4   8
HETATM    8  C   UNL     1      67.358   5.529   7.128  1.00  0.00    -0.007 A 
HETATM    9  C   UNL     1      67.593   5.397   5.753  1.00  0.00     0.014 A 
HETATM   10  C   UNL     1      67.352   6.462   4.878  1.00  0.00     0.001 A 
HETATM   11  C   UNL     1      66.891   7.680   5.368  1.00  0.00     0.000 A 
HETATM   12  C   UNL     1      66.676   7.838   6.734  1.00  0.00     0.001 A 
HETATM   13  C   UNL     1      66.908   6.770   7.607  1.00  0.00     0.014 A 
ENDBRANCH   4   8
BRANCH   1  14
HETATM   14  C   UNL     1      70.141   4.539   8.671  1.00  0.00     0.207 C 
BRANCH  14  15
HETATM   15  O   UNL     1      70.148   5.959   8.690  1.00  0.00    -0.396 OA
HETATM   16  H   UNL     1      69.881   6.273   9.569  1.00  0.00     0.209 HD
ENDBRANCH  14  15
ENDBRANCH   1  14
TORSDOF 3
ENDMDL
MODEL 8
REMARK VINA RESULT:      -4.8     18.431     20.746
REMARK  3 active torsions:
REMARK  status: ('A' for Active; 'I' for Inactive)
REMARK    1  A    between atoms: C_1  and  C_8 
REMARK    2  A    between atoms: C_4  and  C_7 
REMARK    3  A    between atoms: C_8  and  O_9 
ROOT
HETATM    1  C   UNL     1      78.144  -0.110  19.186  1.00  0.00     0.026 A 
HETATM    2  N   UNL     1      77.607   2.092  18.953  1.00  0.00    -0.260 N 
ATOM      3  HN  UNL     1      77.227   2.972  18.603  1.00  0.00     0.195 HD
HETATM    4  C   UNL     1      77.470   0.879  18.389  1.00  0.00     0.076 A 
HETATM    5  O   UNL     1      78.355   1.921  20.091  1.00  0.00    -0.242 OA
HETATM    6  C   UNL     1      78.674   0.614  20.236  1.00  0.00     0.083 A 
HETATM    7  C   UNL     1      79.469   0.281  21.435  1.00  0.00     0.079 C 
ENDROOT
BRANCH   4   8
HETATM    8  C   UNL     1      76.687   0.728  17.153  1.00  0.00    -0.007 A 
HETATM    9  C   UNL     1      77.190   0.050  16.035  1.00  0.00     0.014 A 
HETATM   10  C   UNL     1      76.415  -0.109  14.882  1.00  0.00     0.001 A 
HETATM   11  C   UNL     1      75.132   0.425  14.822  1.00  0.00     0.000 A 
HETATM   12  C   UNL     1      74.623   1.124  15.913  1.00  0.00     0.001 A 
HETATM   13  C   UNL     1      75.395   1.274  17.070  1.00  0.00     0.014 A 
ENDBRANCH   4   8
BRANCH   1  14
HETATM   14  C   UNL     1      78.254  -1.575  18.982  1.00  0.00     0.207 C 
BRANCH  14  15
HETATM   15  O   UNL     1      79.325  -1.924  18.117  1.00  0.00    -0.396 OA
HETATM   16  H   UNL     1      79.077  -2.701  17.592  1.00  0.00     0.209 HD
ENDBRANCH  14  15
ENDBRANCH   1  14
TORSDOF 3
ENDMDL
MODEL 9
REMARK VINA RESULT:      -4.8      3.085      7.026
REMARK  3 active torsions:
REMARK  status: ('A' for Active; 'I' for Inactive)
REMARK    1  A    between atoms: C_1  and  C_8 
REMARK    2  A    between atoms: C_4  and  C_7 
REMARK    3  A    between atoms: C_8  and  O_9 
ROOT
HETATM    1  C   UNL     1      65.591   6.018   5.483  1.00  0.00     0.026 A 
HETATM    2  N   UNL     1      67.548   5.819   4.333  1.00  0.00    -0.260 N 
ATOM      3  HN  UNL     1      68.521   5.630   4.087  1.00  0.00     0.195 HD
HETATM    4  C   UNL     1      66.979   5.647   5.540  1.00  0.00     0.076 A 
HETATM    5  O   UNL     1      66.572   6.296   3.495  1.00  0.00    -0.242 OA
HETATM    6  C   UNL     1      65.406   6.414   4.172  1.00  0.00     0.083 A 
HETATM    7  C   UNL     1      64.258   6.903   3.384  1.00  0.00     0.079 C 
ENDROOT
BRANCH   4   8
HETATM    8  C   UNL     1      67.774   5.115   6.657  1.00  0.00    -0.007 A 
HETATM    9  C   UNL     1      68.095   5.896   7.775  1.00  0.00     0.014 A 
HETATM   10  C   UNL     1      68.825   5.359   8.841  1.00  0.00     0.001 A 
HETATM   11  C   UNL     1      69.260   4.039   8.796  1.00  0.00     0.000 A 
HETATM   12  C   UNL     1      68.973   3.254   7.682  1.00  0.00     0.001 A 
HETATM   13  C   UNL     1      68.235   3.789   6.621  1.00  0.00     0.014 A 
ENDBRANCH   4   8
BRANCH   1  14
HETATM   14  C   UNL     1      64.558   5.983   6.546  1.00  0.00     0.207 C 
BRANCH  14  15
HETATM   15  O   UNL     1      64.583   7.142   7.366  1.00  0.00    -0.396 OA
HETATM   16  H   UNL     1      64.077   6.975   8.177  1.00  0.00     0.209 HD
ENDBRANCH  14  15
ENDBRANCH   1  14
TORSDOF 3
ENDMDL
