MODEL 1
REMARK VINA RESULT:      -5.7      0.000      0.000
REMARK  2 active torsions:
REMARK  status: ('A' for Active; 'I' for Inactive)
REMARK    1  A    between atoms: C_2  and  C_7 
REMARK    2  A    between atoms: C_7  and  O_8 
ROOT
HETATM    1  C   UNL     1      63.603   9.158   4.869  1.00  0.00     0.110 A 
HETATM    2  C   UNL     1      62.933  10.390   4.984  1.00  0.00     0.001 A 
HETATM    3  C   UNL     1      63.394   8.348   3.737  1.00  0.00     0.102 A 
HETATM    4  O   UNL     1      64.434   8.820   5.912  1.00  0.00    -0.348 OA
HETATM    5  O   UNL     1      63.945   7.109   3.524  1.00  0.00    -0.348 OA
HETATM    6  C   UNL     1      65.451   6.685   5.379  1.00  0.00     0.053 C 
HETATM    7  C   UNL     1      62.100  10.815   3.934  1.00  0.00     0.012 A 
HETATM    8  C   UNL     1      65.641   8.186   5.492  1.00  0.00     0.178 C 
HETATM    9  C   UNL     1      64.133   6.338   4.708  1.00  0.00     0.178 C 
HETATM   10  C   UNL     1      61.935  10.032   2.793  1.00  0.00     0.003 A 
HETATM   11  C   UNL     1      62.581   8.803   2.697  1.00  0.00     0.040 A 
ENDROOT
BRANCH   2  12
HETATM   12  C   UNL     1      63.090  11.281   6.190  1.00  0.00     0.205 C 
BRANCH  12  13
HETATM   13  O   UNL     1      64.470  11.538   6.436  1.00  0.00    -0.396 OA
HETATM   14  H   UNL     1      64.982  10.728   6.282  1.00  0.00     0.209 HD
ENDBRANCH  12  13
ENDBRANCH   2  12
TORSDOF 2
ENDMDL
MODEL 2
REMARK VINA RESULT:      -5.7     16.863     18.163
REMARK  2 active torsions:
REMARK  status: ('A' for Active; 'I' for Inactive)
REMARK    1  A    between atoms: C_2  and  C_7 
REMARK    2  A    between atoms: C_7  and  O_8 
ROOT
HETATM    1  C   UNL     1      77.133   7.646  16.807  1.00  0.00     0.110 A 
HETATM    2  C   UNL     1      77.647   8.939  17.015  1.00  0.00     0.001 A 
HETATM    3  C   UNL     1      76.902   7.183  15.498  1.00  0.00     0.102 A 
HETATM    4  O   UNL     1      76.878   6.906  17.939  1.00  0.00    -0.348 OA
HETATM    5  O   UNL     1      76.363   5.968  15.159  1.00  0.00    -0.348 OA
HETATM    6  C   UNL     1      76.055   4.739  17.230  1.00  0.00     0.053 C 
HETATM    7  C   UNL     1      77.968   9.733  15.900  1.00  0.00     0.012 A 
HETATM    8  C   UNL     1      77.219   5.526  17.802  1.00  0.00     0.178 C 
HETATM    9  C   UNL     1      75.391   5.478  16.081  1.00  0.00     0.178 C 
HETATM   10  C   UNL     1      77.784   9.253  14.605  1.00  0.00     0.003 A 
HETATM   11  C   UNL     1      77.253   7.982  14.407  1.00  0.00     0.040 A 
ENDROOT
BRANCH   2  12
HETATM   12  C   UNL     1      77.880   9.499  18.395  1.00  0.00     0.205 C 
BRANCH  12  13
HETATM   13  O   UNL     1      79.181  10.072  18.480  1.00  0.00    -0.396 OA
HETATM   14  H   UNL     1      79.174  10.797  19.126  1.00  0.00     0.209 HD
ENDBRANCH  12  13
ENDBRANCH   2  12
TORSDOF 2
ENDMDL
MODEL 3
REMARK VINA RESULT:      -5.5     16.806     18.184
REMARK  2 active torsions:
REMARK  status: ('A' for Active; 'I' for Inactive)
REMARK    1  A    between atoms: C_2  and  C_7 
REMARK    2  A    between atoms: C_7  and  O_8 
ROOT
HETATM    1  C   UNL     1      77.586   8.845  16.116  1.00  0.00     0.110 A 
HETATM    2  C   UNL     1      77.561   8.520  17.485  1.00  0.00     0.001 A 
HETATM    3  C   UNL     1      77.171   7.899  15.161  1.00  0.00     0.102 A 
HETATM    4  O   UNL     1      78.039  10.106  15.801  1.00  0.00    -0.348 OA
HETATM    5  O   UNL     1      77.190   8.070  13.799  1.00  0.00    -0.348 OA
HETATM    6  C   UNL     1      77.912  10.351  13.392  1.00  0.00     0.053 C 
HETATM    7  C   UNL     1      77.070   7.262  17.878  1.00  0.00     0.012 A 
HETATM    8  C   UNL     1      77.312  10.719  14.737  1.00  0.00     0.178 C 
HETATM    9  C   UNL     1      78.266   8.876  13.324  1.00  0.00     0.178 C 
HETATM   10  C   UNL     1      76.614   6.346  16.933  1.00  0.00     0.003 A 
HETATM   11  C   UNL     1      76.665   6.666  15.579  1.00  0.00     0.040 A 
ENDROOT
BRANCH   2  12
HETATM   12  C   UNL     1      78.027   9.481  18.548  1.00  0.00     0.205 C 
BRANCH  12  13
HETATM   13  O   UNL     1      79.379   9.860  18.310  1.00  0.00    -0.396 OA
HETATM   14  H   UNL     1      79.907   9.698  19.108  1.00  0.00     0.209 HD
ENDBRANCH  12  13
ENDBRANCH   2  12
TORSDOF 2
ENDMDL
MODEL 4
REMARK VINA RESULT:      -5.5     16.769     18.056
REMARK  2 active torsions:
REMARK  status: ('A' for Active; 'I' for Inactive)
REMARK    1  A    between atoms: C_2  and  C_7 
REMARK    2  A    between atoms: C_7  and  O_8 
ROOT
HETATM    1  C   UNL     1      77.020   7.373  16.067  1.00  0.00     0.110 A 
HETATM    2  C   UNL     1      77.475   8.482  15.332  1.00  0.00     0.001 A 
HETATM    3  C   UNL     1      76.940   7.445  17.471  1.00  0.00     0.102 A 
HETATM    4  O   UNL     1      76.683   6.257  15.336  1.00  0.00    -0.348 OA
HETATM    5  O   UNL     1      76.561   6.425  18.307  1.00  0.00    -0.348 OA
HETATM    6  C   UNL     1      75.907   4.566  16.890  1.00  0.00     0.053 C 
HETATM    7  C   UNL     1      77.797   9.669  16.015  1.00  0.00     0.012 A 
HETATM    8  C   UNL     1      75.526   5.584  15.831  1.00  0.00     0.178 C 
HETATM    9  C   UNL     1      76.936   5.125  17.857  1.00  0.00     0.178 C 
HETATM   10  C   UNL     1      77.670   9.752  17.400  1.00  0.00     0.003 A 
HETATM   11  C   UNL     1      77.243   8.642  18.124  1.00  0.00     0.040 A 
ENDROOT
BRANCH   2  12
HETATM   12  C   UNL     1      77.614   8.450  13.831  1.00  0.00     0.205 C 
BRANCH  12  13
HETATM   13  O   UNL     1      77.856   9.761  13.331  1.00  0.00    -0.396 OA
HETATM   14  H   UNL     1      77.035  10.121  12.958  1.00  0.00     0.209 HD
ENDBRANCH  12  13
ENDBRANCH   2  12
TORSDOF 2
ENDMDL
MODEL 5
REMARK VINA RESULT:      -5.2     17.327     18.769
REMARK  2 active torsions:
REMARK  status: ('A' for Active; 'I' for Inactive)
REMARK    1  A    between atoms: C_2  and  C_7 
REMARK    2  A    between atoms: C_7  and  O_8 
ROOT
HETATM    1  C   UNL     1      77.274   7.914  16.969  1.00  0.00     0.110 A 
HETATM    2  C   UNL     1      76.828   6.763  16.294  1.00  0.00     0.001 A 
HETATM    3  C   UNL     1      77.761   9.013  16.237  1.00  0.00     0.102 A 
HETATM    4  O   UNL     1      77.207   7.876  18.342  1.00  0.00    -0.348 OA
HETATM    5  O   UNL     1      78.269  10.172  16.770  1.00  0.00    -0.348 OA
HETATM    6  C   UNL     1      78.002  10.009  19.177  1.00  0.00     0.053 C 
HETATM    7  C   UNL     1      76.831   6.752  14.888  1.00  0.00     0.012 A 
HETATM    8  C   UNL     1      76.802   9.114  18.924  1.00  0.00     0.178 C 
HETATM    9  C   UNL     1      78.965   9.996  18.002  1.00  0.00     0.178 C 
HETATM   10  C   UNL     1      77.269   7.860  14.166  1.00  0.00     0.003 A 
HETATM   11  C   UNL     1      77.731   8.986  14.841  1.00  0.00     0.040 A 
ENDROOT
BRANCH   2  12
HETATM   12  C   UNL     1      76.330   5.544  17.027  1.00  0.00     0.205 C 
BRANCH  12  13
HETATM   13  O   UNL     1      77.249   5.175  18.050  1.00  0.00    -0.396 OA
HETATM   14  H   UNL     1      78.119   5.560  17.858  1.00  0.00     0.209 HD
ENDBRANCH  12  13
ENDBRANCH   2  12
TORSDOF 2
ENDMDL
MODEL 6
REMARK VINA RESULT:      -5.1     16.771     18.537
REMARK  2 active torsions:
REMARK  status: ('A' for Active; 'I' for Inactive)
REMARK    1  A    between atoms: C_2  and  C_7 
REMARK    2  A    between atoms: C_7  and  O_8 
ROOT
HETATM    1  C   UNL     1      77.563   8.593  16.384  1.00  0.00     0.110 A 
HETATM    2  C   UNL     1      77.404   8.158  15.056  1.00  0.00     0.001 A 
HETATM    3  C   UNL     1      77.110   7.789  17.447  1.00  0.00     0.102 A 
HETATM    4  O   UNL     1      78.164   9.820  16.552  1.00  0.00    -0.348 OA
HETATM    5  O   UNL     1      77.160   8.114  18.779  1.00  0.00    -0.348 OA
HETATM    6  C   UNL     1      78.320  10.241  18.935  1.00  0.00     0.053 C 
HETATM    7  C   UNL     1      76.836   6.895  14.815  1.00  0.00     0.012 A 
HETATM    8  C   UNL     1      79.058   9.865  17.663  1.00  0.00     0.178 C 
HETATM    9  C   UNL     1      76.996   9.505  19.051  1.00  0.00     0.178 C 
HETATM   10  C   UNL     1      76.432   6.080  15.871  1.00  0.00     0.003 A 
HETATM   11  C   UNL     1      76.570   6.528  17.182  1.00  0.00     0.040 A 
ENDROOT
BRANCH   2  12
HETATM   12  C   UNL     1      77.838   8.993  13.879  1.00  0.00     0.205 C 
BRANCH  12  13
HETATM   13  O   UNL     1      77.591   8.295  12.662  1.00  0.00    -0.396 OA
HETATM   14  H   UNL     1      76.938   8.784  12.135  1.00  0.00     0.209 HD
ENDBRANCH  12  13
ENDBRANCH   2  12
TORSDOF 2
ENDMDL
MODEL 7
REMARK VINA RESULT:      -4.8      1.466      3.232
REMARK  2 active torsions:
REMARK  status: ('A' for Active; 'I' for Inactive)
REMARK    1  A    between atoms: C_2  and  C_7 
REMARK    2  A    between atoms: C_7  and  O_8 
ROOT
HETATM    1  C   UNL     1      63.017   8.908   3.601  1.00  0.00     0.110 A 
HETATM    2  C   UNL     1      62.241   9.735   2.768  1.00  0.00     0.001 A 
HETATM    3  C   UNL     1      63.419   9.366   4.869  1.00  0.00     0.102 A 
HETATM    4  O   UNL     1      63.344   7.672   3.093  1.00  0.00    -0.348 OA
HETATM    5  O   UNL     1      64.213   8.683   5.756  1.00  0.00    -0.348 OA
HETATM    6  C   UNL     1      64.631   6.500   4.781  1.00  0.00     0.053 C 
HETATM    7  C   UNL     1      61.838  10.996   3.243  1.00  0.00     0.012 A 
HETATM    8  C   UNL     1      63.298   6.629   4.066  1.00  0.00     0.178 C 
HETATM    9  C   UNL     1      65.203   7.859   5.145  1.00  0.00     0.178 C 
HETATM   10  C   UNL     1      62.197  11.427   4.519  1.00  0.00     0.003 A 
HETATM   11  C   UNL     1      62.985  10.613   5.328  1.00  0.00     0.040 A 
ENDROOT
BRANCH   2  12
HETATM   12  C   UNL     1      61.813   9.310   1.387  1.00  0.00     0.205 C 
BRANCH  12  13
HETATM   13  O   UNL     1      60.431   8.967   1.384  1.00  0.00    -0.396 OA
HETATM   14  H   UNL     1      60.331   8.026   1.166  1.00  0.00     0.209 HD
ENDBRANCH  12  13
ENDBRANCH   2  12
TORSDOF 2
ENDMDL
MODEL 8
REMARK VINA RESULT:      -4.8      5.732      8.668
REMARK  2 active torsions:
REMARK  status: ('A' for Active; 'I' for Inactive)
REMARK    1  A    between atoms: C_2  and  C_7 
REMARK    2  A    between atoms: C_7  and  O_8 
ROOT
HETATM    1  C   UNL     1      67.653   3.974   8.693  1.00  0.00     0.110 A 
HETATM    2  C   UNL     1      68.395   3.010   9.397  1.00  0.00     0.001 A 
HETATM    3  C   UNL     1      68.258   5.186   8.309  1.00  0.00     0.102 A 
HETATM    4  O   UNL     1      66.340   3.656   8.429  1.00  0.00    -0.348 OA
HETATM    5  O   UNL     1      67.638   6.225   7.663  1.00  0.00    -0.348 OA
HETATM    6  C   UNL     1      65.374   5.494   7.178  1.00  0.00     0.053 C 
HETATM    7  C   UNL     1      69.754   3.255   9.664  1.00  0.00     0.012 A 
HETATM    8  C   UNL     1      65.905   4.073   7.135  1.00  0.00     0.178 C 
HETATM    9  C   UNL     1      66.266   6.398   8.011  1.00  0.00     0.178 C 
HETATM   10  C   UNL     1      70.363   4.435   9.240  1.00  0.00     0.003 A 
HETATM   11  C   UNL     1      69.616   5.395   8.564  1.00  0.00     0.040 A 
ENDROOT
BRANCH   2  12
HETATM   12  C   UNL     1      67.789   1.712   9.865  1.00  0.00     0.205 C 
BRANCH  12  13
HETATM   13  O   UNL     1      68.105   1.485  11.235  1.00  0.00    -0.396 OA
HETATM   14  H   UNL     1      67.954   0.551  11.452  1.00  0.00     0.209 HD
ENDBRANCH  12  13
ENDBRANCH   2  12
TORSDOF 2
ENDMDL
MODEL 9
REMARK VINA RESULT:      -4.6      1.918      3.723
REMARK  2 active torsions:
REMARK  status: ('A' for Active; 'I' for Inactive)
REMARK    1  A    between atoms: C_2  and  C_7 
REMARK    2  A    between atoms: C_7  and  O_8 
ROOT
HETATM    1  C   UNL     1      62.380   8.605   3.386  1.00  0.00     0.110 A 
HETATM    2  C   UNL     1      62.823   8.775   4.710  1.00  0.00     0.001 A 
HETATM    3  C   UNL     1      61.901   9.710   2.657  1.00  0.00     0.102 A 
HETATM    4  O   UNL     1      62.441   7.324   2.886  1.00  0.00    -0.348 OA
HETATM    5  O   UNL     1      61.398   9.673   1.381  1.00  0.00    -0.348 OA
HETATM    6  C   UNL     1      61.654   7.391   0.594  1.00  0.00     0.053 C 
HETATM    7  C   UNL     1      62.826  10.066   5.268  1.00  0.00     0.012 A 
HETATM    8  C   UNL     1      62.850   7.268   1.520  1.00  0.00     0.178 C 
HETATM    9  C   UNL     1      60.696   8.474   1.060  1.00  0.00     0.178 C 
HETATM   10  C   UNL     1      62.397  11.165   4.527  1.00  0.00     0.003 A 
HETATM   11  C   UNL     1      61.937  10.985   3.226  1.00  0.00     0.040 A 
ENDROOT
BRANCH   2  12
HETATM   12  C   UNL     1      63.311   7.622   5.549  1.00  0.00     0.205 C 
BRANCH  12  13
HETATM   13  O   UNL     1      62.909   7.794   6.904  1.00  0.00    -0.396 OA
HETATM   14  H   UNL     1      63.625   7.508   7.494  1.00  0.00     0.209 HD
ENDBRANCH  12  13
ENDBRANCH   2  12
TORSDOF 2
ENDMDL
