MODEL 1
REMARK VINA RESULT:      -6.2      0.000      0.000
REMARK  1 active torsions:
REMARK  status: ('A' for Active; 'I' for Inactive)
REMARK    1  A    between atoms: C_1  and  C_3 
ROOT
HETATM    1  C   UNL     1      77.617  11.177  19.195  1.00  0.00     0.074 A 
HETATM    2  C   UNL     1      78.330  11.682  20.272  1.00  0.00     0.092 A 
HETATM    3  O   UNL     1      79.453  11.125  20.834  1.00  0.00    -0.349 OA
HETATM    4  C   UNL     1      77.936  12.848  20.925  1.00  0.00    -0.022 A 
HETATM    5  C   UNL     1      76.490  11.902  18.768  1.00  0.00     0.021 A 
HETATM    6  C   UNL     1      79.982  12.169  21.679  1.00  0.00     0.180 C 
HETATM    7  C   UNL     1      76.094  13.079  19.431  1.00  0.00     0.002 A 
HETATM    8  C   UNL     1      78.843  13.105  22.070  1.00  0.00     0.068 C 
HETATM    9  C   UNL     1      76.814  13.552  20.528  1.00  0.00     0.010 A 
ENDROOT
BRANCH   1  10
HETATM   10  C   UNL     1      78.040   9.925  18.520  1.00  0.00     0.212 C 
HETATM   11  O   UNL     1      78.861   9.792  17.633  1.00  0.00    -0.644 OA
HETATM   12  O   UNL     1      77.394   8.845  19.006  1.00  0.00    -0.644 OA
ENDBRANCH   1  10
TORSDOF 1
ENDMDL
MODEL 2
REMARK VINA RESULT:      -5.5     21.062     22.907
REMARK  1 active torsions:
REMARK  status: ('A' for Active; 'I' for Inactive)
REMARK    1  A    between atoms: C_1  and  C_3 
ROOT
HETATM    1  C   UNL     1      62.829   9.598   4.203  1.00  0.00     0.074 A 
HETATM    2  C   UNL     1      62.716   8.910   3.004  1.00  0.00     0.092 A 
HETATM    3  O   UNL     1      63.119   7.618   2.770  1.00  0.00    -0.349 OA
HETATM    4  C   UNL     1      62.174   9.508   1.868  1.00  0.00    -0.022 A 
HETATM    5  C   UNL     1      62.351  10.920   4.237  1.00  0.00     0.021 A 
HETATM    6  C   UNL     1      62.503   7.276   1.510  1.00  0.00     0.180 C 
HETATM    7  C   UNL     1      61.807  11.522   3.088  1.00  0.00     0.002 A 
HETATM    8  C   UNL     1      62.243   8.561   0.730  1.00  0.00     0.068 C 
HETATM    9  C   UNL     1      61.727  10.817   1.887  1.00  0.00     0.010 A 
ENDROOT
BRANCH   1  10
HETATM   10  C   UNL     1      63.424   8.952   5.400  1.00  0.00     0.212 C 
HETATM   11  O   UNL     1      62.885   8.210   6.197  1.00  0.00    -0.644 OA
HETATM   12  O   UNL     1      64.724   9.274   5.555  1.00  0.00    -0.644 OA
ENDBRANCH   1  10
TORSDOF 1
ENDMDL
MODEL 3
REMARK VINA RESULT:      -5.5     19.434     21.168
REMARK  1 active torsions:
REMARK  status: ('A' for Active; 'I' for Inactive)
REMARK    1  A    between atoms: C_1  and  C_3 
ROOT
HETATM    1  C   UNL     1      63.138   9.649   4.677  1.00  0.00     0.074 A 
HETATM    2  C   UNL     1      64.287   8.925   4.962  1.00  0.00     0.092 A 
HETATM    3  O   UNL     1      65.259   9.272   5.868  1.00  0.00    -0.349 OA
HETATM    4  C   UNL     1      64.578   7.732   4.304  1.00  0.00    -0.022 A 
HETATM    5  C   UNL     1      62.262   9.118   3.713  1.00  0.00     0.021 A 
HETATM    6  C   UNL     1      66.044   8.070   6.023  1.00  0.00     0.180 C 
HETATM    7  C   UNL     1      62.560   7.914   3.049  1.00  0.00     0.002 A 
HETATM    8  C   UNL     1      65.892   7.222   4.764  1.00  0.00     0.068 C 
HETATM    9  C   UNL     1      63.735   7.218   3.335  1.00  0.00     0.010 A 
ENDROOT
BRANCH   1  10
HETATM   10  C   UNL     1      62.849  10.926   5.374  1.00  0.00     0.212 C 
HETATM   11  O   UNL     1      63.213  11.275   6.481  1.00  0.00    -0.644 OA
HETATM   12  O   UNL     1      62.089  11.751   4.626  1.00  0.00    -0.644 OA
ENDBRANCH   1  10
TORSDOF 1
ENDMDL
MODEL 4
REMARK VINA RESULT:      -5.2     21.565     23.294
REMARK  1 active torsions:
REMARK  status: ('A' for Active; 'I' for Inactive)
REMARK    1  A    between atoms: C_1  and  C_3 
ROOT
HETATM    1  C   UNL     1      62.157   9.798   2.552  1.00  0.00     0.074 A 
HETATM    2  C   UNL     1      62.916   8.909   3.298  1.00  0.00     0.092 A 
HETATM    3  O   UNL     1      63.499   9.165   4.516  1.00  0.00    -0.349 OA
HETATM    4  C   UNL     1      63.184   7.619   2.845  1.00  0.00    -0.022 A 
HETATM    5  C   UNL     1      61.645   9.339   1.325  1.00  0.00     0.021 A 
HETATM    6  C   UNL     1      63.884   7.862   5.005  1.00  0.00     0.180 C 
HETATM    7  C   UNL     1      61.919   8.036   0.868  1.00  0.00     0.002 A 
HETATM    8  C   UNL     1      64.067   6.928   3.814  1.00  0.00     0.068 C 
HETATM    9  C   UNL     1      62.706   7.169   1.627  1.00  0.00     0.010 A 
ENDROOT
BRANCH   1  10
HETATM   10  C   UNL     1      61.894  11.174   3.041  1.00  0.00     0.212 C 
HETATM   11  O   UNL     1      61.684  11.536   4.182  1.00  0.00    -0.644 OA
HETATM   12  O   UNL     1      61.909  12.079   2.041  1.00  0.00    -0.644 OA
ENDBRANCH   1  10
TORSDOF 1
ENDMDL
MODEL 5
REMARK VINA RESULT:      -5.1     19.326     21.127
REMARK  1 active torsions:
REMARK  status: ('A' for Active; 'I' for Inactive)
REMARK    1  A    between atoms: C_1  and  C_3 
ROOT
HETATM    1  C   UNL     1      64.666   7.991   4.902  1.00  0.00     0.074 A 
HETATM    2  C   UNL     1      63.713   8.993   4.788  1.00  0.00     0.092 A 
HETATM    3  O   UNL     1      63.536  10.045   5.653  1.00  0.00    -0.349 OA
HETATM    4  C   UNL     1      62.792   9.007   3.743  1.00  0.00    -0.022 A 
HETATM    5  C   UNL     1      64.684   7.000   3.905  1.00  0.00     0.021 A 
HETATM    6  C   UNL     1      62.666  10.949   4.938  1.00  0.00     0.180 C 
HETATM    7  C   UNL     1      63.751   7.015   2.852  1.00  0.00     0.002 A 
HETATM    8  C   UNL     1      61.863  10.149   3.918  1.00  0.00     0.068 C 
HETATM    9  C   UNL     1      62.786   8.020   2.774  1.00  0.00     0.010 A 
ENDROOT
BRANCH   1  10
HETATM   10  C   UNL     1      65.630   7.981   6.030  1.00  0.00     0.212 C 
HETATM   11  O   UNL     1      66.726   8.503   6.084  1.00  0.00    -0.644 OA
HETATM   12  O   UNL     1      65.162   7.291   7.090  1.00  0.00    -0.644 OA
ENDBRANCH   1  10
TORSDOF 1
ENDMDL
MODEL 6
REMARK VINA RESULT:      -5.0      8.317     10.674
REMARK  1 active torsions:
REMARK  status: ('A' for Active; 'I' for Inactive)
REMARK    1  A    between atoms: C_1  and  C_3 
ROOT
HETATM    1  C   UNL     1      76.394   2.683  17.999  1.00  0.00     0.074 A 
HETATM    2  C   UNL     1      76.974   1.423  17.975  1.00  0.00     0.092 A 
HETATM    3  O   UNL     1      78.054   1.014  18.717  1.00  0.00    -0.349 OA
HETATM    4  C   UNL     1      76.497   0.417  17.136  1.00  0.00    -0.022 A 
HETATM    5  C   UNL     1      75.287   2.901  17.160  1.00  0.00     0.021 A 
HETATM    6  C   UNL     1      78.057  -0.423  18.577  1.00  0.00     0.180 C 
HETATM    7  C   UNL     1      74.809   1.885  16.313  1.00  0.00     0.002 A 
HETATM    8  C   UNL     1      77.348  -0.788  17.277  1.00  0.00     0.068 C 
HETATM    9  C   UNL     1      75.425   0.633  16.288  1.00  0.00     0.010 A 
ENDROOT
BRANCH   1  10
HETATM   10  C   UNL     1      76.923   3.749  18.886  1.00  0.00     0.212 C 
HETATM   11  O   UNL     1      77.259   3.656  20.050  1.00  0.00    -0.644 OA
HETATM   12  O   UNL     1      77.018   4.935  18.251  1.00  0.00    -0.644 OA
ENDBRANCH   1  10
TORSDOF 1
ENDMDL
MODEL 7
REMARK VINA RESULT:      -4.7     15.709     17.046
REMARK  1 active torsions:
REMARK  status: ('A' for Active; 'I' for Inactive)
REMARK    1  A    between atoms: C_1  and  C_3 
ROOT
HETATM    1  C   UNL     1      68.399   2.946   9.410  1.00  0.00     0.074 A 
HETATM    2  C   UNL     1      67.717   3.981   8.787  1.00  0.00     0.092 A 
HETATM    3  O   UNL     1      66.385   3.987   8.452  1.00  0.00    -0.349 OA
HETATM    4  C   UNL     1      68.362   5.156   8.409  1.00  0.00    -0.022 A 
HETATM    5  C   UNL     1      69.768   3.138   9.670  1.00  0.00     0.021 A 
HETATM    6  C   UNL     1      66.105   5.369   8.139  1.00  0.00     0.180 C 
HETATM    7  C   UNL     1      70.418   4.325   9.285  1.00  0.00     0.002 A 
HETATM    8  C   UNL     1      67.403   6.045   7.712  1.00  0.00     0.068 C 
HETATM    9  C   UNL     1      69.714   5.342   8.637  1.00  0.00     0.010 A 
ENDROOT
BRANCH   1  10
HETATM   10  C   UNL     1      67.701   1.693   9.791  1.00  0.00     0.212 C 
HETATM   11  O   UNL     1      67.213   1.405  10.866  1.00  0.00    -0.644 OA
HETATM   12  O   UNL     1      67.637   0.818   8.767  1.00  0.00    -0.644 OA
ENDBRANCH   1  10
TORSDOF 1
ENDMDL
MODEL 8
REMARK VINA RESULT:      -4.6     15.793     16.954
REMARK  1 active torsions:
REMARK  status: ('A' for Active; 'I' for Inactive)
REMARK    1  A    between atoms: C_1  and  C_3 
ROOT
HETATM    1  C   UNL     1      67.698   4.639   8.541  1.00  0.00     0.074 A 
HETATM    2  C   UNL     1      68.057   3.488   9.226  1.00  0.00     0.092 A 
HETATM    3  O   UNL     1      67.210   2.478   9.613  1.00  0.00    -0.349 OA
HETATM    4  C   UNL     1      69.373   3.253   9.620  1.00  0.00    -0.022 A 
HETATM    5  C   UNL     1      68.722   5.554   8.235  1.00  0.00     0.021 A 
HETATM    6  C   UNL     1      68.093   1.398   9.985  1.00  0.00     0.180 C 
HETATM    7  C   UNL     1      70.049   5.316   8.635  1.00  0.00     0.002 A 
HETATM    8  C   UNL     1      69.442   1.986  10.385  1.00  0.00     0.068 C 
HETATM    9  C   UNL     1      70.380   4.161   9.346  1.00  0.00     0.010 A 
ENDROOT
BRANCH   1  10
HETATM   10  C   UNL     1      66.290   4.883   8.144  1.00  0.00     0.212 C 
HETATM   11  O   UNL     1      65.485   4.082   7.709  1.00  0.00    -0.644 OA
HETATM   12  O   UNL     1      65.930   6.171   8.316  1.00  0.00    -0.644 OA
ENDBRANCH   1  10
TORSDOF 1
ENDMDL
MODEL 9
REMARK VINA RESULT:      -4.6     16.264     18.146
REMARK  1 active torsions:
REMARK  status: ('A' for Active; 'I' for Inactive)
REMARK    1  A    between atoms: C_1  and  C_3 
ROOT
HETATM    1  C   UNL     1      67.120   5.998   7.753  1.00  0.00     0.074 A 
HETATM    2  C   UNL     1      67.335   4.943   6.879  1.00  0.00     0.092 A 
HETATM    3  O   UNL     1      66.661   4.713   5.705  1.00  0.00    -0.349 OA
HETATM    4  C   UNL     1      68.290   3.963   7.140  1.00  0.00    -0.022 A 
HETATM    5  C   UNL     1      67.922   6.056   8.907  1.00  0.00     0.021 A 
HETATM    6  C   UNL     1      67.455   3.714   5.029  1.00  0.00     0.180 C 
HETATM    7  C   UNL     1      68.885   5.064   9.169  1.00  0.00     0.002 A 
HETATM    8  C   UNL     1      68.250   2.936   6.072  1.00  0.00     0.068 C 
HETATM    9  C   UNL     1      69.065   3.998   8.286  1.00  0.00     0.010 A 
ENDROOT
BRANCH   1  10
HETATM   10  C   UNL     1      66.087   7.025   7.469  1.00  0.00     0.212 C 
HETATM   11  O   UNL     1      64.880   6.920   7.566  1.00  0.00    -0.644 OA
HETATM   12  O   UNL     1      66.629   8.190   7.061  1.00  0.00    -0.644 OA
ENDBRANCH   1  10
TORSDOF 1
ENDMDL
