MODEL 1
REMARK VINA RESULT:      -5.6      0.000      0.000
REMARK  1 active torsions:
REMARK  status: ('A' for Active; 'I' for Inactive)
REMARK    1  A    between atoms: C_1  and  C_2 
ROOT
HETATM    1  C   UNL     1      76.566   6.084  16.788  1.00  0.00     0.041 A 
HETATM    2  C   UNL     1      76.723   6.904  17.917  1.00  0.00     0.028 A 
HETATM    3  C   UNL     1      77.127   8.213  17.719  1.00  0.00    -0.022 A 
HETATM    4  C   UNL     1      77.382   8.692  16.443  1.00  0.00     0.075 A 
HETATM    5  O   UNL     1      77.770  10.007  16.418  1.00  0.00    -0.350 OA
HETATM    6  C   UNL     1      76.817   6.586  15.494  1.00  0.00     0.021 A 
HETATM    7  C   UNL     1      77.247   7.904  15.320  1.00  0.00     0.038 A 
HETATM    8  C   UNL     1      77.448  10.479  17.748  1.00  0.00     0.180 C 
HETATM    9  C   UNL     1      77.404   9.285  18.704  1.00  0.00     0.068 C 
ENDROOT
BRANCH   1  10
HETATM   10  C   UNL     1      76.073   4.699  16.993  1.00  0.00     0.209 C 
HETATM   11  O   UNL     1      74.994   4.313  16.584  1.00  0.00    -0.644 OA
HETATM   12  O   UNL     1      76.921   3.920  17.699  1.00  0.00    -0.644 OA
ENDBRANCH   1  10
TORSDOF 1
ENDMDL
MODEL 2
REMARK VINA RESULT:      -5.5     16.271     18.000
REMARK  1 active torsions:
REMARK  status: ('A' for Active; 'I' for Inactive)
REMARK    1  A    between atoms: C_1  and  C_2 
ROOT
HETATM    1  C   UNL     1      69.669  24.007  14.323  1.00  0.00     0.041 A 
HETATM    2  C   UNL     1      70.871  24.202  15.023  1.00  0.00     0.028 A 
HETATM    3  C   UNL     1      72.003  23.551  14.565  1.00  0.00    -0.022 A 
HETATM    4  C   UNL     1      71.945  22.720  13.456  1.00  0.00     0.075 A 
HETATM    5  O   UNL     1      73.150  22.155  13.130  1.00  0.00    -0.350 OA
HETATM    6  C   UNL     1      69.624  23.169  13.190  1.00  0.00     0.021 A 
HETATM    7  C   UNL     1      70.775  22.503  12.759  1.00  0.00     0.038 A 
HETATM    8  C   UNL     1      74.102  22.917  13.910  1.00  0.00     0.180 C 
HETATM    9  C   UNL     1      73.381  23.540  15.107  1.00  0.00     0.068 C 
ENDROOT
BRANCH   1  10
HETATM   10  C   UNL     1      68.467  24.753  14.775  1.00  0.00     0.209 C 
HETATM   11  O   UNL     1      67.601  25.136  14.012  1.00  0.00    -0.644 OA
HETATM   12  O   UNL     1      68.444  24.989  16.105  1.00  0.00    -0.644 OA
ENDBRANCH   1  10
TORSDOF 1
ENDMDL
MODEL 3
REMARK VINA RESULT:      -5.3     15.952     16.984
REMARK  1 active torsions:
REMARK  status: ('A' for Active; 'I' for Inactive)
REMARK    1  A    between atoms: C_1  and  C_2 
ROOT
HETATM    1  C   UNL     1      71.413  21.803  11.648  1.00  0.00     0.041 A 
HETATM    2  C   UNL     1      72.509  22.494  12.188  1.00  0.00     0.028 A 
HETATM    3  C   UNL     1      72.272  23.386  13.219  1.00  0.00    -0.022 A 
HETATM    4  C   UNL     1      70.986  23.600  13.692  1.00  0.00     0.075 A 
HETATM    5  O   UNL     1      70.921  24.509  14.716  1.00  0.00    -0.350 OA
HETATM    6  C   UNL     1      70.110  22.020  12.144  1.00  0.00     0.021 A 
HETATM    7  C   UNL     1      69.891  22.943  13.170  1.00  0.00     0.038 A 
HETATM    8  C   UNL     1      72.303  24.660  15.120  1.00  0.00     0.180 C 
HETATM    9  C   UNL     1      73.210  24.267  13.953  1.00  0.00     0.068 C 
ENDROOT
BRANCH   1  10
HETATM   10  C   UNL     1      71.672  20.800  10.584  1.00  0.00     0.209 C 
HETATM   11  O   UNL     1      70.851  19.972  10.242  1.00  0.00    -0.644 OA
HETATM   12  O   UNL     1      72.914  20.878  10.058  1.00  0.00    -0.644 OA
ENDBRANCH   1  10
TORSDOF 1
ENDMDL
MODEL 4
REMARK VINA RESULT:      -5.2     19.110     20.424
REMARK  1 active torsions:
REMARK  status: ('A' for Active; 'I' for Inactive)
REMARK    1  A    between atoms: C_1  and  C_2 
ROOT
HETATM    1  C   UNL     1      62.757   9.965   4.166  1.00  0.00     0.041 A 
HETATM    2  C   UNL     1      62.117  10.023   2.918  1.00  0.00     0.028 A 
HETATM    3  C   UNL     1      62.217   8.924   2.083  1.00  0.00    -0.022 A 
HETATM    4  C   UNL     1      62.943   7.805   2.466  1.00  0.00     0.075 A 
HETATM    5  O   UNL     1      62.942   6.804   1.530  1.00  0.00    -0.350 OA
HETATM    6  C   UNL     1      63.483   8.818   4.550  1.00  0.00     0.021 A 
HETATM    7  C   UNL     1      63.591   7.729   3.681  1.00  0.00     0.038 A 
HETATM    8  C   UNL     1      61.893   7.199   0.614  1.00  0.00     0.180 C 
HETATM    9  C   UNL     1      61.684   8.711   0.718  1.00  0.00     0.068 C 
ENDROOT
BRANCH   1  10
HETATM   10  C   UNL     1      62.598  11.118   5.088  1.00  0.00     0.209 C 
HETATM   11  O   UNL     1      63.053  11.129   6.216  1.00  0.00    -0.644 OA
HETATM   12  O   UNL     1      61.879  12.135   4.566  1.00  0.00    -0.644 OA
ENDBRANCH   1  10
TORSDOF 1
ENDMDL
MODEL 5
REMARK VINA RESULT:      -5.1     19.287     20.578
REMARK  1 active torsions:
REMARK  status: ('A' for Active; 'I' for Inactive)
REMARK    1  A    between atoms: C_1  and  C_2 
ROOT
HETATM    1  C   UNL     1      62.418   9.968   3.644  1.00  0.00     0.041 A 
HETATM    2  C   UNL     1      62.936   8.677   3.840  1.00  0.00     0.028 A 
HETATM    3  C   UNL     1      62.916   7.799   2.771  1.00  0.00    -0.022 A 
HETATM    4  C   UNL     1      62.387   8.181   1.547  1.00  0.00     0.075 A 
HETATM    5  O   UNL     1      62.445   7.199   0.593  1.00  0.00    -0.350 OA
HETATM    6  C   UNL     1      61.892  10.349   2.391  1.00  0.00     0.021 A 
HETATM    7  C   UNL     1      61.861   9.438   1.332  1.00  0.00     0.038 A 
HETATM    8  C   UNL     1      63.348   6.224   1.167  1.00  0.00     0.180 C 
HETATM    9  C   UNL     1      63.356   6.387   2.688  1.00  0.00     0.068 C 
ENDROOT
BRANCH   1  10
HETATM   10  C   UNL     1      62.495  10.931   4.770  1.00  0.00     0.209 C 
HETATM   11  O   UNL     1      63.024  10.666   5.833  1.00  0.00    -0.644 OA
HETATM   12  O   UNL     1      61.896  12.115   4.513  1.00  0.00    -0.644 OA
ENDBRANCH   1  10
TORSDOF 1
ENDMDL
MODEL 6
REMARK VINA RESULT:      -5.1      4.429      7.115
REMARK  1 active torsions:
REMARK  status: ('A' for Active; 'I' for Inactive)
REMARK    1  A    between atoms: C_1  and  C_2 
ROOT
HETATM    1  C   UNL     1      76.383   2.744  17.914  1.00  0.00     0.041 A 
HETATM    2  C   UNL     1      77.172   1.603  17.696  1.00  0.00     0.028 A 
HETATM    3  C   UNL     1      76.697   0.641  16.822  1.00  0.00    -0.022 A 
HETATM    4  C   UNL     1      75.470   0.796  16.194  1.00  0.00     0.075 A 
HETATM    5  O   UNL     1      75.145  -0.242  15.359  1.00  0.00    -0.350 OA
HETATM    6  C   UNL     1      75.142   2.897  17.261  1.00  0.00     0.021 A 
HETATM    7  C   UNL     1      74.671   1.901  16.401  1.00  0.00     0.038 A 
HETATM    8  C   UNL     1      76.392  -0.964  15.219  1.00  0.00     0.180 C 
HETATM    9  C   UNL     1      77.282  -0.660  16.426  1.00  0.00     0.068 C 
ENDROOT
BRANCH   1  10
HETATM   10  C   UNL     1      76.919   3.806  18.802  1.00  0.00     0.209 C 
HETATM   11  O   UNL     1      77.281   3.594  19.944  1.00  0.00    -0.644 OA
HETATM   12  O   UNL     1      76.939   5.031  18.232  1.00  0.00    -0.644 OA
ENDBRANCH   1  10
TORSDOF 1
ENDMDL
MODEL 7
REMARK VINA RESULT:      -5.0     20.109     21.489
REMARK  1 active torsions:
REMARK  status: ('A' for Active; 'I' for Inactive)
REMARK    1  A    between atoms: C_1  and  C_2 
ROOT
HETATM    1  C   UNL     1      62.167  10.000   2.551  1.00  0.00     0.041 A 
HETATM    2  C   UNL     1      62.093   9.532   1.229  1.00  0.00     0.028 A 
HETATM    3  C   UNL     1      62.304   8.184   1.002  1.00  0.00    -0.022 A 
HETATM    4  C   UNL     1      62.594   7.324   2.051  1.00  0.00     0.075 A 
HETATM    5  O   UNL     1      62.773   6.022   1.661  1.00  0.00    -0.350 OA
HETATM    6  C   UNL     1      62.452   9.114   3.612  1.00  0.00     0.021 A 
HETATM    7  C   UNL     1      62.685   7.760   3.356  1.00  0.00     0.038 A 
HETATM    8  C   UNL     1      62.264   6.004   0.306  1.00  0.00     0.180 C 
HETATM    9  C   UNL     1      62.321   7.421  -0.268  1.00  0.00     0.068 C 
ENDROOT
BRANCH   1  10
HETATM   10  C   UNL     1      61.880  11.434   2.804  1.00  0.00     0.209 C 
HETATM   11  O   UNL     1      61.766  12.253   1.912  1.00  0.00    -0.644 OA
HETATM   12  O   UNL     1      61.786  11.745   4.115  1.00  0.00    -0.644 OA
ENDBRANCH   1  10
TORSDOF 1
ENDMDL
MODEL 8
REMARK VINA RESULT:      -4.8     18.442     19.487
REMARK  1 active torsions:
REMARK  status: ('A' for Active; 'I' for Inactive)
REMARK    1  A    between atoms: C_1  and  C_2 
ROOT
HETATM    1  C   UNL     1      63.512   7.843   4.106  1.00  0.00     0.041 A 
HETATM    2  C   UNL     1      62.984   8.236   2.866  1.00  0.00     0.028 A 
HETATM    3  C   UNL     1      62.414   9.493   2.769  1.00  0.00    -0.022 A 
HETATM    4  C   UNL     1      62.354  10.332   3.872  1.00  0.00     0.075 A 
HETATM    5  O   UNL     1      61.763  11.540   3.611  1.00  0.00    -0.350 OA
HETATM    6  C   UNL     1      63.456   8.709   5.218  1.00  0.00     0.021 A 
HETATM    7  C   UNL     1      62.855   9.965   5.104  1.00  0.00     0.038 A 
HETATM    8  C   UNL     1      61.713  11.586   2.165  1.00  0.00     0.180 C 
HETATM    9  C   UNL     1      61.759  10.157   1.619  1.00  0.00     0.068 C 
ENDROOT
BRANCH   1  10
HETATM   10  C   UNL     1      64.180   6.520   4.195  1.00  0.00     0.209 C 
HETATM   11  O   UNL     1      64.025   5.763   5.135  1.00  0.00    -0.644 OA
HETATM   12  O   UNL     1      64.994   6.252   3.152  1.00  0.00    -0.644 OA
ENDBRANCH   1  10
TORSDOF 1
ENDMDL
MODEL 9
REMARK VINA RESULT:      -4.8     18.286     19.489
REMARK  1 active torsions:
REMARK  status: ('A' for Active; 'I' for Inactive)
REMARK    1  A    between atoms: C_1  and  C_2 
ROOT
HETATM    1  C   UNL     1      63.762   8.717   4.789  1.00  0.00     0.041 A 
HETATM    2  C   UNL     1      63.684   7.873   3.670  1.00  0.00     0.028 A 
HETATM    3  C   UNL     1      62.842   8.239   2.635  1.00  0.00    -0.022 A 
HETATM    4  C   UNL     1      62.087   9.401   2.711  1.00  0.00     0.075 A 
HETATM    5  O   UNL     1      61.307   9.622   1.606  1.00  0.00    -0.350 OA
HETATM    6  C   UNL     1      62.998   9.901   4.851  1.00  0.00     0.021 A 
HETATM    7  C   UNL     1      62.136  10.240   3.804  1.00  0.00     0.038 A 
HETATM    8  C   UNL     1      61.831   8.689   0.631  1.00  0.00     0.180 C 
HETATM    9  C   UNL     1      62.533   7.544   1.364  1.00  0.00     0.068 C 
ENDROOT
BRANCH   1  10
HETATM   10  C   UNL     1      64.712   8.358   5.872  1.00  0.00     0.209 C 
HETATM   11  O   UNL     1      65.784   8.911   6.022  1.00  0.00    -0.644 OA
HETATM   12  O   UNL     1      64.284   7.342   6.653  1.00  0.00    -0.644 OA
ENDBRANCH   1  10
TORSDOF 1
ENDMDL
