MODEL 1
REMARK VINA RESULT:      -4.8      0.000      0.000
REMARK  0 active torsions:
REMARK  status: ('A' for Active; 'I' for Inactive)
ROOT
HETATM    1  C   UNL     1      78.160  11.418  20.043  1.00  0.00     0.100 A 
HETATM    2  N   UNL     1      80.236  10.512  19.946  1.00  0.00    -0.264 N 
ATOM      3  HN  UNL     1      81.212  10.292  20.144  1.00  0.00     0.194 HD
HETATM    4  O   UNL     1      79.450   9.981  18.940  1.00  0.00    -0.241 OA
HETATM    5  C   UNL     1      78.204  10.525  19.000  1.00  0.00     0.095 A 
HETATM    6  C   UNL     1      79.455  11.376  20.607  1.00  0.00     0.052 A 
HETATM    7  C   UNL     1      77.035  12.193  20.434  1.00  0.00     0.104 C 
HETATM    8  N   UNL     1      76.109  12.819  20.744  1.00  0.00    -0.191 NA
HETATM    9  C   UNL     1      77.243  10.055  17.986  1.00  0.00     0.081 C 
HETATM   10  C   UNL     1      80.007  12.120  21.763  1.00  0.00     0.072 C 
ENDROOT
TORSDOF 0
ENDMDL
MODEL 2
REMARK VINA RESULT:      -4.7      1.367      2.740
REMARK  0 active torsions:
REMARK  status: ('A' for Active; 'I' for Inactive)
ROOT
HETATM    1  C   UNL     1      78.082  11.519  19.682  1.00  0.00     0.100 A 
HETATM    2  N   UNL     1      79.985  10.297  19.846  1.00  0.00    -0.264 N 
ATOM      3  HN  UNL     1      80.715   9.605  19.676  1.00  0.00     0.194 HD
HETATM    4  O   UNL     1      79.965  11.260  20.838  1.00  0.00    -0.241 OA
HETATM    5  C   UNL     1      78.822  11.993  20.738  1.00  0.00     0.095 A 
HETATM    6  C   UNL     1      78.850  10.458  19.153  1.00  0.00     0.052 A 
HETATM    7  C   UNL     1      76.824  12.019  19.251  1.00  0.00     0.104 C 
HETATM    8  N   UNL     1      75.797  12.437  18.909  1.00  0.00    -0.191 NA
HETATM    9  C   UNL     1      78.654  13.068  21.732  1.00  0.00     0.081 C 
HETATM   10  C   UNL     1      78.567   9.568  18.002  1.00  0.00     0.072 C 
ENDROOT
TORSDOF 0
ENDMDL
MODEL 3
REMARK VINA RESULT:      -4.6     21.699     23.363
REMARK  0 active torsions:
REMARK  status: ('A' for Active; 'I' for Inactive)
ROOT
HETATM    1  C   UNL     1      62.476   9.663   3.560  1.00  0.00     0.100 A 
HETATM    2  N   UNL     1      61.565  11.313   2.297  1.00  0.00    -0.264 N 
ATOM      3  HN  UNL     1      61.144  11.826   1.523  1.00  0.00     0.194 HD
HETATM    4  O   UNL     1      61.883  11.807   3.549  1.00  0.00    -0.241 OA
HETATM    5  C   UNL     1      62.429  10.816   4.305  1.00  0.00     0.095 A 
HETATM    6  C   UNL     1      61.923  10.022   2.309  1.00  0.00     0.052 A 
HETATM    7  C   UNL     1      62.977   8.407   3.993  1.00  0.00     0.104 C 
HETATM    8  N   UNL     1      63.389   7.386   4.358  1.00  0.00    -0.191 NA
HETATM    9  C   UNL     1      62.821  11.190   5.676  1.00  0.00     0.081 C 
HETATM   10  C   UNL     1      61.707   9.195   1.099  1.00  0.00     0.072 C 
ENDROOT
TORSDOF 0
ENDMDL
MODEL 4
REMARK VINA RESULT:      -4.5      8.483      9.739
REMARK  0 active torsions:
REMARK  status: ('A' for Active; 'I' for Inactive)
ROOT
HETATM    1  C   UNL     1      77.365   1.841  18.234  1.00  0.00     0.100 A 
HETATM    2  N   UNL     1      78.005   2.904  20.132  1.00  0.00    -0.264 N 
ATOM      3  HN  UNL     1      78.443   3.116  21.028  1.00  0.00     0.194 HD
HETATM    4  O   UNL     1      77.175   3.728  19.395  1.00  0.00    -0.241 OA
HETATM    5  C   UNL     1      76.792   3.089  18.256  1.00  0.00     0.095 A 
HETATM    6  C   UNL     1      78.117   1.770  19.428  1.00  0.00     0.052 A 
HETATM    7  C   UNL     1      77.210   0.867  17.211  1.00  0.00     0.104 C 
HETATM    8  N   UNL     1      77.075   0.080  16.370  1.00  0.00    -0.191 NA
HETATM    9  C   UNL     1      75.900   3.845  17.358  1.00  0.00     0.081 C 
HETATM   10  C   UNL     1      78.956   0.667  19.953  1.00  0.00     0.072 C 
ENDROOT
TORSDOF 0
ENDMDL
MODEL 5
REMARK VINA RESULT:      -4.5      1.973      3.977
REMARK  0 active torsions:
REMARK  status: ('A' for Active; 'I' for Inactive)
ROOT
HETATM    1  C   UNL     1      78.002  11.910  19.989  1.00  0.00     0.100 A 
HETATM    2  N   UNL     1      76.721  13.659  20.656  1.00  0.00    -0.264 N 
ATOM      3  HN  UNL     1      75.984  14.361  20.708  1.00  0.00     0.194 HD
HETATM    4  O   UNL     1      77.788  13.506  21.523  1.00  0.00    -0.241 OA
HETATM    5  C   UNL     1      78.555  12.456  21.122  1.00  0.00     0.095 A 
HETATM    6  C   UNL     1      76.854  12.695  19.735  1.00  0.00     0.052 A 
HETATM    7  C   UNL     1      78.506  10.797  19.264  1.00  0.00     0.104 C 
HETATM    8  N   UNL     1      78.928   9.888  18.681  1.00  0.00    -0.191 NA
HETATM    9  C   UNL     1      79.738  12.164  21.951  1.00  0.00     0.081 C 
HETATM   10  C   UNL     1      75.853  12.583  18.649  1.00  0.00     0.072 C 
ENDROOT
TORSDOF 0
ENDMDL
MODEL 6
REMARK VINA RESULT:      -4.4      8.681     10.127
REMARK  0 active torsions:
REMARK  status: ('A' for Active; 'I' for Inactive)
ROOT
HETATM    1  C   UNL     1      77.290   1.662  18.053  1.00  0.00     0.100 A 
HETATM    2  N   UNL     1      77.014   3.563  19.259  1.00  0.00    -0.264 N 
ATOM      3  HN  UNL     1      76.706   4.486  19.563  1.00  0.00     0.194 HD
HETATM    4  O   UNL     1      77.883   2.715  19.921  1.00  0.00    -0.241 OA
HETATM    5  C   UNL     1      78.047   1.575  19.197  1.00  0.00     0.095 A 
HETATM    6  C   UNL     1      76.659   2.924  18.136  1.00  0.00     0.052 A 
HETATM    7  C   UNL     1      77.191   0.674  17.037  1.00  0.00     0.104 C 
HETATM    8  N   UNL     1      77.119  -0.140  16.215  1.00  0.00    -0.191 NA
HETATM    9  C   UNL     1      78.950   0.564  19.776  1.00  0.00     0.081 C 
HETATM   10  C   UNL     1      75.719   3.575  17.195  1.00  0.00     0.072 C 
ENDROOT
TORSDOF 0
ENDMDL
MODEL 7
REMARK VINA RESULT:      -4.4     14.491     15.518
REMARK  0 active torsions:
REMARK  status: ('A' for Active; 'I' for Inactive)
ROOT
HETATM    1  C   UNL     1      71.631  23.281  13.765  1.00  0.00     0.100 A 
HETATM    2  N   UNL     1      71.708  24.898  15.352  1.00  0.00    -0.264 N 
ATOM      3  HN  UNL     1      71.437  25.618  16.022  1.00  0.00     0.194 HD
HETATM    4  O   UNL     1      72.989  24.459  15.074  1.00  0.00    -0.241 OA
HETATM    5  C   UNL     1      72.941  23.488  14.122  1.00  0.00     0.095 A 
HETATM    6  C   UNL     1      70.894  24.185  14.562  1.00  0.00     0.052 A 
HETATM    7  C   UNL     1      71.164  22.348  12.800  1.00  0.00     0.104 C 
HETATM    8  N   UNL     1      70.795  21.583  12.010  1.00  0.00    -0.191 NA
HETATM    9  C   UNL     1      74.237  22.914  13.717  1.00  0.00     0.081 C 
HETATM   10  C   UNL     1      69.432  24.419  14.622  1.00  0.00     0.072 C 
ENDROOT
TORSDOF 0
ENDMDL
MODEL 8
REMARK VINA RESULT:      -4.4     14.454     15.393
REMARK  0 active torsions:
REMARK  status: ('A' for Active; 'I' for Inactive)
ROOT
HETATM    1  C   UNL     1      71.881  22.947  13.436  1.00  0.00     0.100 A 
HETATM    2  N   UNL     1      69.769  23.700  13.774  1.00  0.00    -0.264 N 
ATOM      3  HN  UNL     1      68.967  24.225  14.123  1.00  0.00     0.194 HD
HETATM    4  O   UNL     1      69.755  22.683  12.838  1.00  0.00    -0.241 OA
HETATM    5  C   UNL     1      71.024  22.233  12.635  1.00  0.00     0.095 A 
HETATM    6  C   UNL     1      71.051  23.856  14.131  1.00  0.00     0.052 A 
HETATM    7  C   UNL     1      73.289  22.777  13.515  1.00  0.00     0.104 C 
HETATM    8  N   UNL     1      74.438  22.629  13.571  1.00  0.00    -0.191 NA
HETATM    9  C   UNL     1      71.175  21.142  11.656  1.00  0.00     0.081 C 
HETATM   10  C   UNL     1      71.408  24.886  15.133  1.00  0.00     0.072 C 
ENDROOT
TORSDOF 0
ENDMDL
MODEL 9
REMARK VINA RESULT:      -4.2     21.845     23.341
REMARK  0 active torsions:
REMARK  status: ('A' for Active; 'I' for Inactive)
ROOT
HETATM    1  C   UNL     1      62.129   9.882   3.948  1.00  0.00     0.100 A 
HETATM    2  N   UNL     1      61.201   9.448   1.925  1.00  0.00    -0.264 N 
ATOM      3  HN  UNL     1      60.833   9.555   0.980  1.00  0.00     0.194 HD
HETATM    4  O   UNL     1      61.257   8.284   2.670  1.00  0.00    -0.241 OA
HETATM    5  C   UNL     1      61.815   8.547   3.884  1.00  0.00     0.095 A 
HETATM    6  C   UNL     1      61.727  10.407   2.699  1.00  0.00     0.052 A 
HETATM    7  C   UNL     1      62.728  10.549   5.050  1.00  0.00     0.104 C 
HETATM    8  N   UNL     1      63.217  11.082   5.957  1.00  0.00    -0.191 NA
HETATM    9  C   UNL     1      61.947   7.398   4.798  1.00  0.00     0.081 C 
HETATM   10  C   UNL     1      61.816  11.792   2.181  1.00  0.00     0.072 C 
ENDROOT
TORSDOF 0
ENDMDL
