MODEL 1
REMARK VINA RESULT:      -5.8      0.000      0.000
REMARK  3 active torsions:
REMARK  status: ('A' for Active; 'I' for Inactive)
REMARK    1  A    between atoms: C_1  and  C_8 
REMARK    2  A    between atoms: C_4  and  C_7 
REMARK    3  A    between atoms: C_8  and  N_9 
ROOT
HETATM    1  C   UNL     1      75.990   3.007  17.601  1.00  0.00     0.028 A 
HETATM    2  N   UNL     1      74.168   4.014  16.664  1.00  0.00    -0.260 N 
ATOM      3  HN  UNL     1      73.546   4.697  16.232  1.00  0.00     0.195 HD
HETATM    4  C   UNL     1      75.448   4.214  17.035  1.00  0.00     0.075 A 
HETATM    5  O   UNL     1      73.861   2.716  16.979  1.00  0.00    -0.242 OA
HETATM    6  C   UNL     1      74.938   2.112  17.534  1.00  0.00     0.083 A 
HETATM    7  C   UNL     1      74.744   0.701  17.922  1.00  0.00     0.079 C 
ENDROOT
BRANCH   4   8
HETATM    8  C   UNL     1      76.078   5.524  16.813  1.00  0.00    -0.007 A 
HETATM    9  C   UNL     1      76.384   6.387  17.872  1.00  0.00     0.014 A 
HETATM   10  C   UNL     1      77.020   7.611  17.648  1.00  0.00     0.001 A 
HETATM   11  C   UNL     1      77.335   8.006  16.353  1.00  0.00     0.000 A 
HETATM   12  C   UNL     1      77.015   7.177  15.281  1.00  0.00     0.001 A 
HETATM   13  C   UNL     1      76.392   5.944  15.508  1.00  0.00     0.014 A 
ENDBRANCH   4   8
BRANCH   1  14
HETATM   14  C   UNL     1      77.341   2.732  18.153  1.00  0.00     0.273 C 
BRANCH  14  15
HETATM   15  N   UNL     1      77.459   3.314  19.479  1.00  0.00    -0.075 N 
HETATM   16  H   UNL     1      78.381   3.741  19.582  1.00  0.00     0.274 HD
HETATM   17  H   UNL     1      77.343   2.586  20.183  1.00  0.00     0.274 HD
HETATM   18  H   UNL     1      76.740   4.026  19.603  1.00  0.00     0.274 HD
ENDBRANCH  14  15
ENDBRANCH   1  14
TORSDOF 3
ENDMDL
MODEL 2
REMARK VINA RESULT:      -5.5      2.776      4.205
REMARK  3 active torsions:
REMARK  status: ('A' for Active; 'I' for Inactive)
REMARK    1  A    between atoms: C_1  and  C_8 
REMARK    2  A    between atoms: C_4  and  C_7 
REMARK    3  A    between atoms: C_8  and  N_9 
ROOT
HETATM    1  C   UNL     1      77.663   0.624  18.355  1.00  0.00     0.028 A 
HETATM    2  N   UNL     1      78.203   2.503  19.535  1.00  0.00    -0.260 N 
ATOM      3  HN  UNL     1      78.235   3.463  19.878  1.00  0.00     0.195 HD
HETATM    4  C   UNL     1      77.427   2.033  18.539  1.00  0.00     0.075 A 
HETATM    5  O   UNL     1      78.941   1.445  19.998  1.00  0.00    -0.242 OA
HETATM    6  C   UNL     1      78.624   0.327  19.303  1.00  0.00     0.083 A 
HETATM    7  C   UNL     1      79.350  -0.894  19.704  1.00  0.00     0.079 C 
ENDROOT
BRANCH   4   8
HETATM    8  C   UNL     1      76.502   2.938  17.842  1.00  0.00    -0.007 A 
HETATM    9  C   UNL     1      75.265   2.499  17.354  1.00  0.00     0.014 A 
HETATM   10  C   UNL     1      74.379   3.381  16.730  1.00  0.00     0.001 A 
HETATM   11  C   UNL     1      74.729   4.715  16.557  1.00  0.00     0.000 A 
HETATM   12  C   UNL     1      75.966   5.169  17.008  1.00  0.00     0.001 A 
HETATM   13  C   UNL     1      76.845   4.288  17.647  1.00  0.00     0.014 A 
ENDBRANCH   4   8
BRANCH   1  14
HETATM   14  C   UNL     1      77.061  -0.329  17.389  1.00  0.00     0.273 C 
BRANCH  14  15
HETATM   15  N   UNL     1      77.705  -0.190  16.093  1.00  0.00    -0.075 N 
HETATM   16  H   UNL     1      78.426   0.531  16.148  1.00  0.00     0.274 HD
HETATM   17  H   UNL     1      77.012   0.076  15.395  1.00  0.00     0.274 HD
HETATM   18  H   UNL     1      78.132  -1.078  15.829  1.00  0.00     0.274 HD
ENDBRANCH  14  15
ENDBRANCH   1  14
TORSDOF 3
ENDMDL
MODEL 3
REMARK VINA RESULT:      -5.4     12.945     14.437
REMARK  3 active torsions:
REMARK  status: ('A' for Active; 'I' for Inactive)
REMARK    1  A    between atoms: C_1  and  C_8 
REMARK    2  A    between atoms: C_4  and  C_7 
REMARK    3  A    between atoms: C_8  and  N_9 
ROOT
HETATM    1  C   UNL     1      66.427   7.236   5.739  1.00  0.00     0.028 A 
HETATM    2  N   UNL     1      65.307   6.648   7.640  1.00  0.00    -0.260 N 
ATOM      3  HN  UNL     1      65.059   6.226   8.534  1.00  0.00     0.195 HD
HETATM    4  C   UNL     1      66.449   6.460   6.951  1.00  0.00     0.075 A 
HETATM    5  O   UNL     1      64.540   7.516   6.907  1.00  0.00    -0.242 OA
HETATM    6  C   UNL     1      65.199   7.869   5.778  1.00  0.00     0.083 A 
HETATM    7  C   UNL     1      64.481   8.807   4.893  1.00  0.00     0.079 C 
ENDROOT
BRANCH   4   8
HETATM    8  C   UNL     1      67.493   5.578   7.493  1.00  0.00    -0.007 A 
HETATM    9  C   UNL     1      68.126   5.844   8.714  1.00  0.00     0.014 A 
HETATM   10  C   UNL     1      69.087   4.975   9.236  1.00  0.00     0.001 A 
HETATM   11  C   UNL     1      69.454   3.835   8.529  1.00  0.00     0.000 A 
HETATM   12  C   UNL     1      68.859   3.564   7.300  1.00  0.00     0.001 A 
HETATM   13  C   UNL     1      67.885   4.427   6.786  1.00  0.00     0.014 A 
ENDBRANCH   4   8
BRANCH   1  14
HETATM   14  C   UNL     1      67.441   7.355   4.660  1.00  0.00     0.273 C 
BRANCH  14  15
HETATM   15  N   UNL     1      68.623   8.031   5.167  1.00  0.00    -0.075 N 
HETATM   16  H   UNL     1      68.949   7.558   6.011  1.00  0.00     0.274 HD
HETATM   17  H   UNL     1      68.394   8.999   5.388  1.00  0.00     0.274 HD
HETATM   18  H   UNL     1      69.358   8.007   4.460  1.00  0.00     0.274 HD
ENDBRANCH  14  15
ENDBRANCH   1  14
TORSDOF 3
ENDMDL
MODEL 4
REMARK VINA RESULT:      -5.3     16.202     17.500
REMARK  3 active torsions:
REMARK  status: ('A' for Active; 'I' for Inactive)
REMARK    1  A    between atoms: C_1  and  C_8 
REMARK    2  A    between atoms: C_4  and  C_7 
REMARK    3  A    between atoms: C_8  and  N_9 
ROOT
HETATM    1  C   UNL     1      65.841   7.566   5.618  1.00  0.00     0.028 A 
HETATM    2  N   UNL     1      63.822   7.445   6.678  1.00  0.00    -0.260 N 
ATOM      3  HN  UNL     1      62.826   7.504   6.887  1.00  0.00     0.195 HD
HETATM    4  C   UNL     1      64.425   7.810   5.530  1.00  0.00     0.075 A 
HETATM    5  O   UNL     1      64.805   6.979   7.512  1.00  0.00    -0.242 OA
HETATM    6  C   UNL     1      66.005   7.047   6.889  1.00  0.00     0.083 A 
HETATM    7  C   UNL     1      67.157   6.573   7.681  1.00  0.00     0.079 C 
ENDROOT
BRANCH   4   8
HETATM    8  C   UNL     1      63.622   8.345   4.420  1.00  0.00    -0.007 A 
HETATM    9  C   UNL     1      63.489   7.659   3.206  1.00  0.00     0.014 A 
HETATM   10  C   UNL     1      62.690   8.159   2.175  1.00  0.00     0.001 A 
HETATM   11  C   UNL     1      62.031   9.374   2.331  1.00  0.00     0.000 A 
HETATM   12  C   UNL     1      62.171  10.088   3.519  1.00  0.00     0.001 A 
HETATM   13  C   UNL     1      62.959   9.577   4.556  1.00  0.00     0.014 A 
ENDBRANCH   4   8
BRANCH   1  14
HETATM   14  C   UNL     1      66.917   7.807   4.624  1.00  0.00     0.273 C 
BRANCH  14  15
HETATM   15  N   UNL     1      67.271   6.559   3.968  1.00  0.00    -0.075 N 
HETATM   16  H   UNL     1      66.607   6.370   3.217  1.00  0.00     0.274 HD
HETATM   17  H   UNL     1      67.242   5.798   4.646  1.00  0.00     0.274 HD
HETATM   18  H   UNL     1      68.211   6.634   3.580  1.00  0.00     0.274 HD
ENDBRANCH  14  15
ENDBRANCH   1  14
TORSDOF 3
ENDMDL
MODEL 5
REMARK VINA RESULT:      -5.2     13.268     14.804
REMARK  3 active torsions:
REMARK  status: ('A' for Active; 'I' for Inactive)
REMARK    1  A    between atoms: C_1  and  C_8 
REMARK    2  A    between atoms: C_4  and  C_7 
REMARK    3  A    between atoms: C_8  and  N_9 
ROOT
HETATM    1  C   UNL     1      65.499   6.882   5.886  1.00  0.00     0.028 A 
HETATM    2  N   UNL     1      66.874   8.306   7.024  1.00  0.00    -0.260 N 
ATOM      3  HN  UNL     1      67.610   8.680   7.623  1.00  0.00     0.195 HD
HETATM    4  C   UNL     1      66.609   7.005   6.794  1.00  0.00     0.075 A 
HETATM    5  O   UNL     1      65.964   9.030   6.299  1.00  0.00    -0.242 OA
HETATM    6  C   UNL     1      65.146   8.192   5.621  1.00  0.00     0.083 A 
HETATM    7  C   UNL     1      64.113   8.846   4.794  1.00  0.00     0.079 C 
ENDROOT
BRANCH   4   8
HETATM    8  C   UNL     1      67.434   5.967   7.430  1.00  0.00    -0.007 A 
HETATM    9  C   UNL     1      67.912   4.862   6.715  1.00  0.00     0.014 A 
HETATM   10  C   UNL     1      68.729   3.905   7.323  1.00  0.00     0.001 A 
HETATM   11  C   UNL     1      69.058   4.023   8.668  1.00  0.00     0.000 A 
HETATM   12  C   UNL     1      68.571   5.098   9.407  1.00  0.00     0.001 A 
HETATM   13  C   UNL     1      67.767   6.064   8.792  1.00  0.00     0.014 A 
ENDBRANCH   4   8
BRANCH   1  14
HETATM   14  C   UNL     1      64.838   5.668   5.341  1.00  0.00     0.273 C 
BRANCH  14  15
HETATM   15  N   UNL     1      64.029   5.043   6.373  1.00  0.00    -0.075 N 
HETATM   16  H   UNL     1      64.638   4.625   7.077  1.00  0.00     0.274 HD
HETATM   17  H   UNL     1      63.445   4.318   5.956  1.00  0.00     0.274 HD
HETATM   18  H   UNL     1      63.435   5.746   6.813  1.00  0.00     0.274 HD
ENDBRANCH  14  15
ENDBRANCH   1  14
TORSDOF 3
ENDMDL
MODEL 6
REMARK VINA RESULT:      -4.9      3.819      5.881
REMARK  3 active torsions:
REMARK  status: ('A' for Active; 'I' for Inactive)
REMARK    1  A    between atoms: C_1  and  C_8 
REMARK    2  A    between atoms: C_4  and  C_7 
REMARK    3  A    between atoms: C_8  and  N_9 
ROOT
HETATM    1  C   UNL     1      77.506   1.076  18.090  1.00  0.00     0.028 A 
HETATM    2  N   UNL     1      78.031  -1.108  17.676  1.00  0.00    -0.260 N 
ATOM      3  HN  UNL     1      78.120  -2.021  17.233  1.00  0.00     0.195 HD
HETATM    4  C   UNL     1      77.411  -0.025  17.167  1.00  0.00     0.075 A 
HETATM    5  O   UNL     1      78.517  -0.745  18.905  1.00  0.00    -0.242 OA
HETATM    6  C   UNL     1      78.210   0.549  19.156  1.00  0.00     0.083 A 
HETATM    7  C   UNL     1      78.679   1.071  20.455  1.00  0.00     0.079 C 
ENDROOT
BRANCH   4   8
HETATM    8  C   UNL     1      76.790  -0.096  15.836  1.00  0.00    -0.007 A 
HETATM    9  C   UNL     1      75.434   0.188  15.637  1.00  0.00     0.014 A 
HETATM   10  C   UNL     1      74.867   0.156  14.360  1.00  0.00     0.001 A 
HETATM   11  C   UNL     1      75.645  -0.191  13.261  1.00  0.00     0.000 A 
HETATM   12  C   UNL     1      76.990  -0.506  13.438  1.00  0.00     0.001 A 
HETATM   13  C   UNL     1      77.559  -0.457  14.716  1.00  0.00     0.014 A 
ENDBRANCH   4   8
BRANCH   1  14
HETATM   14  C   UNL     1      76.980   2.461  17.984  1.00  0.00     0.273 C 
BRANCH  14  15
HETATM   15  N   UNL     1      75.604   2.503  18.449  1.00  0.00    -0.075 N 
HETATM   16  H   UNL     1      75.348   1.594  18.836  1.00  0.00     0.274 HD
HETATM   17  H   UNL     1      74.987   2.724  17.668  1.00  0.00     0.274 HD
HETATM   18  H   UNL     1      75.510   3.218  19.170  1.00  0.00     0.274 HD
ENDBRANCH  14  15
ENDBRANCH   1  14
TORSDOF 3
ENDMDL
MODEL 7
REMARK VINA RESULT:      -4.7     13.315     14.539
REMARK  3 active torsions:
REMARK  status: ('A' for Active; 'I' for Inactive)
REMARK    1  A    between atoms: C_1  and  C_8 
REMARK    2  A    between atoms: C_4  and  C_7 
REMARK    3  A    between atoms: C_8  and  N_9 
ROOT
HETATM    1  C   UNL     1      67.686   5.338   7.155  1.00  0.00     0.028 A 
HETATM    2  N   UNL     1      67.198   7.030   8.609  1.00  0.00    -0.260 N 
ATOM      3  HN  UNL     1      66.765   7.840   9.051  1.00  0.00     0.195 HD
HETATM    4  C   UNL     1      66.840   6.468   7.437  1.00  0.00     0.075 A 
HETATM    5  O   UNL     1      68.256   6.304   9.091  1.00  0.00    -0.242 OA
HETATM    6  C   UNL     1      68.550   5.298   8.234  1.00  0.00     0.083 A 
HETATM    7  C   UNL     1      69.677   4.433   8.636  1.00  0.00     0.079 C 
ENDROOT
BRANCH   4   8
HETATM    8  C   UNL     1      65.712   7.022   6.675  1.00  0.00    -0.007 A 
HETATM    9  C   UNL     1      64.422   6.488   6.770  1.00  0.00     0.014 A 
HETATM   10  C   UNL     1      63.351   7.051   6.071  1.00  0.00     0.001 A 
HETATM   11  C   UNL     1      63.561   8.144   5.238  1.00  0.00     0.000 A 
HETATM   12  C   UNL     1      64.841   8.676   5.105  1.00  0.00     0.001 A 
HETATM   13  C   UNL     1      65.909   8.121   5.819  1.00  0.00     0.014 A 
ENDBRANCH   4   8
BRANCH   1  14
HETATM   14  C   UNL     1      67.689   4.411   5.995  1.00  0.00     0.273 C 
BRANCH  14  15
HETATM   15  N   UNL     1      66.690   3.375   6.190  1.00  0.00    -0.075 N 
HETATM   16  H   UNL     1      67.128   2.458   6.098  1.00  0.00     0.274 HD
HETATM   17  H   UNL     1      65.957   3.472   5.488  1.00  0.00     0.274 HD
HETATM   18  H   UNL     1      66.283   3.465   7.121  1.00  0.00     0.274 HD
ENDBRANCH  14  15
ENDBRANCH   1  14
TORSDOF 3
ENDMDL
MODEL 8
REMARK VINA RESULT:      -4.6     17.682     19.035
REMARK  3 active torsions:
REMARK  status: ('A' for Active; 'I' for Inactive)
REMARK    1  A    between atoms: C_1  and  C_8 
REMARK    2  A    between atoms: C_4  and  C_7 
REMARK    3  A    between atoms: C_8  and  N_9 
ROOT
HETATM    1  C   UNL     1      64.832   7.683   4.501  1.00  0.00     0.028 A 
HETATM    2  N   UNL     1      63.755   9.566   5.215  1.00  0.00    -0.260 N 
ATOM      3  HN  UNL     1      63.076  10.318   5.323  1.00  0.00     0.195 HD
HETATM    4  C   UNL     1      63.688   8.542   4.342  1.00  0.00     0.075 A 
HETATM    5  O   UNL     1      64.913   9.402   5.930  1.00  0.00    -0.242 OA
HETATM    6  C   UNL     1      65.556   8.287   5.513  1.00  0.00     0.083 A 
HETATM    7  C   UNL     1      66.825   7.990   6.206  1.00  0.00     0.079 C 
ENDROOT
BRANCH   4   8
HETATM    8  C   UNL     1      62.539   8.432   3.431  1.00  0.00    -0.007 A 
HETATM    9  C   UNL     1      62.525   9.060   2.180  1.00  0.00     0.014 A 
HETATM   10  C   UNL     1      61.442   8.912   1.307  1.00  0.00     0.001 A 
HETATM   11  C   UNL     1      60.340   8.155   1.687  1.00  0.00     0.000 A 
HETATM   12  C   UNL     1      60.319   7.544   2.939  1.00  0.00     0.001 A 
HETATM   13  C   UNL     1      61.411   7.680   3.804  1.00  0.00     0.014 A 
ENDBRANCH   4   8
BRANCH   1  14
HETATM   14  C   UNL     1      65.207   6.444   3.774  1.00  0.00     0.273 C 
BRANCH  14  15
HETATM   15  N   UNL     1      64.515   5.304   4.352  1.00  0.00    -0.075 N 
HETATM   16  H   UNL     1      64.366   5.467   5.349  1.00  0.00     0.274 HD
HETATM   17  H   UNL     1      65.077   4.464   4.226  1.00  0.00     0.274 HD
HETATM   18  H   UNL     1      63.613   5.184   3.889  1.00  0.00     0.274 HD
ENDBRANCH  14  15
ENDBRANCH   1  14
TORSDOF 3
ENDMDL
MODEL 9
REMARK VINA RESULT:      -4.5     12.184     13.338
REMARK  3 active torsions:
REMARK  status: ('A' for Active; 'I' for Inactive)
REMARK    1  A    between atoms: C_1  and  C_8 
REMARK    2  A    between atoms: C_4  and  C_7 
REMARK    3  A    between atoms: C_8  and  N_9 
ROOT
HETATM    1  C   UNL     1      67.956   4.016   8.127  1.00  0.00     0.028 A 
HETATM    2  N   UNL     1      69.284   5.859   8.353  1.00  0.00    -0.260 N 
ATOM      3  HN  UNL     1      69.690   6.788   8.241  1.00  0.00     0.195 HD
HETATM    4  C   UNL     1      68.229   5.358   7.682  1.00  0.00     0.075 A 
HETATM    5  O   UNL     1      69.710   4.881   9.213  1.00  0.00    -0.242 OA
HETATM    6  C   UNL     1      68.925   3.785   9.085  1.00  0.00     0.083 A 
HETATM    7  C   UNL     1      69.275   2.650   9.961  1.00  0.00     0.079 C 
ENDROOT
BRANCH   4   8
HETATM    8  C   UNL     1      67.537   6.185   6.683  1.00  0.00    -0.007 A 
HETATM    9  C   UNL     1      67.609   5.905   5.313  1.00  0.00     0.014 A 
HETATM   10  C   UNL     1      66.913   6.675   4.378  1.00  0.00     0.001 A 
HETATM   11  C   UNL     1      66.154   7.761   4.798  1.00  0.00     0.000 A 
HETATM   12  C   UNL     1      66.089   8.077   6.153  1.00  0.00     0.001 A 
HETATM   13  C   UNL     1      66.775   7.294   7.088  1.00  0.00     0.014 A 
ENDBRANCH   4   8
BRANCH   1  14
HETATM   14  C   UNL     1      66.910   3.057   7.689  1.00  0.00     0.273 C 
BRANCH  14  15
HETATM   15  N   UNL     1      67.331   2.393   6.467  1.00  0.00    -0.075 N 
HETATM   16  H   UNL     1      66.549   2.360   5.811  1.00  0.00     0.274 HD
HETATM   17  H   UNL     1      67.633   1.443   6.682  1.00  0.00     0.274 HD
HETATM   18  H   UNL     1      68.104   2.910   6.048  1.00  0.00     0.274 HD
ENDBRANCH  14  15
ENDBRANCH   1  14
TORSDOF 3
ENDMDL
