MODEL 1
REMARK VINA RESULT:      -4.6      0.000      0.000
REMARK  2 active torsions:
REMARK  status: ('A' for Active; 'I' for Inactive)
REMARK    1  A    between atoms: C_6  and  C_11 
REMARK    2  A    between atoms: N_9  and  C_11 
ROOT
HETATM    1  C   UNL     1      67.615   5.905   6.649  1.00  0.00    -0.022 A 
HETATM    2  C   UNL     1      66.857   6.855   7.683  1.00  0.00     0.075 A 
HETATM    3  O   UNL     1      65.921   7.856   6.928  1.00  0.00    -0.350 OA
HETATM    4  C   UNL     1      68.519   4.980   7.130  1.00  0.00     0.019 A 
HETATM    5  C   UNL     1      67.097   6.725   9.033  1.00  0.00     0.038 A 
HETATM    6  C   UNL     1      68.752   4.928   8.525  1.00  0.00    -0.032 A 
HETATM    7  C   UNL     1      68.045   5.766   9.442  1.00  0.00     0.011 A 
HETATM    8  C   UNL     1      65.867   7.754   5.310  1.00  0.00     0.180 A 
HETATM    9  C   UNL     1      67.090   6.335   4.964  1.00  0.00     0.068 A 
ENDROOT
BRANCH   6  10
HETATM   10  C   UNL     1      69.820   3.998   9.043  1.00  0.00     0.268 C 
BRANCH  10  11
HETATM   11  N   UNL     1      69.589   3.646  10.439  1.00  0.00    -0.075 N 
HETATM   12  H   UNL     1      69.758   4.461  11.028  1.00  0.00     0.274 HD
HETATM   13  H   UNL     1      70.223   2.893  10.709  1.00  0.00     0.274 HD
HETATM   14  H   UNL     1      68.625   3.336  10.556  1.00  0.00     0.274 HD
ENDBRANCH  10  11
ENDBRANCH   6  10
TORSDOF 2
ENDMDL
MODEL 2
REMARK VINA RESULT:      -4.6      6.920      8.308
REMARK  2 active torsions:
REMARK  status: ('A' for Active; 'I' for Inactive)
REMARK    1  A    between atoms: C_6  and  C_11 
REMARK    2  A    between atoms: N_9  and  C_11 
ROOT
HETATM    1  C   UNL     1      63.089   8.203   3.194  1.00  0.00    -0.022 A 
HETATM    2  C   UNL     1      62.405   8.626   1.817  1.00  0.00     0.075 A 
HETATM    3  O   UNL     1      62.583   7.502   0.745  1.00  0.00    -0.350 OA
HETATM    4  C   UNL     1      63.071   9.089   4.253  1.00  0.00     0.019 A 
HETATM    5  C   UNL     1      61.789   9.854   1.710  1.00  0.00     0.038 A 
HETATM    6  C   UNL     1      62.459  10.352   4.062  1.00  0.00    -0.032 A 
HETATM    7  C   UNL     1      61.825  10.707   2.831  1.00  0.00     0.011 A 
HETATM    8  C   UNL     1      63.376   6.159   1.192  1.00  0.00     0.180 A 
HETATM    9  C   UNL     1      63.814   6.548   3.005  1.00  0.00     0.068 A 
ENDROOT
BRANCH   6  10
HETATM   10  C   UNL     1      62.535  11.365   5.176  1.00  0.00     0.268 C 
BRANCH  10  11
HETATM   11  N   UNL     1      63.669  11.106   6.055  1.00  0.00    -0.075 N 
HETATM   12  H   UNL     1      64.124  11.988   6.291  1.00  0.00     0.274 HD
HETATM   13  H   UNL     1      64.335  10.496   5.581  1.00  0.00     0.274 HD
HETATM   14  H   UNL     1      63.341  10.654   6.908  1.00  0.00     0.274 HD
ENDBRANCH  10  11
ENDBRANCH   6  10
TORSDOF 2
ENDMDL
MODEL 3
REMARK VINA RESULT:      -4.4     11.869     13.401
REMARK  2 active torsions:
REMARK  status: ('A' for Active; 'I' for Inactive)
REMARK    1  A    between atoms: C_6  and  C_11 
REMARK    2  A    between atoms: N_9  and  C_11 
ROOT
HETATM    1  C   UNL     1      76.514   2.907  17.723  1.00  0.00    -0.022 A 
HETATM    2  C   UNL     1      75.009   2.582  17.306  1.00  0.00     0.075 A 
HETATM    3  O   UNL     1      74.665   1.087  17.606  1.00  0.00    -0.350 OA
HETATM    4  C   UNL     1      77.015   4.173  17.495  1.00  0.00     0.019 A 
HETATM    5  C   UNL     1      74.228   3.570  16.748  1.00  0.00     0.038 A 
HETATM    6  C   UNL     1      76.172   5.128  16.877  1.00  0.00    -0.032 A 
HETATM    7  C   UNL     1      74.817   4.832  16.534  1.00  0.00     0.011 A 
HETATM    8  C   UNL     1      75.826   0.170  18.271  1.00  0.00     0.180 A 
HETATM    9  C   UNL     1      77.269   1.405  18.413  1.00  0.00     0.068 A 
ENDROOT
BRANCH   6  10
HETATM   10  C   UNL     1      76.749   6.475  16.523  1.00  0.00     0.268 C 
BRANCH  10  11
HETATM   11  N   UNL     1      76.987   6.593  15.089  1.00  0.00    -0.075 N 
HETATM   12  H   UNL     1      76.856   7.563  14.802  1.00  0.00     0.274 HD
HETATM   13  H   UNL     1      76.329   5.998  14.585  1.00  0.00     0.274 HD
HETATM   14  H   UNL     1      77.940   6.302  14.877  1.00  0.00     0.274 HD
ENDBRANCH  10  11
ENDBRANCH   6  10
TORSDOF 2
ENDMDL
MODEL 4
REMARK VINA RESULT:      -4.3     12.074     13.312
REMARK  2 active torsions:
REMARK  status: ('A' for Active; 'I' for Inactive)
REMARK    1  A    between atoms: C_6  and  C_11 
REMARK    2  A    between atoms: N_9  and  C_11 
ROOT
HETATM    1  C   UNL     1      75.454   3.307  17.001  1.00  0.00    -0.022 A 
HETATM    2  C   UNL     1      76.720   3.331  17.971  1.00  0.00     0.075 A 
HETATM    3  O   UNL     1      77.135   4.803  18.299  1.00  0.00    -0.350 OA
HETATM    4  C   UNL     1      74.965   2.091  16.566  1.00  0.00     0.019 A 
HETATM    5  C   UNL     1      77.291   2.145  18.377  1.00  0.00     0.038 A 
HETATM    6  C   UNL     1      75.627   0.911  16.986  1.00  0.00    -0.032 A 
HETATM    7  C   UNL     1      76.743   0.947  17.878  1.00  0.00     0.011 A 
HETATM    8  C   UNL     1      76.247   5.994  17.648  1.00  0.00     0.180 A 
HETATM    9  C   UNL     1      74.952   5.016  16.649  1.00  0.00     0.068 A 
ENDROOT
BRANCH   6  10
HETATM   10  C   UNL     1      75.168  -0.411  16.425  1.00  0.00     0.268 C 
BRANCH  10  11
HETATM   11  N   UNL     1      73.724  -0.570  16.549  1.00  0.00    -0.075 N 
HETATM   12  H   UNL     1      73.513  -1.512  16.879  1.00  0.00     0.274 HD
HETATM   13  H   UNL     1      73.286  -0.423  15.639  1.00  0.00     0.274 HD
HETATM   14  H   UNL     1      73.362   0.112  17.215  1.00  0.00     0.274 HD
ENDBRANCH  10  11
ENDBRANCH   6  10
TORSDOF 2
ENDMDL
MODEL 5
REMARK VINA RESULT:      -4.3      1.469      2.731
REMARK  2 active torsions:
REMARK  status: ('A' for Active; 'I' for Inactive)
REMARK    1  A    between atoms: C_6  and  C_11 
REMARK    2  A    between atoms: N_9  and  C_11 
ROOT
HETATM    1  C   UNL     1      67.951   5.149   8.614  1.00  0.00    -0.022 A 
HETATM    2  C   UNL     1      67.721   4.820   7.070  1.00  0.00     0.075 A 
HETATM    3  O   UNL     1      66.875   5.944   6.387  1.00  0.00    -0.350 OA
HETATM    4  C   UNL     1      68.644   4.247   9.396  1.00  0.00     0.019 A 
HETATM    5  C   UNL     1      68.232   3.657   6.537  1.00  0.00     0.038 A 
HETATM    6  C   UNL     1      69.105   3.051   8.794  1.00  0.00    -0.032 A 
HETATM    7  C   UNL     1      68.916   2.782   7.404  1.00  0.00     0.011 A 
HETATM    8  C   UNL     1      66.414   7.198   7.307  1.00  0.00     0.180 A 
HETATM    9  C   UNL     1      67.150   6.733   9.001  1.00  0.00     0.068 A 
ENDROOT
BRANCH   6  10
HETATM   10  C   UNL     1      69.762   2.012   9.668  1.00  0.00     0.268 C 
BRANCH  10  11
HETATM   11  N   UNL     1      69.848   2.458  11.053  1.00  0.00    -0.075 N 
HETATM   12  H   UNL     1      70.359   3.340  11.095  1.00  0.00     0.274 HD
HETATM   13  H   UNL     1      70.338   1.755  11.607  1.00  0.00     0.274 HD
HETATM   14  H   UNL     1      68.909   2.592  11.427  1.00  0.00     0.274 HD
ENDBRANCH  10  11
ENDBRANCH   6  10
TORSDOF 2
ENDMDL
MODEL 6
REMARK VINA RESULT:      -4.2      5.320      7.059
REMARK  2 active torsions:
REMARK  status: ('A' for Active; 'I' for Inactive)
REMARK    1  A    between atoms: C_6  and  C_11 
REMARK    2  A    between atoms: N_9  and  C_11 
ROOT
HETATM    1  C   UNL     1      62.624   9.600   4.123  1.00  0.00    -0.022 A 
HETATM    2  C   UNL     1      62.598   8.939   2.671  1.00  0.00     0.075 A 
HETATM    3  O   UNL     1      62.096   9.969   1.606  1.00  0.00    -0.350 OA
HETATM    4  C   UNL     1      63.002   8.829   5.203  1.00  0.00     0.019 A 
HETATM    5  C   UNL     1      62.971   7.623   2.514  1.00  0.00     0.038 A 
HETATM    6  C   UNL     1      63.331   7.471   4.978  1.00  0.00    -0.032 A 
HETATM    7  C   UNL     1      63.330   6.899   3.668  1.00  0.00     0.011 A 
HETATM    8  C   UNL     1      61.724  11.461   2.124  1.00  0.00     0.180 A 
HETATM    9  C   UNL     1      62.072  11.326   3.992  1.00  0.00     0.068 A 
ENDROOT
BRANCH   6  10
HETATM   10  C   UNL     1      63.635   6.596   6.168  1.00  0.00     0.268 C 
BRANCH  10  11
HETATM   11  N   UNL     1      64.692   7.166   6.993  1.00  0.00    -0.075 N 
HETATM   12  H   UNL     1      65.004   8.048   6.585  1.00  0.00     0.274 HD
HETATM   13  H   UNL     1      65.477   6.516   7.038  1.00  0.00     0.274 HD
HETATM   14  H   UNL     1      64.336   7.335   7.933  1.00  0.00     0.274 HD
ENDBRANCH  10  11
ENDBRANCH   6  10
TORSDOF 2
ENDMDL
MODEL 7
REMARK VINA RESULT:      -4.2      5.568      6.940
REMARK  2 active torsions:
REMARK  status: ('A' for Active; 'I' for Inactive)
REMARK    1  A    between atoms: C_6  and  C_11 
REMARK    2  A    between atoms: N_9  and  C_11 
ROOT
HETATM    1  C   UNL     1      62.518   9.104   2.885  1.00  0.00    -0.022 A 
HETATM    2  C   UNL     1      62.508  10.125   4.112  1.00  0.00     0.075 A 
HETATM    3  O   UNL     1      62.056  11.546   3.641  1.00  0.00    -0.350 OA
HETATM    4  C   UNL     1      62.932   7.805   3.099  1.00  0.00     0.019 A 
HETATM    5  C   UNL     1      62.889   9.692   5.363  1.00  0.00     0.038 A 
HETATM    6  C   UNL     1      63.352   7.437   4.400  1.00  0.00    -0.032 A 
HETATM    7  C   UNL     1      63.311   8.355   5.495  1.00  0.00     0.011 A 
HETATM    8  C   UNL     1      61.676  11.731   2.075  1.00  0.00     0.180 A 
HETATM    9  C   UNL     1      61.979   9.980   1.389  1.00  0.00     0.068 A 
ENDROOT
BRANCH   6  10
HETATM   10  C   UNL     1      63.910   6.053   4.613  1.00  0.00     0.268 C 
BRANCH  10  11
HETATM   11  N   UNL     1      64.875   6.030   5.705  1.00  0.00    -0.075 N 
HETATM   12  H   UNL     1      65.013   5.068   6.017  1.00  0.00     0.274 HD
HETATM   13  H   UNL     1      64.524   6.592   6.481  1.00  0.00     0.274 HD
HETATM   14  H   UNL     1      65.764   6.412   5.383  1.00  0.00     0.274 HD
ENDBRANCH  10  11
ENDBRANCH   6  10
TORSDOF 2
ENDMDL
MODEL 8
REMARK VINA RESULT:      -4.2      5.339      7.685
REMARK  2 active torsions:
REMARK  status: ('A' for Active; 'I' for Inactive)
REMARK    1  A    between atoms: C_6  and  C_11 
REMARK    2  A    between atoms: N_9  and  C_11 
ROOT
HETATM    1  C   UNL     1      64.175   7.923   4.045  1.00  0.00    -0.022 A 
HETATM    2  C   UNL     1      64.053   9.165   5.038  1.00  0.00     0.075 A 
HETATM    3  O   UNL     1      65.247   9.183   6.048  1.00  0.00    -0.350 OA
HETATM    4  C   UNL     1      63.185   7.716   3.105  1.00  0.00     0.019 A 
HETATM    5  C   UNL     1      62.980  10.022   4.930  1.00  0.00     0.038 A 
HETATM    6  C   UNL     1      62.088   8.610   3.077  1.00  0.00    -0.032 A 
HETATM    7  C   UNL     1      62.005   9.735   3.954  1.00  0.00     0.011 A 
HETATM    8  C   UNL     1      66.359   8.010   5.913  1.00  0.00     0.180 A 
HETATM    9  C   UNL     1      65.681   6.992   4.452  1.00  0.00     0.068 A 
ENDROOT
BRANCH   6  10
HETATM   10  C   UNL     1      60.950   8.324   2.129  1.00  0.00     0.268 C 
BRANCH  10  11
HETATM   11  N   UNL     1      61.278   8.725   0.767  1.00  0.00    -0.075 N 
HETATM   12  H   UNL     1      61.341   9.742   0.717  1.00  0.00     0.274 HD
HETATM   13  H   UNL     1      60.550   8.398   0.131  1.00  0.00     0.274 HD
HETATM   14  H   UNL     1      62.173   8.317   0.498  1.00  0.00     0.274 HD
ENDBRANCH  10  11
ENDBRANCH   6  10
TORSDOF 2
ENDMDL
MODEL 9
REMARK VINA RESULT:      -4.1     12.375     13.719
REMARK  2 active torsions:
REMARK  status: ('A' for Active; 'I' for Inactive)
REMARK    1  A    between atoms: C_6  and  C_11 
REMARK    2  A    between atoms: N_9  and  C_11 
ROOT
HETATM    1  C   UNL     1      76.712   0.388  16.615  1.00  0.00    -0.022 A 
HETATM    2  C   UNL     1      75.250   0.546  15.995  1.00  0.00     0.075 A 
HETATM    3  O   UNL     1      74.930  -0.642  15.030  1.00  0.00    -0.350 OA
HETATM    4  C   UNL     1      77.190   1.367  17.463  1.00  0.00     0.019 A 
HETATM    5  C   UNL     1      74.482   1.639  16.330  1.00  0.00     0.038 A 
HETATM    6  C   UNL     1      76.365   2.486  17.730  1.00  0.00    -0.032 A 
HETATM    7  C   UNL     1      75.047   2.601  17.191  1.00  0.00     0.011 A 
HETATM    8  C   UNL     1      76.067  -1.783  14.843  1.00  0.00     0.180 A 
HETATM    9  C   UNL     1      77.459  -1.138  15.973  1.00  0.00     0.068 A 
ENDROOT
BRANCH   6  10
HETATM   10  C   UNL     1      76.925   3.611  18.564  1.00  0.00     0.268 C 
BRANCH  10  11
HETATM   11  N   UNL     1      77.645   3.105  19.726  1.00  0.00    -0.075 N 
HETATM   12  H   UNL     1      77.180   3.421  20.578  1.00  0.00     0.274 HD
HETATM   13  H   UNL     1      78.603   3.456  19.712  1.00  0.00     0.274 HD
HETATM   14  H   UNL     1      77.656   2.086  19.703  1.00  0.00     0.274 HD
ENDBRANCH  10  11
ENDBRANCH   6  10
TORSDOF 2
ENDMDL
