MODEL 1
REMARK VINA RESULT:      -5.1      0.000      0.000
REMARK  2 active torsions:
REMARK  status: ('A' for Active; 'I' for Inactive)
REMARK    1  A    between atoms: C_7  and  C_12 
REMARK    2  A    between atoms: N_9  and  C_12 
ROOT
HETATM    1  C   UNL     1      78.895  10.893  19.776  1.00  0.00     0.102 A 
HETATM    2  C   UNL     1      77.684  11.543  19.516  1.00  0.00     0.102 A 
HETATM    3  O   UNL     1      79.346   9.824  19.046  1.00  0.00    -0.346 OA
HETATM    4  C   UNL     1      79.706  11.319  20.829  1.00  0.00     0.048 A 
HETATM    5  O   UNL     1      76.834  11.174  18.506  1.00  0.00    -0.346 OA
HETATM    6  C   UNL     1      77.299  12.633  20.291  1.00  0.00     0.040 A 
HETATM    7  C   UNL     1      79.327  12.414  21.618  1.00  0.00    -0.030 A 
HETATM    8  C   UNL     1      78.113  13.063  21.340  1.00  0.00     0.012 A 
HETATM    9  C   UNL     1      78.638   9.697  17.809  1.00  0.00     0.202 C 
HETATM   10  C   UNL     1      77.141   9.866  18.014  1.00  0.00     0.202 C 
ENDROOT
BRANCH   7  11
HETATM   11  C   UNL     1      80.204  12.892  22.747  1.00  0.00     0.268 C 
BRANCH  11  12
HETATM   12  N   UNL     1      81.593  12.495  22.544  1.00  0.00    -0.075 N 
HETATM   13  H   UNL     1      81.622  11.580  22.092  1.00  0.00     0.274 HD
HETATM   14  H   UNL     1      82.069  12.445  23.444  1.00  0.00     0.274 HD
HETATM   15  H   UNL     1      82.059  13.180  21.950  1.00  0.00     0.274 HD
ENDBRANCH  11  12
ENDBRANCH   7  11
TORSDOF 2
ENDMDL
MODEL 2
REMARK VINA RESULT:      -5.1      4.496      6.804
REMARK  2 active torsions:
REMARK  status: ('A' for Active; 'I' for Inactive)
REMARK    1  A    between atoms: C_7  and  C_12 
REMARK    2  A    between atoms: N_9  and  C_12 
ROOT
HETATM    1  C   UNL     1      77.780   9.560  16.131  1.00  0.00     0.102 A 
HETATM    2  C   UNL     1      77.348   8.238  16.284  1.00  0.00     0.102 A 
HETATM    3  O   UNL     1      78.019  10.399  17.188  1.00  0.00    -0.346 OA
HETATM    4  C   UNL     1      77.978  10.089  14.856  1.00  0.00     0.048 A 
HETATM    5  O   UNL     1      77.123   7.656  17.504  1.00  0.00    -0.346 OA
HETATM    6  C   UNL     1      77.141   7.441  15.162  1.00  0.00     0.040 A 
HETATM    7  C   UNL     1      77.770   9.296  13.719  1.00  0.00    -0.030 A 
HETATM    8  C   UNL     1      77.346   7.968  13.886  1.00  0.00     0.012 A 
HETATM    9  C   UNL     1      78.127   9.675  18.419  1.00  0.00     0.202 C 
HETATM   10  C   UNL     1      77.025   8.636  18.542  1.00  0.00     0.202 C 
ENDROOT
BRANCH   7  11
HETATM   11  C   UNL     1      77.998   9.854  12.336  1.00  0.00     0.268 C 
BRANCH  11  12
HETATM   12  N   UNL     1      77.574  11.247  12.251  1.00  0.00    -0.075 N 
HETATM   13  H   UNL     1      77.871  11.639  11.357  1.00  0.00     0.274 HD
HETATM   14  H   UNL     1      77.995  11.778  13.012  1.00  0.00     0.274 HD
HETATM   15  H   UNL     1      76.558  11.298  12.321  1.00  0.00     0.274 HD
ENDBRANCH  11  12
ENDBRANCH   7  11
TORSDOF 2
ENDMDL
MODEL 3
REMARK VINA RESULT:      -4.9      2.882      4.843
REMARK  2 active torsions:
REMARK  status: ('A' for Active; 'I' for Inactive)
REMARK    1  A    between atoms: C_7  and  C_12 
REMARK    2  A    between atoms: N_9  and  C_12 
ROOT
HETATM    1  C   UNL     1      77.330  11.556  19.425  1.00  0.00     0.102 A 
HETATM    2  C   UNL     1      78.596  11.438  20.010  1.00  0.00     0.102 A 
HETATM    3  O   UNL     1      76.421  12.516  19.786  1.00  0.00    -0.346 OA
HETATM    4  C   UNL     1      76.934  10.664  18.428  1.00  0.00     0.048 A 
HETATM    5  O   UNL     1      79.047  12.272  21.000  1.00  0.00    -0.346 OA
HETATM    6  C   UNL     1      79.471  10.446  19.579  1.00  0.00     0.040 A 
HETATM    7  C   UNL     1      77.807   9.659  17.987  1.00  0.00    -0.030 A 
HETATM    8  C   UNL     1      79.078   9.558  18.577  1.00  0.00     0.012 A 
HETATM    9  C   UNL     1      77.038  13.566  20.539  1.00  0.00     0.202 C 
HETATM   10  C   UNL     1      77.974  13.005  21.597  1.00  0.00     0.202 C 
ENDROOT
BRANCH   7  11
HETATM   11  C   UNL     1      77.394   8.700  16.899  1.00  0.00     0.268 C 
BRANCH  11  12
HETATM   12  N   UNL     1      77.001   7.409  17.452  1.00  0.00    -0.075 N 
HETATM   13  H   UNL     1      76.238   7.542  18.116  1.00  0.00     0.274 HD
HETATM   14  H   UNL     1      77.797   6.986  17.929  1.00  0.00     0.274 HD
HETATM   15  H   UNL     1      76.692   6.796  16.698  1.00  0.00     0.274 HD
ENDBRANCH  11  12
ENDBRANCH   7  11
TORSDOF 2
ENDMDL
MODEL 4
REMARK VINA RESULT:      -4.8      7.719      9.436
REMARK  2 active torsions:
REMARK  status: ('A' for Active; 'I' for Inactive)
REMARK    1  A    between atoms: C_7  and  C_12 
REMARK    2  A    between atoms: N_9  and  C_12 
ROOT
HETATM    1  C   UNL     1      76.223   2.552  17.935  1.00  0.00     0.102 A 
HETATM    2  C   UNL     1      74.987   2.455  17.285  1.00  0.00     0.102 A 
HETATM    3  O   UNL     1      76.811   1.503  18.592  1.00  0.00    -0.346 OA
HETATM    4  C   UNL     1      76.916   3.763  17.944  1.00  0.00     0.048 A 
HETATM    5  O   UNL     1      74.248   1.302  17.245  1.00  0.00    -0.346 OA
HETATM    6  C   UNL     1      74.460   3.561  16.625  1.00  0.00     0.040 A 
HETATM    7  C   UNL     1      76.393   4.884  17.283  1.00  0.00    -0.030 A 
HETATM    8  C   UNL     1      75.157   4.771  16.628  1.00  0.00     0.012 A 
HETATM    9  C   UNL     1      76.210   0.255  18.232  1.00  0.00     0.202 C 
HETATM   10  C   UNL     1      74.693   0.358  18.223  1.00  0.00     0.202 C 
ENDROOT
BRANCH   7  11
HETATM   11  C   UNL     1      77.143   6.193  17.273  1.00  0.00     0.268 C 
BRANCH  11  12
HETATM   12  N   UNL     1      76.415   7.226  18.003  1.00  0.00    -0.075 N 
HETATM   13  H   UNL     1      76.623   7.148  18.999  1.00  0.00     0.274 HD
HETATM   14  H   UNL     1      75.414   7.105  17.854  1.00  0.00     0.274 HD
HETATM   15  H   UNL     1      76.701   8.145  17.667  1.00  0.00     0.274 HD
ENDBRANCH  11  12
ENDBRANCH   7  11
TORSDOF 2
ENDMDL
MODEL 5
REMARK VINA RESULT:      -4.8      1.352      2.529
REMARK  2 active torsions:
REMARK  status: ('A' for Active; 'I' for Inactive)
REMARK    1  A    between atoms: C_7  and  C_12 
REMARK    2  A    between atoms: N_9  and  C_12 
ROOT
HETATM    1  C   UNL     1      77.730  12.754  20.527  1.00  0.00     0.102 A 
HETATM    2  C   UNL     1      78.092  11.713  19.666  1.00  0.00     0.102 A 
HETATM    3  O   UNL     1      76.609  13.523  20.347  1.00  0.00    -0.346 OA
HETATM    4  C   UNL     1      78.528  13.061  21.629  1.00  0.00     0.048 A 
HETATM    5  O   UNL     1      77.362  11.363  18.560  1.00  0.00    -0.346 OA
HETATM    6  C   UNL     1      79.237  10.965  19.923  1.00  0.00     0.040 A 
HETATM    7  C   UNL     1      79.685  12.315  21.897  1.00  0.00    -0.030 A 
HETATM    8  C   UNL     1      80.032  11.267  21.029  1.00  0.00     0.012 A 
HETATM    9  C   UNL     1      75.700  12.917  19.422  1.00  0.00     0.202 C 
HETATM   10  C   UNL     1      76.432  12.388  18.200  1.00  0.00     0.202 C 
ENDROOT
BRANCH   7  11
HETATM   11  C   UNL     1      80.545  12.629  23.095  1.00  0.00     0.268 C 
BRANCH  11  12
HETATM   12  N   UNL     1      81.961  12.646  22.741  1.00  0.00    -0.075 N 
HETATM   13  H   UNL     1      82.474  13.207  23.421  1.00  0.00     0.274 HD
HETATM   14  H   UNL     1      82.074  13.050  21.812  1.00  0.00     0.274 HD
HETATM   15  H   UNL     1      82.323  11.693  22.744  1.00  0.00     0.274 HD
ENDBRANCH  11  12
ENDBRANCH   7  11
TORSDOF 2
ENDMDL
MODEL 6
REMARK VINA RESULT:      -4.7     16.610     18.086
REMARK  2 active torsions:
REMARK  status: ('A' for Active; 'I' for Inactive)
REMARK    1  A    between atoms: C_7  and  C_12 
REMARK    2  A    between atoms: N_9  and  C_12 
ROOT
HETATM    1  C   UNL     1      66.842   5.451   7.006  1.00  0.00     0.102 A 
HETATM    2  C   UNL     1      66.227   6.322   7.913  1.00  0.00     0.102 A 
HETATM    3  O   UNL     1      66.346   5.198   5.753  1.00  0.00    -0.346 OA
HETATM    4  C   UNL     1      68.013   4.782   7.361  1.00  0.00     0.048 A 
HETATM    5  O   UNL     1      65.071   7.004   7.635  1.00  0.00    -0.346 OA
HETATM    6  C   UNL     1      66.799   6.541   9.162  1.00  0.00     0.040 A 
HETATM    7  C   UNL     1      68.597   4.994   8.618  1.00  0.00    -0.030 A 
HETATM    8  C   UNL     1      67.975   5.877   9.516  1.00  0.00     0.012 A 
HETATM    9  C   UNL     1      65.371   6.173   5.368  1.00  0.00     0.202 C 
HETATM   10  C   UNL     1      64.397   6.453   6.500  1.00  0.00     0.202 C 
ENDROOT
BRANCH   7  11
HETATM   11  C   UNL     1      69.872   4.288   9.006  1.00  0.00     0.268 C 
BRANCH  11  12
HETATM   12  N   UNL     1      69.749   3.652  10.313  1.00  0.00    -0.075 N 
HETATM   13  H   UNL     1      69.373   2.711  10.199  1.00  0.00     0.274 HD
HETATM   14  H   UNL     1      69.122   4.200  10.900  1.00  0.00     0.274 HD
HETATM   15  H   UNL     1      70.668   3.599  10.753  1.00  0.00     0.274 HD
ENDBRANCH  11  12
ENDBRANCH   7  11
TORSDOF 2
ENDMDL
MODEL 7
REMARK VINA RESULT:      -4.7      3.181      4.716
REMARK  2 active torsions:
REMARK  status: ('A' for Active; 'I' for Inactive)
REMARK    1  A    between atoms: C_7  and  C_12 
REMARK    2  A    between atoms: N_9  and  C_12 
ROOT
HETATM    1  C   UNL     1      78.060   9.412  15.841  1.00  0.00     0.102 A 
HETATM    2  C   UNL     1      77.323   8.231  15.980  1.00  0.00     0.102 A 
HETATM    3  O   UNL     1      78.437   9.925  14.627  1.00  0.00    -0.346 OA
HETATM    4  C   UNL     1      78.458  10.126  16.972  1.00  0.00     0.048 A 
HETATM    5  O   UNL     1      76.909   7.474  14.915  1.00  0.00    -0.346 OA
HETATM    6  C   UNL     1      76.964   7.781  17.246  1.00  0.00     0.040 A 
HETATM    7  C   UNL     1      78.103   9.681  18.253  1.00  0.00    -0.030 A 
HETATM    8  C   UNL     1      77.355   8.498  18.378  1.00  0.00     0.012 A 
HETATM    9  C   UNL     1      77.699   9.330  13.554  1.00  0.00     0.202 C 
HETATM   10  C   UNL     1      77.612   7.822  13.719  1.00  0.00     0.202 C 
ENDROOT
BRANCH   7  11
HETATM   11  C   UNL     1      78.514  10.454  19.481  1.00  0.00     0.268 C 
BRANCH  11  12
HETATM   12  N   UNL     1      79.953  10.365  19.706  1.00  0.00    -0.075 N 
HETATM   13  H   UNL     1      80.429  11.069  19.142  1.00  0.00     0.274 HD
HETATM   14  H   UNL     1      80.282   9.437  19.440  1.00  0.00     0.274 HD
HETATM   15  H   UNL     1      80.153  10.528  20.692  1.00  0.00     0.274 HD
ENDBRANCH  11  12
ENDBRANCH   7  11
TORSDOF 2
ENDMDL
MODEL 8
REMARK VINA RESULT:      -4.6     16.113     17.348
REMARK  2 active torsions:
REMARK  status: ('A' for Active; 'I' for Inactive)
REMARK    1  A    between atoms: C_7  and  C_12 
REMARK    2  A    between atoms: N_9  and  C_12 
ROOT
HETATM    1  C   UNL     1      68.051   3.275   9.064  1.00  0.00     0.102 A 
HETATM    2  C   UNL     1      69.396   3.457   9.403  1.00  0.00     0.102 A 
HETATM    3  O   UNL     1      67.326   2.171   9.430  1.00  0.00    -0.346 OA
HETATM    4  C   UNL     1      67.382   4.239   8.308  1.00  0.00     0.048 A 
HETATM    5  O   UNL     1      70.117   2.549  10.133  1.00  0.00    -0.346 OA
HETATM    6  C   UNL     1      70.062   4.614   9.009  1.00  0.00     0.040 A 
HETATM    7  C   UNL     1      68.044   5.407   7.904  1.00  0.00    -0.030 A 
HETATM    8  C   UNL     1      69.391   5.582   8.259  1.00  0.00     0.012 A 
HETATM    9  C   UNL     1      67.980   1.435  10.470  1.00  0.00     0.202 C 
HETATM   10  C   UNL     1      69.464   1.277  10.181  1.00  0.00     0.202 C 
ENDROOT
BRANCH   7  11
HETATM   11  C   UNL     1      67.325   6.463   7.101  1.00  0.00     0.268 C 
BRANCH  11  12
HETATM   12  N   UNL     1      67.138   7.683   7.878  1.00  0.00    -0.075 N 
HETATM   13  H   UNL     1      66.970   7.442   8.855  1.00  0.00     0.274 HD
HETATM   14  H   UNL     1      66.339   8.200   7.513  1.00  0.00     0.274 HD
HETATM   15  H   UNL     1      67.976   8.260   7.811  1.00  0.00     0.274 HD
ENDBRANCH  11  12
ENDBRANCH   7  11
TORSDOF 2
ENDMDL
MODEL 9
REMARK VINA RESULT:      -4.6      2.775      4.367
REMARK  2 active torsions:
REMARK  status: ('A' for Active; 'I' for Inactive)
REMARK    1  A    between atoms: C_7  and  C_12 
REMARK    2  A    between atoms: N_9  and  C_12 
ROOT
HETATM    1  C   UNL     1      78.921  11.283  20.161  1.00  0.00     0.102 A 
HETATM    2  C   UNL     1      77.966  12.289  20.339  1.00  0.00     0.102 A 
HETATM    3  O   UNL     1      80.044  11.167  20.939  1.00  0.00    -0.346 OA
HETATM    4  C   UNL     1      78.764  10.338  19.147  1.00  0.00     0.048 A 
HETATM    5  O   UNL     1      78.061  13.255  21.307  1.00  0.00    -0.346 OA
HETATM    6  C   UNL     1      76.842  12.333  19.519  1.00  0.00     0.040 A 
HETATM    7  C   UNL     1      77.637  10.374  18.313  1.00  0.00    -0.030 A 
HETATM    8  C   UNL     1      76.681  11.384  18.508  1.00  0.00     0.012 A 
HETATM    9  C   UNL     1      79.935  11.943  22.137  1.00  0.00     0.202 C 
HETATM   10  C   UNL     1      79.384  13.329  21.845  1.00  0.00     0.202 C 
ENDROOT
BRANCH   7  11
HETATM   11  C   UNL     1      77.450   9.348  17.224  1.00  0.00     0.268 C 
BRANCH  11  12
HETATM   12  N   UNL     1      76.992   8.074  17.770  1.00  0.00    -0.075 N 
HETATM   13  H   UNL     1      76.629   8.219  18.712  1.00  0.00     0.274 HD
HETATM   14  H   UNL     1      77.772   7.418  17.803  1.00  0.00     0.274 HD
HETATM   15  H   UNL     1      76.254   7.696  17.177  1.00  0.00     0.274 HD
ENDBRANCH  11  12
ENDBRANCH   7  11
TORSDOF 2
ENDMDL
