MODEL 1
REMARK VINA RESULT:      -5.1      0.000      0.000
REMARK  2 active torsions:
REMARK  status: ('A' for Active; 'I' for Inactive)
REMARK    1  A    between atoms: C_7  and  C_12 
REMARK    2  A    between atoms: O_9  and  C_12 
ROOT
HETATM    1  C   UNL     1      76.238   2.594  17.918  1.00  0.00     0.102 A 
HETATM    2  C   UNL     1      74.995   2.446  17.293  1.00  0.00     0.102 A 
HETATM    3  O   UNL     1      76.876   1.572  18.576  1.00  0.00    -0.346 OA
HETATM    4  C   UNL     1      76.889   3.828  17.901  1.00  0.00     0.049 A 
HETATM    5  O   UNL     1      74.289   1.271  17.296  1.00  0.00    -0.346 OA
HETATM    6  C   UNL     1      74.422   3.524  16.622  1.00  0.00     0.040 A 
HETATM    7  C   UNL     1      76.318   4.921  17.238  1.00  0.00    -0.032 A 
HETATM    8  C   UNL     1      75.080   4.756  16.592  1.00  0.00     0.012 A 
HETATM    9  C   UNL     1      76.307   0.302  18.244  1.00  0.00     0.202 C 
HETATM   10  C   UNL     1      74.789   0.362  18.282  1.00  0.00     0.202 C 
ENDROOT
BRANCH   7  11
HETATM   11  C   UNL     1      77.009   6.260  17.221  1.00  0.00     0.203 C 
BRANCH  11  12
HETATM   12  O   UNL     1      76.481   7.107  18.233  1.00  0.00    -0.396 OA
HETATM   13  H   UNL     1      77.113   7.819  18.419  1.00  0.00     0.209 HD
ENDBRANCH  11  12
ENDBRANCH   7  11
TORSDOF 2
ENDMDL
MODEL 2
REMARK VINA RESULT:      -5.0     10.703     12.603
REMARK  2 active torsions:
REMARK  status: ('A' for Active; 'I' for Inactive)
REMARK    1  A    between atoms: C_7  and  C_12 
REMARK    2  A    between atoms: O_9  and  C_12 
ROOT
HETATM    1  C   UNL     1      67.203   4.291   8.443  1.00  0.00     0.102 A 
HETATM    2  C   UNL     1      67.971   5.441   8.234  1.00  0.00     0.102 A 
HETATM    3  O   UNL     1      65.869   4.210   8.131  1.00  0.00    -0.346 OA
HETATM    4  C   UNL     1      67.784   3.152   9.002  1.00  0.00     0.049 A 
HETATM    5  O   UNL     1      67.458   6.603   7.716  1.00  0.00    -0.346 OA
HETATM    6  C   UNL     1      69.327   5.439   8.552  1.00  0.00     0.040 A 
HETATM    7  C   UNL     1      69.144   3.141   9.335  1.00  0.00    -0.032 A 
HETATM    8  C   UNL     1      69.913   4.295   9.099  1.00  0.00     0.012 A 
HETATM    9  C   UNL     1      65.469   5.279   7.268  1.00  0.00     0.202 C 
HETATM   10  C   UNL     1      66.027   6.606   7.755  1.00  0.00     0.202 C 
ENDROOT
BRANCH   7  11
HETATM   11  C   UNL     1      69.778   1.919   9.947  1.00  0.00     0.203 C 
BRANCH  11  12
HETATM   12  O   UNL     1      69.858   2.052  11.360  1.00  0.00    -0.396 OA
HETATM   13  H   UNL     1      70.724   2.413  11.602  1.00  0.00     0.209 HD
ENDBRANCH  11  12
ENDBRANCH   7  11
TORSDOF 2
ENDMDL
MODEL 3
REMARK VINA RESULT:      -4.8     16.877     18.242
REMARK  2 active torsions:
REMARK  status: ('A' for Active; 'I' for Inactive)
REMARK    1  A    between atoms: C_7  and  C_12 
REMARK    2  A    between atoms: O_9  and  C_12 
ROOT
HETATM    1  C   UNL     1      64.806   8.564   5.231  1.00  0.00     0.102 A 
HETATM    2  C   UNL     1      64.898   7.390   4.475  1.00  0.00     0.102 A 
HETATM    3  O   UNL     1      65.674   8.874   6.248  1.00  0.00    -0.346 OA
HETATM    4  C   UNL     1      63.789   9.484   4.976  1.00  0.00     0.049 A 
HETATM    5  O   UNL     1      65.853   6.431   4.691  1.00  0.00    -0.346 OA
HETATM    6  C   UNL     1      63.994   7.157   3.441  1.00  0.00     0.040 A 
HETATM    7  C   UNL     1      62.868   9.256   3.946  1.00  0.00    -0.032 A 
HETATM    8  C   UNL     1      62.984   8.085   3.175  1.00  0.00     0.012 A 
HETATM    9  C   UNL     1      66.849   8.059   6.197  1.00  0.00     0.202 C 
HETATM   10  C   UNL     1      66.488   6.602   5.963  1.00  0.00     0.202 C 
ENDROOT
BRANCH   7  11
HETATM   11  C   UNL     1      61.762  10.240   3.668  1.00  0.00     0.203 C 
BRANCH  11  12
HETATM   12  O   UNL     1      61.988  11.457   4.366  1.00  0.00    -0.396 OA
HETATM   13  H   UNL     1      62.921  11.514   4.621  1.00  0.00     0.209 HD
ENDBRANCH  11  12
ENDBRANCH   7  11
TORSDOF 2
ENDMDL
MODEL 4
REMARK VINA RESULT:      -4.7     10.196     11.579
REMARK  2 active torsions:
REMARK  status: ('A' for Active; 'I' for Inactive)
REMARK    1  A    between atoms: C_7  and  C_12 
REMARK    2  A    between atoms: O_9  and  C_12 
ROOT
HETATM    1  C   UNL     1      68.007   3.271   9.143  1.00  0.00     0.102 A 
HETATM    2  C   UNL     1      69.363   3.404   9.462  1.00  0.00     0.102 A 
HETATM    3  O   UNL     1      67.252   2.184   9.506  1.00  0.00    -0.346 OA
HETATM    4  C   UNL     1      67.359   4.265   8.411  1.00  0.00     0.049 A 
HETATM    5  O   UNL     1      70.069   2.453  10.152  1.00  0.00    -0.346 OA
HETATM    6  C   UNL     1      70.058   4.550   9.080  1.00  0.00     0.040 A 
HETATM    7  C   UNL     1      68.049   5.417   8.012  1.00  0.00    -0.032 A 
HETATM    8  C   UNL     1      69.405   5.553   8.360  1.00  0.00     0.012 A 
HETATM    9  C   UNL     1      67.903   1.413  10.520  1.00  0.00     0.202 C 
HETATM   10  C   UNL     1      69.370   1.204  10.185  1.00  0.00     0.202 C 
ENDROOT
BRANCH   7  11
HETATM   11  C   UNL     1      67.359   6.493   7.215  1.00  0.00     0.203 C 
BRANCH  11  12
HETATM   12  O   UNL     1      67.203   7.671   7.994  1.00  0.00    -0.396 OA
HETATM   13  H   UNL     1      66.262   7.815   8.178  1.00  0.00     0.209 HD
ENDBRANCH  11  12
ENDBRANCH   7  11
TORSDOF 2
ENDMDL
MODEL 5
REMARK VINA RESULT:      -4.6     11.977     13.737
REMARK  2 active torsions:
REMARK  status: ('A' for Active; 'I' for Inactive)
REMARK    1  A    between atoms: C_7  and  C_12 
REMARK    2  A    between atoms: O_9  and  C_12 
ROOT
HETATM    1  C   UNL     1      67.685   5.835   6.700  1.00  0.00     0.102 A 
HETATM    2  C   UNL     1      67.084   6.749   7.573  1.00  0.00     0.102 A 
HETATM    3  O   UNL     1      67.585   5.922   5.334  1.00  0.00    -0.346 OA
HETATM    4  C   UNL     1      68.422   4.764   7.206  1.00  0.00     0.049 A 
HETATM    5  O   UNL     1      66.323   7.806   7.146  1.00  0.00    -0.346 OA
HETATM    6  C   UNL     1      67.252   6.609   8.949  1.00  0.00     0.040 A 
HETATM    7  C   UNL     1      68.589   4.607   8.587  1.00  0.00    -0.032 A 
HETATM    8  C   UNL     1      68.002   5.545   9.455  1.00  0.00     0.012 A 
HETATM    9  C   UNL     1      67.117   7.212   4.927  1.00  0.00     0.202 C 
HETATM   10  C   UNL     1      65.937   7.653   5.776  1.00  0.00     0.202 C 
ENDROOT
BRANCH   7  11
HETATM   11  C   UNL     1      69.376   3.449   9.142  1.00  0.00     0.203 C 
BRANCH  11  12
HETATM   12  O   UNL     1      69.697   3.672  10.509  1.00  0.00    -0.396 OA
HETATM   13  H   UNL     1      69.540   4.602  10.730  1.00  0.00     0.209 HD
ENDBRANCH  11  12
ENDBRANCH   7  11
TORSDOF 2
ENDMDL
MODEL 6
REMARK VINA RESULT:      -4.4     11.719     13.078
REMARK  2 active torsions:
REMARK  status: ('A' for Active; 'I' for Inactive)
REMARK    1  A    between atoms: C_7  and  C_12 
REMARK    2  A    between atoms: O_9  and  C_12 
ROOT
HETATM    1  C   UNL     1      68.103   4.718   7.526  1.00  0.00     0.102 A 
HETATM    2  C   UNL     1      68.168   5.109   8.868  1.00  0.00     0.102 A 
HETATM    3  O   UNL     1      68.722   3.594   7.038  1.00  0.00    -0.346 OA
HETATM    4  C   UNL     1      67.391   5.488   6.605  1.00  0.00     0.049 A 
HETATM    5  O   UNL     1      68.873   4.416   9.818  1.00  0.00    -0.346 OA
HETATM    6  C   UNL     1      67.491   6.249   9.293  1.00  0.00     0.040 A 
HETATM    7  C   UNL     1      66.714   6.642   7.019  1.00  0.00    -0.032 A 
HETATM    8  C   UNL     1      66.766   7.012   8.375  1.00  0.00     0.012 A 
HETATM    9  C   UNL     1      69.119   2.717   8.097  1.00  0.00     0.202 C 
HETATM   10  C   UNL     1      69.788   3.491   9.220  1.00  0.00     0.202 C 
ENDROOT
BRANCH   7  11
HETATM   11  C   UNL     1      65.950   7.484   6.031  1.00  0.00     0.203 C 
BRANCH  11  12
HETATM   12  O   UNL     1      66.103   8.865   6.327  1.00  0.00    -0.396 OA
HETATM   13  H   UNL     1      66.438   9.328   5.544  1.00  0.00     0.209 HD
ENDBRANCH  11  12
ENDBRANCH   7  11
TORSDOF 2
ENDMDL
MODEL 7
REMARK VINA RESULT:      -4.4     11.149     12.953
REMARK  2 active torsions:
REMARK  status: ('A' for Active; 'I' for Inactive)
REMARK    1  A    between atoms: C_7  and  C_12 
REMARK    2  A    between atoms: O_9  and  C_12 
ROOT
HETATM    1  C   UNL     1      67.981   5.332   8.200  1.00  0.00     0.102 A 
HETATM    2  C   UNL     1      67.893   4.891   6.875  1.00  0.00     0.102 A 
HETATM    3  O   UNL     1      67.550   6.568   8.612  1.00  0.00    -0.346 OA
HETATM    4  C   UNL     1      68.537   4.507   9.177  1.00  0.00     0.049 A 
HETATM    5  O   UNL     1      67.385   5.660   5.860  1.00  0.00    -0.346 OA
HETATM    6  C   UNL     1      68.329   3.611   6.538  1.00  0.00     0.040 A 
HETATM    7  C   UNL     1      68.988   3.222   8.849  1.00  0.00    -0.032 A 
HETATM    8  C   UNL     1      68.873   2.779   7.519  1.00  0.00     0.012 A 
HETATM    9  C   UNL     1      66.704   7.178   7.632  1.00  0.00     0.202 C 
HETATM   10  C   UNL     1      67.297   7.037   6.240  1.00  0.00     0.202 C 
ENDROOT
BRANCH   7  11
HETATM   11  C   UNL     1      69.598   2.327   9.896  1.00  0.00     0.203 C 
BRANCH  11  12
HETATM   12  O   UNL     1      69.923   3.071  11.062  1.00  0.00    -0.396 OA
HETATM   13  H   UNL     1      69.152   3.106  11.649  1.00  0.00     0.209 HD
ENDBRANCH  11  12
ENDBRANCH   7  11
TORSDOF 2
ENDMDL
MODEL 8
REMARK VINA RESULT:      -4.2      1.893      2.903
REMARK  2 active torsions:
REMARK  status: ('A' for Active; 'I' for Inactive)
REMARK    1  A    between atoms: C_7  and  C_12 
REMARK    2  A    between atoms: O_9  and  C_12 
ROOT
HETATM    1  C   UNL     1      77.414   1.600  18.635  1.00  0.00     0.102 A 
HETATM    2  C   UNL     1      76.657   0.446  18.408  1.00  0.00     0.102 A 
HETATM    3  O   UNL     1      78.578   1.606  19.363  1.00  0.00    -0.346 OA
HETATM    4  C   UNL     1      76.993   2.827  18.121  1.00  0.00     0.049 A 
HETATM    5  O   UNL     1      76.996  -0.785  18.907  1.00  0.00    -0.346 OA
HETATM    6  C   UNL     1      75.499   0.515  17.636  1.00  0.00     0.040 A 
HETATM    7  C   UNL     1      75.825   2.911  17.353  1.00  0.00    -0.032 A 
HETATM    8  C   UNL     1      75.085   1.740  17.109  1.00  0.00     0.012 A 
HETATM    9  C   UNL     1      79.087   0.280  19.542  1.00  0.00     0.202 C 
HETATM   10  C   UNL     1      77.978  -0.677  19.944  1.00  0.00     0.202 C 
ENDROOT
BRANCH   7  11
HETATM   11  C   UNL     1      75.359   4.232  16.801  1.00  0.00     0.203 C 
BRANCH  11  12
HETATM   12  O   UNL     1      73.941   4.317  16.838  1.00  0.00    -0.396 OA
HETATM   13  H   UNL     1      73.671   4.916  17.551  1.00  0.00     0.209 HD
ENDBRANCH  11  12
ENDBRANCH   7  11
TORSDOF 2
ENDMDL
MODEL 9
REMARK VINA RESULT:      -4.2     11.630     12.900
REMARK  2 active torsions:
REMARK  status: ('A' for Active; 'I' for Inactive)
REMARK    1  A    between atoms: C_7  and  C_12 
REMARK    2  A    between atoms: O_9  and  C_12 
ROOT
HETATM    1  C   UNL     1      68.414   4.715   8.218  1.00  0.00     0.102 A 
HETATM    2  C   UNL     1      68.145   3.520   7.542  1.00  0.00     0.102 A 
HETATM    3  O   UNL     1      68.870   4.761   9.512  1.00  0.00    -0.346 OA
HETATM    4  C   UNL     1      68.213   5.941   7.584  1.00  0.00     0.049 A 
HETATM    5  O   UNL     1      68.293   2.284   8.115  1.00  0.00    -0.346 OA
HETATM    6  C   UNL     1      67.709   3.554   6.219  1.00  0.00     0.040 A 
HETATM    7  C   UNL     1      67.765   5.987   6.257  1.00  0.00    -0.032 A 
HETATM    8  C   UNL     1      67.521   4.780   5.578  1.00  0.00     0.012 A 
HETATM    9  C   UNL     1      69.360   3.486   9.938  1.00  0.00     0.202 C 
HETATM   10  C   UNL     1      68.402   2.376   9.539  1.00  0.00     0.202 C 
ENDROOT
BRANCH   7  11
HETATM   11  C   UNL     1      67.537   7.306   5.566  1.00  0.00     0.203 C 
BRANCH  11  12
HETATM   12  O   UNL     1      68.776   7.935   5.266  1.00  0.00    -0.396 OA
HETATM   13  H   UNL     1      68.670   8.897   5.316  1.00  0.00     0.209 HD
ENDBRANCH  11  12
ENDBRANCH   7  11
TORSDOF 2
ENDMDL
