MODEL 1
REMARK VINA RESULT:      -5.0      0.000      0.000
REMARK  2 active torsions:
REMARK  status: ('A' for Active; 'I' for Inactive)
REMARK    1  A    between atoms: C_5  and  C_8 
REMARK    2  A    between atoms: N_7  and  C_8 
ROOT
HETATM    1  O   UNL     1      64.965   9.117   5.840  1.00  0.00    -0.339 OA
HETATM    2  O   UNL     1      64.141   7.391   3.653  1.00  0.00    -0.346 OA
HETATM    3  C   UNL     1      63.924   9.412   4.997  1.00  0.00     0.102 A 
HETATM    4  C   UNL     1      63.531   8.586   3.940  1.00  0.00     0.102 A 
HETATM    5  C   UNL     1      65.781   8.048   5.324  1.00  0.00     0.178 C 
HETATM    6  C   UNL     1      64.909   6.923   4.769  1.00  0.00     0.210 C 
HETATM    7  C   UNL     1      63.238  10.602   5.242  1.00  0.00     0.039 A 
HETATM    8  C   UNL     1      62.478   8.966   3.109  1.00  0.00     0.039 A 
HETATM    9  C   UNL     1      62.175  10.975   4.419  1.00  0.00     0.003 A 
HETATM   10  C   UNL     1      61.796  10.159   3.351  1.00  0.00     0.003 A 
ENDROOT
BRANCH   5  11
HETATM   11  C   UNL     1      66.712   7.561   6.449  1.00  0.00     0.264 C 
BRANCH  11  12
HETATM   12  N   UNL     1      67.079   8.614   7.400  1.00  0.00    -0.077 N 
HETATM   13  H   UNL     1      68.067   8.527   7.640  1.00  0.00     0.274 HD
HETATM   14  H   UNL     1      66.515   8.522   8.245  1.00  0.00     0.274 HD
HETATM   15  H   UNL     1      66.912   9.527   6.978  1.00  0.00     0.274 HD
ENDBRANCH  11  12
ENDBRANCH   5  11
TORSDOF 2
ENDMDL
MODEL 2
REMARK VINA RESULT:      -4.8      1.662      4.108
REMARK  2 active torsions:
REMARK  status: ('A' for Active; 'I' for Inactive)
REMARK    1  A    between atoms: C_5  and  C_8 
REMARK    2  A    between atoms: N_7  and  C_8 
ROOT
HETATM    1  O   UNL     1      64.939   9.303   5.575  1.00  0.00    -0.339 OA
HETATM    2  O   UNL     1      63.819   7.369   3.719  1.00  0.00    -0.346 OA
HETATM    3  C   UNL     1      65.601   8.171   5.175  1.00  0.00     0.102 A 
HETATM    4  C   UNL     1      65.060   7.236   4.287  1.00  0.00     0.102 A 
HETATM    5  C   UNL     1      63.540   9.251   5.234  1.00  0.00     0.178 C 
HETATM    6  C   UNL     1      63.351   8.722   3.814  1.00  0.00     0.210 C 
HETATM    7  C   UNL     1      66.882   7.979   5.693  1.00  0.00     0.039 A 
HETATM    8  C   UNL     1      65.784   6.095   3.946  1.00  0.00     0.039 A 
HETATM    9  C   UNL     1      67.612   6.843   5.340  1.00  0.00     0.003 A 
HETATM   10  C   UNL     1      67.063   5.900   4.469  1.00  0.00     0.003 A 
ENDROOT
BRANCH   5  11
HETATM   11  C   UNL     1      62.943  10.659   5.414  1.00  0.00     0.264 C 
BRANCH  11  12
HETATM   12  N   UNL     1      63.706  11.503   6.340  1.00  0.00    -0.077 N 
HETATM   13  H   UNL     1      64.267  10.912   6.954  1.00  0.00     0.274 HD
HETATM   14  H   UNL     1      63.062  12.061   6.900  1.00  0.00     0.274 HD
HETATM   15  H   UNL     1      64.319  12.121   5.810  1.00  0.00     0.274 HD
ENDBRANCH  11  12
ENDBRANCH   5  11
TORSDOF 2
ENDMDL
MODEL 3
REMARK VINA RESULT:      -4.6      4.348      7.491
REMARK  2 active torsions:
REMARK  status: ('A' for Active; 'I' for Inactive)
REMARK    1  A    between atoms: C_5  and  C_8 
REMARK    2  A    between atoms: N_7  and  C_8 
ROOT
HETATM    1  O   UNL     1      67.859   6.213   7.786  1.00  0.00    -0.339 OA
HETATM    2  O   UNL     1      66.210   3.886   8.342  1.00  0.00    -0.346 OA
HETATM    3  C   UNL     1      68.329   5.087   8.411  1.00  0.00     0.102 A 
HETATM    4  C   UNL     1      67.535   3.970   8.686  1.00  0.00     0.102 A 
HETATM    5  C   UNL     1      66.419   6.232   7.736  1.00  0.00     0.178 C 
HETATM    6  C   UNL     1      65.874   4.860   7.344  1.00  0.00     0.210 C 
HETATM    7  C   UNL     1      69.677   5.088   8.770  1.00  0.00     0.039 A 
HETATM    8  C   UNL     1      68.079   2.871   9.349  1.00  0.00     0.039 A 
HETATM    9  C   UNL     1      70.225   3.982   9.421  1.00  0.00     0.003 A 
HETATM   10  C   UNL     1      69.427   2.875   9.713  1.00  0.00     0.003 A 
ENDROOT
BRANCH   5  11
HETATM   11  C   UNL     1      65.981   7.334   6.754  1.00  0.00     0.264 C 
BRANCH  11  12
HETATM   12  N   UNL     1      66.760   8.570   6.877  1.00  0.00    -0.077 N 
HETATM   13  H   UNL     1      67.701   8.416   6.513  1.00  0.00     0.274 HD
HETATM   14  H   UNL     1      66.816   8.841   7.858  1.00  0.00     0.274 HD
HETATM   15  H   UNL     1      66.307   9.311   6.344  1.00  0.00     0.274 HD
ENDBRANCH  11  12
ENDBRANCH   5  11
TORSDOF 2
ENDMDL
MODEL 4
REMARK VINA RESULT:      -4.6      3.026      5.591
REMARK  2 active torsions:
REMARK  status: ('A' for Active; 'I' for Inactive)
REMARK    1  A    between atoms: C_5  and  C_8 
REMARK    2  A    between atoms: N_7  and  C_8 
ROOT
HETATM    1  O   UNL     1      64.779   6.982   7.599  1.00  0.00    -0.339 OA
HETATM    2  O   UNL     1      66.188   5.658   5.430  1.00  0.00    -0.346 OA
HETATM    3  C   UNL     1      66.032   6.441   7.732  1.00  0.00     0.102 A 
HETATM    4  C   UNL     1      66.708   5.797   6.691  1.00  0.00     0.102 A 
HETATM    5  C   UNL     1      64.134   6.539   6.390  1.00  0.00     0.178 C 
HETATM    6  C   UNL     1      65.108   6.577   5.213  1.00  0.00     0.210 C 
HETATM    7  C   UNL     1      66.638   6.565   8.983  1.00  0.00     0.039 A 
HETATM    8  C   UNL     1      67.971   5.249   6.910  1.00  0.00     0.039 A 
HETATM    9  C   UNL     1      67.908   6.029   9.198  1.00  0.00     0.003 A 
HETATM   10  C   UNL     1      68.574   5.369   8.163  1.00  0.00     0.003 A 
ENDROOT
BRANCH   5  11
HETATM   11  C   UNL     1      62.896   7.422   6.148  1.00  0.00     0.264 C 
BRANCH  11  12
HETATM   12  N   UNL     1      63.223   8.825   5.874  1.00  0.00    -0.077 N 
HETATM   13  H   UNL     1      63.724   8.891   4.987  1.00  0.00     0.274 HD
HETATM   14  H   UNL     1      63.812   9.189   6.624  1.00  0.00     0.274 HD
HETATM   15  H   UNL     1      62.364   9.370   5.821  1.00  0.00     0.274 HD
ENDBRANCH  11  12
ENDBRANCH   5  11
TORSDOF 2
ENDMDL
MODEL 5
REMARK VINA RESULT:      -4.5      1.382      2.414
REMARK  2 active torsions:
REMARK  status: ('A' for Active; 'I' for Inactive)
REMARK    1  A    between atoms: C_5  and  C_8 
REMARK    2  A    between atoms: N_7  and  C_8 
ROOT
HETATM    1  O   UNL     1      64.490   7.029   3.969  1.00  0.00    -0.339 OA
HETATM    2  O   UNL     1      64.956   9.062   5.992  1.00  0.00    -0.346 OA
HETATM    3  C   UNL     1      63.748   8.178   4.069  1.00  0.00     0.102 A 
HETATM    4  C   UNL     1      63.966   9.154   5.046  1.00  0.00     0.102 A 
HETATM    5  C   UNL     1      65.284   6.804   5.150  1.00  0.00     0.178 C 
HETATM    6  C   UNL     1      65.949   8.101   5.609  1.00  0.00     0.210 C 
HETATM    7  C   UNL     1      62.738   8.355   3.123  1.00  0.00     0.039 A 
HETATM    8  C   UNL     1      63.154  10.285   5.099  1.00  0.00     0.039 A 
HETATM    9  C   UNL     1      61.933   9.494   3.168  1.00  0.00     0.003 A 
HETATM   10  C   UNL     1      62.139  10.458   4.157  1.00  0.00     0.003 A 
ENDROOT
BRANCH   5  11
HETATM   11  C   UNL     1      66.313   5.702   4.840  1.00  0.00     0.264 C 
BRANCH  11  12
HETATM   12  N   UNL     1      67.482   6.185   4.098  1.00  0.00    -0.077 N 
HETATM   13  H   UNL     1      67.967   5.394   3.673  1.00  0.00     0.274 HD
HETATM   14  H   UNL     1      68.114   6.668   4.736  1.00  0.00     0.274 HD
HETATM   15  H   UNL     1      67.178   6.829   3.368  1.00  0.00     0.274 HD
ENDBRANCH  11  12
ENDBRANCH   5  11
TORSDOF 2
ENDMDL
MODEL 6
REMARK VINA RESULT:      -4.4      2.090      3.054
REMARK  2 active torsions:
REMARK  status: ('A' for Active; 'I' for Inactive)
REMARK    1  A    between atoms: C_5  and  C_8 
REMARK    2  A    between atoms: N_7  and  C_8 
ROOT
HETATM    1  O   UNL     1      65.797   6.152   6.907  1.00  0.00    -0.339 OA
HETATM    2  O   UNL     1      66.602   8.463   5.342  1.00  0.00    -0.346 OA
HETATM    3  C   UNL     1      64.907   6.985   6.280  1.00  0.00     0.102 A 
HETATM    4  C   UNL     1      65.293   8.102   5.533  1.00  0.00     0.102 A 
HETATM    5  C   UNL     1      67.115   6.730   6.969  1.00  0.00     0.178 C 
HETATM    6  C   UNL     1      67.486   7.372   5.633  1.00  0.00     0.210 C 
HETATM    7  C   UNL     1      63.555   6.666   6.408  1.00  0.00     0.039 A 
HETATM    8  C   UNL     1      64.327   8.917   4.944  1.00  0.00     0.039 A 
HETATM    9  C   UNL     1      62.590   7.475   5.807  1.00  0.00     0.003 A 
HETATM   10  C   UNL     1      62.975   8.601   5.077  1.00  0.00     0.003 A 
ENDROOT
BRANCH   5  11
HETATM   11  C   UNL     1      68.111   5.629   7.380  1.00  0.00     0.264 C 
BRANCH  11  12
HETATM   12  N   UNL     1      68.946   5.997   8.528  1.00  0.00    -0.077 N 
HETATM   13  H   UNL     1      69.890   6.214   8.207  1.00  0.00     0.274 HD
HETATM   14  H   UNL     1      68.982   5.218   9.186  1.00  0.00     0.274 HD
HETATM   15  H   UNL     1      68.548   6.815   8.990  1.00  0.00     0.274 HD
ENDBRANCH  11  12
ENDBRANCH   5  11
TORSDOF 2
ENDMDL
MODEL 7
REMARK VINA RESULT:      -4.3      4.362      5.891
REMARK  2 active torsions:
REMARK  status: ('A' for Active; 'I' for Inactive)
REMARK    1  A    between atoms: C_5  and  C_8 
REMARK    2  A    between atoms: N_7  and  C_8 
ROOT
HETATM    1  O   UNL     1      68.188   4.398   7.191  1.00  0.00    -0.339 OA
HETATM    2  O   UNL     1      67.321   6.666   8.786  1.00  0.00    -0.346 OA
HETATM    3  C   UNL     1      67.645   5.536   6.652  1.00  0.00     0.102 A 
HETATM    4  C   UNL     1      67.221   6.625   7.419  1.00  0.00     0.102 A 
HETATM    5  C   UNL     1      67.979   4.331   8.615  1.00  0.00     0.178 C 
HETATM    6  C   UNL     1      68.252   5.686   9.265  1.00  0.00     0.210 C 
HETATM    7  C   UNL     1      67.533   5.578   5.262  1.00  0.00     0.039 A 
HETATM    8  C   UNL     1      66.654   7.738   6.800  1.00  0.00     0.039 A 
HETATM    9  C   UNL     1      66.979   6.698   4.642  1.00  0.00     0.003 A 
HETATM   10  C   UNL     1      66.537   7.777   5.410  1.00  0.00     0.003 A 
ENDROOT
BRANCH   5  11
HETATM   11  C   UNL     1      68.878   3.220   9.187  1.00  0.00     0.264 C 
BRANCH  11  12
HETATM   12  N   UNL     1      69.611   3.624  10.391  1.00  0.00    -0.077 N 
HETATM   13  H   UNL     1      68.988   3.586  11.198  1.00  0.00     0.274 HD
HETATM   14  H   UNL     1      69.958   4.576  10.275  1.00  0.00     0.274 HD
HETATM   15  H   UNL     1      70.397   2.991  10.539  1.00  0.00     0.274 HD
ENDBRANCH  11  12
ENDBRANCH   5  11
TORSDOF 2
ENDMDL
MODEL 8
REMARK VINA RESULT:      -4.3      2.332      4.885
REMARK  2 active torsions:
REMARK  status: ('A' for Active; 'I' for Inactive)
REMARK    1  A    between atoms: C_5  and  C_8 
REMARK    2  A    between atoms: N_7  and  C_8 
ROOT
HETATM    1  O   UNL     1      63.884   7.399   3.671  1.00  0.00    -0.339 OA
HETATM    2  O   UNL     1      64.920   9.296   5.613  1.00  0.00    -0.346 OA
HETATM    3  C   UNL     1      65.107   7.267   4.277  1.00  0.00     0.102 A 
HETATM    4  C   UNL     1      65.610   8.183   5.205  1.00  0.00     0.102 A 
HETATM    5  C   UNL     1      63.336   8.718   3.860  1.00  0.00     0.178 C 
HETATM    6  C   UNL     1      63.524   9.180   5.304  1.00  0.00     0.210 C 
HETATM    7  C   UNL     1      65.858   6.143   3.931  1.00  0.00     0.039 A 
HETATM    8  C   UNL     1      66.875   7.994   5.760  1.00  0.00     0.039 A 
HETATM    9  C   UNL     1      67.118   5.947   4.497  1.00  0.00     0.003 A 
HETATM   10  C   UNL     1      67.628   6.873   5.409  1.00  0.00     0.003 A 
ENDROOT
BRANCH   5  11
HETATM   11  C   UNL     1      61.853   8.693   3.446  1.00  0.00     0.264 C 
BRANCH  11  12
HETATM   12  N   UNL     1      61.259  10.028   3.322  1.00  0.00    -0.077 N 
HETATM   13  H   UNL     1      61.485  10.417   2.406  1.00  0.00     0.274 HD
HETATM   14  H   UNL     1      61.632  10.636   4.050  1.00  0.00     0.274 HD
HETATM   15  H   UNL     1      60.246   9.959   3.421  1.00  0.00     0.274 HD
ENDBRANCH  11  12
ENDBRANCH   5  11
TORSDOF 2
ENDMDL
MODEL 9
REMARK VINA RESULT:      -4.2     17.411     18.648
REMARK  2 active torsions:
REMARK  status: ('A' for Active; 'I' for Inactive)
REMARK    1  A    between atoms: C_5  and  C_8 
REMARK    2  A    between atoms: N_7  and  C_8 
ROOT
HETATM    1  O   UNL     1      77.079   1.624  17.355  1.00  0.00    -0.339 OA
HETATM    2  O   UNL     1      74.352   2.075  16.459  1.00  0.00    -0.346 OA
HETATM    3  C   UNL     1      76.424   0.793  16.483  1.00  0.00     0.102 A 
HETATM    4  C   UNL     1      75.110   1.004  16.056  1.00  0.00     0.102 A 
HETATM    5  C   UNL     1      76.171   2.532  18.007  1.00  0.00     0.178 C 
HETATM    6  C   UNL     1      75.176   3.114  17.004  1.00  0.00     0.210 C 
HETATM    7  C   UNL     1      77.141  -0.306  16.009  1.00  0.00     0.039 A 
HETATM    8  C   UNL     1      74.503   0.101  15.186  1.00  0.00     0.039 A 
HETATM    9  C   UNL     1      76.537  -1.203  15.127  1.00  0.00     0.003 A 
HETATM   10  C   UNL     1      75.218  -1.002  14.717  1.00  0.00     0.003 A 
ENDROOT
BRANCH   5  11
HETATM   11  C   UNL     1      76.997   3.627  18.707  1.00  0.00     0.264 C 
BRANCH  11  12
HETATM   12  N   UNL     1      77.767   3.134  19.854  1.00  0.00    -0.077 N 
HETATM   13  H   UNL     1      77.382   3.524  20.715  1.00  0.00     0.274 HD
HETATM   14  H   UNL     1      78.741   3.420  19.758  1.00  0.00     0.274 HD
HETATM   15  H   UNL     1      77.712   2.117  19.888  1.00  0.00     0.274 HD
ENDBRANCH  11  12
ENDBRANCH   5  11
TORSDOF 2
ENDMDL
