MODEL 1
REMARK VINA RESULT:      -5.9      0.000      0.000
REMARK  2 active torsions:
REMARK  status: ('A' for Active; 'I' for Inactive)
REMARK    1  A    between atoms: C_8  and  C_11 
REMARK    2  A    between atoms: N_10  and  C_11 
ROOT
HETATM    1  C   UNL     1      77.212   7.930  15.014  1.00  0.00     0.105 A 
HETATM    2  C   UNL     1      77.493   8.872  15.977  1.00  0.00     0.105 A 
HETATM    3  O   UNL     1      77.421   8.403  13.755  1.00  0.00    -0.323 OA
HETATM    4  O   UNL     1      77.923  10.047  15.447  1.00  0.00    -0.323 OA
HETATM    5  C   UNL     1      77.945   9.716  14.043  1.00  0.00     0.352 A 
HETATM    6  C   UNL     1      76.780   6.665  15.338  1.00  0.00     0.048 A 
HETATM    7  C   UNL     1      77.350   8.599  17.318  1.00  0.00     0.040 A 
HETATM    8  C   UNL     1      76.633   6.341  16.697  1.00  0.00    -0.030 A 
HETATM    9  C   UNL     1      76.921   7.321  17.678  1.00  0.00     0.012 A 
ENDROOT
BRANCH   8  10
HETATM   10  C   UNL     1      76.185   4.959  17.116  1.00  0.00     0.270 C 
BRANCH  10  11
HETATM   11  N   UNL     1      76.945   4.491  18.276  1.00  0.00    -0.075 N 
HETATM   12  C   UNL     1      76.948   3.040  18.346  1.00  0.00     0.267 C 
HETATM   13  H   UNL     1      76.522   4.865  19.124  1.00  0.00     0.277 HD
HETATM   14  H   UNL     1      77.909   4.813  18.184  1.00  0.00     0.277 HD
ENDBRANCH  10  11
ENDBRANCH   8  10
TORSDOF 2
ENDMDL
MODEL 2
REMARK VINA RESULT:      -5.3      3.109      4.889
REMARK  2 active torsions:
REMARK  status: ('A' for Active; 'I' for Inactive)
REMARK    1  A    between atoms: C_8  and  C_11 
REMARK    2  A    between atoms: N_10  and  C_11 
ROOT
HETATM    1  C   UNL     1      76.977   7.572  17.674  1.00  0.00     0.105 A 
HETATM    2  C   UNL     1      77.253   7.629  16.326  1.00  0.00     0.105 A 
HETATM    3  O   UNL     1      76.704   6.305  18.090  1.00  0.00    -0.323 OA
HETATM    4  O   UNL     1      77.197   6.409  15.731  1.00  0.00    -0.323 OA
HETATM    5  C   UNL     1      76.923   5.567  16.869  1.00  0.00     0.352 A 
HETATM    6  C   UNL     1      76.999   8.694  18.469  1.00  0.00     0.048 A 
HETATM    7  C   UNL     1      77.556   8.817  15.701  1.00  0.00     0.040 A 
HETATM    8  C   UNL     1      77.317   9.925  17.873  1.00  0.00    -0.030 A 
HETATM    9  C   UNL     1      77.593   9.972  16.485  1.00  0.00     0.012 A 
ENDROOT
BRANCH   8  10
HETATM   10  C   UNL     1      77.380  11.189  18.700  1.00  0.00     0.270 C 
BRANCH  10  11
HETATM   11  N   UNL     1      77.733  10.891  20.088  1.00  0.00    -0.075 N 
HETATM   12  C   UNL     1      77.255  11.931  20.983  1.00  0.00     0.267 C 
HETATM   13  H   UNL     1      78.747  10.823  20.167  1.00  0.00     0.277 HD
HETATM   14  H   UNL     1      77.293  10.009  20.352  1.00  0.00     0.277 HD
ENDBRANCH  10  11
ENDBRANCH   8  10
TORSDOF 2
ENDMDL
MODEL 3
REMARK VINA RESULT:      -4.9      4.195      6.375
REMARK  2 active torsions:
REMARK  status: ('A' for Active; 'I' for Inactive)
REMARK    1  A    between atoms: C_8  and  C_11 
REMARK    2  A    between atoms: N_10  and  C_11 
ROOT
HETATM    1  C   UNL     1      76.160   2.326  18.004  1.00  0.00     0.105 A 
HETATM    2  C   UNL     1      74.956   2.221  17.343  1.00  0.00     0.105 A 
HETATM    3  O   UNL     1      76.519   1.158  18.606  1.00  0.00    -0.323 OA
HETATM    4  O   UNL     1      74.416   0.978  17.437  1.00  0.00    -0.323 OA
HETATM    5  C   UNL     1      75.449   0.292  18.175  1.00  0.00     0.352 A 
HETATM    6  C   UNL     1      76.883   3.496  18.018  1.00  0.00     0.048 A 
HETATM    7  C   UNL     1      74.410   3.288  16.666  1.00  0.00     0.040 A 
HETATM    8  C   UNL     1      76.367   4.604  17.328  1.00  0.00    -0.030 A 
HETATM    9  C   UNL     1      75.126   4.486  16.656  1.00  0.00     0.012 A 
ENDROOT
BRANCH   8  10
HETATM   10  C   UNL     1      77.128   5.910  17.286  1.00  0.00     0.270 C 
BRANCH  10  11
HETATM   11  N   UNL     1      76.360   6.984  17.916  1.00  0.00    -0.075 N 
HETATM   12  C   UNL     1      77.075   8.248  17.845  1.00  0.00     0.267 C 
HETATM   13  H   UNL     1      76.197   6.748  18.894  1.00  0.00     0.277 HD
HETATM   14  H   UNL     1      75.474   7.085  17.420  1.00  0.00     0.277 HD
ENDBRANCH  10  11
ENDBRANCH   8  10
TORSDOF 2
ENDMDL
MODEL 4
REMARK VINA RESULT:      -4.8     19.503     20.394
REMARK  2 active torsions:
REMARK  status: ('A' for Active; 'I' for Inactive)
REMARK    1  A    between atoms: C_8  and  C_11 
REMARK    2  A    between atoms: N_10  and  C_11 
ROOT
HETATM    1  C   UNL     1      62.291  10.399   3.782  1.00  0.00     0.105 A 
HETATM    2  C   UNL     1      63.002   9.473   4.513  1.00  0.00     0.105 A 
HETATM    3  O   UNL     1      62.065  11.544   4.482  1.00  0.00    -0.323 OA
HETATM    4  O   UNL     1      63.318   9.923   5.756  1.00  0.00    -0.323 OA
HETATM    5  C   UNL     1      62.785  11.262   5.700  1.00  0.00     0.352 A 
HETATM    6  C   UNL     1      61.889  10.151   2.490  1.00  0.00     0.048 A 
HETATM    7  C   UNL     1      63.340   8.246   3.991  1.00  0.00     0.040 A 
HETATM    8  C   UNL     1      62.224   8.914   1.915  1.00  0.00    -0.030 A 
HETATM    9  C   UNL     1      62.951   7.969   2.680  1.00  0.00     0.012 A 
ENDROOT
BRANCH   8  10
HETATM   10  C   UNL     1      61.830   8.593   0.491  1.00  0.00     0.270 C 
BRANCH  10  11
HETATM   11  N   UNL     1      60.849   7.509   0.451  1.00  0.00    -0.075 N 
HETATM   12  C   UNL     1      59.495   8.026   0.563  1.00  0.00     0.267 C 
HETATM   13  H   UNL     1      61.026   6.870   1.225  1.00  0.00     0.277 HD
HETATM   14  H   UNL     1      60.937   7.024  -0.442  1.00  0.00     0.277 HD
ENDBRANCH  10  11
ENDBRANCH   8  10
TORSDOF 2
ENDMDL
MODEL 5
REMARK VINA RESULT:      -4.7     12.162     12.940
REMARK  2 active torsions:
REMARK  status: ('A' for Active; 'I' for Inactive)
REMARK    1  A    between atoms: C_8  and  C_11 
REMARK    2  A    between atoms: N_10  and  C_11 
ROOT
HETATM    1  C   UNL     1      66.716   5.495   7.124  1.00  0.00     0.105 A 
HETATM    2  C   UNL     1      66.188   6.369   8.048  1.00  0.00     0.105 A 
HETATM    3  O   UNL     1      65.977   5.446   5.982  1.00  0.00    -0.323 OA
HETATM    4  O   UNL     1      65.062   6.983   7.601  1.00  0.00    -0.323 OA
HETATM    5  C   UNL     1      64.978   6.448   6.264  1.00  0.00     0.352 A 
HETATM    6  C   UNL     1      67.868   4.784   7.370  1.00  0.00     0.048 A 
HETATM    7  C   UNL     1      66.782   6.570   9.273  1.00  0.00     0.040 A 
HETATM    8  C   UNL     1      68.513   4.970   8.604  1.00  0.00    -0.030 A 
HETATM    9  C   UNL     1      67.957   5.867   9.548  1.00  0.00     0.012 A 
ENDROOT
BRANCH   8  10
HETATM   10  C   UNL     1      69.794   4.234   8.923  1.00  0.00     0.270 C 
BRANCH  10  11
HETATM   11  N   UNL     1      69.751   3.665  10.270  1.00  0.00    -0.075 N 
HETATM   12  C   UNL     1      69.337   2.272  10.234  1.00  0.00     0.267 C 
HETATM   13  H   UNL     1      69.088   4.195  10.834  1.00  0.00     0.277 HD
HETATM   14  H   UNL     1      70.686   3.714  10.674  1.00  0.00     0.277 HD
ENDBRANCH  10  11
ENDBRANCH   8  10
TORSDOF 2
ENDMDL
MODEL 6
REMARK VINA RESULT:      -4.6     11.704     12.981
REMARK  2 active torsions:
REMARK  status: ('A' for Active; 'I' for Inactive)
REMARK    1  A    between atoms: C_8  and  C_11 
REMARK    2  A    between atoms: N_10  and  C_11 
ROOT
HETATM    1  C   UNL     1      67.872   3.088   9.108  1.00  0.00     0.105 A 
HETATM    2  C   UNL     1      69.103   3.164   9.721  1.00  0.00     0.105 A 
HETATM    3  O   UNL     1      67.152   2.013   9.533  1.00  0.00    -0.323 OA
HETATM    4  O   UNL     1      69.305   2.157  10.611  1.00  0.00    -0.323 OA
HETATM    5  C   UNL     1      68.035   1.477  10.539  1.00  0.00     0.352 A 
HETATM    6  C   UNL     1      67.460   4.021   8.186  1.00  0.00     0.048 A 
HETATM    7  C   UNL     1      69.990   4.177   9.436  1.00  0.00     0.040 A 
HETATM    8  C   UNL     1      68.330   5.079   7.876  1.00  0.00    -0.030 A 
HETATM    9  C   UNL     1      69.595   5.143   8.510  1.00  0.00     0.012 A 
ENDROOT
BRANCH   8  10
HETATM   10  C   UNL     1      67.923   6.149   6.889  1.00  0.00     0.270 C 
BRANCH  10  11
HETATM   11  N   UNL     1      67.253   7.260   7.566  1.00  0.00    -0.075 N 
HETATM   12  C   UNL     1      66.668   8.179   6.605  1.00  0.00     0.267 C 
HETATM   13  H   UNL     1      67.933   7.761   8.135  1.00  0.00     0.277 HD
HETATM   14  H   UNL     1      66.506   6.882   8.149  1.00  0.00     0.277 HD
ENDBRANCH  10  11
ENDBRANCH   8  10
TORSDOF 2
ENDMDL
MODEL 7
REMARK VINA RESULT:      -4.6      3.515      5.283
REMARK  2 active torsions:
REMARK  status: ('A' for Active; 'I' for Inactive)
REMARK    1  A    between atoms: C_8  and  C_11 
REMARK    2  A    between atoms: N_10  and  C_11 
ROOT
HETATM    1  C   UNL     1      76.710   3.895  17.865  1.00  0.00     0.105 A 
HETATM    2  C   UNL     1      75.574   3.895  17.087  1.00  0.00     0.105 A 
HETATM    3  O   UNL     1      77.169   5.154  18.105  1.00  0.00    -0.323 OA
HETATM    4  O   UNL     1      75.173   5.149  16.750  1.00  0.00    -0.323 OA
HETATM    5  C   UNL     1      76.147   5.942  17.461  1.00  0.00     0.352 A 
HETATM    6  C   UNL     1      77.272   2.730  18.331  1.00  0.00     0.048 A 
HETATM    7  C   UNL     1      74.945   2.725  16.728  1.00  0.00     0.040 A 
HETATM    8  C   UNL     1      76.654   1.514  17.998  1.00  0.00    -0.030 A 
HETATM    9  C   UNL     1      75.489   1.527  17.193  1.00  0.00     0.012 A 
ENDROOT
BRANCH   8  10
HETATM   10  C   UNL     1      77.211   0.201  18.501  1.00  0.00     0.270 C 
BRANCH  10  11
HETATM   11  N   UNL     1      77.710   0.334  19.870  1.00  0.00    -0.075 N 
HETATM   12  C   UNL     1      79.128   0.026  19.941  1.00  0.00     0.267 C 
HETATM   13  H   UNL     1      77.199  -0.309  20.474  1.00  0.00     0.277 HD
HETATM   14  H   UNL     1      77.571   1.297  20.174  1.00  0.00     0.277 HD
ENDBRANCH  10  11
ENDBRANCH   8  10
TORSDOF 2
ENDMDL
MODEL 8
REMARK VINA RESULT:      -4.4     18.377     19.084
REMARK  2 active torsions:
REMARK  status: ('A' for Active; 'I' for Inactive)
REMARK    1  A    between atoms: C_8  and  C_11 
REMARK    2  A    between atoms: N_10  and  C_11 
ROOT
HETATM    1  C   UNL     1      62.259   9.821   2.819  1.00  0.00     0.105 A 
HETATM    2  C   UNL     1      62.328  10.691   3.884  1.00  0.00     0.105 A 
HETATM    3  O   UNL     1      61.791  10.424   1.692  1.00  0.00    -0.323 OA
HETATM    4  O   UNL     1      61.924  11.947   3.558  1.00  0.00    -0.323 OA
HETATM    5  C   UNL     1      61.657  11.785   2.149  1.00  0.00     0.352 A 
HETATM    6  C   UNL     1      62.640   8.504   2.930  1.00  0.00     0.048 A 
HETATM    7  C   UNL     1      62.776  10.285   5.121  1.00  0.00     0.040 A 
HETATM    8  C   UNL     1      63.116   8.052   4.172  1.00  0.00    -0.030 A 
HETATM    9  C   UNL     1      63.177   8.956   5.261  1.00  0.00     0.012 A 
ENDROOT
BRANCH   8  10
HETATM   10  C   UNL     1      63.572   6.622   4.349  1.00  0.00     0.270 C 
BRANCH  10  11
HETATM   11  N   UNL     1      62.992   6.033   5.557  1.00  0.00    -0.075 N 
HETATM   12  C   UNL     1      64.020   5.427   6.386  1.00  0.00     0.267 C 
HETATM   13  H   UNL     1      62.318   5.318   5.287  1.00  0.00     0.277 HD
HETATM   14  H   UNL     1      62.537   6.771   6.092  1.00  0.00     0.277 HD
ENDBRANCH  10  11
ENDBRANCH   8  10
TORSDOF 2
ENDMDL
MODEL 9
REMARK VINA RESULT:      -4.4     12.717     13.836
REMARK  2 active torsions:
REMARK  status: ('A' for Active; 'I' for Inactive)
REMARK    1  A    between atoms: C_8  and  C_11 
REMARK    2  A    between atoms: N_10  and  C_11 
ROOT
HETATM    1  C   UNL     1      68.427   4.732   7.628  1.00  0.00     0.105 A 
HETATM    2  C   UNL     1      68.261   5.190   8.916  1.00  0.00     0.105 A 
HETATM    3  O   UNL     1      69.222   3.628   7.574  1.00  0.00    -0.323 OA
HETATM    4  O   UNL     1      68.920   4.429   9.829  1.00  0.00    -0.323 OA
HETATM    5  C   UNL     1      69.464   3.399   8.977  1.00  0.00     0.352 A 
HETATM    6  C   UNL     1      67.828   5.348   6.554  1.00  0.00     0.048 A 
HETATM    7  C   UNL     1      67.492   6.296   9.196  1.00  0.00     0.040 A 
HETATM    8  C   UNL     1      67.024   6.473   6.797  1.00  0.00    -0.030 A 
HETATM    9  C   UNL     1      66.865   6.938   8.126  1.00  0.00     0.012 A 
ENDROOT
BRANCH   8  10
HETATM   10  C   UNL     1      66.320   7.179   5.660  1.00  0.00     0.270 C 
BRANCH  10  11
HETATM   11  N   UNL     1      65.480   8.267   6.159  1.00  0.00    -0.075 N 
HETATM   12  C   UNL     1      64.551   8.719   5.137  1.00  0.00     0.267 C 
HETATM   13  H   UNL     1      66.075   9.047   6.436  1.00  0.00     0.277 HD
HETATM   14  H   UNL     1      64.943   7.925   6.955  1.00  0.00     0.277 HD
ENDBRANCH  10  11
ENDBRANCH   8  10
TORSDOF 2
ENDMDL
