MODEL 1
REMARK VINA RESULT:      -5.7      0.000      0.000
REMARK  2 active torsions:
REMARK  status: ('A' for Active; 'I' for Inactive)
REMARK    1  A    between atoms: C_5  and  C_9 
REMARK    2  A    between atoms: O_7  and  C_9 
ROOT
HETATM    1  O   UNL     1      76.861   6.591  18.091  1.00  0.00    -0.339 OA
HETATM    2  O   UNL     1      77.182   7.002  15.236  1.00  0.00    -0.346 OA
HETATM    3  C   UNL     1      77.116   7.817  17.531  1.00  0.00     0.102 A 
HETATM    4  C   UNL     1      77.279   8.014  16.156  1.00  0.00     0.102 A 
HETATM    5  C   UNL     1      77.119   5.520  17.162  1.00  0.00     0.176 C 
HETATM    6  C   UNL     1      76.529   5.855  15.795  1.00  0.00     0.210 C 
HETATM    7  C   UNL     1      77.200   8.901  18.405  1.00  0.00     0.039 A 
HETATM    8  C   UNL     1      77.563   9.286  15.661  1.00  0.00     0.039 A 
HETATM    9  C   UNL     1      77.468  10.177  17.906  1.00  0.00     0.003 A 
HETATM   10  C   UNL     1      77.654  10.369  16.535  1.00  0.00     0.003 A 
ENDROOT
BRANCH   5  11
HETATM   11  C   UNL     1      76.509   4.244  17.743  1.00  0.00     0.198 C 
BRANCH  11  12
HETATM   12  O   UNL     1      76.800   4.114  19.134  1.00  0.00    -0.398 OA
HETATM   13  H   UNL     1      77.758   4.025  19.257  1.00  0.00     0.209 HD
ENDBRANCH  11  12
ENDBRANCH   5  11
TORSDOF 2
ENDMDL
MODEL 2
REMARK VINA RESULT:      -5.6      3.401      5.167
REMARK  2 active torsions:
REMARK  status: ('A' for Active; 'I' for Inactive)
REMARK    1  A    between atoms: C_5  and  C_9 
REMARK    2  A    between atoms: O_7  and  C_9 
ROOT
HETATM    1  O   UNL     1      77.099  11.240  17.265  1.00  0.00    -0.339 OA
HETATM    2  O   UNL     1      78.286   9.929  19.567  1.00  0.00    -0.346 OA
HETATM    3  C   UNL     1      77.078  11.773  18.529  1.00  0.00     0.102 A 
HETATM    4  C   UNL     1      77.643  11.139  19.640  1.00  0.00     0.102 A 
HETATM    5  C   UNL     1      77.450   9.842  17.286  1.00  0.00     0.176 C 
HETATM    6  C   UNL     1      78.638   9.611  18.215  1.00  0.00     0.210 C 
HETATM    7  C   UNL     1      76.465  13.018  18.674  1.00  0.00     0.039 A 
HETATM    8  C   UNL     1      77.560  11.729  20.899  1.00  0.00     0.039 A 
HETATM    9  C   UNL     1      76.397  13.616  19.933  1.00  0.00     0.003 A 
HETATM   10  C   UNL     1      76.940  12.971  21.047  1.00  0.00     0.003 A 
ENDROOT
BRANCH   5  11
HETATM   11  C   UNL     1      77.765   9.421  15.850  1.00  0.00     0.198 C 
BRANCH  11  12
HETATM   12  O   UNL     1      78.050  10.550  15.027  1.00  0.00    -0.398 OA
HETATM   13  H   UNL     1      77.301  11.166  15.050  1.00  0.00     0.209 HD
ENDBRANCH  11  12
ENDBRANCH   5  11
TORSDOF 2
ENDMDL
MODEL 3
REMARK VINA RESULT:      -5.4      2.286      4.407
REMARK  2 active torsions:
REMARK  status: ('A' for Active; 'I' for Inactive)
REMARK    1  A    between atoms: C_5  and  C_9 
REMARK    2  A    between atoms: O_7  and  C_9 
ROOT
HETATM    1  O   UNL     1      78.237  10.253  17.183  1.00  0.00    -0.339 OA
HETATM    2  O   UNL     1      77.109   7.711  18.013  1.00  0.00    -0.346 OA
HETATM    3  C   UNL     1      77.838   9.282  16.300  1.00  0.00     0.102 A 
HETATM    4  C   UNL     1      77.302   8.054  16.699  1.00  0.00     0.102 A 
HETATM    5  C   UNL     1      78.357   9.734  18.523  1.00  0.00     0.176 C 
HETATM    6  C   UNL     1      77.148   8.866  18.861  1.00  0.00     0.210 C 
HETATM    7  C   UNL     1      77.979   9.574  14.943  1.00  0.00     0.039 A 
HETATM    8  C   UNL     1      76.943   7.104  15.744  1.00  0.00     0.039 A 
HETATM    9  C   UNL     1      77.604   8.628  13.987  1.00  0.00     0.003 A 
HETATM   10  C   UNL     1      77.091   7.392  14.387  1.00  0.00     0.003 A 
ENDROOT
BRANCH   5  11
HETATM   11  C   UNL     1      78.480  10.926  19.473  1.00  0.00     0.198 C 
BRANCH  11  12
HETATM   12  O   UNL     1      77.641  12.005  19.068  1.00  0.00    -0.398 OA
HETATM   13  H   UNL     1      77.163  12.351  19.838  1.00  0.00     0.209 HD
ENDBRANCH  11  12
ENDBRANCH   5  11
TORSDOF 2
ENDMDL
MODEL 4
REMARK VINA RESULT:      -5.1      4.689      6.754
REMARK  2 active torsions:
REMARK  status: ('A' for Active; 'I' for Inactive)
REMARK    1  A    between atoms: C_5  and  C_9 
REMARK    2  A    between atoms: O_7  and  C_9 
ROOT
HETATM    1  O   UNL     1      79.938  11.345  20.868  1.00  0.00    -0.339 OA
HETATM    2  O   UNL     1      77.351  12.623  20.549  1.00  0.00    -0.346 OA
HETATM    3  C   UNL     1      79.032  10.981  19.905  1.00  0.00     0.102 A 
HETATM    4  C   UNL     1      77.782  11.590  19.755  1.00  0.00     0.102 A 
HETATM    5  C   UNL     1      79.327  12.162  21.887  1.00  0.00     0.176 C 
HETATM    6  C   UNL     1      78.445  13.230  21.248  1.00  0.00     0.210 C 
HETATM    7  C   UNL     1      79.415   9.955  19.041  1.00  0.00     0.039 A 
HETATM    8  C   UNL     1      76.902  11.149  18.769  1.00  0.00     0.039 A 
HETATM    9  C   UNL     1      78.539   9.524  18.043  1.00  0.00     0.003 A 
HETATM   10  C   UNL     1      77.281  10.117  17.910  1.00  0.00     0.003 A 
ENDROOT
BRANCH   5  11
HETATM   11  C   UNL     1      80.451  12.781  22.720  1.00  0.00     0.198 C 
BRANCH  11  12
HETATM   12  O   UNL     1      81.703  12.711  22.041  1.00  0.00    -0.398 OA
HETATM   13  H   UNL     1      82.032  11.798  22.063  1.00  0.00     0.209 HD
ENDBRANCH  11  12
ENDBRANCH   5  11
TORSDOF 2
ENDMDL
MODEL 5
REMARK VINA RESULT:      -5.1     18.863     20.216
REMARK  2 active torsions:
REMARK  status: ('A' for Active; 'I' for Inactive)
REMARK    1  A    between atoms: C_5  and  C_9 
REMARK    2  A    between atoms: O_7  and  C_9 
ROOT
HETATM    1  O   UNL     1      62.442  10.459   3.778  1.00  0.00    -0.339 OA
HETATM    2  O   UNL     1      63.438   7.789   4.330  1.00  0.00    -0.346 OA
HETATM    3  C   UNL     1      62.414   9.440   2.860  1.00  0.00     0.102 A 
HETATM    4  C   UNL     1      62.901   8.156   3.122  1.00  0.00     0.102 A 
HETATM    5  C   UNL     1      63.318  10.153   4.881  1.00  0.00     0.176 C 
HETATM    6  C   UNL     1      63.085   8.723   5.359  1.00  0.00     0.210 C 
HETATM    7  C   UNL     1      61.855   9.733   1.616  1.00  0.00     0.039 A 
HETATM    8  C   UNL     1      62.864   7.178   2.130  1.00  0.00     0.039 A 
HETATM    9  C   UNL     1      61.803   8.748   0.628  1.00  0.00     0.003 A 
HETATM   10  C   UNL     1      62.311   7.472   0.883  1.00  0.00     0.003 A 
ENDROOT
BRANCH   5  11
HETATM   11  C   UNL     1      63.041  11.171   5.990  1.00  0.00     0.198 C 
BRANCH  11  12
HETATM   12  O   UNL     1      64.253  11.676   6.547  1.00  0.00    -0.398 OA
HETATM   13  H   UNL     1      64.601  12.382   5.980  1.00  0.00     0.209 HD
ENDBRANCH  11  12
ENDBRANCH   5  11
TORSDOF 2
ENDMDL
MODEL 6
REMARK VINA RESULT:      -5.1     16.400     17.855
REMARK  2 active torsions:
REMARK  status: ('A' for Active; 'I' for Inactive)
REMARK    1  A    between atoms: C_5  and  C_9 
REMARK    2  A    between atoms: O_7  and  C_9 
ROOT
HETATM    1  O   UNL     1      64.983   9.340   5.536  1.00  0.00    -0.339 OA
HETATM    2  O   UNL     1      63.392   7.751   3.700  1.00  0.00    -0.346 OA
HETATM    3  C   UNL     1      65.433   8.178   4.962  1.00  0.00     0.102 A 
HETATM    4  C   UNL     1      64.664   7.408   4.083  1.00  0.00     0.102 A 
HETATM    5  C   UNL     1      63.555   9.478   5.403  1.00  0.00     0.176 C 
HETATM    6  C   UNL     1      63.121   9.130   3.982  1.00  0.00     0.210 C 
HETATM    7  C   UNL     1      66.731   7.782   5.283  1.00  0.00     0.039 A 
HETATM    8  C   UNL     1      65.178   6.224   3.559  1.00  0.00     0.039 A 
HETATM    9  C   UNL     1      67.251   6.603   4.745  1.00  0.00     0.003 A 
HETATM   10  C   UNL     1      66.474   5.822   3.887  1.00  0.00     0.003 A 
ENDROOT
BRANCH   5  11
HETATM   11  C   UNL     1      63.192  10.919   5.767  1.00  0.00     0.198 C 
BRANCH  11  12
HETATM   12  O   UNL     1      64.268  11.574   6.436  1.00  0.00    -0.398 OA
HETATM   13  H   UNL     1      64.722  12.166   5.815  1.00  0.00     0.209 HD
ENDBRANCH  11  12
ENDBRANCH   5  11
TORSDOF 2
ENDMDL
MODEL 7
REMARK VINA RESULT:      -5.0     16.873     18.005
REMARK  2 active torsions:
REMARK  status: ('A' for Active; 'I' for Inactive)
REMARK    1  A    between atoms: C_5  and  C_9 
REMARK    2  A    between atoms: O_7  and  C_9 
ROOT
HETATM    1  O   UNL     1      64.921   9.135   5.884  1.00  0.00    -0.339 OA
HETATM    2  O   UNL     1      64.232   7.345   3.705  1.00  0.00    -0.346 OA
HETATM    3  C   UNL     1      63.906   9.386   4.996  1.00  0.00     0.102 A 
HETATM    4  C   UNL     1      63.579   8.528   3.941  1.00  0.00     0.102 A 
HETATM    5  C   UNL     1      65.798   8.096   5.406  1.00  0.00     0.176 C 
HETATM    6  C   UNL     1      64.983   6.930   4.854  1.00  0.00     0.210 C 
HETATM    7  C   UNL     1      63.178  10.559   5.192  1.00  0.00     0.039 A 
HETATM    8  C   UNL     1      62.551   8.862   3.061  1.00  0.00     0.039 A 
HETATM    9  C   UNL     1      62.137  10.885   4.319  1.00  0.00     0.003 A 
HETATM   10  C   UNL     1      61.827  10.040   3.252  1.00  0.00     0.003 A 
ENDROOT
BRANCH   5  11
HETATM   11  C   UNL     1      66.684   7.662   6.575  1.00  0.00     0.198 C 
BRANCH  11  12
HETATM   12  O   UNL     1      67.049   8.773   7.392  1.00  0.00    -0.398 OA
HETATM   13  H   UNL     1      66.299   9.022   7.955  1.00  0.00     0.209 HD
ENDBRANCH  11  12
ENDBRANCH   5  11
TORSDOF 2
ENDMDL
MODEL 8
REMARK VINA RESULT:      -5.0     14.036     15.453
REMARK  2 active torsions:
REMARK  status: ('A' for Active; 'I' for Inactive)
REMARK    1  A    between atoms: C_5  and  C_9 
REMARK    2  A    between atoms: O_7  and  C_9 
ROOT
HETATM    1  O   UNL     1      64.734   6.983   7.546  1.00  0.00    -0.339 OA
HETATM    2  O   UNL     1      66.427   6.071   5.371  1.00  0.00    -0.346 OA
HETATM    3  C   UNL     1      66.005   6.500   7.732  1.00  0.00     0.102 A 
HETATM    4  C   UNL     1      66.818   6.054   6.686  1.00  0.00     0.102 A 
HETATM    5  C   UNL     1      64.232   6.657   6.234  1.00  0.00     0.176 C 
HETATM    6  C   UNL     1      65.298   6.933   5.178  1.00  0.00     0.210 C 
HETATM    7  C   UNL     1      66.482   6.480   9.042  1.00  0.00     0.039 A 
HETATM    8  C   UNL     1      68.090   5.552   6.954  1.00  0.00     0.039 A 
HETATM    9  C   UNL     1      67.762   5.992   9.309  1.00  0.00     0.003 A 
HETATM   10  C   UNL     1      68.565   5.524   8.266  1.00  0.00     0.003 A 
ENDROOT
BRANCH   5  11
HETATM   11  C   UNL     1      62.974   7.495   5.999  1.00  0.00     0.198 C 
BRANCH  11  12
HETATM   12  O   UNL     1      62.481   8.049   7.217  1.00  0.00    -0.398 OA
HETATM   13  H   UNL     1      61.538   8.259   7.120  1.00  0.00     0.209 HD
ENDBRANCH  11  12
ENDBRANCH   5  11
TORSDOF 2
ENDMDL
MODEL 9
REMARK VINA RESULT:      -4.8      5.265      7.134
REMARK  2 active torsions:
REMARK  status: ('A' for Active; 'I' for Inactive)
REMARK    1  A    between atoms: C_5  and  C_9 
REMARK    2  A    between atoms: O_7  and  C_9 
ROOT
HETATM    1  O   UNL     1      78.673  13.128  21.837  1.00  0.00    -0.339 OA
HETATM    2  O   UNL     1      79.345  11.122  19.849  1.00  0.00    -0.346 OA
HETATM    3  C   UNL     1      77.848  12.797  20.792  1.00  0.00     0.102 A 
HETATM    4  C   UNL     1      78.174  11.837  19.830  1.00  0.00     0.102 A 
HETATM    5  C   UNL     1      80.012  12.636  21.630  1.00  0.00     0.176 C 
HETATM    6  C   UNL     1      79.973  11.193  21.136  1.00  0.00     0.210 C 
HETATM    7  C   UNL     1      76.625  13.465  20.724  1.00  0.00     0.039 A 
HETATM    8  C   UNL     1      77.296  11.572  18.780  1.00  0.00     0.039 A 
HETATM    9  C   UNL     1      75.739  13.188  19.681  1.00  0.00     0.003 A 
HETATM   10  C   UNL     1      76.076  12.245  18.707  1.00  0.00     0.003 A 
ENDROOT
BRANCH   5  11
HETATM   11  C   UNL     1      80.762  12.758  22.958  1.00  0.00     0.198 C 
BRANCH  11  12
HETATM   12  O   UNL     1      82.121  12.346  22.828  1.00  0.00    -0.398 OA
HETATM   13  H   UNL     1      82.181  11.628  22.179  1.00  0.00     0.209 HD
ENDBRANCH  11  12
ENDBRANCH   5  11
TORSDOF 2
ENDMDL
