MODEL 1
REMARK VINA RESULT:      -5.5      0.000      0.000
REMARK  2 active torsions:
REMARK  status: ('A' for Active; 'I' for Inactive)
REMARK    1  A    between atoms: C_2  and  C_6 
REMARK    2  A    between atoms: C_6  and  O_7 
ROOT
HETATM    1  C   UNL     1      63.596   9.193   4.829  1.00  0.00     0.110 A 
HETATM    2  C   UNL     1      62.917  10.414   4.952  1.00  0.00     0.001 A 
HETATM    3  C   UNL     1      63.410   8.393   3.692  1.00  0.00     0.102 A 
HETATM    4  O   UNL     1      64.427   8.822   5.859  1.00  0.00    -0.346 OA
HETATM    5  O   UNL     1      64.021   7.177   3.513  1.00  0.00    -0.346 OA
HETATM    6  C   UNL     1      62.070  10.822   3.906  1.00  0.00     0.012 A 
HETATM    7  C   UNL     1      61.904  10.033   2.767  1.00  0.00     0.003 A 
HETATM    8  C   UNL     1      62.577   8.819   2.659  1.00  0.00     0.040 A 
HETATM    9  C   UNL     1      65.312   7.764   5.478  1.00  0.00     0.202 C 
HETATM   10  C   UNL     1      64.559   6.674   4.739  1.00  0.00     0.202 C 
ENDROOT
BRANCH   2  11
HETATM   11  C   UNL     1      63.063  11.296   6.163  1.00  0.00     0.205 C 
BRANCH  11  12
HETATM   12  O   UNL     1      64.440  11.558   6.416  1.00  0.00    -0.396 OA
HETATM   13  H   UNL     1      64.560  12.502   6.606  1.00  0.00     0.209 HD
ENDBRANCH  11  12
ENDBRANCH   2  11
TORSDOF 2
ENDMDL
MODEL 2
REMARK VINA RESULT:      -5.1     16.402     18.748
REMARK  2 active torsions:
REMARK  status: ('A' for Active; 'I' for Inactive)
REMARK    1  A    between atoms: C_2  and  C_6 
REMARK    2  A    between atoms: C_6  and  O_7 
ROOT
HETATM    1  C   UNL     1      71.000  23.256  13.386  1.00  0.00     0.110 A 
HETATM    2  C   UNL     1      70.496  24.168  14.325  1.00  0.00     0.001 A 
HETATM    3  C   UNL     1      72.383  23.155  13.172  1.00  0.00     0.102 A 
HETATM    4  O   UNL     1      70.093  22.489  12.696  1.00  0.00    -0.346 OA
HETATM    5  O   UNL     1      72.948  22.303  12.256  1.00  0.00    -0.346 OA
HETATM    6  C   UNL     1      71.405  24.957  15.053  1.00  0.00     0.012 A 
HETATM    7  C   UNL     1      72.781  24.838  14.852  1.00  0.00     0.003 A 
HETATM    8  C   UNL     1      73.270  23.934  13.913  1.00  0.00     0.040 A 
HETATM    9  C   UNL     1      70.718  21.377  12.045  1.00  0.00     0.202 C 
HETATM   10  C   UNL     1      71.978  21.817  11.323  1.00  0.00     0.202 C 
ENDROOT
BRANCH   2  11
HETATM   11  C   UNL     1      69.020  24.332  14.573  1.00  0.00     0.205 C 
BRANCH  11  12
HETATM   12  O   UNL     1      68.776  25.521  15.318  1.00  0.00    -0.396 OA
HETATM   13  H   UNL     1      68.839  26.290  14.730  1.00  0.00     0.209 HD
ENDBRANCH  11  12
ENDBRANCH   2  11
TORSDOF 2
ENDMDL
MODEL 3
REMARK VINA RESULT:      -5.0     17.195     18.874
REMARK  2 active torsions:
REMARK  status: ('A' for Active; 'I' for Inactive)
REMARK    1  A    between atoms: C_2  and  C_6 
REMARK    2  A    between atoms: C_6  and  O_7 
ROOT
HETATM    1  C   UNL     1      71.683  23.288  14.415  1.00  0.00     0.110 A 
HETATM    2  C   UNL     1      70.350  23.615  14.122  1.00  0.00     0.001 A 
HETATM    3  C   UNL     1      72.390  22.401  13.589  1.00  0.00     0.102 A 
HETATM    4  O   UNL     1      72.246  23.861  15.529  1.00  0.00    -0.346 OA
HETATM    5  O   UNL     1      73.687  22.018  13.825  1.00  0.00    -0.346 OA
HETATM    6  C   UNL     1      69.754  23.051  12.979  1.00  0.00     0.012 A 
HETATM    7  C   UNL     1      70.468  22.186  12.149  1.00  0.00     0.003 A 
HETATM    8  C   UNL     1      71.788  21.863  12.453  1.00  0.00     0.040 A 
HETATM    9  C   UNL     1      73.673  23.740  15.529  1.00  0.00     0.202 C 
HETATM   10  C   UNL     1      74.092  22.329  15.160  1.00  0.00     0.202 C 
ENDROOT
BRANCH   2  11
HETATM   11  C   UNL     1      69.541  24.542  14.990  1.00  0.00     0.205 C 
BRANCH  11  12
HETATM   12  O   UNL     1      70.255  25.754  15.211  1.00  0.00    -0.396 OA
HETATM   13  H   UNL     1      71.080  25.562  15.684  1.00  0.00     0.209 HD
ENDBRANCH  11  12
ENDBRANCH   2  11
TORSDOF 2
ENDMDL
MODEL 4
REMARK VINA RESULT:      -4.9     15.986     18.293
REMARK  2 active torsions:
REMARK  status: ('A' for Active; 'I' for Inactive)
REMARK    1  A    between atoms: C_2  and  C_6 
REMARK    2  A    between atoms: C_6  and  O_7 
ROOT
HETATM    1  C   UNL     1      71.782  22.742  13.447  1.00  0.00     0.110 A 
HETATM    2  C   UNL     1      72.082  23.367  14.666  1.00  0.00     0.001 A 
HETATM    3  C   UNL     1      70.500  22.860  12.890  1.00  0.00     0.102 A 
HETATM    4  O   UNL     1      72.781  22.017  12.843  1.00  0.00    -0.346 OA
HETATM    5  O   UNL     1      70.127  22.258  11.714  1.00  0.00    -0.346 OA
HETATM    6  C   UNL     1      71.080  24.125  15.299  1.00  0.00     0.012 A 
HETATM    7  C   UNL     1      69.812  24.256  14.731  1.00  0.00     0.003 A 
HETATM    8  C   UNL     1      69.523  23.626  13.523  1.00  0.00     0.040 A 
HETATM    9  C   UNL     1      72.479  21.730  11.473  1.00  0.00     0.202 C 
HETATM   10  C   UNL     1      71.052  21.237  11.330  1.00  0.00     0.202 C 
ENDROOT
BRANCH   2  11
HETATM   11  C   UNL     1      73.434  23.250  15.317  1.00  0.00     0.205 C 
BRANCH  11  12
HETATM   12  O   UNL     1      73.636  21.924  15.796  1.00  0.00    -0.396 OA
HETATM   13  H   UNL     1      74.563  21.671  15.666  1.00  0.00     0.209 HD
ENDBRANCH  11  12
ENDBRANCH   2  11
TORSDOF 2
ENDMDL
MODEL 5
REMARK VINA RESULT:      -4.5      1.646      3.601
REMARK  2 active torsions:
REMARK  status: ('A' for Active; 'I' for Inactive)
REMARK    1  A    between atoms: C_2  and  C_6 
REMARK    2  A    between atoms: C_6  and  O_7 
ROOT
HETATM    1  C   UNL     1      62.605   8.905   3.177  1.00  0.00     0.110 A 
HETATM    2  C   UNL     1      62.205   9.486   1.964  1.00  0.00     0.001 A 
HETATM    3  C   UNL     1      62.643   9.673   4.350  1.00  0.00     0.102 A 
HETATM    4  O   UNL     1      62.957   7.577   3.158  1.00  0.00    -0.346 OA
HETATM    5  O   UNL     1      63.045   9.180   5.566  1.00  0.00    -0.346 OA
HETATM    6  C   UNL     1      61.827  10.841   1.959  1.00  0.00     0.012 A 
HETATM    7  C   UNL     1      61.847  11.597   3.133  1.00  0.00     0.003 A 
HETATM    8  C   UNL     1      62.252  11.011   4.329  1.00  0.00     0.040 A 
HETATM    9  C   UNL     1      63.003   7.017   4.475  1.00  0.00     0.202 C 
HETATM   10  C   UNL     1      63.743   7.940   5.425  1.00  0.00     0.202 C 
ENDROOT
BRANCH   2  11
HETATM   11  C   UNL     1      62.171   8.711   0.675  1.00  0.00     0.205 C 
BRANCH  11  12
HETATM   12  O   UNL     1      61.268   7.614   0.785  1.00  0.00    -0.396 OA
HETATM   13  H   UNL     1      61.230   7.141  -0.061  1.00  0.00     0.209 HD
ENDBRANCH  11  12
ENDBRANCH   2  11
TORSDOF 2
ENDMDL
MODEL 6
REMARK VINA RESULT:      -4.5      6.304      8.969
REMARK  2 active torsions:
REMARK  status: ('A' for Active; 'I' for Inactive)
REMARK    1  A    between atoms: C_2  and  C_6 
REMARK    2  A    between atoms: C_6  and  O_7 
ROOT
HETATM    1  C   UNL     1      67.676   4.043   8.715  1.00  0.00     0.110 A 
HETATM    2  C   UNL     1      68.410   3.057   9.390  1.00  0.00     0.001 A 
HETATM    3  C   UNL     1      68.299   5.233   8.308  1.00  0.00     0.102 A 
HETATM    4  O   UNL     1      66.344   3.797   8.485  1.00  0.00    -0.346 OA
HETATM    5  O   UNL     1      67.641   6.251   7.665  1.00  0.00    -0.346 OA
HETATM    6  C   UNL     1      69.779   3.280   9.627  1.00  0.00     0.012 A 
HETATM    7  C   UNL     1      70.399   4.455   9.202  1.00  0.00     0.003 A 
HETATM    8  C   UNL     1      69.659   5.431   8.539  1.00  0.00     0.040 A 
HETATM    9  C   UNL     1      65.796   4.687   7.506  1.00  0.00     0.202 C 
HETATM   10  C   UNL     1      66.222   6.117   7.784  1.00  0.00     0.202 C 
ENDROOT
BRANCH   2  11
HETATM   11  C   UNL     1      67.782   1.775   9.869  1.00  0.00     0.205 C 
BRANCH  11  12
HETATM   12  O   UNL     1      68.178   1.506  11.211  1.00  0.00    -0.396 OA
HETATM   13  H   UNL     1      68.900   0.858  11.211  1.00  0.00     0.209 HD
ENDBRANCH  11  12
ENDBRANCH   2  11
TORSDOF 2
ENDMDL
MODEL 7
REMARK VINA RESULT:      -4.5      1.723      3.347
REMARK  2 active torsions:
REMARK  status: ('A' for Active; 'I' for Inactive)
REMARK    1  A    between atoms: C_2  and  C_6 
REMARK    2  A    between atoms: C_6  and  O_7 
ROOT
HETATM    1  C   UNL     1      62.578   8.828   3.406  1.00  0.00     0.110 A 
HETATM    2  C   UNL     1      63.014   9.034   4.723  1.00  0.00     0.001 A 
HETATM    3  C   UNL     1      61.997   9.879   2.681  1.00  0.00     0.102 A 
HETATM    4  O   UNL     1      62.737   7.570   2.874  1.00  0.00    -0.346 OA
HETATM    5  O   UNL     1      61.527   9.746   1.398  1.00  0.00    -0.346 OA
HETATM    6  C   UNL     1      62.875  10.316   5.286  1.00  0.00     0.012 A 
HETATM    7  C   UNL     1      62.315  11.364   4.554  1.00  0.00     0.003 A 
HETATM    8  C   UNL     1      61.879  11.146   3.250  1.00  0.00     0.040 A 
HETATM    9  C   UNL     1      62.589   7.569   1.450  1.00  0.00     0.202 C 
HETATM   10  C   UNL     1      61.370   8.372   1.036  1.00  0.00     0.202 C 
ENDROOT
BRANCH   2  11
HETATM   11  C   UNL     1      63.621   7.932   5.550  1.00  0.00     0.205 C 
BRANCH  11  12
HETATM   12  O   UNL     1      62.900   7.779   6.769  1.00  0.00    -0.396 OA
HETATM   13  H   UNL     1      62.646   8.653   7.105  1.00  0.00     0.209 HD
ENDBRANCH  11  12
ENDBRANCH   2  11
TORSDOF 2
ENDMDL
MODEL 8
REMARK VINA RESULT:      -4.3      1.569      3.296
REMARK  2 active torsions:
REMARK  status: ('A' for Active; 'I' for Inactive)
REMARK    1  A    between atoms: C_2  and  C_6 
REMARK    2  A    between atoms: C_6  and  O_7 
ROOT
HETATM    1  C   UNL     1      63.418   9.274   4.683  1.00  0.00     0.110 A 
HETATM    2  C   UNL     1      64.185   8.099   4.670  1.00  0.00     0.001 A 
HETATM    3  C   UNL     1      62.468   9.508   3.677  1.00  0.00     0.102 A 
HETATM    4  O   UNL     1      63.645  10.168   5.701  1.00  0.00    -0.346 OA
HETATM    5  O   UNL     1      61.699  10.643   3.611  1.00  0.00    -0.346 OA
HETATM    6  C   UNL     1      63.964   7.162   3.645  1.00  0.00     0.012 A 
HETATM    7  C   UNL     1      63.003   7.389   2.658  1.00  0.00     0.003 A 
HETATM    8  C   UNL     1      62.253   8.562   2.677  1.00  0.00     0.040 A 
HETATM    9  C   UNL     1      62.591  11.131   5.811  1.00  0.00     0.202 C 
HETATM   10  C   UNL     1      62.221  11.681   4.446  1.00  0.00     0.202 C 
ENDROOT
BRANCH   2  11
HETATM   11  C   UNL     1      65.233   7.813   5.711  1.00  0.00     0.205 C 
BRANCH  11  12
HETATM   12  O   UNL     1      66.015   8.979   5.955  1.00  0.00    -0.396 OA
HETATM   13  H   UNL     1      65.431   9.712   6.207  1.00  0.00     0.209 HD
ENDBRANCH  11  12
ENDBRANCH   2  11
TORSDOF 2
ENDMDL
MODEL 9
REMARK VINA RESULT:      -4.3      6.990      9.212
REMARK  2 active torsions:
REMARK  status: ('A' for Active; 'I' for Inactive)
REMARK    1  A    between atoms: C_2  and  C_6 
REMARK    2  A    between atoms: C_6  and  O_7 
ROOT
HETATM    1  C   UNL     1      68.213   3.400   9.150  1.00  0.00     0.110 A 
HETATM    2  C   UNL     1      67.743   4.540   8.480  1.00  0.00     0.001 A 
HETATM    3  C   UNL     1      69.564   3.302   9.512  1.00  0.00     0.102 A 
HETATM    4  O   UNL     1      67.306   2.404   9.421  1.00  0.00    -0.346 OA
HETATM    5  O   UNL     1      70.101   2.210  10.148  1.00  0.00    -0.346 OA
HETATM    6  C   UNL     1      68.649   5.579   8.202  1.00  0.00     0.012 A 
HETATM    7  C   UNL     1      69.988   5.486   8.583  1.00  0.00     0.003 A 
HETATM    8  C   UNL     1      70.445   4.347   9.241  1.00  0.00     0.040 A 
HETATM    9  C   UNL     1      67.803   1.477  10.392  1.00  0.00     0.202 C 
HETATM   10  C   UNL     1      69.231   1.077  10.070  1.00  0.00     0.202 C 
ENDROOT
BRANCH   2  11
HETATM   11  C   UNL     1      66.308   4.682   8.048  1.00  0.00     0.205 C 
BRANCH  11  12
HETATM   12  O   UNL     1      65.966   3.647   7.131  1.00  0.00    -0.396 OA
HETATM   13  H   UNL     1      65.895   2.805   7.607  1.00  0.00     0.209 HD
ENDBRANCH  11  12
ENDBRANCH   2  11
TORSDOF 2
ENDMDL
