MODEL 1
REMARK VINA RESULT:      -5.2      0.000      0.000
REMARK  1 active torsions:
REMARK  status: ('A' for Active; 'I' for Inactive)
REMARK    1  A    between atoms: C_1  and  C_5 
ROOT
HETATM    1  C   UNL     1      72.057  22.953  14.269  1.00  0.00     0.072 A 
HETATM    2  C   UNL     1      71.278  22.544  13.198  1.00  0.00     0.066 A 
HETATM    3  O   UNL     1      70.048  23.133  13.254  1.00  0.00    -0.319 OA
HETATM    4  C   UNL     1      71.231  23.847  15.017  1.00  0.00     0.053 A 
HETATM    5  C   UNL     1      70.025  23.922  14.360  1.00  0.00     0.050 A 
HETATM    6  C   UNL     1      71.481  21.637  12.047  1.00  0.00     0.078 C 
HETATM    7  C   UNL     1      68.772  24.659  14.611  1.00  0.00     0.076 C 
ENDROOT
BRANCH   1   8
HETATM    8  C   UNL     1      73.415  22.549  14.552  1.00  0.00     0.211 C 
HETATM    9  O   UNL     1      74.342  22.512  13.756  1.00  0.00    -0.644 OA
HETATM   10  O   UNL     1      73.620  22.189  15.840  1.00  0.00    -0.644 OA
ENDBRANCH   1   8
TORSDOF 1
ENDMDL
MODEL 2
REMARK VINA RESULT:      -5.0      1.606      3.599
REMARK  1 active torsions:
REMARK  status: ('A' for Active; 'I' for Inactive)
REMARK    1  A    between atoms: C_1  and  C_5 
ROOT
HETATM    1  C   UNL     1      71.041  23.373  13.964  1.00  0.00     0.072 A 
HETATM    2  C   UNL     1      72.237  22.692  14.122  1.00  0.00     0.066 A 
HETATM    3  O   UNL     1      72.374  21.742  13.152  1.00  0.00    -0.319 OA
HETATM    4  C   UNL     1      70.419  22.784  12.821  1.00  0.00     0.053 A 
HETATM    5  C   UNL     1      71.267  21.803  12.366  1.00  0.00     0.050 A 
HETATM    6  C   UNL     1      73.362  22.766  15.081  1.00  0.00     0.078 C 
HETATM    7  C   UNL     1      71.211  20.848  11.242  1.00  0.00     0.076 C 
ENDROOT
BRANCH   1   8
HETATM    8  C   UNL     1      70.545  24.448  14.793  1.00  0.00     0.211 C 
HETATM    9  O   UNL     1      71.184  25.409  15.196  1.00  0.00    -0.644 OA
HETATM   10  O   UNL     1      69.238  24.326  15.121  1.00  0.00    -0.644 OA
ENDBRANCH   1   8
TORSDOF 1
ENDMDL
MODEL 3
REMARK VINA RESULT:      -4.4     18.877     20.595
REMARK  1 active torsions:
REMARK  status: ('A' for Active; 'I' for Inactive)
REMARK    1  A    between atoms: C_1  and  C_5 
ROOT
HETATM    1  C   UNL     1      62.111   9.881   2.352  1.00  0.00     0.072 A 
HETATM    2  C   UNL     1      62.723   8.844   3.038  1.00  0.00     0.066 A 
HETATM    3  O   UNL     1      62.792   7.732   2.251  1.00  0.00    -0.319 OA
HETATM    4  C   UNL     1      61.788   9.347   1.068  1.00  0.00     0.053 A 
HETATM    5  C   UNL     1      62.222   8.042   1.057  1.00  0.00     0.050 A 
HETATM    6  C   UNL     1      63.300   8.685   4.391  1.00  0.00     0.078 C 
HETATM    7  C   UNL     1      62.192   6.967   0.048  1.00  0.00     0.076 C 
ENDROOT
BRANCH   1   8
HETATM    8  C   UNL     1      61.859  11.214   2.851  1.00  0.00     0.211 C 
HETATM    9  O   UNL     1      61.691  11.533   4.019  1.00  0.00    -0.644 OA
HETATM   10  O   UNL     1      61.818  12.160   1.884  1.00  0.00    -0.644 OA
ENDBRANCH   1   8
TORSDOF 1
ENDMDL
MODEL 4
REMARK VINA RESULT:      -4.4     14.860     16.694
REMARK  1 active torsions:
REMARK  status: ('A' for Active; 'I' for Inactive)
REMARK    1  A    between atoms: C_1  and  C_5 
ROOT
HETATM    1  C   UNL     1      80.391  12.603  24.026  1.00  0.00     0.072 A 
HETATM    2  C   UNL     1      81.118  13.196  23.007  1.00  0.00     0.066 A 
HETATM    3  O   UNL     1      80.452  13.082  21.821  1.00  0.00    -0.319 OA
HETATM    4  C   UNL     1      79.209  12.097  23.403  1.00  0.00     0.053 A 
HETATM    5  C   UNL     1      79.294  12.414  22.068  1.00  0.00     0.050 A 
HETATM    6  C   UNL     1      82.417  13.900  22.925  1.00  0.00     0.078 C 
HETATM    7  C   UNL     1      78.415  12.182  20.907  1.00  0.00     0.076 C 
ENDROOT
BRANCH   1   8
HETATM    8  C   UNL     1      80.766  12.523  25.420  1.00  0.00     0.211 C 
HETATM    9  O   UNL     1      81.251  11.555  25.986  1.00  0.00    -0.644 OA
HETATM   10  O   UNL     1      80.537  13.661  26.114  1.00  0.00    -0.644 OA
ENDBRANCH   1   8
TORSDOF 1
ENDMDL
MODEL 5
REMARK VINA RESULT:      -4.4     17.898     19.605
REMARK  1 active torsions:
REMARK  status: ('A' for Active; 'I' for Inactive)
REMARK    1  A    between atoms: C_1  and  C_5 
ROOT
HETATM    1  C   UNL     1      62.959   9.060   4.011  1.00  0.00     0.072 A 
HETATM    2  C   UNL     1      62.322  10.201   3.550  1.00  0.00     0.066 A 
HETATM    3  O   UNL     1      61.953  10.044   2.246  1.00  0.00    -0.319 OA
HETATM    4  C   UNL     1      62.974   8.161   2.902  1.00  0.00     0.053 A 
HETATM    5  C   UNL     1      62.352   8.804   1.857  1.00  0.00     0.050 A 
HETATM    6  C   UNL     1      61.967  11.510   4.142  1.00  0.00     0.078 C 
HETATM    7  C   UNL     1      62.047   8.427   0.465  1.00  0.00     0.076 C 
ENDROOT
BRANCH   1   8
HETATM    8  C   UNL     1      63.491   8.846   5.338  1.00  0.00     0.211 C 
HETATM    9  O   UNL     1      62.986   8.171   6.222  1.00  0.00    -0.644 OA
HETATM   10  O   UNL     1      64.666   9.480   5.564  1.00  0.00    -0.644 OA
ENDBRANCH   1   8
TORSDOF 1
ENDMDL
MODEL 6
REMARK VINA RESULT:      -4.3     18.479     19.892
REMARK  1 active torsions:
REMARK  status: ('A' for Active; 'I' for Inactive)
REMARK    1  A    between atoms: C_1  and  C_5 
ROOT
HETATM    1  C   UNL     1      62.265   9.953   3.354  1.00  0.00     0.072 A 
HETATM    2  C   UNL     1      62.187   8.970   2.380  1.00  0.00     0.066 A 
HETATM    3  O   UNL     1      62.519   7.755   2.906  1.00  0.00    -0.319 OA
HETATM    4  C   UNL     1      62.676   9.276   4.542  1.00  0.00     0.053 A 
HETATM    5  C   UNL     1      62.816   7.947   4.218  1.00  0.00     0.050 A 
HETATM    6  C   UNL     1      61.836   8.950   0.943  1.00  0.00     0.078 C 
HETATM    7  C   UNL     1      63.205   6.746   4.981  1.00  0.00     0.076 C 
ENDROOT
BRANCH   1   8
HETATM    8  C   UNL     1      61.987  11.360   3.182  1.00  0.00     0.211 C 
HETATM    9  O   UNL     1      61.918  11.963   2.121  1.00  0.00    -0.644 OA
HETATM   10  O   UNL     1      61.789  12.024   4.345  1.00  0.00    -0.644 OA
ENDBRANCH   1   8
TORSDOF 1
ENDMDL
MODEL 7
REMARK VINA RESULT:      -4.3     17.768     19.123
REMARK  1 active torsions:
REMARK  status: ('A' for Active; 'I' for Inactive)
REMARK    1  A    between atoms: C_1  and  C_5 
ROOT
HETATM    1  C   UNL     1      67.272   6.209   7.693  1.00  0.00     0.072 A 
HETATM    2  C   UNL     1      67.718   5.222   6.829  1.00  0.00     0.066 A 
HETATM    3  O   UNL     1      68.586   4.387   7.471  1.00  0.00    -0.319 OA
HETATM    4  C   UNL     1      67.924   5.946   8.936  1.00  0.00     0.053 A 
HETATM    5  C   UNL     1      68.707   4.832   8.750  1.00  0.00     0.050 A 
HETATM    6  C   UNL     1      67.469   4.886   5.410  1.00  0.00     0.078 C 
HETATM    7  C   UNL     1      69.609   4.062   9.626  1.00  0.00     0.076 C 
ENDROOT
BRANCH   1   8
HETATM    8  C   UNL     1      66.345   7.273   7.381  1.00  0.00     0.211 C 
HETATM    9  O   UNL     1      66.629   8.379   6.943  1.00  0.00    -0.644 OA
HETATM   10  O   UNL     1      65.051   6.955   7.614  1.00  0.00    -0.644 OA
ENDBRANCH   1   8
TORSDOF 1
ENDMDL
MODEL 8
REMARK VINA RESULT:      -4.1     18.610     19.752
REMARK  1 active torsions:
REMARK  status: ('A' for Active; 'I' for Inactive)
REMARK    1  A    between atoms: C_1  and  C_5 
ROOT
HETATM    1  C   UNL     1      68.666   4.207   9.264  1.00  0.00     0.072 A 
HETATM    2  C   UNL     1      67.643   3.438   8.733  1.00  0.00     0.066 A 
HETATM    3  O   UNL     1      66.625   4.237   8.302  1.00  0.00    -0.319 OA
HETATM    4  C   UNL     1      68.223   5.560   9.144  1.00  0.00     0.053 A 
HETATM    5  C   UNL     1      66.982   5.524   8.555  1.00  0.00     0.050 A 
HETATM    6  C   UNL     1      67.421   1.988   8.538  1.00  0.00     0.078 C 
HETATM    7  C   UNL     1      66.009   6.560   8.161  1.00  0.00     0.076 C 
ENDROOT
BRANCH   1   8
HETATM    8  C   UNL     1      69.910   3.724   9.819  1.00  0.00     0.211 C 
HETATM    9  O   UNL     1      70.044   2.793  10.600  1.00  0.00    -0.644 OA
HETATM   10  O   UNL     1      70.999   4.405   9.393  1.00  0.00    -0.644 OA
ENDBRANCH   1   8
TORSDOF 1
ENDMDL
MODEL 9
REMARK VINA RESULT:      -4.0     18.248     19.973
REMARK  1 active torsions:
REMARK  status: ('A' for Active; 'I' for Inactive)
REMARK    1  A    between atoms: C_1  and  C_5 
ROOT
HETATM    1  C   UNL     1      63.575   8.370   4.108  1.00  0.00     0.072 A 
HETATM    2  C   UNL     1      63.769   7.297   3.253  1.00  0.00     0.066 A 
HETATM    3  O   UNL     1      63.009   7.443   2.129  1.00  0.00    -0.319 OA
HETATM    4  C   UNL     1      62.630   9.213   3.448  1.00  0.00     0.053 A 
HETATM    5  C   UNL     1      62.319   8.607   2.253  1.00  0.00     0.050 A 
HETATM    6  C   UNL     1      64.591   6.067   3.292  1.00  0.00     0.078 C 
HETATM    7  C   UNL     1      61.427   8.960   1.134  1.00  0.00     0.076 C 
ENDROOT
BRANCH   1   8
HETATM    8  C   UNL     1      64.205   8.574   5.393  1.00  0.00     0.211 C 
HETATM    9  O   UNL     1      65.136   9.328   5.634  1.00  0.00    -0.644 OA
HETATM   10  O   UNL     1      63.667   7.831   6.388  1.00  0.00    -0.644 OA
ENDBRANCH   1   8
TORSDOF 1
ENDMDL
