MODEL 1
REMARK VINA RESULT:      -6.0      0.000      0.000
REMARK  2 active torsions:
REMARK  status: ('A' for Active; 'I' for Inactive)
REMARK    1  A    between atoms: C_1  and  C_3 
REMARK    2  A    between atoms: C_3  and  N_8 
ROOT
HETATM    1  C   UNL     1      77.613   8.901  17.508  1.00  0.00     0.038 A 
HETATM    2  C   UNL     1      77.638   9.093  16.112  1.00  0.00     0.115 A 
HETATM    3  C   UNL     1      77.239   8.050  15.257  1.00  0.00     0.103 A 
HETATM    4  O   UNL     1      78.064  10.303  15.611  1.00  0.00    -0.345 OA
HETATM    5  O   UNL     1      77.242   8.139  13.888  1.00  0.00    -0.346 OA
HETATM    6  C   UNL     1      77.171   7.662  18.010  1.00  0.00     0.017 A 
HETATM    7  C   UNL     1      76.761   6.639  17.151  1.00  0.00     0.004 A 
HETATM    8  C   UNL     1      76.791   6.835  15.775  1.00  0.00     0.040 A 
HETATM    9  C   UNL     1      77.678  10.493  14.246  1.00  0.00     0.202 C 
HETATM   10  C   UNL     1      78.005   9.257  13.429  1.00  0.00     0.202 C 
ENDROOT
BRANCH   1  11
HETATM   11  C   UNL     1      78.032   9.969  18.473  1.00  0.00     0.107 C 
HETATM   12  S   UNL     1      77.090  11.265  18.965  1.00  0.00    -0.060 SA
BRANCH  11  13
HETATM   13  N   UNL     1      79.290   9.871  19.008  1.00  0.00    -0.389 N 
HETATM   14  H   UNL     1      80.071  10.174  18.487  1.00  0.00     0.157 HD
HETATM   15  H   UNL     1      79.414   9.498  19.910  1.00  0.00     0.157 HD
ENDBRANCH  11  13
ENDBRANCH   1  11
TORSDOF 2
ENDMDL
MODEL 2
REMARK VINA RESULT:      -6.0      1.572      3.038
REMARK  2 active torsions:
REMARK  status: ('A' for Active; 'I' for Inactive)
REMARK    1  A    between atoms: C_1  and  C_3 
REMARK    2  A    between atoms: C_3  and  N_8 
ROOT
HETATM    1  C   UNL     1      77.601   9.320  16.836  1.00  0.00     0.038 A 
HETATM    2  C   UNL     1      77.180   7.976  16.780  1.00  0.00     0.115 A 
HETATM    3  C   UNL     1      77.035   7.341  15.533  1.00  0.00     0.103 A 
HETATM    4  O   UNL     1      76.909   7.310  17.955  1.00  0.00    -0.345 OA
HETATM    5  O   UNL     1      76.619   6.043  15.380  1.00  0.00    -0.346 OA
HETATM    6  C   UNL     1      77.879   9.989  15.629  1.00  0.00     0.017 A 
HETATM    7  C   UNL     1      77.748   9.343  14.397  1.00  0.00     0.004 A 
HETATM    8  C   UNL     1      77.330   8.018  14.350  1.00  0.00     0.040 A 
HETATM    9  C   UNL     1      76.875   5.890  17.781  1.00  0.00     0.202 C 
HETATM   10  C   UNL     1      76.030   5.527  16.575  1.00  0.00     0.202 C 
ENDROOT
BRANCH   1  11
HETATM   11  C   UNL     1      77.768  10.056  18.131  1.00  0.00     0.107 C 
HETATM   12  S   UNL     1      76.901  11.409  18.605  1.00  0.00    -0.060 SA
BRANCH  11  13
HETATM   13  N   UNL     1      78.704   9.573  19.009  1.00  0.00    -0.389 N 
HETATM   14  H   UNL     1      78.555   8.710  19.462  1.00  0.00     0.157 HD
HETATM   15  H   UNL     1      79.522  10.089  19.188  1.00  0.00     0.157 HD
ENDBRANCH  11  13
ENDBRANCH   1  11
TORSDOF 2
ENDMDL
MODEL 3
REMARK VINA RESULT:      -5.5     14.764     16.100
REMARK  2 active torsions:
REMARK  status: ('A' for Active; 'I' for Inactive)
REMARK    1  A    between atoms: C_1  and  C_3 
REMARK    2  A    between atoms: C_3  and  N_8 
ROOT
HETATM    1  C   UNL     1      70.363  23.720  14.166  1.00  0.00     0.038 A 
HETATM    2  C   UNL     1      71.685  23.338  14.472  1.00  0.00     0.115 A 
HETATM    3  C   UNL     1      72.345  22.397  13.662  1.00  0.00     0.103 A 
HETATM    4  O   UNL     1      72.304  23.893  15.571  1.00  0.00    -0.345 OA
HETATM    5  O   UNL     1      73.625  21.956  13.890  1.00  0.00    -0.346 OA
HETATM    6  C   UNL     1      69.742  23.151  13.038  1.00  0.00     0.017 A 
HETATM    7  C   UNL     1      70.414  22.230  12.231  1.00  0.00     0.004 A 
HETATM    8  C   UNL     1      71.716  21.856  12.541  1.00  0.00     0.040 A 
HETATM    9  C   UNL     1      73.725  23.723  15.539  1.00  0.00     0.202 C 
HETATM   10  C   UNL     1      74.076  22.287  15.204  1.00  0.00     0.202 C 
ENDROOT
BRANCH   1  11
HETATM   11  C   UNL     1      69.602  24.712  14.993  1.00  0.00     0.107 C 
HETATM   12  S   UNL     1      67.998  24.572  15.455  1.00  0.00    -0.060 SA
BRANCH  11  13
HETATM   13  N   UNL     1      70.280  25.826  15.416  1.00  0.00    -0.389 N 
HETATM   14  H   UNL     1      70.045  26.249  16.275  1.00  0.00     0.157 HD
HETATM   15  H   UNL     1      71.001  26.203  14.863  1.00  0.00     0.157 HD
ENDBRANCH  11  13
ENDBRANCH   1  11
TORSDOF 2
ENDMDL
MODEL 4
REMARK VINA RESULT:      -5.0     17.257     18.240
REMARK  2 active torsions:
REMARK  status: ('A' for Active; 'I' for Inactive)
REMARK    1  A    between atoms: C_1  and  C_3 
REMARK    2  A    between atoms: C_3  and  N_8 
ROOT
HETATM    1  C   UNL     1      64.775   7.891   4.592  1.00  0.00     0.038 A 
HETATM    2  C   UNL     1      63.889   8.986   4.647  1.00  0.00     0.115 A 
HETATM    3  C   UNL     1      62.778   9.028   3.785  1.00  0.00     0.103 A 
HETATM    4  O   UNL     1      64.135  10.002   5.545  1.00  0.00    -0.345 OA
HETATM    5  O   UNL     1      61.870  10.058   3.758  1.00  0.00    -0.346 OA
HETATM    6  C   UNL     1      64.511   6.857   3.675  1.00  0.00     0.017 A 
HETATM    7  C   UNL     1      63.395   6.902   2.835  1.00  0.00     0.004 A 
HETATM    8  C   UNL     1      62.527   7.986   2.894  1.00  0.00     0.040 A 
HETATM    9  C   UNL     1      62.986  10.825   5.764  1.00  0.00     0.202 C 
HETATM   10  C   UNL     1      62.357  11.215   4.440  1.00  0.00     0.202 C 
ENDROOT
BRANCH   1  11
HETATM   11  C   UNL     1      65.981   7.789   5.478  1.00  0.00     0.107 C 
HETATM   12  S   UNL     1      67.573   7.733   4.958  1.00  0.00    -0.060 SA
BRANCH  11  13
HETATM   13  N   UNL     1      65.762   7.748   6.830  1.00  0.00    -0.389 N 
HETATM   14  H   UNL     1      65.009   7.225   7.192  1.00  0.00     0.157 HD
HETATM   15  H   UNL     1      66.356   8.242   7.440  1.00  0.00     0.157 HD
ENDBRANCH  11  13
ENDBRANCH   1  11
TORSDOF 2
ENDMDL
MODEL 5
REMARK VINA RESULT:      -4.8     15.485     16.442
REMARK  2 active torsions:
REMARK  status: ('A' for Active; 'I' for Inactive)
REMARK    1  A    between atoms: C_1  and  C_3 
REMARK    2  A    between atoms: C_3  and  N_8 
ROOT
HETATM    1  C   UNL     1      70.675  24.196  14.403  1.00  0.00     0.038 A 
HETATM    2  C   UNL     1      71.065  23.263  13.422  1.00  0.00     0.115 A 
HETATM    3  C   UNL     1      72.432  23.047  13.169  1.00  0.00     0.103 A 
HETATM    4  O   UNL     1      70.094  22.583  12.720  1.00  0.00    -0.345 OA
HETATM    5  O   UNL     1      72.906  22.171  12.225  1.00  0.00    -0.346 OA
HETATM    6  C   UNL     1      71.676  24.881  15.117  1.00  0.00     0.017 A 
HETATM    7  C   UNL     1      73.030  24.646  14.869  1.00  0.00     0.004 A 
HETATM    8  C   UNL     1      73.408  23.727  13.897  1.00  0.00     0.040 A 
HETATM    9  C   UNL     1      70.611  21.424  12.059  1.00  0.00     0.202 C 
HETATM   10  C   UNL     1      71.884  21.768  11.311  1.00  0.00     0.202 C 
ENDROOT
BRANCH   1  11
HETATM   11  C   UNL     1      69.235  24.476  14.716  1.00  0.00     0.107 C 
HETATM   12  S   UNL     1      68.678  25.439  15.969  1.00  0.00    -0.060 SA
BRANCH  11  13
HETATM   13  N   UNL     1      68.294  23.905  13.900  1.00  0.00    -0.389 N 
HETATM   14  H   UNL     1      67.627  23.285  14.277  1.00  0.00     0.157 HD
HETATM   15  H   UNL     1      68.285  24.112  12.938  1.00  0.00     0.157 HD
ENDBRANCH  11  13
ENDBRANCH   1  11
TORSDOF 2
ENDMDL
MODEL 6
REMARK VINA RESULT:      -4.8     19.034     20.019
REMARK  2 active torsions:
REMARK  status: ('A' for Active; 'I' for Inactive)
REMARK    1  A    between atoms: C_1  and  C_3 
REMARK    2  A    between atoms: C_3  and  N_8 
ROOT
HETATM    1  C   UNL     1      62.230   8.147   3.158  1.00  0.00     0.038 A 
HETATM    2  C   UNL     1      62.525   9.248   3.987  1.00  0.00     0.115 A 
HETATM    3  C   UNL     1      63.701   9.244   4.759  1.00  0.00     0.103 A 
HETATM    4  O   UNL     1      61.646  10.307   4.031  1.00  0.00    -0.345 OA
HETATM    5  O   UNL     1      64.064  10.263   5.604  1.00  0.00    -0.346 OA
HETATM    6  C   UNL     1      63.137   7.072   3.118  1.00  0.00     0.017 A 
HETATM    7  C   UNL     1      64.311   7.087   3.876  1.00  0.00     0.004 A 
HETATM    8  C   UNL     1      64.593   8.175   4.693  1.00  0.00     0.040 A 
HETATM    9  C   UNL     1      62.239  11.484   4.587  1.00  0.00     0.202 C 
HETATM   10  C   UNL     1      62.975  11.148   5.870  1.00  0.00     0.202 C 
ENDROOT
BRANCH   1  11
HETATM   11  C   UNL     1      60.990   8.085   2.316  1.00  0.00     0.107 C 
HETATM   12  S   UNL     1      60.949   7.938   0.648  1.00  0.00    -0.060 SA
BRANCH  11  13
HETATM   13  N   UNL     1      59.787   8.144   2.969  1.00  0.00    -0.389 N 
HETATM   14  H   UNL     1      59.539   7.437   3.610  1.00  0.00     0.157 HD
HETATM   15  H   UNL     1      59.169   8.891   2.797  1.00  0.00     0.157 HD
ENDBRANCH  11  13
ENDBRANCH   1  11
TORSDOF 2
ENDMDL
MODEL 7
REMARK VINA RESULT:      -4.7     18.891     20.003
REMARK  2 active torsions:
REMARK  status: ('A' for Active; 'I' for Inactive)
REMARK    1  A    between atoms: C_1  and  C_3 
REMARK    2  A    between atoms: C_3  and  N_8 
ROOT
HETATM    1  C   UNL     1      62.233   9.410   2.835  1.00  0.00     0.038 A 
HETATM    2  C   UNL     1      63.131   8.707   3.663  1.00  0.00     0.115 A 
HETATM    3  C   UNL     1      63.571   9.288   4.866  1.00  0.00     0.103 A 
HETATM    4  O   UNL     1      63.569   7.462   3.269  1.00  0.00    -0.345 OA
HETATM    5  O   UNL     1      64.454   8.685   5.727  1.00  0.00    -0.346 OA
HETATM    6  C   UNL     1      61.788  10.680   3.249  1.00  0.00     0.017 A 
HETATM    7  C   UNL     1      62.219  11.239   4.455  1.00  0.00     0.004 A 
HETATM    8  C   UNL     1      63.107  10.541   5.264  1.00  0.00     0.040 A 
HETATM    9  C   UNL     1      64.145   6.721   4.349  1.00  0.00     0.202 C 
HETATM   10  C   UNL     1      65.127   7.584   5.116  1.00  0.00     0.202 C 
ENDROOT
BRANCH   1  11
HETATM   11  C   UNL     1      61.731   8.851   1.537  1.00  0.00     0.107 C 
HETATM   12  S   UNL     1      60.239   8.129   1.296  1.00  0.00    -0.060 SA
BRANCH  11  13
HETATM   13  N   UNL     1      62.561   8.950   0.451  1.00  0.00    -0.389 N 
HETATM   14  H   UNL     1      63.079   9.775   0.300  1.00  0.00     0.157 HD
HETATM   15  H   UNL     1      62.639   8.198  -0.179  1.00  0.00     0.157 HD
ENDBRANCH  11  13
ENDBRANCH   1  11
TORSDOF 2
ENDMDL
MODEL 8
REMARK VINA RESULT:      -4.7     19.166     20.236
REMARK  2 active torsions:
REMARK  status: ('A' for Active; 'I' for Inactive)
REMARK    1  A    between atoms: C_1  and  C_3 
REMARK    2  A    between atoms: C_3  and  N_8 
ROOT
HETATM    1  C   UNL     1      62.765   9.184   4.127  1.00  0.00     0.038 A 
HETATM    2  C   UNL     1      62.591   8.613   2.851  1.00  0.00     0.115 A 
HETATM    3  C   UNL     1      62.067   9.391   1.803  1.00  0.00     0.103 A 
HETATM    4  O   UNL     1      62.932   7.292   2.657  1.00  0.00    -0.345 OA
HETATM    5  O   UNL     1      61.851   8.918   0.533  1.00  0.00    -0.346 OA
HETATM    6  C   UNL     1      62.417  10.536   4.313  1.00  0.00     0.017 A 
HETATM    7  C   UNL     1      61.914  11.304   3.260  1.00  0.00     0.004 A 
HETATM    8  C   UNL     1      61.743  10.732   2.005  1.00  0.00     0.040 A 
HETATM    9  C   UNL     1      63.072   6.964   1.271  1.00  0.00     0.202 C 
HETATM   10  C   UNL     1      61.889   7.491   0.483  1.00  0.00     0.202 C 
ENDROOT
BRANCH   1  11
HETATM   11  C   UNL     1      63.311   8.407   5.287  1.00  0.00     0.107 C 
HETATM   12  S   UNL     1      62.486   7.233   6.152  1.00  0.00    -0.060 SA
BRANCH  11  13
HETATM   13  N   UNL     1      64.601   8.673   5.667  1.00  0.00    -0.389 N 
HETATM   14  H   UNL     1      65.328   8.631   5.004  1.00  0.00     0.157 HD
HETATM   15  H   UNL     1      64.800   8.906   6.603  1.00  0.00     0.157 HD
ENDBRANCH  11  13
ENDBRANCH   1  11
TORSDOF 2
ENDMDL
MODEL 9
REMARK VINA RESULT:      -4.7     12.398     13.664
REMARK  2 active torsions:
REMARK  status: ('A' for Active; 'I' for Inactive)
REMARK    1  A    between atoms: C_1  and  C_3 
REMARK    2  A    between atoms: C_3  and  N_8 
ROOT
HETATM    1  C   UNL     1      67.850   4.570   8.437  1.00  0.00     0.038 A 
HETATM    2  C   UNL     1      68.248   3.411   9.132  1.00  0.00     0.115 A 
HETATM    3  C   UNL     1      69.584   3.271   9.548  1.00  0.00     0.103 A 
HETATM    4  O   UNL     1      67.316   2.428   9.384  1.00  0.00    -0.345 OA
HETATM    5  O   UNL     1      70.066   2.174  10.217  1.00  0.00    -0.346 OA
HETATM    6  C   UNL     1      68.809   5.570   8.189  1.00  0.00     0.017 A 
HETATM    7  C   UNL     1      70.130   5.427   8.622  1.00  0.00     0.004 A 
HETATM    8  C   UNL     1      70.516   4.280   9.304  1.00  0.00     0.040 A 
HETATM    9  C   UNL     1      67.744   1.520  10.404  1.00  0.00     0.202 C 
HETATM   10  C   UNL     1      69.167   1.067  10.142  1.00  0.00     0.202 C 
ENDROOT
BRANCH   1  11
HETATM   11  C   UNL     1      66.443   4.777   7.960  1.00  0.00     0.107 C 
HETATM   12  S   UNL     1      65.688   6.260   7.760  1.00  0.00    -0.060 SA
BRANCH  11  13
HETATM   13  N   UNL     1      65.715   3.658   7.652  1.00  0.00    -0.389 N 
HETATM   14  H   UNL     1      65.375   3.078   8.373  1.00  0.00     0.157 HD
HETATM   15  H   UNL     1      65.533   3.432   6.712  1.00  0.00     0.157 HD
ENDBRANCH  11  13
ENDBRANCH   1  11
TORSDOF 2
ENDMDL
