MODEL 1
REMARK VINA RESULT:      -5.3      0.000      0.000
REMARK  2 active torsions:
REMARK  status: ('A' for Active; 'I' for Inactive)
REMARK    1  A    between atoms: C_3  and  C_7 
REMARK    2  A    between atoms: C_7  and  O_8 
ROOT
HETATM    1  C   UNL     1      63.991   9.261   5.015  1.00  0.00     0.113 A 
HETATM    2  O   UNL     1      65.035   9.094   5.875  1.00  0.00    -0.322 OA
HETATM    3  C   UNL     1      63.059  10.284   5.052  1.00  0.00     0.002 A 
HETATM    4  O   UNL     1      64.959   7.368   4.196  1.00  0.00    -0.323 OA
HETATM    5  C   UNL     1      63.951   8.271   4.057  1.00  0.00     0.105 A 
HETATM    6  C   UNL     1      65.675   7.931   5.313  1.00  0.00     0.352 A 
HETATM    7  C   UNL     1      62.066  10.270   4.058  1.00  0.00     0.012 A 
HETATM    8  C   UNL     1      62.026   9.255   3.082  1.00  0.00     0.003 A 
HETATM    9  C   UNL     1      62.980   8.238   3.080  1.00  0.00     0.040 A 
ENDROOT
BRANCH   3  10
HETATM   10  C   UNL     1      63.086  11.352   6.102  1.00  0.00     0.205 C 
BRANCH  10  11
HETATM   11  O   UNL     1      64.431  11.657   6.458  1.00  0.00    -0.396 OA
HETATM   12  H   UNL     1      64.808  12.263   5.802  1.00  0.00     0.209 HD
ENDBRANCH  10  11
ENDBRANCH   3  10
TORSDOF 2
ENDMDL
MODEL 2
REMARK VINA RESULT:      -5.0     17.048     18.520
REMARK  2 active torsions:
REMARK  status: ('A' for Active; 'I' for Inactive)
REMARK    1  A    between atoms: C_3  and  C_7 
REMARK    2  A    between atoms: C_7  and  O_8 
ROOT
HETATM    1  C   UNL     1      71.744  23.279  14.476  1.00  0.00     0.113 A 
HETATM    2  O   UNL     1      72.557  23.663  15.499  1.00  0.00    -0.322 OA
HETATM    3  C   UNL     1      70.450  23.718  14.254  1.00  0.00     0.002 A 
HETATM    4  O   UNL     1      73.629  22.079  14.033  1.00  0.00    -0.323 OA
HETATM    5  C   UNL     1      72.360  22.372  13.641  1.00  0.00     0.105 A 
HETATM    6  C   UNL     1      73.766  22.946  15.176  1.00  0.00     0.352 A 
HETATM    7  C   UNL     1      69.791  23.197  13.127  1.00  0.00     0.012 A 
HETATM    8  C   UNL     1      70.423  22.269  12.277  1.00  0.00     0.003 A 
HETATM    9  C   UNL     1      71.726  21.845  12.537  1.00  0.00     0.040 A 
ENDROOT
BRANCH   3  10
HETATM   10  C   UNL     1      69.767  24.689  15.168  1.00  0.00     0.205 C 
BRANCH  10  11
HETATM   11  O   UNL     1      70.594  25.828  15.380  1.00  0.00    -0.396 OA
HETATM   12  H   UNL     1      71.002  25.772  16.258  1.00  0.00     0.209 HD
ENDBRANCH  10  11
ENDBRANCH   3  10
TORSDOF 2
ENDMDL
MODEL 3
REMARK VINA RESULT:      -4.8      1.345      3.031
REMARK  2 active torsions:
REMARK  status: ('A' for Active; 'I' for Inactive)
REMARK    1  A    between atoms: C_3  and  C_7 
REMARK    2  A    between atoms: C_7  and  O_8 
ROOT
HETATM    1  C   UNL     1      63.357   9.503   4.726  1.00  0.00     0.113 A 
HETATM    2  O   UNL     1      63.515  10.405   5.734  1.00  0.00    -0.322 OA
HETATM    3  C   UNL     1      64.021   8.294   4.602  1.00  0.00     0.002 A 
HETATM    4  O   UNL     1      61.889  11.133   4.113  1.00  0.00    -0.323 OA
HETATM    5  C   UNL     1      62.427   9.923   3.800  1.00  0.00     0.105 A 
HETATM    6  C   UNL     1      62.540  11.402   5.369  1.00  0.00     0.352 A 
HETATM    7  C   UNL     1      63.696   7.508   3.483  1.00  0.00     0.012 A 
HETATM    8  C   UNL     1      62.747   7.942   2.538  1.00  0.00     0.003 A 
HETATM    9  C   UNL     1      62.103   9.168   2.694  1.00  0.00     0.040 A 
ENDROOT
BRANCH   3  10
HETATM   10  C   UNL     1      65.047   7.840   5.594  1.00  0.00     0.205 C 
BRANCH  10  11
HETATM   11  O   UNL     1      65.813   8.949   6.051  1.00  0.00    -0.396 OA
HETATM   12  H   UNL     1      66.157   9.439   5.288  1.00  0.00     0.209 HD
ENDBRANCH  10  11
ENDBRANCH   3  10
TORSDOF 2
ENDMDL
MODEL 4
REMARK VINA RESULT:      -4.7     17.520     19.434
REMARK  2 active torsions:
REMARK  status: ('A' for Active; 'I' for Inactive)
REMARK    1  A    between atoms: C_3  and  C_7 
REMARK    2  A    between atoms: C_7  and  O_8 
ROOT
HETATM    1  C   UNL     1      76.574   3.657  17.928  1.00  0.00     0.113 A 
HETATM    2  O   UNL     1      77.125   4.856  18.266  1.00  0.00    -0.322 OA
HETATM    3  C   UNL     1      76.981   2.415  18.385  1.00  0.00     0.002 A 
HETATM    4  O   UNL     1      75.281   5.104  16.735  1.00  0.00    -0.323 OA
HETATM    5  C   UNL     1      75.521   3.803  17.051  1.00  0.00     0.105 A 
HETATM    6  C   UNL     1      76.263   5.767  17.555  1.00  0.00     0.352 A 
HETATM    7  C   UNL     1      76.263   1.302  17.913  1.00  0.00     0.012 A 
HETATM    8  C   UNL     1      75.189   1.455  17.015  1.00  0.00     0.003 A 
HETATM    9  C   UNL     1      74.811   2.723  16.573  1.00  0.00     0.040 A 
ENDROOT
BRANCH   3  10
HETATM   10  C   UNL     1      78.137   2.248  19.323  1.00  0.00     0.205 C 
BRANCH  10  11
HETATM   11  O   UNL     1      78.098   3.250  20.333  1.00  0.00    -0.396 OA
HETATM   12  H   UNL     1      77.349   3.843  20.170  1.00  0.00     0.209 HD
ENDBRANCH  10  11
ENDBRANCH   3  10
TORSDOF 2
ENDMDL
MODEL 5
REMARK VINA RESULT:      -4.6      1.492      2.010
REMARK  2 active torsions:
REMARK  status: ('A' for Active; 'I' for Inactive)
REMARK    1  A    between atoms: C_3  and  C_7 
REMARK    2  A    between atoms: C_7  and  O_8 
ROOT
HETATM    1  C   UNL     1      62.937   8.931   3.625  1.00  0.00     0.113 A 
HETATM    2  O   UNL     1      63.549   7.946   4.340  1.00  0.00    -0.322 OA
HETATM    3  C   UNL     1      62.603  10.191   4.092  1.00  0.00     0.002 A 
HETATM    4  O   UNL     1      63.086   7.268   2.076  1.00  0.00    -0.323 OA
HETATM    5  C   UNL     1      62.673   8.538   2.331  1.00  0.00     0.105 A 
HETATM    6  C   UNL     1      63.693   6.922   3.335  1.00  0.00     0.352 A 
HETATM    7  C   UNL     1      61.982  11.059   3.178  1.00  0.00     0.012 A 
HETATM    8  C   UNL     1      61.711  10.654   1.857  1.00  0.00     0.003 A 
HETATM    9  C   UNL     1      62.058   9.374   1.424  1.00  0.00     0.040 A 
ENDROOT
BRANCH   3  10
HETATM   10  C   UNL     1      62.870  10.617   5.503  1.00  0.00     0.205 C 
BRANCH  10  11
HETATM   11  O   UNL     1      64.250  10.449   5.814  1.00  0.00    -0.396 OA
HETATM   12  H   UNL     1      64.386   9.576   6.214  1.00  0.00     0.209 HD
ENDBRANCH  10  11
ENDBRANCH   3  10
TORSDOF 2
ENDMDL
MODEL 6
REMARK VINA RESULT:      -4.5     18.506     19.746
REMARK  2 active torsions:
REMARK  status: ('A' for Active; 'I' for Inactive)
REMARK    1  A    between atoms: C_3  and  C_7 
REMARK    2  A    between atoms: C_7  and  O_8 
ROOT
HETATM    1  C   UNL     1      76.687   1.464  17.943  1.00  0.00     0.113 A 
HETATM    2  O   UNL     1      77.795   1.199  18.690  1.00  0.00    -0.322 OA
HETATM    3  C   UNL     1      76.167   2.718  17.672  1.00  0.00     0.002 A 
HETATM    4  O   UNL     1      76.778  -0.809  17.833  1.00  0.00    -0.323 OA
HETATM    5  C   UNL     1      76.107   0.313  17.456  1.00  0.00     0.105 A 
HETATM    6  C   UNL     1      77.878  -0.235  18.564  1.00  0.00     0.352 A 
HETATM    7  C   UNL     1      75.016   2.764  16.867  1.00  0.00     0.012 A 
HETATM    8  C   UNL     1      74.425   1.585  16.374  1.00  0.00     0.003 A 
HETATM    9  C   UNL     1      74.974   0.339  16.672  1.00  0.00     0.040 A 
ENDROOT
BRANCH   3  10
HETATM   10  C   UNL     1      76.782   3.973  18.214  1.00  0.00     0.205 C 
BRANCH  10  11
HETATM   11  O   UNL     1      76.952   3.867  19.624  1.00  0.00    -0.396 OA
HETATM   12  H   UNL     1      77.130   4.745  19.994  1.00  0.00     0.209 HD
ENDBRANCH  10  11
ENDBRANCH   3  10
TORSDOF 2
ENDMDL
MODEL 7
REMARK VINA RESULT:      -4.4      2.099      3.693
REMARK  2 active torsions:
REMARK  status: ('A' for Active; 'I' for Inactive)
REMARK    1  A    between atoms: C_3  and  C_7 
REMARK    2  A    between atoms: C_7  and  O_8 
ROOT
HETATM    1  C   UNL     1      62.651   9.505   4.122  1.00  0.00     0.113 A 
HETATM    2  O   UNL     1      61.902  10.625   4.324  1.00  0.00    -0.322 OA
HETATM    3  C   UNL     1      62.421   8.532   3.165  1.00  0.00     0.002 A 
HETATM    4  O   UNL     1      63.760  10.489   5.852  1.00  0.00    -0.323 OA
HETATM    5  C   UNL     1      63.712   9.431   4.999  1.00  0.00     0.105 A 
HETATM    6  C   UNL     1      62.646  11.270   5.378  1.00  0.00     0.352 A 
HETATM    7  C   UNL     1      63.328   7.459   3.124  1.00  0.00     0.012 A 
HETATM    8  C   UNL     1      64.409   7.385   4.024  1.00  0.00     0.003 A 
HETATM    9  C   UNL     1      64.606   8.382   4.978  1.00  0.00     0.040 A 
ENDROOT
BRANCH   3  10
HETATM   10  C   UNL     1      61.259   8.597   2.221  1.00  0.00     0.205 C 
BRANCH  10  11
HETATM   11  O   UNL     1      61.112   9.920   1.714  1.00  0.00    -0.396 OA
HETATM   12  H   UNL     1      61.986  10.333   1.634  1.00  0.00     0.209 HD
ENDBRANCH  10  11
ENDBRANCH   3  10
TORSDOF 2
ENDMDL
MODEL 8
REMARK VINA RESULT:      -4.2      1.811      3.698
REMARK  2 active torsions:
REMARK  status: ('A' for Active; 'I' for Inactive)
REMARK    1  A    between atoms: C_3  and  C_7 
REMARK    2  A    between atoms: C_7  and  O_8 
ROOT
HETATM    1  C   UNL     1      62.527   8.871   3.601  1.00  0.00     0.113 A 
HETATM    2  O   UNL     1      62.903   7.737   4.255  1.00  0.00    -0.322 OA
HETATM    3  C   UNL     1      62.189   8.966   2.262  1.00  0.00     0.002 A 
HETATM    4  O   UNL     1      62.868   9.655   5.712  1.00  0.00    -0.323 OA
HETATM    5  C   UNL     1      62.509   9.966   4.437  1.00  0.00     0.105 A 
HETATM    6  C   UNL     1      63.057   8.232   5.601  1.00  0.00     0.352 A 
HETATM    7  C   UNL     1      61.819  10.239   1.792  1.00  0.00     0.012 A 
HETATM    8  C   UNL     1      61.805  11.356   2.650  1.00  0.00     0.003 A 
HETATM    9  C   UNL     1      62.157  11.222   3.992  1.00  0.00     0.040 A 
ENDROOT
BRANCH   3  10
HETATM   10  C   UNL     1      62.224   7.784   1.343  1.00  0.00     0.205 C 
BRANCH  10  11
HETATM   11  O   UNL     1      63.282   6.906   1.713  1.00  0.00    -0.396 OA
HETATM   12  H   UNL     1      63.630   7.168   2.579  1.00  0.00     0.209 HD
ENDBRANCH  10  11
ENDBRANCH   3  10
TORSDOF 2
ENDMDL
MODEL 9
REMARK VINA RESULT:      -4.2      7.257      9.129
REMARK  2 active torsions:
REMARK  status: ('A' for Active; 'I' for Inactive)
REMARK    1  A    between atoms: C_3  and  C_7 
REMARK    2  A    between atoms: C_7  and  O_8 
ROOT
HETATM    1  C   UNL     1      67.893   3.048   8.675  1.00  0.00     0.113 A 
HETATM    2  O   UNL     1      66.949   2.077   8.523  1.00  0.00    -0.322 OA
HETATM    3  C   UNL     1      68.985   2.996   9.525  1.00  0.00     0.002 A 
HETATM    4  O   UNL     1      66.531   3.979   7.104  1.00  0.00    -0.323 OA
HETATM    5  C   UNL     1      67.650   4.134   7.863  1.00  0.00     0.105 A 
HETATM    6  C   UNL     1      66.128   2.650   7.485  1.00  0.00     0.352 A 
HETATM    7  C   UNL     1      69.843   4.109   9.517  1.00  0.00     0.012 A 
HETATM    8  C   UNL     1      69.590   5.219   8.688  1.00  0.00     0.003 A 
HETATM    9  C   UNL     1      68.476   5.237   7.849  1.00  0.00     0.040 A 
ENDROOT
BRANCH   3  10
HETATM   10  C   UNL     1      69.244   1.826  10.424  1.00  0.00     0.205 C 
BRANCH  10  11
HETATM   11  O   UNL     1      68.077   1.520  11.180  1.00  0.00    -0.396 OA
HETATM   12  H   UNL     1      67.583   2.336  11.354  1.00  0.00     0.209 HD
ENDBRANCH  10  11
ENDBRANCH   3  10
TORSDOF 2
ENDMDL
