MODEL 1
REMARK VINA RESULT:      -3.8      0.000      0.000
REMARK  2 active torsions:
REMARK  status: ('A' for Active; 'I' for Inactive)
REMARK    1  A    between atoms: C_1  and  C_7 
REMARK    2  A    between atoms: N_6  and  C_7 
ROOT
HETATM    1  C   UNL     1      78.175  12.428  20.543  1.00  0.00    -0.009 A 
HETATM    2  O   UNL     1      77.199  11.730  18.631  1.00  0.00    -0.334 OA
HETATM    3  C   UNL     1      78.044  11.393  19.638  1.00  0.00     0.150 A 
HETATM    4  C   UNL     1      77.337  13.468  20.041  1.00  0.00     0.035 A 
HETATM    5  C   UNL     1      76.774  12.994  18.880  1.00  0.00     0.142 A 
ENDROOT
BRANCH   1   6
HETATM    6  C   UNL     1      78.992  12.440  21.782  1.00  0.00     0.270 C 
BRANCH   6   7
HETATM    7  N   UNL     1      80.129  11.550  21.597  1.00  0.00    -0.075 N 
HETATM    8  H   UNL     1      79.798  10.589  21.501  1.00  0.00     0.274 HD
HETATM    9  H   UNL     1      80.749  11.617  22.404  1.00  0.00     0.274 HD
HETATM   10  H   UNL     1      80.638  11.819  20.754  1.00  0.00     0.274 HD
ENDBRANCH   6   7
ENDBRANCH   1   6
TORSDOF 2
ENDMDL
MODEL 2
REMARK VINA RESULT:      -3.8      1.489      2.167
REMARK  2 active torsions:
REMARK  status: ('A' for Active; 'I' for Inactive)
REMARK    1  A    between atoms: C_1  and  C_7 
REMARK    2  A    between atoms: N_6  and  C_7 
ROOT
HETATM    1  C   UNL     1      77.714  11.203  19.508  1.00  0.00    -0.009 A 
HETATM    2  O   UNL     1      76.040  12.716  19.448  1.00  0.00    -0.334 OA
HETATM    3  C   UNL     1      76.766  11.828  18.722  1.00  0.00     0.150 A 
HETATM    4  C   UNL     1      77.542  11.758  20.810  1.00  0.00     0.035 A 
HETATM    5  C   UNL     1      76.518  12.671  20.718  1.00  0.00     0.142 A 
ENDROOT
BRANCH   1   6
HETATM    6  C   UNL     1      78.685  10.163  19.086  1.00  0.00     0.270 C 
BRANCH   6   7
HETATM    7  N   UNL     1      79.966  10.438  19.719  1.00  0.00    -0.075 N 
HETATM    8  H   UNL     1      80.711  10.371  19.024  1.00  0.00     0.274 HD
HETATM    9  H   UNL     1      80.132   9.757  20.461  1.00  0.00     0.274 HD
HETATM   10  H   UNL     1      79.955  11.377  20.116  1.00  0.00     0.274 HD
ENDBRANCH   6   7
ENDBRANCH   1   6
TORSDOF 2
ENDMDL
MODEL 3
REMARK VINA RESULT:      -3.6      5.041      6.013
REMARK  2 active torsions:
REMARK  status: ('A' for Active; 'I' for Inactive)
REMARK    1  A    between atoms: C_1  and  C_7 
REMARK    2  A    between atoms: N_6  and  C_7 
ROOT
HETATM    1  C   UNL     1      77.257   8.132  16.527  1.00  0.00    -0.009 A 
HETATM    2  O   UNL     1      77.891  10.177  17.242  1.00  0.00    -0.334 OA
HETATM    3  C   UNL     1      77.754   9.367  16.161  1.00  0.00     0.150 A 
HETATM    4  C   UNL     1      77.079   8.207  17.940  1.00  0.00     0.035 A 
HETATM    5  C   UNL     1      77.481   9.465  18.322  1.00  0.00     0.142 A 
ENDROOT
BRANCH   1   6
HETATM    6  C   UNL     1      76.955   6.986  15.634  1.00  0.00     0.270 C 
BRANCH   6   7
HETATM    7  N   UNL     1      77.263   7.370  14.264  1.00  0.00    -0.075 N 
HETATM    8  H   UNL     1      77.714   8.286  14.260  1.00  0.00     0.274 HD
HETATM    9  H   UNL     1      76.401   7.414  13.721  1.00  0.00     0.274 HD
HETATM   10  H   UNL     1      77.891   6.681  13.850  1.00  0.00     0.274 HD
ENDBRANCH   6   7
ENDBRANCH   1   6
TORSDOF 2
ENDMDL
MODEL 4
REMARK VINA RESULT:      -3.6     13.893     14.283
REMARK  2 active torsions:
REMARK  status: ('A' for Active; 'I' for Inactive)
REMARK    1  A    between atoms: C_1  and  C_7 
REMARK    2  A    between atoms: N_6  and  C_7 
ROOT
HETATM    1  C   UNL     1      71.383  23.046  13.497  1.00  0.00    -0.009 A 
HETATM    2  O   UNL     1      72.562  21.956  11.911  1.00  0.00    -0.334 OA
HETATM    3  C   UNL     1      72.640  22.717  13.032  1.00  0.00     0.150 A 
HETATM    4  C   UNL     1      70.476  22.429  12.585  1.00  0.00     0.035 A 
HETATM    5  C   UNL     1      71.242  21.785  11.643  1.00  0.00     0.142 A 
ENDROOT
BRANCH   1   6
HETATM    6  C   UNL     1      71.053  23.849  14.701  1.00  0.00     0.270 C 
BRANCH   6   7
HETATM    7  N   UNL     1      72.293  24.218  15.368  1.00  0.00    -0.075 N 
HETATM    8  H   UNL     1      72.263  25.207  15.619  1.00  0.00     0.274 HD
HETATM    9  H   UNL     1      73.079  24.050  14.741  1.00  0.00     0.274 HD
HETATM   10  H   UNL     1      72.405  23.657  16.212  1.00  0.00     0.274 HD
ENDBRANCH   6   7
ENDBRANCH   1   6
TORSDOF 2
ENDMDL
MODEL 5
REMARK VINA RESULT:      -3.5     14.075     14.566
REMARK  2 active torsions:
REMARK  status: ('A' for Active; 'I' for Inactive)
REMARK    1  A    between atoms: C_1  and  C_7 
REMARK    2  A    between atoms: N_6  and  C_7 
ROOT
HETATM    1  C   UNL     1      71.610  23.788  14.247  1.00  0.00    -0.009 A 
HETATM    2  O   UNL     1      73.018  22.300  13.301  1.00  0.00    -0.334 OA
HETATM    3  C   UNL     1      71.734  22.540  13.670  1.00  0.00     0.150 A 
HETATM    4  C   UNL     1      72.924  24.343  14.218  1.00  0.00     0.035 A 
HETATM    5  C   UNL     1      73.737  23.400  13.638  1.00  0.00     0.142 A 
ENDROOT
BRANCH   1   6
HETATM    6  C   UNL     1      70.369  24.420  14.762  1.00  0.00     0.270 C 
BRANCH   6   7
HETATM    7  N   UNL     1      70.683  25.772  15.201  1.00  0.00    -0.075 N 
HETATM    8  H   UNL     1      69.899  26.390  14.987  1.00  0.00     0.274 HD
HETATM    9  H   UNL     1      71.517  26.102  14.714  1.00  0.00     0.274 HD
HETATM   10  H   UNL     1      70.853  25.773  16.206  1.00  0.00     0.274 HD
ENDBRANCH   6   7
ENDBRANCH   1   6
TORSDOF 2
ENDMDL
MODEL 6
REMARK VINA RESULT:      -3.5     22.263     22.861
REMARK  2 active torsions:
REMARK  status: ('A' for Active; 'I' for Inactive)
REMARK    1  A    between atoms: C_1  and  C_7 
REMARK    2  A    between atoms: N_6  and  C_7 
ROOT
HETATM    1  C   UNL     1      62.365   9.767   3.842  1.00  0.00    -0.009 A 
HETATM    2  O   UNL     1      61.931  11.965   3.569  1.00  0.00    -0.334 OA
HETATM    3  C   UNL     1      62.299  11.003   4.453  1.00  0.00     0.150 A 
HETATM    4  C   UNL     1      62.013  10.007   2.480  1.00  0.00     0.035 A 
HETATM    5  C   UNL     1      61.756  11.353   2.371  1.00  0.00     0.142 A 
ENDROOT
BRANCH   1   6
HETATM    6  C   UNL     1      62.745   8.475   4.466  1.00  0.00     0.270 C 
BRANCH   6   7
HETATM    7  N   UNL     1      63.006   8.702   5.881  1.00  0.00    -0.075 N 
HETATM    8  H   UNL     1      62.732   7.876   6.414  1.00  0.00     0.274 HD
HETATM    9  H   UNL     1      62.468   9.507   6.201  1.00  0.00     0.274 HD
HETATM   10  H   UNL     1      64.001   8.881   6.019  1.00  0.00     0.274 HD
ENDBRANCH   6   7
ENDBRANCH   1   6
TORSDOF 2
ENDMDL
MODEL 7
REMARK VINA RESULT:      -3.5     11.853     12.711
REMARK  2 active torsions:
REMARK  status: ('A' for Active; 'I' for Inactive)
REMARK    1  A    between atoms: C_1  and  C_7 
REMARK    2  A    between atoms: N_6  and  C_7 
ROOT
HETATM    1  C   UNL     1      73.896  22.562  14.973  1.00  0.00    -0.009 A 
HETATM    2  O   UNL     1      72.173  23.892  14.375  1.00  0.00    -0.334 OA
HETATM    3  C   UNL     1      72.711  23.147  15.374  1.00  0.00     0.150 A 
HETATM    4  C   UNL     1      74.086  22.993  13.627  1.00  0.00     0.035 A 
HETATM    5  C   UNL     1      73.013  23.793  13.314  1.00  0.00     0.142 A 
ENDROOT
BRANCH   1   6
HETATM    6  C   UNL     1      74.786  21.692  15.782  1.00  0.00     0.270 C 
BRANCH   6   7
HETATM    7  N   UNL     1      76.083  21.615  15.125  1.00  0.00    -0.075 N 
HETATM    8  H   UNL     1      76.155  22.356  14.426  1.00  0.00     0.274 HD
HETATM    9  H   UNL     1      76.181  20.708  14.669  1.00  0.00     0.274 HD
HETATM   10  H   UNL     1      76.823  21.729  15.818  1.00  0.00     0.274 HD
ENDBRANCH   6   7
ENDBRANCH   1   6
TORSDOF 2
ENDMDL
MODEL 8
REMARK VINA RESULT:      -3.5      8.325      9.212
REMARK  2 active torsions:
REMARK  status: ('A' for Active; 'I' for Inactive)
REMARK    1  A    between atoms: C_1  and  C_7 
REMARK    2  A    between atoms: N_6  and  C_7 
ROOT
HETATM    1  C   UNL     1      75.791   3.838  17.248  1.00  0.00    -0.009 A 
HETATM    2  O   UNL     1      77.191   5.372  18.134  1.00  0.00    -0.334 OA
HETATM    3  C   UNL     1      76.791   4.075  18.171  1.00  0.00     0.150 A 
HETATM    4  C   UNL     1      75.576   5.092  16.603  1.00  0.00     0.035 A 
HETATM    5  C   UNL     1      76.446   5.986  17.180  1.00  0.00     0.142 A 
ENDROOT
BRANCH   1   6
HETATM    6  C   UNL     1      75.108   2.549  16.976  1.00  0.00     0.270 C 
BRANCH   6   7
HETATM    7  N   UNL     1      74.862   1.876  18.243  1.00  0.00    -0.075 N 
HETATM    8  H   UNL     1      75.674   1.987  18.851  1.00  0.00     0.274 HD
HETATM    9  H   UNL     1      74.697   0.884  18.075  1.00  0.00     0.274 HD
HETATM   10  H   UNL     1      74.043   2.286  18.692  1.00  0.00     0.274 HD
ENDBRANCH   6   7
ENDBRANCH   1   6
TORSDOF 2
ENDMDL
MODEL 9
REMARK VINA RESULT:      -3.4     14.401     15.049
REMARK  2 active torsions:
REMARK  status: ('A' for Active; 'I' for Inactive)
REMARK    1  A    between atoms: C_1  and  C_7 
REMARK    2  A    between atoms: N_6  and  C_7 
ROOT
HETATM    1  C   UNL     1      71.658  23.715  13.944  1.00  0.00    -0.009 A 
HETATM    2  O   UNL     1      70.806  25.349  15.248  1.00  0.00    -0.334 OA
HETATM    3  C   UNL     1      70.553  24.162  14.640  1.00  0.00     0.150 A 
HETATM    4  C   UNL     1      72.657  24.712  14.154  1.00  0.00     0.035 A 
HETATM    5  C   UNL     1      72.088  25.679  14.947  1.00  0.00     0.142 A 
ENDROOT
BRANCH   1   6
HETATM    6  C   UNL     1      71.781  22.456  13.167  1.00  0.00     0.270 C 
BRANCH   6   7
HETATM    7  N   UNL     1      72.310  22.774  11.848  1.00  0.00    -0.075 N 
HETATM    8  H   UNL     1      72.937  22.028  11.544  1.00  0.00     0.274 HD
HETATM    9  H   UNL     1      72.825  23.654  11.891  1.00  0.00     0.274 HD
HETATM   10  H   UNL     1      71.540  22.863  11.186  1.00  0.00     0.274 HD
ENDBRANCH   6   7
ENDBRANCH   1   6
TORSDOF 2
ENDMDL
