MODEL 1
REMARK VINA RESULT:      -3.8      0.000      0.000
REMARK  2 active torsions:
REMARK  status: ('A' for Active; 'I' for Inactive)
REMARK    1  A    between atoms: C_2  and  C_7 
REMARK    2  A    between atoms: N_6  and  C_7 
ROOT
HETATM    1  N   UNL     1      62.466   9.374   2.875  1.00  0.00    -0.363 N 
HETATM    2  C   UNL     1      62.416  10.281   3.912  1.00  0.00     0.036 A 
HETATM    3  C   UNL     1      62.009   9.968   1.723  1.00  0.00     0.090 A 
HETATM    4  C   UNL     1      61.673  11.269   2.013  1.00  0.00     0.019 A 
HETATM    5  C   UNL     1      61.930  11.468   3.388  1.00  0.00     0.028 A 
HETATM    6  C   UNL     1      62.913   8.000   2.926  1.00  0.00     0.155 C 
ENDROOT
BRANCH   2   7
HETATM    7  C   UNL     1      62.844   9.987   5.309  1.00  0.00     0.286 C 
BRANCH   7   8
HETATM    8  N   UNL     1      63.345  11.197   5.945  1.00  0.00    -0.074 N 
HETATM    9  H   UNL     1      62.770  11.414   6.760  1.00  0.00     0.274 HD
HETATM   10  H   UNL     1      63.304  11.971   5.284  1.00  0.00     0.274 HD
HETATM   11  H   UNL     1      64.311  11.052   6.240  1.00  0.00     0.274 HD
ENDBRANCH   7   8
ENDBRANCH   2   7
TORSDOF 2
ENDMDL
MODEL 2
REMARK VINA RESULT:      -3.3      6.992      8.396
REMARK  2 active torsions:
REMARK  status: ('A' for Active; 'I' for Inactive)
REMARK    1  A    between atoms: C_2  and  C_7 
REMARK    2  A    between atoms: N_6  and  C_7 
ROOT
HETATM    1  N   UNL     1      67.856   5.096   7.091  1.00  0.00    -0.363 N 
HETATM    2  C   UNL     1      67.345   6.109   7.874  1.00  0.00     0.036 A 
HETATM    3  C   UNL     1      68.778   4.377   7.813  1.00  0.00     0.090 A 
HETATM    4  C   UNL     1      68.855   4.919   9.074  1.00  0.00     0.019 A 
HETATM    5  C   UNL     1      67.954   6.006   9.115  1.00  0.00     0.028 A 
HETATM    6  C   UNL     1      67.521   4.788   5.718  1.00  0.00     0.155 C 
ENDROOT
BRANCH   2   7
HETATM    7  C   UNL     1      66.313   7.083   7.422  1.00  0.00     0.286 C 
BRANCH   7   8
HETATM    8  N   UNL     1      66.929   8.372   7.141  1.00  0.00    -0.074 N 
HETATM    9  H   UNL     1      66.950   8.931   7.995  1.00  0.00     0.274 HD
HETATM   10  H   UNL     1      66.387   8.860   6.429  1.00  0.00     0.274 HD
HETATM   11  H   UNL     1      67.882   8.228   6.805  1.00  0.00     0.274 HD
ENDBRANCH   7   8
ENDBRANCH   2   7
TORSDOF 2
ENDMDL
MODEL 3
REMARK VINA RESULT:      -3.3      1.556      2.051
REMARK  2 active torsions:
REMARK  status: ('A' for Active; 'I' for Inactive)
REMARK    1  A    between atoms: C_2  and  C_7 
REMARK    2  A    between atoms: N_6  and  C_7 
ROOT
HETATM    1  N   UNL     1      62.659   9.311   3.465  1.00  0.00    -0.363 N 
HETATM    2  C   UNL     1      63.302   9.272   4.684  1.00  0.00     0.036 A 
HETATM    3  C   UNL     1      61.996  10.508   3.332  1.00  0.00     0.090 A 
HETATM    4  C   UNL     1      62.221  11.253   4.466  1.00  0.00     0.019 A 
HETATM    5  C   UNL     1      63.043  10.479   5.315  1.00  0.00     0.028 A 
HETATM    6  C   UNL     1      62.641   8.287   2.444  1.00  0.00     0.155 C 
ENDROOT
BRANCH   2   7
HETATM    7  C   UNL     1      64.128   8.129   5.164  1.00  0.00     0.286 C 
BRANCH   7   8
HETATM    8  N   UNL     1      65.233   8.616   5.978  1.00  0.00    -0.074 N 
HETATM    9  H   UNL     1      64.878   8.912   6.888  1.00  0.00     0.274 HD
HETATM   10  H   UNL     1      65.676   9.406   5.512  1.00  0.00     0.274 HD
HETATM   11  H   UNL     1      65.915   7.869   6.106  1.00  0.00     0.274 HD
ENDBRANCH   7   8
ENDBRANCH   2   7
TORSDOF 2
ENDMDL
MODEL 4
REMARK VINA RESULT:      -3.3      1.334      2.993
REMARK  2 active torsions:
REMARK  status: ('A' for Active; 'I' for Inactive)
REMARK    1  A    between atoms: C_2  and  C_7 
REMARK    2  A    between atoms: N_6  and  C_7 
ROOT
HETATM    1  N   UNL     1      62.798   9.252   3.852  1.00  0.00    -0.363 N 
HETATM    2  C   UNL     1      62.140   9.955   2.867  1.00  0.00     0.036 A 
HETATM    3  C   UNL     1      62.927  10.040   4.972  1.00  0.00     0.090 A 
HETATM    4  C   UNL     1      62.339  11.255   4.713  1.00  0.00     0.019 A 
HETATM    5  C   UNL     1      61.842  11.203   3.391  1.00  0.00     0.028 A 
HETATM    6  C   UNL     1      63.302   7.898   3.783  1.00  0.00     0.155 C 
ENDROOT
BRANCH   2   7
HETATM    7  C   UNL     1      61.816   9.412   1.518  1.00  0.00     0.286 C 
BRANCH   7   8
HETATM    8  N   UNL     1      60.424   8.986   1.471  1.00  0.00    -0.074 N 
HETATM    9  H   UNL     1      60.343   8.156   0.883  1.00  0.00     0.274 HD
HETATM   10  H   UNL     1      59.852   9.735   1.082  1.00  0.00     0.274 HD
HETATM   11  H   UNL     1      60.103   8.767   2.414  1.00  0.00     0.274 HD
ENDBRANCH   7   8
ENDBRANCH   2   7
TORSDOF 2
ENDMDL
MODEL 5
REMARK VINA RESULT:      -3.3      8.591      9.745
REMARK  2 active torsions:
REMARK  status: ('A' for Active; 'I' for Inactive)
REMARK    1  A    between atoms: C_2  and  C_7 
REMARK    2  A    between atoms: N_6  and  C_7 
ROOT
HETATM    1  N   UNL     1      67.409   4.057   8.341  1.00  0.00    -0.363 N 
HETATM    2  C   UNL     1      68.473   4.648   8.988  1.00  0.00     0.036 A 
HETATM    3  C   UNL     1      66.385   4.966   8.216  1.00  0.00     0.090 A 
HETATM    4  C   UNL     1      66.794   6.154   8.774  1.00  0.00     0.019 A 
HETATM    5  C   UNL     1      68.106   5.957   9.258  1.00  0.00     0.028 A 
HETATM    6  C   UNL     1      67.318   2.700   7.850  1.00  0.00     0.155 C 
ENDROOT
BRANCH   2   7
HETATM    7  C   UNL     1      69.761   3.962   9.288  1.00  0.00     0.286 C 
BRANCH   7   8
HETATM    8  N   UNL     1      69.706   3.348  10.607  1.00  0.00    -0.074 N 
HETATM    9  H   UNL     1      69.728   4.076  11.322  1.00  0.00     0.274 HD
HETATM   10  H   UNL     1      70.508   2.729  10.728  1.00  0.00     0.274 HD
HETATM   11  H   UNL     1      68.844   2.809  10.696  1.00  0.00     0.274 HD
ENDBRANCH   7   8
ENDBRANCH   2   7
TORSDOF 2
ENDMDL
MODEL 6
REMARK VINA RESULT:      -3.2      1.214      2.291
REMARK  2 active torsions:
REMARK  status: ('A' for Active; 'I' for Inactive)
REMARK    1  A    between atoms: C_2  and  C_7 
REMARK    2  A    between atoms: N_6  and  C_7 
ROOT
HETATM    1  N   UNL     1      62.159  10.290   3.230  1.00  0.00    -0.363 N 
HETATM    2  C   UNL     1      62.630   9.075   3.678  1.00  0.00     0.036 A 
HETATM    3  C   UNL     1      61.928  10.222   1.876  1.00  0.00     0.090 A 
HETATM    4  C   UNL     1      62.240   8.954   1.449  1.00  0.00     0.019 A 
HETATM    5  C   UNL     1      62.680   8.231   2.580  1.00  0.00     0.028 A 
HETATM    6  C   UNL     1      61.925  11.487   4.007  1.00  0.00     0.155 C 
ENDROOT
BRANCH   2   7
HETATM    7  C   UNL     1      62.979   8.779   5.096  1.00  0.00     0.286 C 
BRANCH   7   8
HETATM    8  N   UNL     1      64.375   9.111   5.349  1.00  0.00    -0.074 N 
HETATM    9  H   UNL     1      64.879   8.268   5.627  1.00  0.00     0.274 HD
HETATM   10  H   UNL     1      64.430   9.802   6.096  1.00  0.00     0.274 HD
HETATM   11  H   UNL     1      64.793   9.493   4.500  1.00  0.00     0.274 HD
ENDBRANCH   7   8
ENDBRANCH   2   7
TORSDOF 2
ENDMDL
MODEL 7
REMARK VINA RESULT:      -3.1     12.813     13.926
REMARK  2 active torsions:
REMARK  status: ('A' for Active; 'I' for Inactive)
REMARK    1  A    between atoms: C_2  and  C_7 
REMARK    2  A    between atoms: N_6  and  C_7 
ROOT
HETATM    1  N   UNL     1      57.496   2.108  12.292  1.00  0.00    -0.363 N 
HETATM    2  C   UNL     1      57.041   1.765  13.547  1.00  0.00     0.036 A 
HETATM    3  C   UNL     1      58.870   2.087  12.279  1.00  0.00     0.090 A 
HETATM    4  C   UNL     1      59.307   1.717  13.529  1.00  0.00     0.019 A 
HETATM    5  C   UNL     1      58.159   1.512  14.326  1.00  0.00     0.028 A 
HETATM    6  C   UNL     1      56.705   2.450  11.130  1.00  0.00     0.155 C 
ENDROOT
BRANCH   2   7
HETATM    7  C   UNL     1      55.603   1.675  13.926  1.00  0.00     0.286 C 
BRANCH   7   8
HETATM    8  N   UNL     1      55.218   2.839  14.711  1.00  0.00    -0.074 N 
HETATM    9  H   UNL     1      55.452   2.680  15.691  1.00  0.00     0.274 HD
HETATM   10  H   UNL     1      54.214   2.992  14.622  1.00  0.00     0.274 HD
HETATM   11  H   UNL     1      55.719   3.660  14.371  1.00  0.00     0.274 HD
ENDBRANCH   7   8
ENDBRANCH   2   7
TORSDOF 2
ENDMDL
MODEL 8
REMARK VINA RESULT:      -2.9     15.177     16.158
REMARK  2 active torsions:
REMARK  status: ('A' for Active; 'I' for Inactive)
REMARK    1  A    between atoms: C_2  and  C_7 
REMARK    2  A    between atoms: N_6  and  C_7 
ROOT
HETATM    1  N   UNL     1      48.532  18.688   2.577  1.00  0.00    -0.363 N 
HETATM    2  C   UNL     1      49.396  19.154   1.610  1.00  0.00     0.036 A 
HETATM    3  C   UNL     1      48.732  17.341   2.762  1.00  0.00     0.090 A 
HETATM    4  C   UNL     1      49.739  16.935   1.920  1.00  0.00     0.019 A 
HETATM    5  C   UNL     1      50.160  18.074   1.196  1.00  0.00     0.028 A 
HETATM    6  C   UNL     1      47.543  19.443   3.315  1.00  0.00     0.155 C 
ENDROOT
BRANCH   2   7
HETATM    7  C   UNL     1      49.467  20.572   1.157  1.00  0.00     0.286 C 
BRANCH   7   8
HETATM    8  N   UNL     1      50.407  21.316   1.984  1.00  0.00    -0.074 N 
HETATM    9  H   UNL     1      50.480  22.273   1.637  1.00  0.00     0.274 HD
HETATM   10  H   UNL     1      51.323  20.869   1.944  1.00  0.00     0.274 HD
HETATM   11  H   UNL     1      50.076  21.328   2.949  1.00  0.00     0.274 HD
ENDBRANCH   7   8
ENDBRANCH   2   7
TORSDOF 2
ENDMDL
MODEL 9
REMARK VINA RESULT:      -2.9     21.750     22.917
REMARK  2 active torsions:
REMARK  status: ('A' for Active; 'I' for Inactive)
REMARK    1  A    between atoms: C_2  and  C_7 
REMARK    2  A    between atoms: N_6  and  C_7 
ROOT
HETATM    1  N   UNL     1      51.486  19.916  20.586  1.00  0.00    -0.363 N 
HETATM    2  C   UNL     1      51.422  21.292  20.535  1.00  0.00     0.036 A 
HETATM    3  C   UNL     1      50.216  19.399  20.674  1.00  0.00     0.090 A 
HETATM    4  C   UNL     1      49.324  20.445  20.668  1.00  0.00     0.019 A 
HETATM    5  C   UNL     1      50.080  21.635  20.579  1.00  0.00     0.028 A 
HETATM    6  C   UNL     1      52.671  19.086  20.558  1.00  0.00     0.155 C 
ENDROOT
BRANCH   2   7
HETATM    7  C   UNL     1      52.608  22.186  20.426  1.00  0.00     0.286 C 
BRANCH   7   8
HETATM    8  N   UNL     1      52.929  22.425  19.025  1.00  0.00    -0.074 N 
HETATM    9  H   UNL     1      53.796  21.942  18.789  1.00  0.00     0.274 HD
HETATM   10  H   UNL     1      53.044  23.426  18.869  1.00  0.00     0.274 HD
HETATM   11  H   UNL     1      52.173  22.073  18.438  1.00  0.00     0.274 HD
ENDBRANCH   7   8
ENDBRANCH   2   7
TORSDOF 2
ENDMDL
