MODEL 1
REMARK VINA RESULT:      -4.4      0.000      0.000
REMARK  1 active torsions:
REMARK  status: ('A' for Active; 'I' for Inactive)
REMARK    1  A    between atoms: C_1  and  C_3 
ROOT
HETATM    1  C   UNL     1      72.136  22.536  13.828  1.00  0.00     0.111 A 
HETATM    2  N   UNL     1      71.072  23.404  13.994  1.00  0.00    -0.356 N 
HETATM    3  C   UNL     1      71.810  21.739  12.734  1.00  0.00     0.038 A 
HETATM    4  C   UNL     1      70.117  23.167  13.032  1.00  0.00     0.091 A 
HETATM    5  C   UNL     1      70.550  22.135  12.237  1.00  0.00     0.020 A 
HETATM    6  C   UNL     1      70.902  24.430  15.001  1.00  0.00     0.156 C 
ENDROOT
BRANCH   1   7
HETATM    7  C   UNL     1      73.332  22.477  14.632  1.00  0.00     0.227 C 
HETATM    8  O   UNL     1      73.435  22.368  15.844  1.00  0.00    -0.643 OA
HETATM    9  O   UNL     1      74.445  22.561  13.869  1.00  0.00    -0.643 OA
ENDBRANCH   1   7
TORSDOF 1
ENDMDL
MODEL 2
REMARK VINA RESULT:      -4.3     19.148     19.824
REMARK  1 active torsions:
REMARK  status: ('A' for Active; 'I' for Inactive)
REMARK    1  A    between atoms: C_1  and  C_3 
ROOT
HETATM    1  C   UNL     1      76.616   4.046  17.898  1.00  0.00     0.111 A 
HETATM    2  N   UNL     1      75.542   3.886  17.041  1.00  0.00    -0.356 N 
HETATM    3  C   UNL     1      77.134   5.310  17.628  1.00  0.00     0.038 A 
HETATM    4  C   UNL     1      75.387   5.014  16.267  1.00  0.00     0.091 A 
HETATM    5  C   UNL     1      76.365   5.913  16.611  1.00  0.00     0.020 A 
HETATM    6  C   UNL     1      74.666   2.742  16.905  1.00  0.00     0.156 C 
ENDROOT
BRANCH   1   7
HETATM    7  C   UNL     1      77.092   3.090  18.869  1.00  0.00     0.227 C 
HETATM    8  O   UNL     1      77.364   1.910  18.710  1.00  0.00    -0.643 OA
HETATM    9  O   UNL     1      77.227   3.653  20.090  1.00  0.00    -0.643 OA
ENDBRANCH   1   7
TORSDOF 1
ENDMDL
MODEL 3
REMARK VINA RESULT:      -4.2     20.542     21.216
REMARK  1 active torsions:
REMARK  status: ('A' for Active; 'I' for Inactive)
REMARK    1  A    between atoms: C_1  and  C_3 
ROOT
HETATM    1  C   UNL     1      76.750   2.555  18.091  1.00  0.00     0.111 A 
HETATM    2  N   UNL     1      75.702   2.250  17.241  1.00  0.00    -0.356 N 
HETATM    3  C   UNL     1      77.549   1.416  18.134  1.00  0.00     0.038 A 
HETATM    4  C   UNL     1      75.845   0.969  16.761  1.00  0.00     0.091 A 
HETATM    5  C   UNL     1      76.983   0.427  17.303  1.00  0.00     0.020 A 
HETATM    6  C   UNL     1      74.582   3.087  16.864  1.00  0.00     0.156 C 
ENDROOT
BRANCH   1   7
HETATM    7  C   UNL     1      76.960   3.802  18.786  1.00  0.00     0.227 C 
HETATM    8  O   UNL     1      76.952   4.939  18.338  1.00  0.00    -0.643 OA
HETATM    9  O   UNL     1      77.190   3.601  20.102  1.00  0.00    -0.643 OA
ENDBRANCH   1   7
TORSDOF 1
ENDMDL
MODEL 4
REMARK VINA RESULT:      -4.2     18.875     19.941
REMARK  1 active torsions:
REMARK  status: ('A' for Active; 'I' for Inactive)
REMARK    1  A    between atoms: C_1  and  C_3 
ROOT
HETATM    1  C   UNL     1      62.156   9.817   2.501  1.00  0.00     0.111 A 
HETATM    2  N   UNL     1      62.844   8.807   3.147  1.00  0.00    -0.356 N 
HETATM    3  C   UNL     1      61.764   9.287   1.274  1.00  0.00     0.038 A 
HETATM    4  C   UNL     1      62.874   7.679   2.358  1.00  0.00     0.091 A 
HETATM    5  C   UNL     1      62.212   7.953   1.187  1.00  0.00     0.020 A 
HETATM    6  C   UNL     1      63.475   8.843   4.450  1.00  0.00     0.156 C 
ENDROOT
BRANCH   1   7
HETATM    7  C   UNL     1      61.903  11.145   3.005  1.00  0.00     0.227 C 
HETATM    8  O   UNL     1      61.701  11.501   4.156  1.00  0.00    -0.643 OA
HETATM    9  O   UNL     1      61.907  12.060   2.010  1.00  0.00    -0.643 OA
ENDBRANCH   1   7
TORSDOF 1
ENDMDL
MODEL 5
REMARK VINA RESULT:      -4.1     20.565     21.226
REMARK  1 active torsions:
REMARK  status: ('A' for Active; 'I' for Inactive)
REMARK    1  A    between atoms: C_1  and  C_3 
ROOT
HETATM    1  C   UNL     1      76.181   2.719  17.780  1.00  0.00     0.111 A 
HETATM    2  N   UNL     1      76.558   1.391  17.705  1.00  0.00    -0.356 N 
HETATM    3  C   UNL     1      75.065   2.845  16.956  1.00  0.00     0.038 A 
HETATM    4  C   UNL     1      75.703   0.705  16.872  1.00  0.00     0.091 A 
HETATM    5  C   UNL     1      74.768   1.587  16.391  1.00  0.00     0.020 A 
HETATM    6  C   UNL     1      77.670   0.736  18.363  1.00  0.00     0.156 C 
ENDROOT
BRANCH   1   7
HETATM    7  C   UNL     1      76.822   3.753  18.556  1.00  0.00     0.227 C 
HETATM    8  O   UNL     1      77.145   3.737  19.734  1.00  0.00    -0.643 OA
HETATM    9  O   UNL     1      77.062   4.853  17.808  1.00  0.00    -0.643 OA
ENDBRANCH   1   7
TORSDOF 1
ENDMDL
MODEL 6
REMARK VINA RESULT:      -4.1     18.243     19.101
REMARK  1 active torsions:
REMARK  status: ('A' for Active; 'I' for Inactive)
REMARK    1  A    between atoms: C_1  and  C_3 
ROOT
HETATM    1  C   UNL     1      62.743   9.663   4.197  1.00  0.00     0.111 A 
HETATM    2  N   UNL     1      62.585   9.052   2.967  1.00  0.00    -0.356 N 
HETATM    3  C   UNL     1      62.224  10.947   4.054  1.00  0.00     0.038 A 
HETATM    4  C   UNL     1      61.978   9.918   2.086  1.00  0.00     0.091 A 
HETATM    5  C   UNL     1      61.746  11.104   2.736  1.00  0.00     0.020 A 
HETATM    6  C   UNL     1      62.973   7.713   2.575  1.00  0.00     0.156 C 
ENDROOT
BRANCH   1   7
HETATM    7  C   UNL     1      63.330   9.079   5.379  1.00  0.00     0.227 C 
HETATM    8  O   UNL     1      62.820   8.328   6.195  1.00  0.00    -0.643 OA
HETATM    9  O   UNL     1      64.616   9.464   5.533  1.00  0.00    -0.643 OA
ENDBRANCH   1   7
TORSDOF 1
ENDMDL
MODEL 7
REMARK VINA RESULT:      -3.9     18.125     19.147
REMARK  1 active torsions:
REMARK  status: ('A' for Active; 'I' for Inactive)
REMARK    1  A    between atoms: C_1  and  C_3 
ROOT
HETATM    1  C   UNL     1      63.035   9.038   3.908  1.00  0.00     0.111 A 
HETATM    2  N   UNL     1      62.306  10.092   3.389  1.00  0.00    -0.356 N 
HETATM    3  C   UNL     1      63.030   8.052   2.925  1.00  0.00     0.038 A 
HETATM    4  C   UNL     1      61.868   9.783   2.121  1.00  0.00     0.091 A 
HETATM    5  C   UNL     1      62.302   8.519   1.810  1.00  0.00     0.020 A 
HETATM    6  C   UNL     1      61.996  11.361   4.014  1.00  0.00     0.156 C 
ENDROOT
BRANCH   1   7
HETATM    7  C   UNL     1      63.665   8.983   5.205  1.00  0.00     0.227 C 
HETATM    8  O   UNL     1      64.734   9.457   5.557  1.00  0.00    -0.643 OA
HETATM    9  O   UNL     1      62.909   8.299   6.092  1.00  0.00    -0.643 OA
ENDBRANCH   1   7
TORSDOF 1
ENDMDL
MODEL 8
REMARK VINA RESULT:      -3.8     17.778     18.692
REMARK  1 active torsions:
REMARK  status: ('A' for Active; 'I' for Inactive)
REMARK    1  A    between atoms: C_1  and  C_3 
ROOT
HETATM    1  C   UNL     1      67.121   6.472   7.689  1.00  0.00     0.111 A 
HETATM    2  N   UNL     1      67.709   5.458   6.954  1.00  0.00    -0.356 N 
HETATM    3  C   UNL     1      67.603   6.329   8.987  1.00  0.00     0.038 A 
HETATM    4  C   UNL     1      68.538   4.713   7.760  1.00  0.00     0.091 A 
HETATM    5  C   UNL     1      68.488   5.232   9.029  1.00  0.00     0.020 A 
HETATM    6  C   UNL     1      67.531   5.151   5.550  1.00  0.00     0.156 C 
ENDROOT
BRANCH   1   7
HETATM    7  C   UNL     1      66.198   7.466   7.199  1.00  0.00     0.227 C 
HETATM    8  O   UNL     1      66.439   8.532   6.653  1.00  0.00    -0.643 OA
HETATM    9  O   UNL     1      64.915   7.095   7.409  1.00  0.00    -0.643 OA
ENDBRANCH   1   7
TORSDOF 1
ENDMDL
MODEL 9
REMARK VINA RESULT:      -3.8     20.082     20.870
REMARK  1 active torsions:
REMARK  status: ('A' for Active; 'I' for Inactive)
REMARK    1  A    between atoms: C_1  and  C_3 
ROOT
HETATM    1  C   UNL     1      69.125   2.939   9.510  1.00  0.00     0.111 A 
HETATM    2  N   UNL     1      68.913   2.738   8.159  1.00  0.00    -0.356 N 
HETATM    3  C   UNL     1      69.143   4.319   9.692  1.00  0.00     0.038 A 
HETATM    4  C   UNL     1      68.792   3.950   7.517  1.00  0.00     0.091 A 
HETATM    5  C   UNL     1      68.934   4.948   8.447  1.00  0.00     0.020 A 
HETATM    6  C   UNL     1      68.825   1.483   7.442  1.00  0.00     0.156 C 
ENDROOT
BRANCH   1   7
HETATM    7  C   UNL     1      69.293   1.918  10.516  1.00  0.00     0.227 C 
HETATM    8  O   UNL     1      70.326   1.489  11.006  1.00  0.00    -0.643 OA
HETATM    9  O   UNL     1      68.102   1.421  10.918  1.00  0.00    -0.643 OA
ENDBRANCH   1   7
TORSDOF 1
ENDMDL
