MODEL 1
REMARK VINA RESULT:      -5.0      0.000      0.000
REMARK  3 active torsions:
REMARK  status: ('A' for Active; 'I' for Inactive)
REMARK    1  A    between atoms: C_1  and  C_6 
REMARK    2  A    between atoms: C_4  and  C_10 
REMARK    3  A    between atoms: N_9  and  C_10 
ROOT
HETATM    1  C   UNL     1      65.574   7.830   5.514  1.00  0.00     0.032 A 
HETATM    2  S   UNL     1      65.634   6.835   6.878  1.00  0.00    -0.091 SA
HETATM    3  C   UNL     1      66.828   7.833   4.913  1.00  0.00     0.022 A 
HETATM    4  C   UNL     1      67.251   6.391   6.681  1.00  0.00     0.009 A 
HETATM    5  C   UNL     1      67.763   7.040   5.578  1.00  0.00     0.017 A 
ENDROOT
BRANCH   1   6
HETATM    6  C   UNL     1      64.403   8.599   5.047  1.00  0.00     0.049 A 
HETATM    7  N   UNL     1      64.021   9.728   5.709  1.00  0.00    -0.365 N 
HETATM    8  C   UNL     1      62.982  10.496   5.280  1.00  0.00     0.088 A 
ATOM      9  HN  UNL     1      64.528  10.005   6.549  1.00  0.00     0.165 HD
HETATM   10  C   UNL     1      62.251  10.121   4.150  1.00  0.00     0.017 A 
HETATM   11  C   UNL     1      62.601   8.957   3.469  1.00  0.00     0.004 A 
HETATM   12  C   UNL     1      63.686   8.197   3.905  1.00  0.00     0.031 A 
ENDBRANCH   1   6
BRANCH   4  13
HETATM   13  C   UNL     1      68.036   5.447   7.538  1.00  0.00     0.275 C 
BRANCH  13  14
HETATM   14  N   UNL     1      68.610   6.170   8.670  1.00  0.00    -0.075 N 
HETATM   15  H   UNL     1      68.089   5.947   9.517  1.00  0.00     0.274 HD
HETATM   16  H   UNL     1      68.558   7.173   8.493  1.00  0.00     0.274 HD
HETATM   17  H   UNL     1      69.586   5.897   8.789  1.00  0.00     0.274 HD
ENDBRANCH  13  14
ENDBRANCH   4  13
TORSDOF 3
ENDMDL
MODEL 2
REMARK VINA RESULT:      -4.9      3.153      4.809
REMARK  3 active torsions:
REMARK  status: ('A' for Active; 'I' for Inactive)
REMARK    1  A    between atoms: C_1  and  C_6 
REMARK    2  A    between atoms: C_4  and  C_10 
REMARK    3  A    between atoms: N_9  and  C_10 
ROOT
HETATM    1  C   UNL     1      68.241   5.019   7.886  1.00  0.00     0.032 A 
HETATM    2  S   UNL     1      67.575   3.536   8.347  1.00  0.00    -0.091 SA
HETATM    3  C   UNL     1      69.398   5.232   8.627  1.00  0.00     0.022 A 
HETATM    4  C   UNL     1      68.780   3.160   9.468  1.00  0.00     0.009 A 
HETATM    5  C   UNL     1      69.685   4.198   9.518  1.00  0.00     0.017 A 
ENDROOT
BRANCH   1   6
HETATM    6  C   UNL     1      67.680   5.955   6.893  1.00  0.00     0.049 A 
HETATM    7  N   UNL     1      67.289   7.203   7.276  1.00  0.00    -0.365 N 
HETATM    8  C   UNL     1      66.818   8.116   6.383  1.00  0.00     0.088 A 
ATOM      9  HN  UNL     1      67.350   7.461   8.261  1.00  0.00     0.165 HD
HETATM   10  C   UNL     1      66.693   7.778   5.033  1.00  0.00     0.017 A 
HETATM   11  C   UNL     1      67.059   6.499   4.616  1.00  0.00     0.004 A 
HETATM   12  C   UNL     1      67.566   5.587   5.539  1.00  0.00     0.031 A 
ENDBRANCH   1   6
BRANCH   4  13
HETATM   13  C   UNL     1      68.888   1.913  10.289  1.00  0.00     0.275 C 
BRANCH  13  14
HETATM   14  N   UNL     1      70.293   1.541  10.437  1.00  0.00    -0.075 N 
HETATM   15  H   UNL     1      70.782   1.701   9.557  1.00  0.00     0.274 HD
HETATM   16  H   UNL     1      70.358   0.554  10.688  1.00  0.00     0.274 HD
HETATM   17  H   UNL     1      70.719   2.106  11.171  1.00  0.00     0.274 HD
ENDBRANCH  13  14
ENDBRANCH   4  13
TORSDOF 3
ENDMDL
MODEL 3
REMARK VINA RESULT:      -4.9      1.878      2.690
REMARK  3 active torsions:
REMARK  status: ('A' for Active; 'I' for Inactive)
REMARK    1  A    between atoms: C_1  and  C_6 
REMARK    2  A    between atoms: C_4  and  C_10 
REMARK    3  A    between atoms: N_9  and  C_10 
ROOT
HETATM    1  C   UNL     1      63.411   8.412   4.842  1.00  0.00     0.032 A 
HETATM    2  S   UNL     1      65.064   8.289   5.174  1.00  0.00    -0.091 SA
HETATM    3  C   UNL     1      62.731   7.504   5.646  1.00  0.00     0.022 A 
HETATM    4  C   UNL     1      64.901   7.098   6.360  1.00  0.00     0.009 A 
HETATM    5  C   UNL     1      63.569   6.764   6.479  1.00  0.00     0.017 A 
ENDROOT
BRANCH   1   6
HETATM    6  C   UNL     1      62.787   9.304   3.846  1.00  0.00     0.049 A 
HETATM    7  N   UNL     1      62.412  10.565   4.200  1.00  0.00    -0.365 N 
HETATM    8  C   UNL     1      61.884  11.438   3.298  1.00  0.00     0.088 A 
ATOM      9  HN  UNL     1      62.531  10.864   5.167  1.00  0.00     0.165 HD
HETATM   10  C   UNL     1      61.680  11.044   1.974  1.00  0.00     0.017 A 
HETATM   11  C   UNL     1      62.029   9.750   1.589  1.00  0.00     0.004 A 
HETATM   12  C   UNL     1      62.595   8.878   2.518  1.00  0.00     0.031 A 
ENDBRANCH   1   6
BRANCH   4  13
HETATM   13  C   UNL     1      65.997   6.485   7.175  1.00  0.00     0.275 C 
BRANCH  13  14
HETATM   14  N   UNL     1      66.956   7.515   7.565  1.00  0.00    -0.075 N 
HETATM   15  H   UNL     1      67.785   7.075   7.966  1.00  0.00     0.274 HD
HETATM   16  H   UNL     1      66.530   8.131   8.258  1.00  0.00     0.274 HD
HETATM   17  H   UNL     1      67.223   8.060   6.745  1.00  0.00     0.274 HD
ENDBRANCH  13  14
ENDBRANCH   4  13
TORSDOF 3
ENDMDL
MODEL 4
REMARK VINA RESULT:      -4.7      1.560      6.385
REMARK  3 active torsions:
REMARK  status: ('A' for Active; 'I' for Inactive)
REMARK    1  A    between atoms: C_1  and  C_6 
REMARK    2  A    between atoms: C_4  and  C_10 
REMARK    3  A    between atoms: N_9  and  C_10 
ROOT
HETATM    1  C   UNL     1      67.266   6.293   6.608  1.00  0.00     0.032 A 
HETATM    2  S   UNL     1      65.640   6.728   6.752  1.00  0.00    -0.091 SA
HETATM    3  C   UNL     1      67.825   7.015   5.559  1.00  0.00     0.022 A 
HETATM    4  C   UNL     1      65.663   7.855   5.495  1.00  0.00     0.009 A 
HETATM    5  C   UNL     1      66.921   7.873   4.933  1.00  0.00     0.017 A 
ENDROOT
BRANCH   1   6
HETATM    6  C   UNL     1      67.977   5.292   7.427  1.00  0.00     0.049 A 
HETATM    7  N   UNL     1      68.290   4.075   6.898  1.00  0.00    -0.365 N 
HETATM    8  C   UNL     1      68.992   3.145   7.601  1.00  0.00     0.088 A 
ATOM      9  HN  UNL     1      67.990   3.856   5.949  1.00  0.00     0.165 HD
HETATM   10  C   UNL     1      69.388   3.407   8.914  1.00  0.00     0.017 A 
HETATM   11  C   UNL     1      69.058   4.632   9.492  1.00  0.00     0.004 A 
HETATM   12  C   UNL     1      68.363   5.585   8.748  1.00  0.00     0.031 A 
ENDBRANCH   1   6
BRANCH   4  13
HETATM   13  C   UNL     1      64.527   8.716   5.038  1.00  0.00     0.275 C 
BRANCH  13  14
HETATM   14  N   UNL     1      63.393   8.559   5.946  1.00  0.00    -0.075 N 
HETATM   15  H   UNL     1      63.506   9.184   6.743  1.00  0.00     0.274 HD
HETATM   16  H   UNL     1      63.353   7.594   6.274  1.00  0.00     0.274 HD
HETATM   17  H   UNL     1      62.529   8.787   5.455  1.00  0.00     0.274 HD
ENDBRANCH  13  14
ENDBRANCH   4  13
TORSDOF 3
ENDMDL
MODEL 5
REMARK VINA RESULT:      -4.5     16.319     17.364
REMARK  3 active torsions:
REMARK  status: ('A' for Active; 'I' for Inactive)
REMARK    1  A    between atoms: C_1  and  C_6 
REMARK    2  A    between atoms: C_4  and  C_10 
REMARK    3  A    between atoms: N_9  and  C_10 
ROOT
HETATM    1  C   UNL     1      74.294   0.280  17.723  1.00  0.00     0.032 A 
HETATM    2  S   UNL     1      73.943  -0.641  19.095  1.00  0.00    -0.091 SA
HETATM    3  C   UNL     1      73.789  -0.379  16.608  1.00  0.00     0.022 A 
HETATM    4  C   UNL     1      73.125  -1.862  18.265  1.00  0.00     0.009 A 
HETATM    5  C   UNL     1      73.151  -1.581  16.915  1.00  0.00     0.017 A 
ENDROOT
BRANCH   1   6
HETATM    6  C   UNL     1      75.040   1.553  17.695  1.00  0.00     0.049 A 
HETATM    7  N   UNL     1      76.173   1.697  18.439  1.00  0.00    -0.365 N 
HETATM    8  C   UNL     1      76.921   2.833  18.400  1.00  0.00     0.088 A 
ATOM      9  HN  UNL     1      76.469   0.930  19.043  1.00  0.00     0.165 HD
HETATM   10  C   UNL     1      76.520   3.910  17.607  1.00  0.00     0.017 A 
HETATM   11  C   UNL     1      75.351   3.804  16.855  1.00  0.00     0.004 A 
HETATM   12  C   UNL     1      74.613   2.622  16.885  1.00  0.00     0.031 A 
ENDBRANCH   1   6
BRANCH   4  13
HETATM   13  C   UNL     1      72.462  -3.065  18.858  1.00  0.00     0.275 C 
BRANCH  13  14
HETATM   14  N   UNL     1      71.019  -2.992  18.635  1.00  0.00    -0.075 N 
HETATM   15  H   UNL     1      70.543  -2.865  19.528  1.00  0.00     0.274 HD
HETATM   16  H   UNL     1      70.699  -3.857  18.199  1.00  0.00     0.274 HD
HETATM   17  H   UNL     1      70.809  -2.205  18.022  1.00  0.00     0.274 HD
ENDBRANCH  13  14
ENDBRANCH   4  13
TORSDOF 3
ENDMDL
MODEL 6
REMARK VINA RESULT:      -4.4      2.069      5.859
REMARK  3 active torsions:
REMARK  status: ('A' for Active; 'I' for Inactive)
REMARK    1  A    between atoms: C_1  and  C_6 
REMARK    2  A    between atoms: C_4  and  C_10 
REMARK    3  A    between atoms: N_9  and  C_10 
ROOT
HETATM    1  C   UNL     1      64.322   8.204   4.900  1.00  0.00     0.032 A 
HETATM    2  S   UNL     1      63.657   7.587   3.473  1.00  0.00    -0.091 SA
HETATM    3  C   UNL     1      63.688   9.405   5.199  1.00  0.00     0.022 A 
HETATM    4  C   UNL     1      62.546   8.840   3.259  1.00  0.00     0.009 A 
HETATM    5  C   UNL     1      62.709   9.761   4.272  1.00  0.00     0.017 A 
ENDROOT
BRANCH   1   6
HETATM    6  C   UNL     1      65.414   7.597   5.685  1.00  0.00     0.049 A 
HETATM    7  N   UNL     1      65.199   7.225   6.979  1.00  0.00    -0.365 N 
HETATM    8  C   UNL     1      66.162   6.612   7.720  1.00  0.00     0.088 A 
ATOM      9  HN  UNL     1      64.291   7.411   7.403  1.00  0.00     0.165 HD
HETATM   10  C   UNL     1      67.425   6.375   7.174  1.00  0.00     0.017 A 
HETATM   11  C   UNL     1      67.683   6.770   5.862  1.00  0.00     0.004 A 
HETATM   12  C   UNL     1      66.677   7.370   5.107  1.00  0.00     0.031 A 
ENDBRANCH   1   6
BRANCH   4  13
HETATM   13  C   UNL     1      61.530   8.965   2.167  1.00  0.00     0.275 C 
BRANCH  13  14
HETATM   14  N   UNL     1      61.279  10.377   1.887  1.00  0.00    -0.075 N 
HETATM   15  H   UNL     1      61.342  10.912   2.753  1.00  0.00     0.274 HD
HETATM   16  H   UNL     1      60.347  10.484   1.488  1.00  0.00     0.274 HD
HETATM   17  H   UNL     1      61.974  10.721   1.224  1.00  0.00     0.274 HD
ENDBRANCH  13  14
ENDBRANCH   4  13
TORSDOF 3
ENDMDL
MODEL 7
REMARK VINA RESULT:      -4.4      3.295      7.330
REMARK  3 active torsions:
REMARK  status: ('A' for Active; 'I' for Inactive)
REMARK    1  A    between atoms: C_1  and  C_6 
REMARK    2  A    between atoms: C_4  and  C_10 
REMARK    3  A    between atoms: N_9  and  C_10 
ROOT
HETATM    1  C   UNL     1      67.566   4.996   8.254  1.00  0.00     0.032 A 
HETATM    2  S   UNL     1      67.764   5.320   6.607  1.00  0.00    -0.091 SA
HETATM    3  C   UNL     1      66.978   6.104   8.854  1.00  0.00     0.022 A 
HETATM    4  C   UNL     1      67.073   6.860   6.662  1.00  0.00     0.009 A 
HETATM    5  C   UNL     1      66.720   7.146   7.964  1.00  0.00     0.017 A 
ENDROOT
BRANCH   1   6
HETATM    6  C   UNL     1      67.976   3.764   8.955  1.00  0.00     0.049 A 
HETATM    7  N   UNL     1      67.181   2.658   8.911  1.00  0.00    -0.365 N 
HETATM    8  C   UNL     1      67.548   1.485   9.497  1.00  0.00     0.088 A 
ATOM      9  HN  UNL     1      66.286   2.710   8.425  1.00  0.00     0.165 HD
HETATM   10  C   UNL     1      68.753   1.395  10.196  1.00  0.00     0.017 A 
HETATM   11  C   UNL     1      69.574   2.518  10.282  1.00  0.00     0.004 A 
HETATM   12  C   UNL     1      69.197   3.703   9.652  1.00  0.00     0.031 A 
ENDBRANCH   1   6
BRANCH   4  13
HETATM   13  C   UNL     1      66.858   7.791   5.510  1.00  0.00     0.275 C 
BRANCH  13  14
HETATM   14  N   UNL     1      68.056   7.825   4.674  1.00  0.00    -0.075 N 
HETATM   15  H   UNL     1      68.884   7.865   5.268  1.00  0.00     0.274 HD
HETATM   16  H   UNL     1      68.027   8.649   4.074  1.00  0.00     0.274 HD
HETATM   17  H   UNL     1      68.092   6.986   4.096  1.00  0.00     0.274 HD
ENDBRANCH  13  14
ENDBRANCH   4  13
TORSDOF 3
ENDMDL
MODEL 8
REMARK VINA RESULT:      -4.3      1.660      2.172
REMARK  3 active torsions:
REMARK  status: ('A' for Active; 'I' for Inactive)
REMARK    1  A    between atoms: C_1  and  C_6 
REMARK    2  A    between atoms: C_4  and  C_10 
REMARK    3  A    between atoms: N_9  and  C_10 
ROOT
HETATM    1  C   UNL     1      66.108   6.440   6.651  1.00  0.00     0.032 A 
HETATM    2  S   UNL     1      66.772   6.628   8.194  1.00  0.00    -0.091 SA
HETATM    3  C   UNL     1      66.856   5.493   5.961  1.00  0.00     0.022 A 
HETATM    4  C   UNL     1      67.993   5.481   7.984  1.00  0.00     0.009 A 
HETATM    5  C   UNL     1      67.915   4.973   6.705  1.00  0.00     0.017 A 
ENDROOT
BRANCH   1   6
HETATM    6  C   UNL     1      64.951   7.176   6.105  1.00  0.00     0.049 A 
HETATM    7  N   UNL     1      63.687   6.839   6.486  1.00  0.00    -0.365 N 
HETATM    8  C   UNL     1      62.596   7.527   6.050  1.00  0.00     0.088 A 
ATOM      9  HN  UNL     1      63.554   6.048   7.116  1.00  0.00     0.165 HD
HETATM   10  C   UNL     1      62.748   8.594   5.161  1.00  0.00     0.017 A 
HETATM   11  C   UNL     1      64.028   8.945   4.732  1.00  0.00     0.004 A 
HETATM   12  C   UNL     1      65.135   8.247   5.211  1.00  0.00     0.031 A 
ENDBRANCH   1   6
BRANCH   4  13
HETATM   13  C   UNL     1      69.009   5.053   8.997  1.00  0.00     0.275 C 
BRANCH  13  14
HETATM   14  N   UNL     1      70.315   5.608   8.649  1.00  0.00    -0.075 N 
HETATM   15  H   UNL     1      70.232   6.617   8.519  1.00  0.00     0.274 HD
HETATM   16  H   UNL     1      70.646   5.181   7.784  1.00  0.00     0.274 HD
HETATM   17  H   UNL     1      70.978   5.415   9.399  1.00  0.00     0.274 HD
ENDBRANCH  13  14
ENDBRANCH   4  13
TORSDOF 3
ENDMDL
MODEL 9
REMARK VINA RESULT:      -4.2      2.189      2.431
REMARK  3 active torsions:
REMARK  status: ('A' for Active; 'I' for Inactive)
REMARK    1  A    between atoms: C_1  and  C_6 
REMARK    2  A    between atoms: C_4  and  C_10 
REMARK    3  A    between atoms: N_9  and  C_10 
ROOT
HETATM    1  C   UNL     1      63.702   7.561   5.639  1.00  0.00     0.032 A 
HETATM    2  S   UNL     1      62.887   6.107   5.914  1.00  0.00    -0.091 SA
HETATM    3  C   UNL     1      65.021   7.412   6.053  1.00  0.00     0.022 A 
HETATM    4  C   UNL     1      64.226   5.286   6.534  1.00  0.00     0.009 A 
HETATM    5  C   UNL     1      65.303   6.146   6.565  1.00  0.00     0.017 A 
ENDROOT
BRANCH   1   6
HETATM    6  C   UNL     1      63.116   8.798   5.086  1.00  0.00     0.049 A 
HETATM    7  N   UNL     1      63.178   9.959   5.797  1.00  0.00    -0.365 N 
HETATM    8  C   UNL     1      62.700  11.133   5.301  1.00  0.00     0.088 A 
ATOM      9  HN  UNL     1      63.595   9.948   6.728  1.00  0.00     0.165 HD
HETATM   10  C   UNL     1      62.095  11.169   4.043  1.00  0.00     0.017 A 
HETATM   11  C   UNL     1      61.993   9.991   3.304  1.00  0.00     0.004 A 
HETATM   12  C   UNL     1      62.513   8.804   3.815  1.00  0.00     0.031 A 
ENDBRANCH   1   6
BRANCH   4  13
HETATM   13  C   UNL     1      64.279   3.859   6.981  1.00  0.00     0.275 C 
BRANCH  13  14
HETATM   14  N   UNL     1      65.540   3.607   7.675  1.00  0.00    -0.075 N 
HETATM   15  H   UNL     1      65.361   3.067   8.521  1.00  0.00     0.274 HD
HETATM   16  H   UNL     1      65.974   4.495   7.923  1.00  0.00     0.274 HD
HETATM   17  H   UNL     1      66.166   3.082   7.063  1.00  0.00     0.274 HD
ENDBRANCH  13  14
ENDBRANCH   4  13
TORSDOF 3
ENDMDL
