MODEL 1
REMARK VINA RESULT:      -4.9      0.000      0.000
REMARK  2 active torsions:
REMARK  status: ('A' for Active; 'I' for Inactive)
REMARK    1  A    between atoms: C_4  and  C_7 
REMARK    2  A    between atoms: C_7  and  N_9 
ROOT
HETATM    1  N   UNL     1      63.059   9.119   5.573  1.00  0.00    -0.343 N 
ATOM      2  HN  UNL     1      63.098   9.566   6.489  1.00  0.00     0.167 HD
HETATM    3  N   UNL     1      63.207   7.627   3.936  1.00  0.00    -0.338 N 
HETATM    4  C   UNL     1      63.398   7.876   5.280  1.00  0.00     0.110 A 
HETATM    5  C   UNL     1      62.716   8.771   3.350  1.00  0.00     0.062 A 
HETATM    6  C   UNL     1      62.644   9.686   4.395  1.00  0.00     0.060 A 
HETATM    7  C   UNL     1      63.465   6.398   3.225  1.00  0.00     0.158 C 
HETATM    8  C   UNL     1      62.340   9.089   2.039  1.00  0.00     0.032 A 
HETATM    9  C   UNL     1      62.190  10.988   4.142  1.00  0.00     0.032 A 
HETATM   10  C   UNL     1      61.885  10.392   1.805  1.00  0.00     0.002 A 
HETATM   11  C   UNL     1      61.814  11.330   2.836  1.00  0.00     0.002 A 
ENDROOT
BRANCH   4  12
HETATM   12  C   UNL     1      63.930   6.880   6.258  1.00  0.00     0.305 C 
BRANCH  12  13
HETATM   13  N   UNL     1      65.138   7.366   6.925  1.00  0.00    -0.073 N 
HETATM   14  H   UNL     1      65.705   7.894   6.261  1.00  0.00     0.274 HD
HETATM   15  H   UNL     1      65.676   6.573   7.276  1.00  0.00     0.274 HD
HETATM   16  H   UNL     1      64.877   7.971   7.703  1.00  0.00     0.274 HD
ENDBRANCH  12  13
ENDBRANCH   4  12
TORSDOF 2
ENDMDL
MODEL 2
REMARK VINA RESULT:      -4.8     18.506     20.454
REMARK  2 active torsions:
REMARK  status: ('A' for Active; 'I' for Inactive)
REMARK    1  A    between atoms: C_4  and  C_7 
REMARK    2  A    between atoms: C_7  and  N_9 
ROOT
HETATM    1  N   UNL     1      77.850   2.604  18.622  1.00  0.00    -0.343 N 
ATOM      2  HN  UNL     1      78.708   2.995  19.012  1.00  0.00     0.167 HD
HETATM    3  N   UNL     1      76.241   1.190  18.036  1.00  0.00    -0.338 N 
HETATM    4  C   UNL     1      77.459   1.343  18.668  1.00  0.00     0.110 A 
HETATM    5  C   UNL     1      75.839   2.422  17.573  1.00  0.00     0.062 A 
HETATM    6  C   UNL     1      76.868   3.280  17.945  1.00  0.00     0.060 A 
HETATM    7  C   UNL     1      75.486  -0.027  17.865  1.00  0.00     0.158 C 
HETATM    8  C   UNL     1      74.704   2.858  16.877  1.00  0.00     0.032 A 
HETATM    9  C   UNL     1      76.787   4.639  17.610  1.00  0.00     0.032 A 
HETATM   10  C   UNL     1      74.639   4.219  16.554  1.00  0.00     0.002 A 
HETATM   11  C   UNL     1      75.663   5.097  16.909  1.00  0.00     0.002 A 
ENDROOT
BRANCH   4  12
HETATM   12  C   UNL     1      78.230   0.228  19.297  1.00  0.00     0.305 C 
BRANCH  12  13
HETATM   13  N   UNL     1      77.850   0.026  20.694  1.00  0.00    -0.073 N 
HETATM   14  H   UNL     1      78.335   0.706  21.281  1.00  0.00     0.274 HD
HETATM   15  H   UNL     1      78.106  -0.917  20.984  1.00  0.00     0.274 HD
HETATM   16  H   UNL     1      76.842   0.151  20.794  1.00  0.00     0.274 HD
ENDBRANCH  12  13
ENDBRANCH   4  12
TORSDOF 2
ENDMDL
MODEL 3
REMARK VINA RESULT:      -4.5      4.376      7.470
REMARK  2 active torsions:
REMARK  status: ('A' for Active; 'I' for Inactive)
REMARK    1  A    between atoms: C_4  and  C_7 
REMARK    2  A    between atoms: C_7  and  N_9 
ROOT
HETATM    1  N   UNL     1      67.176   7.156   7.875  1.00  0.00    -0.343 N 
ATOM      2  HN  UNL     1      66.983   7.929   8.512  1.00  0.00     0.167 HD
HETATM    3  N   UNL     1      67.278   5.879   6.061  1.00  0.00    -0.338 N 
HETATM    4  C   UNL     1      66.847   7.076   6.598  1.00  0.00     0.110 A 
HETATM    5  C   UNL     1      67.919   5.169   7.051  1.00  0.00     0.062 A 
HETATM    6  C   UNL     1      67.830   5.987   8.172  1.00  0.00     0.060 A 
HETATM    7  C   UNL     1      67.109   5.411   4.707  1.00  0.00     0.158 C 
HETATM    8  C   UNL     1      68.550   3.919   7.075  1.00  0.00     0.032 A 
HETATM    9  C   UNL     1      68.379   5.554   9.387  1.00  0.00     0.032 A 
HETATM   10  C   UNL     1      69.096   3.504   8.296  1.00  0.00     0.002 A 
HETATM   11  C   UNL     1      69.010   4.303   9.436  1.00  0.00     0.002 A 
ENDROOT
BRANCH   4  12
HETATM   12  C   UNL     1      66.097   8.121   5.839  1.00  0.00     0.305 C 
BRANCH  12  13
HETATM   13  N   UNL     1      64.654   8.013   6.048  1.00  0.00    -0.073 N 
HETATM   14  H   UNL     1      64.409   8.424   6.949  1.00  0.00     0.274 HD
HETATM   15  H   UNL     1      64.380   7.031   6.036  1.00  0.00     0.274 HD
HETATM   16  H   UNL     1      64.164   8.512   5.304  1.00  0.00     0.274 HD
ENDBRANCH  12  13
ENDBRANCH   4  12
TORSDOF 2
ENDMDL
MODEL 4
REMARK VINA RESULT:      -4.4     20.216     22.927
REMARK  2 active torsions:
REMARK  status: ('A' for Active; 'I' for Inactive)
REMARK    1  A    between atoms: C_4  and  C_7 
REMARK    2  A    between atoms: C_7  and  N_9 
ROOT
HETATM    1  N   UNL     1      77.920   2.367  19.620  1.00  0.00    -0.343 N 
ATOM      2  HN  UNL     1      77.983   3.211  20.191  1.00  0.00     0.167 HD
HETATM    3  N   UNL     1      77.453   0.955  17.971  1.00  0.00    -0.338 N 
HETATM    4  C   UNL     1      77.334   2.248  18.442  1.00  0.00     0.110 A 
HETATM    5  C   UNL     1      78.156   0.221  18.900  1.00  0.00     0.062 A 
HETATM    6  C   UNL     1      78.424   1.128  19.920  1.00  0.00     0.060 A 
HETATM    7  C   UNL     1      76.944   0.420  16.732  1.00  0.00     0.158 C 
HETATM    8  C   UNL     1      78.571  -1.116  18.947  1.00  0.00     0.032 A 
HETATM    9  C   UNL     1      79.128   0.700  21.055  1.00  0.00     0.032 A 
HETATM   10  C   UNL     1      79.275  -1.524  20.086  1.00  0.00     0.002 A 
HETATM   11  C   UNL     1      79.547  -0.635  21.126  1.00  0.00     0.002 A 
ENDROOT
BRANCH   4  12
HETATM   12  C   UNL     1      76.625   3.347  17.721  1.00  0.00     0.305 C 
BRANCH  12  13
HETATM   13  N   UNL     1      77.160   4.662  18.075  1.00  0.00    -0.073 N 
HETATM   14  H   UNL     1      76.626   5.387  17.596  1.00  0.00     0.274 HD
HETATM   15  H   UNL     1      78.139   4.718  17.793  1.00  0.00     0.274 HD
HETATM   16  H   UNL     1      77.088   4.798  19.083  1.00  0.00     0.274 HD
ENDBRANCH  12  13
ENDBRANCH   4  12
TORSDOF 2
ENDMDL
MODEL 5
REMARK VINA RESULT:      -4.4     17.644     19.864
REMARK  2 active torsions:
REMARK  status: ('A' for Active; 'I' for Inactive)
REMARK    1  A    between atoms: C_4  and  C_7 
REMARK    2  A    between atoms: C_7  and  N_9 
ROOT
HETATM    1  N   UNL     1      77.355   3.840  17.928  1.00  0.00    -0.343 N 
ATOM      2  HN  UNL     1      78.284   4.079  18.275  1.00  0.00     0.167 HD
HETATM    3  N   UNL     1      75.306   3.984  17.084  1.00  0.00    -0.338 N 
HETATM    4  C   UNL     1      76.440   4.673  17.464  1.00  0.00     0.110 A 
HETATM    5  C   UNL     1      75.519   2.643  17.314  1.00  0.00     0.062 A 
HETATM    6  C   UNL     1      76.801   2.587  17.850  1.00  0.00     0.060 A 
HETATM    7  C   UNL     1      74.087   4.529  16.537  1.00  0.00     0.158 C 
HETATM    8  C   UNL     1      74.732   1.502  17.114  1.00  0.00     0.032 A 
HETATM    9  C   UNL     1      77.340   1.347  18.221  1.00  0.00     0.032 A 
HETATM   10  C   UNL     1      75.287   0.272  17.487  1.00  0.00     0.002 A 
HETATM   11  C   UNL     1      76.568   0.192  18.035  1.00  0.00     0.002 A 
ENDROOT
BRANCH   4  12
HETATM   12  C   UNL     1      76.597   6.156  17.377  1.00  0.00     0.305 C 
BRANCH  12  13
HETATM   13  N   UNL     1      76.935   6.587  16.021  1.00  0.00    -0.073 N 
HETATM   14  H   UNL     1      76.697   7.573  15.908  1.00  0.00     0.274 HD
HETATM   15  H   UNL     1      76.409   6.032  15.346  1.00  0.00     0.274 HD
HETATM   16  H   UNL     1      77.934   6.459  15.862  1.00  0.00     0.274 HD
ENDBRANCH  12  13
ENDBRANCH   4  12
TORSDOF 2
ENDMDL
MODEL 6
REMARK VINA RESULT:      -4.2      2.276      4.015
REMARK  2 active torsions:
REMARK  status: ('A' for Active; 'I' for Inactive)
REMARK    1  A    between atoms: C_4  and  C_7 
REMARK    2  A    between atoms: C_7  and  N_9 
ROOT
HETATM    1  N   UNL     1      61.154   9.735   2.123  1.00  0.00    -0.343 N 
ATOM      2  HN  UNL     1      60.450  10.400   1.799  1.00  0.00     0.167 HD
HETATM    3  N   UNL     1      62.471   7.956   2.286  1.00  0.00    -0.338 N 
HETATM    4  C   UNL     1      61.472   8.580   1.567  1.00  0.00     0.110 A 
HETATM    5  C   UNL     1      62.806   8.764   3.350  1.00  0.00     0.062 A 
HETATM    6  C   UNL     1      61.960   9.860   3.226  1.00  0.00     0.060 A 
HETATM    7  C   UNL     1      63.088   6.681   2.011  1.00  0.00     0.158 C 
HETATM    8  C   UNL     1      63.742   8.642   4.385  1.00  0.00     0.032 A 
HETATM    9  C   UNL     1      62.025  10.891   4.173  1.00  0.00     0.032 A 
HETATM   10  C   UNL     1      63.795   9.683   5.320  1.00  0.00     0.002 A 
HETATM   11  C   UNL     1      62.949  10.789   5.222  1.00  0.00     0.002 A 
ENDROOT
BRANCH   4  12
HETATM   12  C   UNL     1      60.832   8.013   0.342  1.00  0.00     0.305 C 
BRANCH  12  13
HETATM   13  N   UNL     1      59.376   7.958   0.466  1.00  0.00    -0.073 N 
HETATM   14  H   UNL     1      59.105   7.083   0.916  1.00  0.00     0.274 HD
HETATM   15  H   UNL     1      58.953   8.008  -0.460  1.00  0.00     0.274 HD
HETATM   16  H   UNL     1      59.052   8.743   1.032  1.00  0.00     0.274 HD
ENDBRANCH  12  13
ENDBRANCH   4  12
TORSDOF 2
ENDMDL
MODEL 7
REMARK VINA RESULT:      -4.2     18.495     20.250
REMARK  2 active torsions:
REMARK  status: ('A' for Active; 'I' for Inactive)
REMARK    1  A    between atoms: C_4  and  C_7 
REMARK    2  A    between atoms: C_7  and  N_9 
ROOT
HETATM    1  N   UNL     1      75.406   2.915  17.217  1.00  0.00    -0.343 N 
ATOM      2  HN  UNL     1      74.811   3.696  16.938  1.00  0.00     0.167 HD
HETATM    3  N   UNL     1      77.003   1.704  18.172  1.00  0.00    -0.338 N 
HETATM    4  C   UNL     1      76.448   2.959  18.028  1.00  0.00     0.110 A 
HETATM    5  C   UNL     1      76.269   0.818  17.416  1.00  0.00     0.062 A 
HETATM    6  C   UNL     1      75.287   1.606  16.826  1.00  0.00     0.060 A 
HETATM    7  C   UNL     1      78.152   1.336  18.964  1.00  0.00     0.158 C 
HETATM    8  C   UNL     1      76.369  -0.561  17.194  1.00  0.00     0.032 A 
HETATM    9  C   UNL     1      74.356   1.013  15.960  1.00  0.00     0.032 A 
HETATM   10  C   UNL     1      75.428  -1.136  16.331  1.00  0.00     0.002 A 
HETATM   11  C   UNL     1      74.440  -0.365  15.719  1.00  0.00     0.002 A 
ENDROOT
BRANCH   4  12
HETATM   12  C   UNL     1      76.969   4.195  18.688  1.00  0.00     0.305 C 
BRANCH  12  13
HETATM   13  N   UNL     1      77.253   5.250  17.716  1.00  0.00    -0.073 N 
HETATM   14  H   UNL     1      77.509   4.830  16.822  1.00  0.00     0.274 HD
HETATM   15  H   UNL     1      78.024   5.826  18.054  1.00  0.00     0.274 HD
HETATM   16  H   UNL     1      76.423   5.831  17.592  1.00  0.00     0.274 HD
ENDBRANCH  12  13
ENDBRANCH   4  12
TORSDOF 2
ENDMDL
MODEL 8
REMARK VINA RESULT:      -4.1      5.176      8.261
REMARK  2 active torsions:
REMARK  status: ('A' for Active; 'I' for Inactive)
REMARK    1  A    between atoms: C_4  and  C_7 
REMARK    2  A    between atoms: C_7  and  N_9 
ROOT
HETATM    1  N   UNL     1      67.795   4.191   5.803  1.00  0.00    -0.343 N 
ATOM      2  HN  UNL     1      67.873   3.503   5.054  1.00  0.00     0.167 HD
HETATM    3  N   UNL     1      67.293   6.022   6.955  1.00  0.00    -0.338 N 
HETATM    4  C   UNL     1      67.199   5.368   5.743  1.00  0.00     0.110 A 
HETATM    5  C   UNL     1      67.980   5.211   7.829  1.00  0.00     0.062 A 
HETATM    6  C   UNL     1      68.288   4.082   7.079  1.00  0.00     0.060 A 
HETATM    7  C   UNL     1      66.778   7.327   7.292  1.00  0.00     0.158 C 
HETATM    8  C   UNL     1      68.356   5.354   9.171  1.00  0.00     0.032 A 
HETATM    9  C   UNL     1      69.014   3.038   7.670  1.00  0.00     0.032 A 
HETATM   10  C   UNL     1      69.078   4.300   9.746  1.00  0.00     0.002 A 
HETATM   11  C   UNL     1      69.407   3.162   9.009  1.00  0.00     0.002 A 
ENDROOT
BRANCH   4  12
HETATM   12  C   UNL     1      66.529   5.929   4.530  1.00  0.00     0.305 C 
BRANCH  12  13
HETATM   13  N   UNL     1      67.410   6.835   3.794  1.00  0.00    -0.073 N 
HETATM   14  H   UNL     1      67.525   6.497   2.838  1.00  0.00     0.274 HD
HETATM   15  H   UNL     1      68.320   6.873   4.253  1.00  0.00     0.274 HD
HETATM   16  H   UNL     1      66.999   7.769   3.776  1.00  0.00     0.274 HD
ENDBRANCH  12  13
ENDBRANCH   4  12
TORSDOF 2
ENDMDL
MODEL 9
REMARK VINA RESULT:      -4.1     18.299     20.031
REMARK  2 active torsions:
REMARK  status: ('A' for Active; 'I' for Inactive)
REMARK    1  A    between atoms: C_4  and  C_7 
REMARK    2  A    between atoms: C_7  and  N_9 
ROOT
HETATM    1  N   UNL     1      77.254   1.389  17.726  1.00  0.00    -0.343 N 
ATOM      2  HN  UNL     1      78.127   1.162  18.205  1.00  0.00     0.167 HD
HETATM    3  N   UNL     1      75.440   2.457  17.024  1.00  0.00    -0.338 N 
HETATM    4  C   UNL     1      76.566   2.513  17.819  1.00  0.00     0.110 A 
HETATM    5  C   UNL     1      75.419   1.235  16.390  1.00  0.00     0.062 A 
HETATM    6  C   UNL     1      76.558   0.589  16.857  1.00  0.00     0.060 A 
HETATM    7  C   UNL     1      74.431   3.476  16.855  1.00  0.00     0.158 C 
HETATM    8  C   UNL     1      74.533   0.646  15.479  1.00  0.00     0.032 A 
HETATM    9  C   UNL     1      76.842  -0.712  16.416  1.00  0.00     0.032 A 
HETATM   10  C   UNL     1      74.835  -0.652  15.047  1.00  0.00     0.002 A 
HETATM   11  C   UNL     1      75.967  -1.324  15.509  1.00  0.00     0.002 A 
ENDROOT
BRANCH   4  12
HETATM   12  C   UNL     1      76.939   3.678  18.677  1.00  0.00     0.305 C 
BRANCH  12  13
HETATM   13  N   UNL     1      77.711   3.265  19.848  1.00  0.00    -0.073 N 
HETATM   14  H   UNL     1      77.840   2.253  19.831  1.00  0.00     0.274 HD
HETATM   15  H   UNL     1      77.210   3.529  20.696  1.00  0.00     0.274 HD
HETATM   16  H   UNL     1      78.622   3.723  19.834  1.00  0.00     0.274 HD
ENDBRANCH  12  13
ENDBRANCH   4  12
TORSDOF 2
ENDMDL
