MODEL 1
REMARK VINA RESULT:      -4.0      0.000      0.000
REMARK  2 active torsions:
REMARK  status: ('A' for Active; 'I' for Inactive)
REMARK    1  A    between atoms: CA_5  and  C_8 
REMARK    2  A    between atoms: O_7  and  C_8 
ROOT
HETATM    1  N   UNL     1      74.830   3.732  16.808  1.00  0.00    -0.365 N 
ATOM      2  HN  UNL     1      73.947   3.643  16.305  1.00  0.00     0.165 HD
HETATM    3  N   UNL     1      77.297   3.988  18.179  1.00  0.00    -0.372 N 
ATOM      4  HN  UNL     1      78.187   4.079  18.669  1.00  0.00     0.164 HD
HETATM    5  CA  UNL     1      75.392   2.688  17.477  1.00  0.00     0.048 A 
HETATM    6  C   UNL     1      76.607   2.824  18.141  1.00  0.00     0.114 A 
HETATM    7  C   UNL     1      75.520   4.897  16.853  1.00  0.00     0.105 A 
HETATM    8  C   UNL     1      76.724   5.022  17.523  1.00  0.00     0.104 A 
ENDROOT
BRANCH   5   9
HETATM    9  C   UNL     1      74.646   1.382  17.482  1.00  0.00     0.222 C 
BRANCH   9  10
HETATM   10  O   UNL     1      74.447   0.921  18.815  1.00  0.00    -0.395 OA
HETATM   11  H   UNL     1      74.742   1.602  19.440  1.00  0.00     0.209 HD
ENDBRANCH   9  10
ENDBRANCH   5   9
TORSDOF 2
ENDMDL
MODEL 2
REMARK VINA RESULT:      -4.0      2.479      3.914
REMARK  2 active torsions:
REMARK  status: ('A' for Active; 'I' for Inactive)
REMARK    1  A    between atoms: CA_5  and  C_8 
REMARK    2  A    between atoms: O_7  and  C_8 
ROOT
HETATM    1  N   UNL     1      77.257   4.314  18.099  1.00  0.00    -0.365 N 
ATOM      2  HN  UNL     1      78.129   4.620  18.530  1.00  0.00     0.165 HD
HETATM    3  N   UNL     1      74.849   3.443  16.886  1.00  0.00    -0.372 N 
ATOM      4  HN  UNL     1      73.984   3.129  16.445  1.00  0.00     0.164 HD
HETATM    5  CA  UNL     1      76.486   5.151  17.351  1.00  0.00     0.048 A 
HETATM    6  C   UNL     1      75.309   4.710  16.755  1.00  0.00     0.114 A 
HETATM    7  C   UNL     1      76.791   3.049  18.234  1.00  0.00     0.105 A 
HETATM    8  C   UNL     1      75.615   2.625  17.641  1.00  0.00     0.104 A 
ENDROOT
BRANCH   5   9
HETATM    9  C   UNL     1      76.947   6.574  17.201  1.00  0.00     0.222 C 
BRANCH   9  10
HETATM   10  O   UNL     1      76.522   7.360  18.309  1.00  0.00    -0.395 OA
HETATM   11  H   UNL     1      76.074   6.792  18.956  1.00  0.00     0.209 HD
ENDBRANCH   9  10
ENDBRANCH   5   9
TORSDOF 2
ENDMDL
MODEL 3
REMARK VINA RESULT:      -3.9      8.202      9.389
REMARK  2 active torsions:
REMARK  status: ('A' for Active; 'I' for Inactive)
REMARK    1  A    between atoms: CA_5  and  C_8 
REMARK    2  A    between atoms: O_7  and  C_8 
ROOT
HETATM    1  N   UNL     1      78.219  11.590  20.657  1.00  0.00    -0.365 N 
ATOM      2  HN  UNL     1      78.916  11.018  21.132  1.00  0.00     0.165 HD
HETATM    3  N   UNL     1      76.264  13.180  19.359  1.00  0.00    -0.372 N 
ATOM      4  HN  UNL     1      75.557  13.749  18.894  1.00  0.00     0.164 HD
HETATM    5  CA  UNL     1      77.667  11.222  19.468  1.00  0.00     0.048 A 
HETATM    6  C   UNL     1      76.704  12.008  18.843  1.00  0.00     0.114 A 
HETATM    7  C   UNL     1      77.782  12.767  21.167  1.00  0.00     0.105 A 
HETATM    8  C   UNL     1      76.828  13.542  20.533  1.00  0.00     0.104 A 
ENDROOT
BRANCH   5   9
HETATM    9  C   UNL     1      78.146   9.939  18.846  1.00  0.00     0.222 C 
BRANCH   9  10
HETATM   10  O   UNL     1      79.531  10.021  18.526  1.00  0.00    -0.395 OA
HETATM   11  H   UNL     1      79.633  10.310  17.605  1.00  0.00     0.209 HD
ENDBRANCH   9  10
ENDBRANCH   5   9
TORSDOF 2
ENDMDL
MODEL 4
REMARK VINA RESULT:      -3.9     19.237     20.345
REMARK  2 active torsions:
REMARK  status: ('A' for Active; 'I' for Inactive)
REMARK    1  A    between atoms: CA_5  and  C_8 
REMARK    2  A    between atoms: O_7  and  C_8 
ROOT
HETATM    1  N   UNL     1      63.088   9.338   4.454  1.00  0.00    -0.365 N 
ATOM      2  HN  UNL     1      63.633   8.831   5.152  1.00  0.00     0.165 HD
HETATM    3  N   UNL     1      61.598  10.744   2.496  1.00  0.00    -0.372 N 
ATOM      4  HN  UNL     1      61.066  11.252   1.790  1.00  0.00     0.164 HD
HETATM    5  CA  UNL     1      62.640  10.607   4.666  1.00  0.00     0.048 A 
HETATM    6  C   UNL     1      61.915  11.289   3.695  1.00  0.00     0.114 A 
HETATM    7  C   UNL     1      62.764   8.794   3.257  1.00  0.00     0.105 A 
HETATM    8  C   UNL     1      62.037   9.481   2.301  1.00  0.00     0.104 A 
ENDROOT
BRANCH   5   9
HETATM    9  C   UNL     1      62.948  11.241   5.994  1.00  0.00     0.222 C 
BRANCH   9  10
HETATM   10  O   UNL     1      64.355  11.340   6.191  1.00  0.00    -0.395 OA
HETATM   11  H   UNL     1      64.646  12.244   5.993  1.00  0.00     0.209 HD
ENDBRANCH   9  10
ENDBRANCH   5   9
TORSDOF 2
ENDMDL
MODEL 5
REMARK VINA RESULT:      -3.9      1.718      2.616
REMARK  2 active torsions:
REMARK  status: ('A' for Active; 'I' for Inactive)
REMARK    1  A    between atoms: CA_5  and  C_8 
REMARK    2  A    between atoms: O_7  and  C_8 
ROOT
HETATM    1  N   UNL     1      77.390   3.967  18.079  1.00  0.00    -0.365 N 
ATOM      2  HN  UNL     1      78.292   4.153  18.517  1.00  0.00     0.165 HD
HETATM    3  N   UNL     1      74.870   3.470  16.882  1.00  0.00    -0.372 N 
ATOM      4  HN  UNL     1      73.961   3.292  16.456  1.00  0.00     0.164 HD
HETATM    5  CA  UNL     1      76.847   2.719  18.039  1.00  0.00     0.048 A 
HETATM    6  C   UNL     1      75.606   2.489  17.454  1.00  0.00     0.114 A 
HETATM    7  C   UNL     1      76.654   4.946  17.501  1.00  0.00     0.105 A 
HETATM    8  C   UNL     1      75.423   4.703  16.917  1.00  0.00     0.104 A 
ENDROOT
BRANCH   5   9
HETATM    9  C   UNL     1      77.644   1.594  18.639  1.00  0.00     0.222 C 
BRANCH   9  10
HETATM   10  O   UNL     1      78.781   2.097  19.333  1.00  0.00    -0.395 OA
HETATM   11  H   UNL     1      78.657   1.978  20.288  1.00  0.00     0.209 HD
ENDBRANCH   9  10
ENDBRANCH   5   9
TORSDOF 2
ENDMDL
MODEL 6
REMARK VINA RESULT:      -3.8      2.286      3.216
REMARK  2 active torsions:
REMARK  status: ('A' for Active; 'I' for Inactive)
REMARK    1  A    between atoms: CA_5  and  C_8 
REMARK    2  A    between atoms: O_7  and  C_8 
ROOT
HETATM    1  N   UNL     1      75.122   3.757  16.919  1.00  0.00    -0.365 N 
ATOM      2  HN  UNL     1      74.678   4.514  16.400  1.00  0.00     0.165 HD
HETATM    3  N   UNL     1      76.331   1.650  18.380  1.00  0.00    -0.372 N 
ATOM      4  HN  UNL     1      76.764   0.894  18.910  1.00  0.00     0.164 HD
HETATM    5  CA  UNL     1      76.294   3.928  17.591  1.00  0.00     0.048 A 
HETATM    6  C   UNL     1      76.875   2.888  18.309  1.00  0.00     0.114 A 
HETATM    7  C   UNL     1      74.583   2.515  16.987  1.00  0.00     0.105 A 
HETATM    8  C   UNL     1      75.174   1.488  17.700  1.00  0.00     0.104 A 
ENDROOT
BRANCH   5   9
HETATM    9  C   UNL     1      76.946   5.281  17.518  1.00  0.00     0.222 C 
BRANCH   9  10
HETATM   10  O   UNL     1      76.170   6.252  18.212  1.00  0.00    -0.395 OA
HETATM   11  H   UNL     1      75.233   6.139  17.988  1.00  0.00     0.209 HD
ENDBRANCH   9  10
ENDBRANCH   5   9
TORSDOF 2
ENDMDL
MODEL 7
REMARK VINA RESULT:      -3.6     10.262     10.976
REMARK  2 active torsions:
REMARK  status: ('A' for Active; 'I' for Inactive)
REMARK    1  A    between atoms: CA_5  and  C_8 
REMARK    2  A    between atoms: O_7  and  C_8 
ROOT
HETATM    1  N   UNL     1      67.547   3.485   9.126  1.00  0.00    -0.365 N 
ATOM      2  HN  UNL     1      66.860   2.750   9.292  1.00  0.00     0.165 HD
HETATM    3  N   UNL     1      69.450   5.526   8.632  1.00  0.00    -0.372 N 
ATOM      4  HN  UNL     1      70.136   6.259   8.451  1.00  0.00     0.164 HD
HETATM    5  CA  UNL     1      68.869   3.319   9.409  1.00  0.00     0.048 A 
HETATM    6  C   UNL     1      69.794   4.326   9.157  1.00  0.00     0.114 A 
HETATM    7  C   UNL     1      67.205   4.689   8.607  1.00  0.00     0.105 A 
HETATM    8  C   UNL     1      68.135   5.685   8.366  1.00  0.00     0.104 A 
ENDROOT
BRANCH   5   9
HETATM    9  C   UNL     1      69.291   2.010  10.017  1.00  0.00     0.222 C 
BRANCH   9  10
HETATM   10  O   UNL     1      69.803   2.207  11.332  1.00  0.00    -0.395 OA
HETATM   11  H   UNL     1      70.525   1.580  11.495  1.00  0.00     0.209 HD
ENDBRANCH   9  10
ENDBRANCH   5   9
TORSDOF 2
ENDMDL
MODEL 8
REMARK VINA RESULT:      -3.6     17.761     18.801
REMARK  2 active torsions:
REMARK  status: ('A' for Active; 'I' for Inactive)
REMARK    1  A    between atoms: CA_5  and  C_8 
REMARK    2  A    between atoms: O_7  and  C_8 
ROOT
HETATM    1  N   UNL     1      63.758  10.123   5.678  1.00  0.00    -0.365 N 
ATOM      2  HN  UNL     1      64.258  10.398   6.523  1.00  0.00     0.165 HD
HETATM    3  N   UNL     1      62.344   9.361   3.343  1.00  0.00    -0.372 N 
ATOM      4  HN  UNL     1      61.833   9.083   2.506  1.00  0.00     0.164 HD
HETATM    5  CA  UNL     1      64.064   8.988   4.991  1.00  0.00     0.048 A 
HETATM    6  C   UNL     1      63.359   8.621   3.850  1.00  0.00     0.114 A 
HETATM    7  C   UNL     1      62.747  10.865   5.165  1.00  0.00     0.105 A 
HETATM    8  C   UNL     1      62.057  10.492   4.025  1.00  0.00     0.104 A 
ENDROOT
BRANCH   5   9
HETATM    9  C   UNL     1      65.202   8.149   5.505  1.00  0.00     0.222 C 
BRANCH   9  10
HETATM   10  O   UNL     1      66.042   8.912   6.364  1.00  0.00    -0.395 OA
HETATM   11  H   UNL     1      66.966   8.649   6.231  1.00  0.00     0.209 HD
ENDBRANCH   9  10
ENDBRANCH   5   9
TORSDOF 2
ENDMDL
MODEL 9
REMARK VINA RESULT:      -3.5     11.023     11.948
REMARK  2 active torsions:
REMARK  status: ('A' for Active; 'I' for Inactive)
REMARK    1  A    between atoms: CA_5  and  C_8 
REMARK    2  A    between atoms: O_7  and  C_8 
ROOT
HETATM    1  N   UNL     1      68.466   6.053   9.042  1.00  0.00    -0.365 N 
ATOM      2  HN  UNL     1      69.243   6.661   9.298  1.00  0.00     0.165 HD
HETATM    3  N   UNL     1      66.287   4.377   8.352  1.00  0.00    -0.372 N 
ATOM      4  HN  UNL     1      65.503   3.773   8.108  1.00  0.00     0.164 HD
HETATM    5  CA  UNL     1      68.578   4.696   9.033  1.00  0.00     0.048 A 
HETATM    6  C   UNL     1      67.499   3.884   8.699  1.00  0.00     0.114 A 
HETATM    7  C   UNL     1      67.253   6.544   8.688  1.00  0.00     0.105 A 
HETATM    8  C   UNL     1      66.190   5.725   8.351  1.00  0.00     0.104 A 
ENDROOT
BRANCH   5   9
HETATM    9  C   UNL     1      69.915   4.106   9.388  1.00  0.00     0.222 C 
BRANCH   9  10
HETATM   10  O   UNL     1      69.854   3.439  10.644  1.00  0.00    -0.395 OA
HETATM   11  H   UNL     1      70.446   2.670  10.631  1.00  0.00     0.209 HD
ENDBRANCH   9  10
ENDBRANCH   5   9
TORSDOF 2
ENDMDL
