MODEL 1
REMARK VINA RESULT:      -5.1      0.000      0.000
REMARK  1 active torsions:
REMARK  status: ('A' for Active; 'I' for Inactive)
REMARK    1  A    between atoms: C_1  and  CA_2 
ROOT
ATOM      1  CA  LYS A   1      77.588  11.067  19.289  1.00  0.00     0.109 A 
ATOM      2  N   LYS A   1      78.332  11.325  20.407  1.00  0.00    -0.360 N 
ATOM      3  HN  LYS A   1      79.006  10.655  20.776  1.00  0.00     0.165 HD
ATOM      4  CE  LYS A   1      78.117  12.525  20.991  1.00  0.00     0.088 A 
ATOM      5  CB  LYS A   1      76.654  11.938  18.748  1.00  0.00     0.037 A 
ATOM      6  CD  LYS A   1      77.205  13.461  20.524  1.00  0.00     0.017 A 
ATOM      7  CG  LYS A   1      76.461  13.160  19.386  1.00  0.00     0.004 A 
ENDROOT
BRANCH   1   8
ATOM      8  C   LYS A   1      77.835   9.742  18.652  1.00  0.00     0.226 C 
ATOM      9  O   LYS A   1      77.280   8.702  18.959  1.00  0.00    -0.643 OA
ATOM     10  OXT LYS A   1      78.775   9.853  17.680  1.00  0.00    -0.643 OA
ENDBRANCH   1   8
TORSDOF 1
ENDMDL
MODEL 2
REMARK VINA RESULT:      -4.7      4.479      5.451
REMARK  1 active torsions:
REMARK  status: ('A' for Active; 'I' for Inactive)
REMARK    1  A    between atoms: C_1  and  CA_2 
ROOT
ATOM      1  CA  LYS A   1      77.332   8.086  16.166  1.00  0.00     0.109 A 
ATOM      2  N   LYS A   1      77.204   7.404  14.988  1.00  0.00    -0.360 N 
ATOM      3  HN  LYS A   1      76.924   6.423  14.956  1.00  0.00     0.165 HD
ATOM      4  CE  LYS A   1      77.472   8.111  13.868  1.00  0.00     0.088 A 
ATOM      5  CB  LYS A   1      77.715   9.415  16.267  1.00  0.00     0.037 A 
ATOM      6  CD  LYS A   1      77.862   9.443  13.868  1.00  0.00     0.017 A 
ATOM      7  CG  LYS A   1      77.987  10.103  15.088  1.00  0.00     0.004 A 
ENDROOT
BRANCH   1   8
ATOM      8  C   LYS A   1      77.032   7.296  17.395  1.00  0.00     0.226 C 
ATOM      9  O   LYS A   1      76.652   7.764  18.454  1.00  0.00    -0.643 OA
ATOM     10  OXT LYS A   1      77.246   5.976  17.171  1.00  0.00    -0.643 OA
ENDBRANCH   1   8
TORSDOF 1
ENDMDL
MODEL 3
REMARK VINA RESULT:      -4.7      4.506      5.525
REMARK  1 active torsions:
REMARK  status: ('A' for Active; 'I' for Inactive)
REMARK    1  A    between atoms: C_1  and  CA_2 
ROOT
ATOM      1  CA  LYS A   1      77.448   8.542  15.881  1.00  0.00     0.109 A 
ATOM      2  N   LYS A   1      77.202   7.337  15.282  1.00  0.00    -0.360 N 
ATOM      3  HN  LYS A   1      77.327   7.193  14.280  1.00  0.00     0.165 HD
ATOM      4  CE  LYS A   1      76.783   6.348  16.103  1.00  0.00     0.088 A 
ATOM      5  CB  LYS A   1      77.288   8.793  17.236  1.00  0.00     0.037 A 
ATOM      6  CD  LYS A   1      76.594   6.504  17.469  1.00  0.00     0.017 A 
ATOM      7  CG  LYS A   1      76.849   7.747  18.042  1.00  0.00     0.004 A 
ENDROOT
BRANCH   1   8
ATOM      8  C   LYS A   1      77.911   9.624  14.966  1.00  0.00     0.226 C 
ATOM      9  O   LYS A   1      77.660  10.809  15.098  1.00  0.00    -0.643 OA
ATOM     10  OXT LYS A   1      78.653   9.104  13.957  1.00  0.00    -0.643 OA
ENDBRANCH   1   8
TORSDOF 1
ENDMDL
MODEL 4
REMARK VINA RESULT:      -4.6     12.834     13.894
REMARK  1 active torsions:
REMARK  status: ('A' for Active; 'I' for Inactive)
REMARK    1  A    between atoms: C_1  and  CA_2 
ROOT
ATOM      1  CA  LYS A   1      72.362  22.615  14.259  1.00  0.00     0.109 A 
ATOM      2  N   LYS A   1      72.052  21.896  13.138  1.00  0.00    -0.360 N 
ATOM      3  HN  LYS A   1      72.692  21.210  12.739  1.00  0.00     0.165 HD
ATOM      4  CE  LYS A   1      70.842  22.152  12.592  1.00  0.00     0.088 A 
ATOM      5  CB  LYS A   1      71.533  23.563  14.840  1.00  0.00     0.037 A 
ATOM      6  CD  LYS A   1      69.945  23.082  13.100  1.00  0.00     0.017 A 
ATOM      7  CG  LYS A   1      70.299  23.799  14.240  1.00  0.00     0.004 A 
ENDROOT
BRANCH   1   8
ATOM      8  C   LYS A   1      73.698  22.322  14.853  1.00  0.00     0.226 C 
ATOM      9  O   LYS A   1      73.901  22.051  16.024  1.00  0.00    -0.643 OA
ATOM     10  OXT LYS A   1      74.664  22.404  13.905  1.00  0.00    -0.643 OA
ENDBRANCH   1   8
TORSDOF 1
ENDMDL
MODEL 5
REMARK VINA RESULT:      -4.6      5.860      7.683
REMARK  1 active torsions:
REMARK  status: ('A' for Active; 'I' for Inactive)
REMARK    1  A    between atoms: C_1  and  CA_2 
ROOT
ATOM      1  CA  LYS A   1      76.364   5.044  17.359  1.00  0.00     0.109 A 
ATOM      2  N   LYS A   1      77.188   4.292  18.150  1.00  0.00    -0.360 N 
ATOM      3  HN  LYS A   1      77.997   4.692  18.624  1.00  0.00     0.165 HD
ATOM      4  CE  LYS A   1      76.862   2.985  18.263  1.00  0.00     0.088 A 
ATOM      5  CB  LYS A   1      75.255   4.551  16.686  1.00  0.00     0.037 A 
ATOM      6  CD  LYS A   1      75.774   2.401  17.628  1.00  0.00     0.017 A 
ATOM      7  CG  LYS A   1      74.961   3.198  16.827  1.00  0.00     0.004 A 
ENDROOT
BRANCH   1   8
ATOM      8  C   LYS A   1      76.732   6.484  17.244  1.00  0.00     0.226 C 
ATOM      9  O   LYS A   1      76.830   7.260  18.179  1.00  0.00    -0.643 OA
ATOM     10  OXT LYS A   1      76.940   6.816  15.946  1.00  0.00    -0.643 OA
ENDBRANCH   1   8
TORSDOF 1
ENDMDL
MODEL 6
REMARK VINA RESULT:      -4.6      7.672      9.655
REMARK  1 active torsions:
REMARK  status: ('A' for Active; 'I' for Inactive)
REMARK    1  A    between atoms: C_1  and  CA_2 
ROOT
ATOM      1  CA  LYS A   1      76.383   2.871  17.919  1.00  0.00     0.109 A 
ATOM      2  N   LYS A   1      75.119   3.032  17.421  1.00  0.00    -0.360 N 
ATOM      3  HN  LYS A   1      74.571   3.874  17.596  1.00  0.00     0.165 HD
ATOM      4  CE  LYS A   1      74.643   2.004  16.684  1.00  0.00     0.088 A 
ATOM      5  CB  LYS A   1      77.169   1.746  17.719  1.00  0.00     0.037 A 
ATOM      6  CD  LYS A   1      75.354   0.839  16.430  1.00  0.00     0.017 A 
ATOM      7  CG  LYS A   1      76.636   0.710  16.958  1.00  0.00     0.004 A 
ENDROOT
BRANCH   1   8
ATOM      8  C   LYS A   1      76.898   4.012  18.729  1.00  0.00     0.226 C 
ATOM      9  O   LYS A   1      76.983   5.165  18.342  1.00  0.00    -0.643 OA
ATOM     10  OXT LYS A   1      77.268   3.587  19.962  1.00  0.00    -0.643 OA
ENDBRANCH   1   8
TORSDOF 1
ENDMDL
MODEL 7
REMARK VINA RESULT:      -4.5      8.061      9.031
REMARK  1 active torsions:
REMARK  status: ('A' for Active; 'I' for Inactive)
REMARK    1  A    between atoms: C_1  and  CA_2 
ROOT
ATOM      1  CA  LYS A   1      75.282   2.664  17.578  1.00  0.00     0.109 A 
ATOM      2  N   LYS A   1      76.280   2.756  18.508  1.00  0.00    -0.360 N 
ATOM      3  HN  LYS A   1      76.502   1.989  19.143  1.00  0.00     0.165 HD
ATOM      4  CE  LYS A   1      76.952   3.928  18.534  1.00  0.00     0.088 A 
ATOM      5  CB  LYS A   1      74.933   3.676  16.696  1.00  0.00     0.037 A 
ATOM      6  CD  LYS A   1      76.676   4.998  17.693  1.00  0.00     0.017 A 
ATOM      7  CG  LYS A   1      75.649   4.868  16.762  1.00  0.00     0.004 A 
ENDROOT
BRANCH   1   8
ATOM      8  C   LYS A   1      74.548   1.366  17.558  1.00  0.00     0.226 C 
ATOM      9  O   LYS A   1      74.134   0.810  16.555  1.00  0.00    -0.643 OA
ATOM     10  OXT LYS A   1      74.400   0.888  18.818  1.00  0.00    -0.643 OA
ENDBRANCH   1   8
TORSDOF 1
ENDMDL
MODEL 8
REMARK VINA RESULT:      -4.4     14.033     14.437
REMARK  1 active torsions:
REMARK  status: ('A' for Active; 'I' for Inactive)
REMARK    1  A    between atoms: C_1  and  CA_2 
ROOT
ATOM      1  CA  LYS A   1      71.766  22.723  12.898  1.00  0.00     0.109 A 
ATOM      2  N   LYS A   1      73.105  22.997  12.852  1.00  0.00    -0.360 N 
ATOM      3  HN  LYS A   1      73.719  22.586  12.149  1.00  0.00     0.165 HD
ATOM      4  CE  LYS A   1      73.564  23.847  13.798  1.00  0.00     0.088 A 
ATOM      5  CB  LYS A   1      70.888  23.249  13.835  1.00  0.00     0.037 A 
ATOM      6  CD  LYS A   1      72.764  24.421  14.776  1.00  0.00     0.017 A 
ATOM      7  CG  LYS A   1      71.406  24.115  14.794  1.00  0.00     0.004 A 
ENDROOT
BRANCH   1   8
ATOM      8  C   LYS A   1      71.272  21.787  11.848  1.00  0.00     0.226 C 
ATOM      9  O   LYS A   1      70.614  22.109  10.875  1.00  0.00    -0.643 OA
ATOM     10  OXT LYS A   1      71.653  20.517  12.132  1.00  0.00    -0.643 OA
ENDBRANCH   1   8
TORSDOF 1
ENDMDL
MODEL 9
REMARK VINA RESULT:      -4.3     21.610     22.438
REMARK  1 active torsions:
REMARK  status: ('A' for Active; 'I' for Inactive)
REMARK    1  A    between atoms: C_1  and  CA_2 
ROOT
ATOM      1  CA  LYS A   1      62.389   9.944   3.488  1.00  0.00     0.109 A 
ATOM      2  N   LYS A   1      62.909   8.707   3.753  1.00  0.00    -0.360 N 
ATOM      3  HN  LYS A   1      63.278   8.458   4.670  1.00  0.00     0.165 HD
ATOM      4  CE  LYS A   1      62.902   7.834   2.720  1.00  0.00     0.088 A 
ATOM      5  CB  LYS A   1      61.880  10.336   2.259  1.00  0.00     0.037 A 
ATOM      6  CD  LYS A   1      62.415   8.135   1.455  1.00  0.00     0.017 A 
ATOM      7  CG  LYS A   1      61.899   9.407   1.223  1.00  0.00     0.004 A 
ENDROOT
BRANCH   1   8
ATOM      8  C   LYS A   1      62.400  10.897   4.635  1.00  0.00     0.226 C 
ATOM      9  O   LYS A   1      61.952  12.030   4.609  1.00  0.00    -0.643 OA
ATOM     10  OXT LYS A   1      62.986  10.327   5.717  1.00  0.00    -0.643 OA
ENDBRANCH   1   8
TORSDOF 1
ENDMDL
