MODEL 1
REMARK VINA RESULT:      -7.0      0.000      0.000
REMARK  1 active torsions:
REMARK  status: ('A' for Active; 'I' for Inactive)
REMARK    1  A    between atoms: CA_3  and  C_4 
ROOT
HETATM    1  N   UNL     1      80.192  11.263  20.952  1.00  0.00    -0.350 N 
ATOM      2  HN  UNL     1      81.063  10.733  20.971  1.00  0.00     0.166 HD
HETATM    3  CA  UNL     1      79.966  12.273  21.835  1.00  0.00     0.110 A 
HETATM    4  C   UNL     1      79.231  10.985  20.054  1.00  0.00     0.043 A 
HETATM    5  C   UNL     1      78.804  13.031  21.852  1.00  0.00     0.037 A 
HETATM    6  C   UNL     1      78.013  11.699  20.000  1.00  0.00    -0.009 A 
HETATM    7  C   UNL     1      77.815  12.737  20.920  1.00  0.00     0.016 A 
HETATM    8  C   UNL     1      79.427   9.960  19.138  1.00  0.00     0.030 A 
HETATM    9  C   UNL     1      77.037  11.367  19.046  1.00  0.00     0.013 A 
HETATM   10  C   UNL     1      78.458   9.627  18.187  1.00  0.00     0.002 A 
HETATM   11  C   UNL     1      77.260  10.331  18.142  1.00  0.00     0.001 A 
ENDROOT
BRANCH   3  12
HETATM   12  C   UNL     1      81.028  12.582  22.840  1.00  0.00     0.226 C 
HETATM   13  O   UNL     1      81.022  12.223  24.007  1.00  0.00    -0.643 OA
HETATM   14  OXT UNL     1      82.044  13.318  22.349  1.00  0.00    -0.643 OA
ENDBRANCH   3  12
TORSDOF 1
ENDMDL
MODEL 2
REMARK VINA RESULT:      -6.2      3.980      5.517
REMARK  1 active torsions:
REMARK  status: ('A' for Active; 'I' for Inactive)
REMARK    1  A    between atoms: CA_3  and  C_4 
ROOT
HETATM    1  N   UNL     1      76.904  10.813  18.033  1.00  0.00    -0.350 N 
ATOM      2  HN  UNL     1      76.069  10.940  17.461  1.00  0.00     0.166 HD
HETATM    3  CA  UNL     1      77.794   9.821  17.764  1.00  0.00     0.110 A 
HETATM    4  C   UNL     1      77.159  11.623  19.075  1.00  0.00     0.043 A 
HETATM    5  C   UNL     1      78.949   9.606  18.504  1.00  0.00     0.037 A 
HETATM    6  C   UNL     1      78.306  11.476  19.887  1.00  0.00    -0.009 A 
HETATM    7  C   UNL     1      79.205  10.448  19.580  1.00  0.00     0.016 A 
HETATM    8  C   UNL     1      76.272  12.647  19.379  1.00  0.00     0.030 A 
HETATM    9  C   UNL     1      78.525  12.345  20.970  1.00  0.00     0.013 A 
HETATM   10  C   UNL     1      76.487  13.513  20.456  1.00  0.00     0.002 A 
HETATM   11  C   UNL     1      77.615  13.360  21.253  1.00  0.00     0.001 A 
ENDROOT
BRANCH   3  12
HETATM   12  C   UNL     1      77.512   8.913  16.611  1.00  0.00     0.226 C 
HETATM   13  O   UNL     1      77.676   9.193  15.434  1.00  0.00    -0.643 OA
HETATM   14  OXT UNL     1      77.046   7.702  16.974  1.00  0.00    -0.643 OA
ENDBRANCH   3  12
TORSDOF 1
ENDMDL
MODEL 3
REMARK VINA RESULT:      -5.9      3.459      4.896
REMARK  1 active torsions:
REMARK  status: ('A' for Active; 'I' for Inactive)
REMARK    1  A    between atoms: CA_3  and  C_4 
ROOT
HETATM    1  N   UNL     1      78.757  10.393  19.204  1.00  0.00    -0.350 N 
ATOM      2  HN  UNL     1      79.482   9.682  19.101  1.00  0.00     0.166 HD
HETATM    3  CA  UNL     1      77.705  10.451  18.344  1.00  0.00     0.110 A 
HETATM    4  C   UNL     1      78.812  11.300  20.195  1.00  0.00     0.043 A 
HETATM    5  C   UNL     1      76.688  11.391  18.439  1.00  0.00     0.037 A 
HETATM    6  C   UNL     1      77.826  12.297  20.366  1.00  0.00    -0.009 A 
HETATM    7  C   UNL     1      76.753  12.326  19.467  1.00  0.00     0.016 A 
HETATM    8  C   UNL     1      79.872  11.271  21.091  1.00  0.00     0.030 A 
HETATM    9  C   UNL     1      77.931  13.227  21.414  1.00  0.00     0.013 A 
HETATM   10  C   UNL     1      79.980  12.195  22.135  1.00  0.00     0.002 A 
HETATM   11  C   UNL     1      79.008  13.176  22.295  1.00  0.00     0.001 A 
ENDROOT
BRANCH   3  12
HETATM   12  C   UNL     1      77.642   9.450  17.237  1.00  0.00     0.226 C 
HETATM   13  O   UNL     1      77.236   8.303  17.343  1.00  0.00    -0.643 OA
HETATM   14  OXT UNL     1      78.081   9.920  16.053  1.00  0.00    -0.643 OA
ENDBRANCH   3  12
TORSDOF 1
ENDMDL
MODEL 4
REMARK VINA RESULT:      -5.8      8.018      9.667
REMARK  1 active torsions:
REMARK  status: ('A' for Active; 'I' for Inactive)
REMARK    1  A    between atoms: CA_3  and  C_4 
ROOT
HETATM    1  N   UNL     1      77.147   4.074  17.832  1.00  0.00    -0.350 N 
ATOM      2  HN  UNL     1      78.046   4.369  18.214  1.00  0.00     0.166 HD
HETATM    3  CA  UNL     1      76.309   4.966  17.241  1.00  0.00     0.110 A 
HETATM    4  C   UNL     1      76.756   2.789  17.898  1.00  0.00     0.043 A 
HETATM    5  C   UNL     1      75.078   4.620  16.700  1.00  0.00     0.037 A 
HETATM    6  C   UNL     1      75.518   2.346  17.380  1.00  0.00    -0.009 A 
HETATM    7  C   UNL     1      74.680   3.290  16.773  1.00  0.00     0.016 A 
HETATM    8  C   UNL     1      77.586   1.851  18.495  1.00  0.00     0.030 A 
HETATM    9  C   UNL     1      75.151   0.994  17.479  1.00  0.00     0.013 A 
HETATM   10  C   UNL     1      77.224   0.504  18.595  1.00  0.00     0.002 A 
HETATM   11  C   UNL     1      76.003   0.075  18.087  1.00  0.00     0.001 A 
ENDROOT
BRANCH   3  12
HETATM   12  C   UNL     1      76.736   6.396  17.171  1.00  0.00     0.226 C 
HETATM   13  O   UNL     1      76.893   7.135  18.130  1.00  0.00    -0.643 OA
HETATM   14  OXT UNL     1      76.949   6.839  15.917  1.00  0.00    -0.643 OA
ENDBRANCH   3  12
TORSDOF 1
ENDMDL
MODEL 5
REMARK VINA RESULT:      -5.5     18.220     20.117
REMARK  1 active torsions:
REMARK  status: ('A' for Active; 'I' for Inactive)
REMARK    1  A    between atoms: CA_3  and  C_4 
ROOT
HETATM    1  N   UNL     1      65.837   7.726   6.963  1.00  0.00    -0.350 N 
ATOM      2  HN  UNL     1      65.303   8.327   7.590  1.00  0.00     0.166 HD
HETATM    3  CA  UNL     1      65.646   7.769   5.617  1.00  0.00     0.110 A 
HETATM    4  C   UNL     1      66.754   6.866   7.441  1.00  0.00     0.043 A 
HETATM    5  C   UNL     1      66.348   6.980   4.716  1.00  0.00     0.037 A 
HETATM    6  C   UNL     1      67.511   6.020   6.601  1.00  0.00    -0.009 A 
HETATM    7  C   UNL     1      67.294   6.094   5.219  1.00  0.00     0.016 A 
HETATM    8  C   UNL     1      66.975   6.794   8.810  1.00  0.00     0.030 A 
HETATM    9  C   UNL     1      68.453   5.134   7.149  1.00  0.00     0.013 A 
HETATM   10  C   UNL     1      67.912   5.913   9.359  1.00  0.00     0.002 A 
HETATM   11  C   UNL     1      68.651   5.080   8.527  1.00  0.00     0.001 A 
ENDROOT
BRANCH   3  12
HETATM   12  C   UNL     1      64.624   8.718   5.080  1.00  0.00     0.226 C 
HETATM   13  O   UNL     1      63.876   8.495   4.140  1.00  0.00    -0.643 OA
HETATM   14  OXT UNL     1      64.576   9.894   5.735  1.00  0.00    -0.643 OA
ENDBRANCH   3  12
TORSDOF 1
ENDMDL
MODEL 6
REMARK VINA RESULT:      -5.5     17.529     19.073
REMARK  1 active torsions:
REMARK  status: ('A' for Active; 'I' for Inactive)
REMARK    1  A    between atoms: CA_3  and  C_4 
ROOT
HETATM    1  N   UNL     1      67.946   6.465   7.672  1.00  0.00    -0.350 N 
ATOM      2  HN  UNL     1      68.023   7.242   8.329  1.00  0.00     0.166 HD
HETATM    3  CA  UNL     1      67.437   6.648   6.425  1.00  0.00     0.110 A 
HETATM    4  C   UNL     1      68.344   5.227   8.014  1.00  0.00     0.043 A 
HETATM    5  C   UNL     1      67.314   5.630   5.489  1.00  0.00     0.037 A 
HETATM    6  C   UNL     1      68.252   4.129   7.131  1.00  0.00    -0.009 A 
HETATM    7  C   UNL     1      67.728   4.353   5.851  1.00  0.00     0.016 A 
HETATM    8  C   UNL     1      68.868   5.003   9.280  1.00  0.00     0.030 A 
HETATM    9  C   UNL     1      68.676   2.852   7.537  1.00  0.00     0.013 A 
HETATM   10  C   UNL     1      69.292   3.734   9.689  1.00  0.00     0.002 A 
HETATM   11  C   UNL     1      69.194   2.656   8.815  1.00  0.00     0.001 A 
ENDROOT
BRANCH   3  12
HETATM   12  C   UNL     1      66.986   8.020   6.041  1.00  0.00     0.226 C 
HETATM   13  O   UNL     1      66.495   8.841   6.800  1.00  0.00    -0.643 OA
HETATM   14  OXT UNL     1      67.169   8.307   4.738  1.00  0.00    -0.643 OA
ENDBRANCH   3  12
TORSDOF 1
ENDMDL
MODEL 7
REMARK VINA RESULT:      -5.4     20.255     22.019
REMARK  1 active torsions:
REMARK  status: ('A' for Active; 'I' for Inactive)
REMARK    1  A    between atoms: CA_3  and  C_4 
ROOT
HETATM    1  N   UNL     1      64.784   9.202   5.587  1.00  0.00    -0.350 N 
ATOM      2  HN  UNL     1      65.071   9.862   6.310  1.00  0.00     0.166 HD
HETATM    3  CA  UNL     1      63.646   9.399   4.870  1.00  0.00     0.110 A 
HETATM    4  C   UNL     1      65.521   8.112   5.312  1.00  0.00     0.043 A 
HETATM    5  C   UNL     1      63.211   8.539   3.870  1.00  0.00     0.037 A 
HETATM    6  C   UNL     1      65.154   7.179   4.318  1.00  0.00    -0.009 A 
HETATM    7  C   UNL     1      63.979   7.414   3.593  1.00  0.00     0.016 A 
HETATM    8  C   UNL     1      66.690   7.879   6.025  1.00  0.00     0.030 A 
HETATM    9  C   UNL     1      65.955   6.050   4.072  1.00  0.00     0.013 A 
HETATM   10  C   UNL     1      67.489   6.757   5.784  1.00  0.00     0.002 A 
HETATM   11  C   UNL     1      67.120   5.841   4.806  1.00  0.00     0.001 A 
ENDROOT
BRANCH   3  12
HETATM   12  C   UNL     1      62.819  10.605   5.175  1.00  0.00     0.226 C 
HETATM   13  O   UNL     1      61.934  11.054   4.464  1.00  0.00    -0.643 OA
HETATM   14  OXT UNL     1      63.128  11.194   6.347  1.00  0.00    -0.643 OA
ENDBRANCH   3  12
TORSDOF 1
ENDMDL
MODEL 8
REMARK VINA RESULT:      -5.4      8.852     10.530
REMARK  1 active torsions:
REMARK  status: ('A' for Active; 'I' for Inactive)
REMARK    1  A    between atoms: CA_3  and  C_4 
ROOT
HETATM    1  N   UNL     1      77.590   2.479  18.389  1.00  0.00    -0.350 N 
ATOM      2  HN  UNL     1      78.450   2.895  18.744  1.00  0.00     0.166 HD
HETATM    3  CA  UNL     1      77.355   1.145  18.506  1.00  0.00     0.110 A 
HETATM    4  C   UNL     1      76.652   3.233  17.790  1.00  0.00     0.043 A 
HETATM    5  C   UNL     1      76.201   0.525  18.047  1.00  0.00     0.037 A 
HETATM    6  C   UNL     1      75.449   2.689  17.287  1.00  0.00    -0.009 A 
HETATM    7  C   UNL     1      75.236   1.312  17.429  1.00  0.00     0.016 A 
HETATM    8  C   UNL     1      76.857   4.599  17.652  1.00  0.00     0.030 A 
HETATM    9  C   UNL     1      74.501   3.518  16.663  1.00  0.00     0.013 A 
HETATM   10  C   UNL     1      75.917   5.427  17.032  1.00  0.00     0.002 A 
HETATM   11  C   UNL     1      74.737   4.885  16.535  1.00  0.00     0.001 A 
ENDROOT
BRANCH   3  12
HETATM   12  C   UNL     1      78.398   0.300  19.165  1.00  0.00     0.226 C 
HETATM   13  O   UNL     1      78.472  -0.916  19.092  1.00  0.00    -0.643 OA
HETATM   14  OXT UNL     1      79.297   1.005  19.878  1.00  0.00    -0.643 OA
ENDBRANCH   3  12
TORSDOF 1
ENDMDL
MODEL 9
REMARK VINA RESULT:      -5.4     21.928     23.753
REMARK  1 active torsions:
REMARK  status: ('A' for Active; 'I' for Inactive)
REMARK    1  A    between atoms: CA_3  and  C_4 
ROOT
HETATM    1  N   UNL     1      62.895   8.664   5.174  1.00  0.00    -0.350 N 
ATOM      2  HN  UNL     1      62.887   9.086   6.103  1.00  0.00     0.166 HD
HETATM    3  CA  UNL     1      63.245   7.362   4.999  1.00  0.00     0.110 A 
HETATM    4  C   UNL     1      62.560   9.378   4.086  1.00  0.00     0.043 A 
HETATM    5  C   UNL     1      63.268   6.733   3.761  1.00  0.00     0.037 A 
HETATM    6  C   UNL     1      62.561   8.825   2.786  1.00  0.00    -0.009 A 
HETATM    7  C   UNL     1      62.921   7.479   2.641  1.00  0.00     0.016 A 
HETATM    8  C   UNL     1      62.198  10.711   4.227  1.00  0.00     0.030 A 
HETATM    9  C   UNL     1      62.209   9.615   1.678  1.00  0.00     0.013 A 
HETATM   10  C   UNL     1      61.847  11.500   3.127  1.00  0.00     0.002 A 
HETATM   11  C   UNL     1      61.854  10.950   1.850  1.00  0.00     0.001 A 
ENDROOT
BRANCH   3  12
HETATM   12  C   UNL     1      63.625   6.564   6.204  1.00  0.00     0.226 C 
HETATM   13  O   UNL     1      63.385   5.379   6.372  1.00  0.00    -0.643 OA
HETATM   14  OXT UNL     1      64.285   7.274   7.140  1.00  0.00    -0.643 OA
ENDBRANCH   3  12
TORSDOF 1
ENDMDL
