MODEL 1
REMARK VINA RESULT:      -5.6      0.000      0.000
REMARK  2 active torsions:
REMARK  status: ('A' for Active; 'I' for Inactive)
REMARK    1  A    between atoms: C_7  and  C_11 
REMARK    2  A    between atoms: N_9  and  C_11 
ROOT
HETATM    1  N   UNL     1      77.155   7.195  15.220  1.00  0.00    -0.365 N 
ATOM      2  HN  UNL     1      77.369   7.433  14.251  1.00  0.00     0.165 HD
HETATM    3  C   UNL     1      76.955   7.813  17.544  1.00  0.00    -0.009 A 
HETATM    4  C   UNL     1      77.251   8.113  16.198  1.00  0.00     0.042 A 
HETATM    5  C   UNL     1      77.060   8.809  18.533  1.00  0.00     0.022 A 
HETATM    6  C   UNL     1      77.653   9.405  15.890  1.00  0.00     0.031 A 
HETATM    7  C   UNL     1      77.476  10.108  18.210  1.00  0.00    -0.032 A 
HETATM    8  C   UNL     1      77.771  10.395  16.874  1.00  0.00     0.011 A 
HETATM    9  C   UNL     1      76.766   5.947  15.560  1.00  0.00     0.088 A 
HETATM   10  C   UNL     1      76.560   6.506  17.856  1.00  0.00     0.015 A 
HETATM   11  C   UNL     1      76.463   5.556  16.850  1.00  0.00     0.018 A 
ENDROOT
BRANCH   7  12
HETATM   12  C   UNL     1      77.580  11.176  19.274  1.00  0.00     0.270 C 
BRANCH  12  13
HETATM   13  N   UNL     1      78.829  11.065  20.027  1.00  0.00    -0.075 N 
HETATM   14  C   UNL     1      78.902  12.076  21.071  1.00  0.00     0.267 C 
HETATM   15  H   UNL     1      79.615  11.188  19.389  1.00  0.00     0.277 HD
HETATM   16  H   UNL     1      78.863  10.144  20.464  1.00  0.00     0.277 HD
ENDBRANCH  12  13
ENDBRANCH   7  12
TORSDOF 2
ENDMDL
MODEL 2
REMARK VINA RESULT:      -5.1     12.462     14.738
REMARK  2 active torsions:
REMARK  status: ('A' for Active; 'I' for Inactive)
REMARK    1  A    between atoms: C_7  and  C_11 
REMARK    2  A    between atoms: N_9  and  C_11 
ROOT
HETATM    1  N   UNL     1      65.611   7.320   7.134  1.00  0.00    -0.365 N 
ATOM      2  HN  UNL     1      65.040   7.863   7.781  1.00  0.00     0.165 HD
HETATM    3  C   UNL     1      67.445   5.812   6.702  1.00  0.00    -0.009 A 
HETATM    4  C   UNL     1      66.643   6.578   7.574  1.00  0.00     0.042 A 
HETATM    5  C   UNL     1      68.509   5.043   7.208  1.00  0.00     0.022 A 
HETATM    6  C   UNL     1      66.944   6.554   8.928  1.00  0.00     0.031 A 
HETATM    7  C   UNL     1      68.808   5.034   8.579  1.00  0.00    -0.032 A 
HETATM    8  C   UNL     1      68.010   5.800   9.434  1.00  0.00     0.011 A 
HETATM    9  C   UNL     1      65.354   7.322   5.808  1.00  0.00     0.088 A 
HETATM   10  C   UNL     1      67.149   5.845   5.334  1.00  0.00     0.015 A 
HETATM   11  C   UNL     1      66.086   6.612   4.877  1.00  0.00     0.018 A 
ENDROOT
BRANCH   7  12
HETATM   12  C   UNL     1      69.947   4.201   9.119  1.00  0.00     0.270 C 
BRANCH  12  13
HETATM   13  N   UNL     1      69.623   3.631  10.427  1.00  0.00    -0.075 N 
HETATM   14  C   UNL     1      69.355   2.204  10.324  1.00  0.00     0.267 C 
HETATM   15  H   UNL     1      68.796   4.099  10.798  1.00  0.00     0.277 HD
HETATM   16  H   UNL     1      70.421   3.767  11.046  1.00  0.00     0.277 HD
ENDBRANCH  12  13
ENDBRANCH   7  12
TORSDOF 2
ENDMDL
MODEL 3
REMARK VINA RESULT:      -5.1      4.991      8.680
REMARK  2 active torsions:
REMARK  status: ('A' for Active; 'I' for Inactive)
REMARK    1  A    between atoms: C_7  and  C_11 
REMARK    2  A    between atoms: N_9  and  C_11 
ROOT
HETATM    1  N   UNL     1      77.316   4.014  18.093  1.00  0.00    -0.365 N 
ATOM      2  HN  UNL     1      78.159   3.845  18.641  1.00  0.00     0.165 HD
HETATM    3  C   UNL     1      75.313   3.210  17.014  1.00  0.00    -0.009 A 
HETATM    4  C   UNL     1      76.489   3.005  17.766  1.00  0.00     0.042 A 
HETATM    5  C   UNL     1      74.471   2.126  16.704  1.00  0.00     0.022 A 
HETATM    6  C   UNL     1      76.786   1.713  18.174  1.00  0.00     0.031 A 
HETATM    7  C   UNL     1      74.787   0.823  17.115  1.00  0.00    -0.032 A 
HETATM    8  C   UNL     1      75.957   0.629  17.856  1.00  0.00     0.011 A 
HETATM    9  C   UNL     1      76.995   5.257  17.672  1.00  0.00     0.088 A 
HETATM   10  C   UNL     1      75.018   4.512  16.593  1.00  0.00     0.015 A 
HETATM   11  C   UNL     1      75.872   5.555  16.926  1.00  0.00     0.018 A 
ENDROOT
BRANCH   7  12
HETATM   12  C   UNL     1      73.876  -0.337  16.786  1.00  0.00     0.270 C 
BRANCH  12  13
HETATM   13  N   UNL     1      73.401  -1.007  17.996  1.00  0.00    -0.075 N 
HETATM   14  C   UNL     1      72.208  -1.796  17.723  1.00  0.00     0.267 C 
HETATM   15  H   UNL     1      73.180  -0.304  18.702  1.00  0.00     0.277 HD
HETATM   16  H   UNL     1      74.134  -1.633  18.330  1.00  0.00     0.277 HD
ENDBRANCH  12  13
ENDBRANCH   7  12
TORSDOF 2
ENDMDL
MODEL 4
REMARK VINA RESULT:      -4.9      5.014      7.796
REMARK  2 active torsions:
REMARK  status: ('A' for Active; 'I' for Inactive)
REMARK    1  A    between atoms: C_7  and  C_11 
REMARK    2  A    between atoms: N_9  and  C_11 
ROOT
HETATM    1  N   UNL     1      74.349   3.709  16.780  1.00  0.00    -0.365 N 
ATOM      2  HN  UNL     1      73.412   3.444  16.480  1.00  0.00     0.165 HD
HETATM    3  C   UNL     1      76.488   3.145  17.745  1.00  0.00    -0.009 A 
HETATM    4  C   UNL     1      75.184   2.807  17.328  1.00  0.00     0.042 A 
HETATM    5  C   UNL     1      77.331   2.166  18.304  1.00  0.00     0.022 A 
HETATM    6  C   UNL     1      74.764   1.495  17.494  1.00  0.00     0.031 A 
HETATM    7  C   UNL     1      76.891   0.845  18.475  1.00  0.00    -0.032 A 
HETATM    8  C   UNL     1      75.595   0.521  18.062  1.00  0.00     0.011 A 
HETATM    9  C   UNL     1      74.793   4.978  16.640  1.00  0.00     0.088 A 
HETATM   10  C   UNL     1      76.908   4.472  17.587  1.00  0.00     0.015 A 
HETATM   11  C   UNL     1      76.048   5.405  17.026  1.00  0.00     0.018 A 
ENDROOT
BRANCH   7  12
HETATM   12  C   UNL     1      77.802  -0.205  19.068  1.00  0.00     0.270 C 
BRANCH  12  13
HETATM   13  N   UNL     1      77.785  -0.166  20.530  1.00  0.00    -0.075 N 
HETATM   14  C   UNL     1      79.027   0.383  21.053  1.00  0.00     0.267 C 
HETATM   15  H   UNL     1      77.665  -1.115  20.887  1.00  0.00     0.277 HD
HETATM   16  H   UNL     1      77.015   0.430  20.830  1.00  0.00     0.277 HD
ENDBRANCH  12  13
ENDBRANCH   7  12
TORSDOF 2
ENDMDL
MODEL 5
REMARK VINA RESULT:      -4.9     18.135     19.951
REMARK  2 active torsions:
REMARK  status: ('A' for Active; 'I' for Inactive)
REMARK    1  A    between atoms: C_7  and  C_11 
REMARK    2  A    between atoms: N_9  and  C_11 
ROOT
HETATM    1  N   UNL     1      62.238   9.523   1.650  1.00  0.00    -0.365 N 
ATOM      2  HN  UNL     1      62.250   9.072   0.735  1.00  0.00     0.165 HD
HETATM    3  C   UNL     1      62.601   9.453   4.035  1.00  0.00    -0.009 A 
HETATM    4  C   UNL     1      62.601   8.852   2.759  1.00  0.00     0.042 A 
HETATM    5  C   UNL     1      62.998   8.716   5.166  1.00  0.00     0.022 A 
HETATM    6  C   UNL     1      62.990   7.525   2.662  1.00  0.00     0.031 A 
HETATM    7  C   UNL     1      63.381   7.372   5.056  1.00  0.00    -0.032 A 
HETATM    8  C   UNL     1      63.373   6.784   3.787  1.00  0.00     0.011 A 
HETATM    9  C   UNL     1      61.859  10.813   1.786  1.00  0.00     0.088 A 
HETATM   10  C   UNL     1      62.197  10.790   4.134  1.00  0.00     0.015 A 
HETATM   11  C   UNL     1      61.819  11.484   2.993  1.00  0.00     0.018 A 
ENDROOT
BRANCH   7  12
HETATM   12  C   UNL     1      63.814   6.586   6.272  1.00  0.00     0.270 C 
BRANCH  12  13
HETATM   13  N   UNL     1      64.862   7.282   7.017  1.00  0.00    -0.075 N 
HETATM   14  C   UNL     1      65.833   6.342   7.558  1.00  0.00     0.267 C 
HETATM   15  H   UNL     1      64.436   7.800   7.786  1.00  0.00     0.277 HD
HETATM   16  H   UNL     1      65.345   7.917   6.381  1.00  0.00     0.277 HD
ENDBRANCH  12  13
ENDBRANCH   7  12
TORSDOF 2
ENDMDL
MODEL 6
REMARK VINA RESULT:      -4.8     12.489     14.053
REMARK  2 active torsions:
REMARK  status: ('A' for Active; 'I' for Inactive)
REMARK    1  A    between atoms: C_7  and  C_11 
REMARK    2  A    between atoms: N_9  and  C_11 
ROOT
HETATM    1  N   UNL     1      69.731   2.512  10.478  1.00  0.00    -0.365 N 
ATOM      2  HN  UNL     1      69.974   2.875  11.399  1.00  0.00     0.165 HD
HETATM    3  C   UNL     1      68.908   2.849   8.234  1.00  0.00    -0.009 A 
HETATM    4  C   UNL     1      69.246   3.322   9.520  1.00  0.00     0.042 A 
HETATM    5  C   UNL     1      68.413   3.734   7.259  1.00  0.00     0.022 A 
HETATM    6  C   UNL     1      69.066   4.672   9.786  1.00  0.00     0.031 A 
HETATM    7  C   UNL     1      68.228   5.095   7.545  1.00  0.00    -0.032 A 
HETATM    8  C   UNL     1      68.562   5.554   8.823  1.00  0.00     0.011 A 
HETATM    9  C   UNL     1      69.886   1.203  10.181  1.00  0.00     0.088 A 
HETATM   10  C   UNL     1      69.078   1.484   7.968  1.00  0.00     0.015 A 
HETATM   11  C   UNL     1      69.575   0.646   8.956  1.00  0.00     0.018 A 
ENDROOT
BRANCH   7  12
HETATM   12  C   UNL     1      67.703   6.044   6.492  1.00  0.00     0.270 C 
BRANCH  12  13
HETATM   13  N   UNL     1      67.434   7.370   7.050  1.00  0.00    -0.075 N 
HETATM   14  C   UNL     1      66.444   8.081   6.254  1.00  0.00     0.267 C 
HETATM   15  H   UNL     1      68.301   7.908   7.061  1.00  0.00     0.277 HD
HETATM   16  H   UNL     1      67.070   7.256   7.995  1.00  0.00     0.277 HD
ENDBRANCH  12  13
ENDBRANCH   7  12
TORSDOF 2
ENDMDL
MODEL 7
REMARK VINA RESULT:      -4.8     12.927     15.214
REMARK  2 active torsions:
REMARK  status: ('A' for Active; 'I' for Inactive)
REMARK    1  A    between atoms: C_7  and  C_11 
REMARK    2  A    between atoms: N_9  and  C_11 
ROOT
HETATM    1  N   UNL     1      67.393   3.241   9.018  1.00  0.00    -0.365 N 
ATOM      2  HN  UNL     1      66.633   2.578   9.169  1.00  0.00     0.165 HD
HETATM    3  C   UNL     1      68.258   5.256   8.011  1.00  0.00    -0.009 A 
HETATM    4  C   UNL     1      67.227   4.319   8.231  1.00  0.00     0.042 A 
HETATM    5  C   UNL     1      68.036   6.376   7.187  1.00  0.00     0.022 A 
HETATM    6  C   UNL     1      66.006   4.534   7.609  1.00  0.00     0.031 A 
HETATM    7  C   UNL     1      66.799   6.576   6.557  1.00  0.00    -0.032 A 
HETATM    8  C   UNL     1      65.785   5.640   6.779  1.00  0.00     0.011 A 
HETATM    9  C   UNL     1      68.599   3.064   9.602  1.00  0.00     0.088 A 
HETATM   10  C   UNL     1      69.494   5.034   8.630  1.00  0.00     0.015 A 
HETATM   11  C   UNL     1      69.670   3.920   9.439  1.00  0.00     0.018 A 
ENDROOT
BRANCH   7  12
HETATM   12  C   UNL     1      66.563   7.784   5.680  1.00  0.00     0.270 C 
BRANCH  12  13
HETATM   13  N   UNL     1      65.343   8.495   6.062  1.00  0.00    -0.075 N 
HETATM   14  C   UNL     1      64.453   8.657   4.922  1.00  0.00     0.267 C 
HETATM   15  H   UNL     1      65.593   9.416   6.422  1.00  0.00     0.277 HD
HETATM   16  H   UNL     1      64.860   7.950   6.775  1.00  0.00     0.277 HD
ENDBRANCH  12  13
ENDBRANCH   7  12
TORSDOF 2
ENDMDL
MODEL 8
REMARK VINA RESULT:      -4.7     18.541     20.298
REMARK  2 active torsions:
REMARK  status: ('A' for Active; 'I' for Inactive)
REMARK    1  A    between atoms: C_7  and  C_11 
REMARK    2  A    between atoms: N_9  and  C_11 
ROOT
HETATM    1  N   UNL     1      60.951   9.284   1.969  1.00  0.00    -0.365 N 
ATOM      2  HN  UNL     1      60.337  10.077   2.155  1.00  0.00     0.165 HD
HETATM    3  C   UNL     1      62.819   7.883   2.578  1.00  0.00    -0.009 A 
HETATM    4  C   UNL     1      61.959   8.977   2.806  1.00  0.00     0.042 A 
HETATM    5  C   UNL     1      63.854   7.593   3.486  1.00  0.00     0.022 A 
HETATM    6  C   UNL     1      62.173   9.751   3.937  1.00  0.00     0.031 A 
HETATM    7  C   UNL     1      64.065   8.389   4.621  1.00  0.00    -0.032 A 
HETATM    8  C   UNL     1      63.210   9.474   4.837  1.00  0.00     0.011 A 
HETATM    9  C   UNL     1      60.779   8.510   0.876  1.00  0.00     0.088 A 
HETATM   10  C   UNL     1      62.610   7.108   1.431  1.00  0.00     0.015 A 
HETATM   11  C   UNL     1      61.574   7.425   0.564  1.00  0.00     0.018 A 
ENDROOT
BRANCH   7  12
HETATM   12  C   UNL     1      65.174   8.069   5.598  1.00  0.00     0.270 C 
BRANCH  12  13
HETATM   13  N   UNL     1      64.661   7.397   6.792  1.00  0.00    -0.075 N 
HETATM   14  C   UNL     1      65.674   6.535   7.383  1.00  0.00     0.267 C 
HETATM   15  H   UNL     1      63.852   6.830   6.533  1.00  0.00     0.277 HD
HETATM   16  H   UNL     1      64.398   8.106   7.476  1.00  0.00     0.277 HD
ENDBRANCH  12  13
ENDBRANCH   7  12
TORSDOF 2
ENDMDL
MODEL 9
REMARK VINA RESULT:      -4.5      3.965      6.227
REMARK  2 active torsions:
REMARK  status: ('A' for Active; 'I' for Inactive)
REMARK    1  A    between atoms: C_7  and  C_11 
REMARK    2  A    between atoms: N_9  and  C_11 
ROOT
HETATM    1  N   UNL     1      76.296   1.206  18.600  1.00  0.00    -0.365 N 
ATOM      2  HN  UNL     1      77.008   1.041  19.312  1.00  0.00     0.165 HD
HETATM    3  C   UNL     1      75.222   2.653  16.995  1.00  0.00    -0.009 A 
HETATM    4  C   UNL     1      76.192   2.399  17.987  1.00  0.00     0.042 A 
HETATM    5  C   UNL     1      75.156   3.914  16.373  1.00  0.00     0.022 A 
HETATM    6  C   UNL     1      77.060   3.426  18.330  1.00  0.00     0.031 A 
HETATM    7  C   UNL     1      76.034   4.946  16.735  1.00  0.00    -0.032 A 
HETATM    8  C   UNL     1      76.989   4.686  17.722  1.00  0.00     0.011 A 
HETATM    9  C   UNL     1      75.429   0.234  18.244  1.00  0.00     0.088 A 
HETATM   10  C   UNL     1      74.339   1.620  16.657  1.00  0.00     0.015 A 
HETATM   11  C   UNL     1      74.441   0.390  17.290  1.00  0.00     0.018 A 
ENDROOT
BRANCH   7  12
HETATM   12  C   UNL     1      75.965   6.296  16.058  1.00  0.00     0.270 C 
BRANCH  12  13
HETATM   13  N   UNL     1      77.075   6.487  15.125  1.00  0.00    -0.075 N 
HETATM   14  C   UNL     1      77.120   7.858  14.640  1.00  0.00     0.267 C 
HETATM   15  H   UNL     1      76.954   5.857  14.331  1.00  0.00     0.277 HD
HETATM   16  H   UNL     1      77.947   6.286  15.613  1.00  0.00     0.277 HD
ENDBRANCH  12  13
ENDBRANCH   7  12
TORSDOF 2
ENDMDL
