MODEL 1
REMARK VINA RESULT:      -5.1      0.000      0.000
REMARK  1 active torsions:
REMARK  status: ('A' for Active; 'I' for Inactive)
REMARK    1  A    between atoms: C_1  and  C_2 
ROOT
HETATM    1  C   UNL     1      77.279   8.248  16.486  1.00  0.00     0.056 A 
HETATM    2  N   UNL     1      77.260   7.456  14.202  1.00  0.00    -0.374 N 
ATOM      3  HN  UNL     1      77.067   6.721  13.522  1.00  0.00     0.164 HD
HETATM    4  C   UNL     1      77.054   7.267  15.529  1.00  0.00     0.105 A 
HETATM    5  C   UNL     1      77.780   9.481  16.066  1.00  0.00     0.021 A 
HETATM    6  C   UNL     1      77.732   8.666  13.823  1.00  0.00     0.087 A 
HETATM    7  C   UNL     1      78.008   9.696  14.708  1.00  0.00     0.018 A 
ENDROOT
BRANCH   1   8
HETATM    8  C   UNL     1      77.023   7.933  17.903  1.00  0.00     0.210 C 
HETATM    9  O   UNL     1      77.277   8.704  18.809  1.00  0.00    -0.644 OA
HETATM   10  O   UNL     1      76.511   6.698  18.097  1.00  0.00    -0.644 OA
ENDBRANCH   1   8
TORSDOF 1
ENDMDL
MODEL 2
REMARK VINA RESULT:      -4.7      4.586      5.417
REMARK  1 active torsions:
REMARK  status: ('A' for Active; 'I' for Inactive)
REMARK    1  A    between atoms: C_1  and  C_2 
ROOT
HETATM    1  C   UNL     1      77.597  11.246  19.380  1.00  0.00     0.056 A 
HETATM    2  N   UNL     1      76.036  13.044  18.969  1.00  0.00    -0.374 N 
ATOM      3  HN  UNL     1      75.302  13.466  18.401  1.00  0.00     0.164 HD
HETATM    4  C   UNL     1      76.613  11.868  18.622  1.00  0.00     0.105 A 
HETATM    5  C   UNL     1      78.044  11.883  20.538  1.00  0.00     0.021 A 
HETATM    6  C   UNL     1      76.479  13.632  20.104  1.00  0.00     0.087 A 
HETATM    7  C   UNL     1      77.472  13.098  20.910  1.00  0.00     0.018 A 
ENDROOT
BRANCH   1   8
HETATM    8  C   UNL     1      78.158   9.966  18.907  1.00  0.00     0.210 C 
HETATM    9  O   UNL     1      79.259   9.874  18.398  1.00  0.00    -0.644 OA
HETATM   10  O   UNL     1      77.321   8.919  19.067  1.00  0.00    -0.644 OA
ENDBRANCH   1   8
TORSDOF 1
ENDMDL
MODEL 3
REMARK VINA RESULT:      -4.7      1.494      2.070
REMARK  1 active torsions:
REMARK  status: ('A' for Active; 'I' for Inactive)
REMARK    1  A    between atoms: C_1  and  C_2 
ROOT
HETATM    1  C   UNL     1      76.816   6.693  16.616  1.00  0.00     0.056 A 
HETATM    2  N   UNL     1      77.240   7.649  14.438  1.00  0.00    -0.374 N 
ATOM      3  HN  UNL     1      77.263   7.561  13.422  1.00  0.00     0.164 HD
HETATM    4  C   UNL     1      76.885   6.609  15.232  1.00  0.00     0.105 A 
HETATM    5  C   UNL     1      77.168   7.898  17.227  1.00  0.00     0.021 A 
HETATM    6  C   UNL     1      77.562   8.809  15.056  1.00  0.00     0.087 A 
HETATM    7  C   UNL     1      77.545   8.978  16.432  1.00  0.00     0.018 A 
ENDROOT
BRANCH   1   8
HETATM    8  C   UNL     1      76.419   5.497  17.384  1.00  0.00     0.210 C 
HETATM    9  O   UNL     1      76.940   5.185  18.438  1.00  0.00    -0.644 OA
HETATM   10  O   UNL     1      75.448   4.772  16.788  1.00  0.00    -0.644 OA
ENDBRANCH   1   8
TORSDOF 1
ENDMDL
MODEL 4
REMARK VINA RESULT:      -4.7      4.893      5.842
REMARK  1 active torsions:
REMARK  status: ('A' for Active; 'I' for Inactive)
REMARK    1  A    between atoms: C_1  and  C_2 
ROOT
HETATM    1  C   UNL     1      78.225  11.007  19.710  1.00  0.00     0.056 A 
HETATM    2  N   UNL     1      80.185  11.405  21.066  1.00  0.00    -0.374 N 
ATOM      3  HN  UNL     1      81.163  11.215  21.286  1.00  0.00     0.164 HD
HETATM    4  C   UNL     1      79.546  10.760  20.060  1.00  0.00     0.105 A 
HETATM    5  C   UNL     1      77.504  11.938  20.459  1.00  0.00     0.021 A 
HETATM    6  C   UNL     1      79.466  12.313  21.765  1.00  0.00     0.087 A 
HETATM    7  C   UNL     1      78.137  12.608  21.504  1.00  0.00     0.018 A 
ENDROOT
BRANCH   1   8
HETATM    8  C   UNL     1      77.628  10.245  18.598  1.00  0.00     0.210 C 
HETATM    9  O   UNL     1      77.328  10.753  17.534  1.00  0.00    -0.644 OA
HETATM   10  O   UNL     1      77.420   8.942  18.887  1.00  0.00    -0.644 OA
ENDBRANCH   1   8
TORSDOF 1
ENDMDL
MODEL 5
REMARK VINA RESULT:      -4.6      5.067      6.106
REMARK  1 active torsions:
REMARK  status: ('A' for Active; 'I' for Inactive)
REMARK    1  A    between atoms: C_1  and  C_2 
ROOT
HETATM    1  C   UNL     1      75.405   2.881  17.377  1.00  0.00     0.056 A 
HETATM    2  N   UNL     1      77.310   4.103  18.222  1.00  0.00    -0.374 N 
ATOM      3  HN  UNL     1      78.163   4.137  18.780  1.00  0.00     0.164 HD
HETATM    4  C   UNL     1      76.558   2.978  18.144  1.00  0.00     0.105 A 
HETATM    5  C   UNL     1      74.974   4.011  16.681  1.00  0.00     0.021 A 
HETATM    6  C   UNL     1      76.876   5.179  17.526  1.00  0.00     0.087 A 
HETATM    7  C   UNL     1      75.726   5.182  16.753  1.00  0.00     0.018 A 
ENDROOT
BRANCH   1   8
HETATM    8  C   UNL     1      74.661   1.607  17.365  1.00  0.00     0.210 C 
HETATM    9  O   UNL     1      74.261   1.083  16.343  1.00  0.00    -0.644 OA
HETATM   10  O   UNL     1      74.444   1.099  18.598  1.00  0.00    -0.644 OA
ENDBRANCH   1   8
TORSDOF 1
ENDMDL
MODEL 6
REMARK VINA RESULT:      -4.5      1.462      2.459
REMARK  1 active torsions:
REMARK  status: ('A' for Active; 'I' for Inactive)
REMARK    1  A    between atoms: C_1  and  C_2 
ROOT
HETATM    1  C   UNL     1      77.262   8.481  17.119  1.00  0.00     0.056 A 
HETATM    2  N   UNL     1      77.252   7.708  14.829  1.00  0.00    -0.374 N 
ATOM      3  HN  UNL     1      77.389   7.887  13.834  1.00  0.00     0.164 HD
HETATM    4  C   UNL     1      77.412   8.687  15.754  1.00  0.00     0.105 A 
HETATM    5  C   UNL     1      76.887   7.211  17.561  1.00  0.00     0.021 A 
HETATM    6  C   UNL     1      76.903   6.484  15.287  1.00  0.00     0.087 A 
HETATM    7  C   UNL     1      76.708   6.191  16.628  1.00  0.00     0.018 A 
ENDROOT
BRANCH   1   8
HETATM    8  C   UNL     1      77.458   9.618  18.037  1.00  0.00     0.210 C 
HETATM    9  O   UNL     1      77.541  10.770  17.655  1.00  0.00    -0.644 OA
HETATM   10  O   UNL     1      77.566   9.252  19.332  1.00  0.00    -0.644 OA
ENDBRANCH   1   8
TORSDOF 1
ENDMDL
MODEL 7
REMARK VINA RESULT:      -4.5      2.645      3.626
REMARK  1 active torsions:
REMARK  status: ('A' for Active; 'I' for Inactive)
REMARK    1  A    between atoms: C_1  and  C_2 
ROOT
HETATM    1  C   UNL     1      77.340   8.244  15.366  1.00  0.00     0.056 A 
HETATM    2  N   UNL     1      76.691   6.102  16.278  1.00  0.00    -0.374 N 
ATOM      3  HN  UNL     1      76.436   5.124  16.144  1.00  0.00     0.164 HD
HETATM    4  C   UNL     1      76.964   6.914  15.227  1.00  0.00     0.105 A 
HETATM    5  C   UNL     1      77.402   8.785  16.651  1.00  0.00     0.021 A 
HETATM    6  C   UNL     1      76.773   6.650  17.512  1.00  0.00     0.087 A 
HETATM    7  C   UNL     1      77.116   7.972  17.746  1.00  0.00     0.018 A 
ENDROOT
BRANCH   1   8
HETATM    8  C   UNL     1      77.613   9.037  14.153  1.00  0.00     0.210 C 
HETATM    9  O   UNL     1      77.641   8.553  13.037  1.00  0.00    -0.644 OA
HETATM   10  O   UNL     1      77.856  10.341  14.406  1.00  0.00    -0.644 OA
ENDBRANCH   1   8
TORSDOF 1
ENDMDL
MODEL 8
REMARK VINA RESULT:      -4.5      4.116      5.253
REMARK  1 active torsions:
REMARK  status: ('A' for Active; 'I' for Inactive)
REMARK    1  A    between atoms: C_1  and  C_2 
ROOT
HETATM    1  C   UNL     1      76.178   4.763  17.350  1.00  0.00     0.056 A 
HETATM    2  N   UNL     1      76.400   2.686  18.565  1.00  0.00    -0.374 N 
ATOM      3  HN  UNL     1      76.861   2.124  19.281  1.00  0.00     0.164 HD
HETATM    4  C   UNL     1      76.793   3.955  18.297  1.00  0.00     0.105 A 
HETATM    5  C   UNL     1      75.124   4.229  16.607  1.00  0.00     0.021 A 
HETATM    6  C   UNL     1      75.367   2.199  17.839  1.00  0.00     0.087 A 
HETATM    7  C   UNL     1      74.708   2.923  16.858  1.00  0.00     0.018 A 
ENDROOT
BRANCH   1   8
HETATM    8  C   UNL     1      76.689   6.130  17.138  1.00  0.00     0.210 C 
HETATM    9  O   UNL     1      76.891   6.910  18.050  1.00  0.00    -0.644 OA
HETATM   10  O   UNL     1      76.881   6.438  15.837  1.00  0.00    -0.644 OA
ENDBRANCH   1   8
TORSDOF 1
ENDMDL
MODEL 9
REMARK VINA RESULT:      -4.4      4.304      5.178
REMARK  1 active torsions:
REMARK  status: ('A' for Active; 'I' for Inactive)
REMARK    1  A    between atoms: C_1  and  C_2 
ROOT
HETATM    1  C   UNL     1      77.527  11.624  19.383  1.00  0.00     0.056 A 
HETATM    2  N   UNL     1      79.459  10.173  19.378  1.00  0.00    -0.374 N 
ATOM      3  HN  UNL     1      80.366   9.906  19.760  1.00  0.00     0.164 HD
HETATM    4  C   UNL     1      78.775  11.241  19.856  1.00  0.00     0.105 A 
HETATM    5  C   UNL     1      76.964  10.897  18.333  1.00  0.00     0.021 A 
HETATM    6  C   UNL     1      78.883   9.478  18.370  1.00  0.00     0.087 A 
HETATM    7  C   UNL     1      77.653   9.800  17.819  1.00  0.00     0.018 A 
ENDROOT
BRANCH   1   8
HETATM    8  C   UNL     1      76.872  12.806  19.975  1.00  0.00     0.210 C 
HETATM    9  O   UNL     1      76.149  12.742  20.951  1.00  0.00    -0.644 OA
HETATM   10  O   UNL     1      77.129  13.953  19.311  1.00  0.00    -0.644 OA
ENDBRANCH   1   8
TORSDOF 1
ENDMDL
