MODEL 1
REMARK VINA RESULT:      -4.4      0.000      0.000
REMARK  2 active torsions:
REMARK  status: ('A' for Active; 'I' for Inactive)
REMARK    1  A    between atoms: C_3  and  C_6 
REMARK    2  A    between atoms: O_5  and  C_6 
ROOT
HETATM    1  N   UNL     1      77.255   7.404  14.229  1.00  0.00    -0.375 N 
ATOM      2  HN  UNL     1      77.047   6.587  13.655  1.00  0.00     0.164 HD
HETATM    3  C   UNL     1      77.374   8.464  16.406  1.00  0.00    -0.019 A 
HETATM    4  C   UNL     1      77.101   7.384  15.573  1.00  0.00     0.096 A 
HETATM    5  C   UNL     1      77.697   8.557  13.685  1.00  0.00     0.087 A 
HETATM    6  C   UNL     1      77.823   9.642  15.803  1.00  0.00     0.012 A 
HETATM    7  C   UNL     1      77.989   9.694  14.421  1.00  0.00     0.018 A 
ENDROOT
BRANCH   3   8
HETATM    8  C   UNL     1      77.182   8.370  17.889  1.00  0.00     0.204 C 
BRANCH   8   9
HETATM    9  O   UNL     1      76.492   7.176  18.230  1.00  0.00    -0.396 OA
HETATM   10  H   UNL     1      76.712   6.925  19.142  1.00  0.00     0.209 HD
ENDBRANCH   8   9
ENDBRANCH   3   8
TORSDOF 2
ENDMDL
MODEL 2
REMARK VINA RESULT:      -4.4      5.198      6.130
REMARK  2 active torsions:
REMARK  status: ('A' for Active; 'I' for Inactive)
REMARK    1  A    between atoms: C_3  and  C_6 
REMARK    2  A    between atoms: O_5  and  C_6 
ROOT
HETATM    1  N   UNL     1      77.603  13.164  21.070  1.00  0.00    -0.375 N 
ATOM      2  HN  UNL     1      77.875  13.692  21.899  1.00  0.00     0.164 HD
HETATM    3  C   UNL     1      77.991  11.337  19.524  1.00  0.00    -0.019 A 
HETATM    4  C   UNL     1      78.316  12.098  20.642  1.00  0.00     0.096 A 
HETATM    5  C   UNL     1      76.513  13.495  20.346  1.00  0.00     0.087 A 
HETATM    6  C   UNL     1      76.858  11.717  18.798  1.00  0.00     0.012 A 
HETATM    7  C   UNL     1      76.104  12.813  19.213  1.00  0.00     0.018 A 
ENDROOT
BRANCH   3   8
HETATM    8  C   UNL     1      78.828  10.167  19.109  1.00  0.00     0.204 C 
BRANCH   8   9
HETATM    9  O   UNL     1      80.118  10.238  19.701  1.00  0.00    -0.396 OA
HETATM   10  H   UNL     1      80.674   9.524  19.351  1.00  0.00     0.209 HD
ENDBRANCH   8   9
ENDBRANCH   3   8
TORSDOF 2
ENDMDL
MODEL 3
REMARK VINA RESULT:      -4.2     14.401     15.071
REMARK  2 active torsions:
REMARK  status: ('A' for Active; 'I' for Inactive)
REMARK    1  A    between atoms: C_3  and  C_6 
REMARK    2  A    between atoms: O_5  and  C_6 
ROOT
HETATM    1  N   UNL     1      73.236  23.546  12.838  1.00  0.00    -0.375 N 
ATOM      2  HN  UNL     1      73.367  23.786  11.856  1.00  0.00     0.164 HD
HETATM    3  C   UNL     1      74.034  22.475  14.862  1.00  0.00    -0.019 A 
HETATM    4  C   UNL     1      74.155  22.826  13.521  1.00  0.00     0.096 A 
HETATM    5  C   UNL     1      72.137  23.931  13.520  1.00  0.00     0.087 A 
HETATM    6  C   UNL     1      72.877  22.887  15.531  1.00  0.00     0.012 A 
HETATM    7  C   UNL     1      71.911  23.628  14.853  1.00  0.00     0.018 A 
ENDROOT
BRANCH   3   8
HETATM    8  C   UNL     1      75.093  21.676  15.556  1.00  0.00     0.204 C 
BRANCH   8   9
HETATM    9  O   UNL     1      74.512  20.772  16.485  1.00  0.00    -0.396 OA
HETATM   10  H   UNL     1      73.864  21.243  17.032  1.00  0.00     0.209 HD
ENDBRANCH   8   9
ENDBRANCH   3   8
TORSDOF 2
ENDMDL
MODEL 4
REMARK VINA RESULT:      -4.1     18.132     18.848
REMARK  2 active torsions:
REMARK  status: ('A' for Active; 'I' for Inactive)
REMARK    1  A    between atoms: C_3  and  C_6 
REMARK    2  A    between atoms: O_5  and  C_6 
ROOT
HETATM    1  N   UNL     1      63.027   8.481   3.307  1.00  0.00    -0.375 N 
ATOM      2  HN  UNL     1      63.400   7.537   3.214  1.00  0.00     0.164 HD
HETATM    3  C   UNL     1      62.701  10.489   4.626  1.00  0.00    -0.019 A 
HETATM    4  C   UNL     1      63.181   9.197   4.444  1.00  0.00     0.096 A 
HETATM    5  C   UNL     1      62.354   9.078   2.301  1.00  0.00     0.087 A 
HETATM    6  C   UNL     1      62.004  11.070   3.562  1.00  0.00     0.012 A 
HETATM    7  C   UNL     1      61.826  10.356   2.378  1.00  0.00     0.018 A 
ENDROOT
BRANCH   3   8
HETATM    8  C   UNL     1      62.911  11.224   5.914  1.00  0.00     0.204 C 
BRANCH   8   9
HETATM    9  O   UNL     1      64.297  11.338   6.206  1.00  0.00    -0.396 OA
HETATM   10  H   UNL     1      64.690  10.452   6.259  1.00  0.00     0.209 HD
ENDBRANCH   8   9
ENDBRANCH   3   8
TORSDOF 2
ENDMDL
MODEL 5
REMARK VINA RESULT:      -4.0     15.538     15.853
REMARK  2 active torsions:
REMARK  status: ('A' for Active; 'I' for Inactive)
REMARK    1  A    between atoms: C_3  and  C_6 
REMARK    2  A    between atoms: O_5  and  C_6 
ROOT
HETATM    1  N   UNL     1      72.439  22.416  11.617  1.00  0.00    -0.375 N 
ATOM      2  HN  UNL     1      73.017  22.146  10.822  1.00  0.00     0.164 HD
HETATM    3  C   UNL     1      72.237  23.348  13.846  1.00  0.00    -0.019 A 
HETATM    4  C   UNL     1      72.976  22.955  12.735  1.00  0.00     0.096 A 
HETATM    5  C   UNL     1      71.099  22.253  11.605  1.00  0.00     0.087 A 
HETATM    6  C   UNL     1      70.853  23.157  13.796  1.00  0.00     0.012 A 
HETATM    7  C   UNL     1      70.271  22.602  12.659  1.00  0.00     0.018 A 
ENDROOT
BRANCH   3   8
HETATM    8  C   UNL     1      72.900  23.940  15.052  1.00  0.00     0.204 C 
BRANCH   8   9
HETATM    9  O   UNL     1      73.160  22.937  16.024  1.00  0.00    -0.396 OA
HETATM   10  H   UNL     1      73.169  22.066  15.596  1.00  0.00     0.209 HD
ENDBRANCH   8   9
ENDBRANCH   3   8
TORSDOF 2
ENDMDL
MODEL 6
REMARK VINA RESULT:      -4.0     15.267     16.005
REMARK  2 active torsions:
REMARK  status: ('A' for Active; 'I' for Inactive)
REMARK    1  A    between atoms: C_3  and  C_6 
REMARK    2  A    between atoms: O_5  and  C_6 
ROOT
HETATM    1  N   UNL     1      73.566  23.864  13.483  1.00  0.00    -0.375 N 
ATOM      2  HN  UNL     1      74.558  24.058  13.349  1.00  0.00     0.164 HD
HETATM    3  C   UNL     1      71.584  22.586  12.921  1.00  0.00    -0.019 A 
HETATM    4  C   UNL     1      72.931  22.900  12.777  1.00  0.00     0.096 A 
HETATM    5  C   UNL     1      72.823  24.555  14.372  1.00  0.00     0.087 A 
HETATM    6  C   UNL     1      70.847  23.329  13.849  1.00  0.00     0.012 A 
HETATM    7  C   UNL     1      71.473  24.330  14.588  1.00  0.00     0.018 A 
ENDROOT
BRANCH   3   8
HETATM    8  C   UNL     1      70.946  21.503  12.106  1.00  0.00     0.204 C 
BRANCH   8   9
HETATM    9  O   UNL     1      71.690  20.297  12.205  1.00  0.00    -0.396 OA
HETATM   10  H   UNL     1      71.139  19.552  11.914  1.00  0.00     0.209 HD
ENDBRANCH   8   9
ENDBRANCH   3   8
TORSDOF 2
ENDMDL
MODEL 7
REMARK VINA RESULT:      -3.9     17.472     18.209
REMARK  2 active torsions:
REMARK  status: ('A' for Active; 'I' for Inactive)
REMARK    1  A    between atoms: C_3  and  C_6 
REMARK    2  A    between atoms: O_5  and  C_6 
ROOT
HETATM    1  N   UNL     1      61.885   8.846   3.284  1.00  0.00    -0.375 N 
ATOM      2  HN  UNL     1      61.103   8.759   2.635  1.00  0.00     0.164 HD
HETATM    3  C   UNL     1      63.041  10.075   5.025  1.00  0.00    -0.019 A 
HETATM    4  C   UNL     1      62.002   9.906   4.116  1.00  0.00     0.096 A 
HETATM    5  C   UNL     1      62.855   7.910   3.353  1.00  0.00     0.087 A 
HETATM    6  C   UNL     1      64.029   9.086   5.062  1.00  0.00     0.012 A 
HETATM    7  C   UNL     1      63.937   7.984   4.214  1.00  0.00     0.018 A 
ENDROOT
BRANCH   3   8
HETATM    8  C   UNL     1      63.105  11.275   5.919  1.00  0.00     0.204 C 
BRANCH   8   9
HETATM    9  O   UNL     1      64.420  11.453   6.427  1.00  0.00    -0.396 OA
HETATM   10  H   UNL     1      64.999  11.776   5.718  1.00  0.00     0.209 HD
ENDBRANCH   8   9
ENDBRANCH   3   8
TORSDOF 2
ENDMDL
MODEL 8
REMARK VINA RESULT:      -3.8     18.556     19.334
REMARK  2 active torsions:
REMARK  status: ('A' for Active; 'I' for Inactive)
REMARK    1  A    between atoms: C_3  and  C_6 
REMARK    2  A    between atoms: O_5  and  C_6 
ROOT
HETATM    1  N   UNL     1      61.637  11.121   2.810  1.00  0.00    -0.375 N 
ATOM      2  HN  UNL     1      61.212  12.048   2.798  1.00  0.00     0.164 HD
HETATM    3  C   UNL     1      62.771   9.347   4.012  1.00  0.00    -0.019 A 
HETATM    4  C   UNL     1      62.184  10.606   3.934  1.00  0.00     0.096 A 
HETATM    5  C   UNL     1      61.681  10.349   1.704  1.00  0.00     0.087 A 
HETATM    6  C   UNL     1      62.802   8.581   2.842  1.00  0.00     0.012 A 
HETATM    7  C   UNL     1      62.248   9.086   1.668  1.00  0.00     0.018 A 
ENDROOT
BRANCH   3   8
HETATM    8  C   UNL     1      63.357   8.839   5.293  1.00  0.00     0.204 C 
BRANCH   8   9
HETATM    9  O   UNL     1      64.536   9.560   5.625  1.00  0.00    -0.396 OA
HETATM   10  H   UNL     1      65.274   9.241   5.081  1.00  0.00     0.209 HD
ENDBRANCH   8   9
ENDBRANCH   3   8
TORSDOF 2
ENDMDL
MODEL 9
REMARK VINA RESULT:      -3.7     11.275     11.941
REMARK  2 active torsions:
REMARK  status: ('A' for Active; 'I' for Inactive)
REMARK    1  A    between atoms: C_3  and  C_6 
REMARK    2  A    between atoms: O_5  and  C_6 
ROOT
HETATM    1  N   UNL     1      66.923   3.982   8.580  1.00  0.00    -0.375 N 
ATOM      2  HN  UNL     1      65.942   3.840   8.340  1.00  0.00     0.164 HD
HETATM    3  C   UNL     1      69.036   3.105   9.384  1.00  0.00    -0.019 A 
HETATM    4  C   UNL     1      67.693   2.973   9.048  1.00  0.00     0.096 A 
HETATM    5  C   UNL     1      67.517   5.186   8.446  1.00  0.00     0.087 A 
HETATM    6  C   UNL     1      69.612   4.371   9.237  1.00  0.00     0.012 A 
HETATM    7  C   UNL     1      68.844   5.431   8.760  1.00  0.00     0.018 A 
ENDROOT
BRANCH   3   8
HETATM    8  C   UNL     1      69.828   1.942   9.896  1.00  0.00     0.204 C 
BRANCH   8   9
HETATM    9  O   UNL     1      69.903   1.971  11.314  1.00  0.00    -0.396 OA
HETATM   10  H   UNL     1      69.674   2.860  11.632  1.00  0.00     0.209 HD
ENDBRANCH   8   9
ENDBRANCH   3   8
TORSDOF 2
ENDMDL
