MODEL 1
REMARK VINA RESULT:      -5.7      0.000      0.000
REMARK  1 active torsions:
REMARK  status: ('A' for Active; 'I' for Inactive)
REMARK    1  A    between atoms: CA_3  and  C_4 
ROOT
HETATM    1  N   UNL     1      70.194  21.851  12.018  1.00  0.00    -0.360 N 
ATOM      2  HN  UNL     1      69.524  21.229  11.565  1.00  0.00     0.165 HD
HETATM    3  CA  UNL     1      71.507  21.861  11.673  1.00  0.00     0.110 A 
HETATM    4  C   UNL     1      72.450  22.695  12.264  1.00  0.00     0.049 A 
HETATM    5  C   UNL     1      72.038  23.574  13.271  1.00  0.00    -0.022 A 
HETATM    6  C   UNL     1      69.820  22.708  12.995  1.00  0.00     0.100 A 
HETATM    7  C   UNL     1      70.684  23.585  13.658  1.00  0.00    -0.011 A 
HETATM    8  C   UNL     1      72.940  24.443  13.908  1.00  0.00     0.012 A 
HETATM    9  C   UNL     1      70.256  24.459  14.671  1.00  0.00     0.013 A 
HETATM   10  C   UNL     1      72.502  25.309  14.913  1.00  0.00     0.001 A 
HETATM   11  C   UNL     1      71.163  25.316  15.296  1.00  0.00     0.001 A 
ENDROOT
BRANCH   3  12
HETATM   12  C   UNL     1      71.961  20.923  10.603  1.00  0.00     0.226 C 
HETATM   13  O   UNL     1      73.071  20.912  10.096  1.00  0.00    -0.643 OA
HETATM   14  OXT UNL     1      71.015  20.044  10.216  1.00  0.00    -0.643 OA
ENDBRANCH   3  12
TORSDOF 1
ENDMDL
MODEL 2
REMARK VINA RESULT:      -5.6     19.386     20.945
REMARK  1 active torsions:
REMARK  status: ('A' for Active; 'I' for Inactive)
REMARK    1  A    between atoms: CA_3  and  C_4 
ROOT
HETATM    1  N   UNL     1      74.842   4.703  16.771  1.00  0.00    -0.360 N 
ATOM      2  HN  UNL     1      74.257   5.459  16.415  1.00  0.00     0.165 HD
HETATM    3  CA  UNL     1      76.102   4.928  17.224  1.00  0.00     0.110 A 
HETATM    4  C   UNL     1      76.930   3.927  17.720  1.00  0.00     0.049 A 
HETATM    5  C   UNL     1      76.452   2.613  17.759  1.00  0.00    -0.022 A 
HETATM    6  C   UNL     1      74.403   3.425  16.817  1.00  0.00     0.100 A 
HETATM    7  C   UNL     1      75.151   2.344  17.292  1.00  0.00    -0.011 A 
HETATM    8  C   UNL     1      77.236   1.555  18.250  1.00  0.00     0.012 A 
HETATM    9  C   UNL     1      74.659   1.028  17.320  1.00  0.00     0.013 A 
HETATM   10  C   UNL     1      76.736   0.251  18.274  1.00  0.00     0.001 A 
HETATM   11  C   UNL     1      75.450  -0.013  17.809  1.00  0.00     0.001 A 
ENDROOT
BRANCH   3  12
HETATM   12  C   UNL     1      76.627   6.326  17.182  1.00  0.00     0.226 C 
HETATM   13  O   UNL     1      76.789   7.050  18.151  1.00  0.00    -0.643 OA
HETATM   14  OXT UNL     1      76.926   6.756  15.940  1.00  0.00    -0.643 OA
ENDBRANCH   3  12
TORSDOF 1
ENDMDL
MODEL 3
REMARK VINA RESULT:      -5.6     20.908     22.644
REMARK  1 active torsions:
REMARK  status: ('A' for Active; 'I' for Inactive)
REMARK    1  A    between atoms: CA_3  and  C_4 
ROOT
HETATM    1  N   UNL     1      74.998   3.148  17.411  1.00  0.00    -0.360 N 
ATOM      2  HN  UNL     1      74.476   3.994  17.640  1.00  0.00     0.165 HD
HETATM    3  CA  UNL     1      76.261   2.943  17.865  1.00  0.00     0.110 A 
HETATM    4  C   UNL     1      77.006   1.804  17.579  1.00  0.00     0.049 A 
HETATM    5  C   UNL     1      76.435   0.808  16.778  1.00  0.00    -0.022 A 
HETATM    6  C   UNL     1      74.469   2.172  16.638  1.00  0.00     0.100 A 
HETATM    7  C   UNL     1      75.128   0.991  16.286  1.00  0.00    -0.011 A 
HETATM    8  C   UNL     1      77.132  -0.368  16.452  1.00  0.00     0.012 A 
HETATM    9  C   UNL     1      74.544   0.002  15.477  1.00  0.00     0.013 A 
HETATM   10  C   UNL     1      76.540  -1.345  15.648  1.00  0.00     0.001 A 
HETATM   11  C   UNL     1      75.249  -1.160  15.160  1.00  0.00     0.001 A 
ENDROOT
BRANCH   3  12
HETATM   12  C   UNL     1      76.884   4.001  18.716  1.00  0.00     0.226 C 
HETATM   13  O   UNL     1      77.021   5.172  18.401  1.00  0.00    -0.643 OA
HETATM   14  OXT UNL     1      77.305   3.555  19.915  1.00  0.00    -0.643 OA
ENDBRANCH   3  12
TORSDOF 1
ENDMDL
MODEL 4
REMARK VINA RESULT:      -5.6     17.598     19.031
REMARK  1 active torsions:
REMARK  status: ('A' for Active; 'I' for Inactive)
REMARK    1  A    between atoms: CA_3  and  C_4 
ROOT
HETATM    1  N   UNL     1      63.247   9.009   6.007  1.00  0.00    -0.360 N 
ATOM      2  HN  UNL     1      63.419   9.122   7.006  1.00  0.00     0.165 HD
HETATM    3  CA  UNL     1      63.508   7.842   5.364  1.00  0.00     0.110 A 
HETATM    4  C   UNL     1      63.285   7.646   4.005  1.00  0.00     0.049 A 
HETATM    5  C   UNL     1      62.764   8.701   3.248  1.00  0.00    -0.022 A 
HETATM    6  C   UNL     1      62.746  10.015   5.253  1.00  0.00     0.100 A 
HETATM    7  C   UNL     1      62.487   9.928   3.882  1.00  0.00    -0.011 A 
HETATM    8  C   UNL     1      62.513   8.570   1.871  1.00  0.00     0.012 A 
HETATM    9  C   UNL     1      61.968  10.998   3.134  1.00  0.00     0.013 A 
HETATM   10  C   UNL     1      61.996   9.641   1.138  1.00  0.00     0.001 A 
HETATM   11  C   UNL     1      61.725  10.853   1.767  1.00  0.00     0.001 A 
ENDROOT
BRANCH   3  12
HETATM   12  C   UNL     1      64.070   6.710   6.160  1.00  0.00     0.226 C 
HETATM   13  O   UNL     1      64.114   5.545   5.800  1.00  0.00    -0.643 OA
HETATM   14  OXT UNL     1      64.550   7.080   7.363  1.00  0.00    -0.643 OA
ENDBRANCH   3  12
TORSDOF 1
ENDMDL
MODEL 5
REMARK VINA RESULT:      -5.5     17.913     19.120
REMARK  1 active torsions:
REMARK  status: ('A' for Active; 'I' for Inactive)
REMARK    1  A    between atoms: CA_3  and  C_4 
ROOT
HETATM    1  N   UNL     1      63.369   6.796   3.942  1.00  0.00    -0.360 N 
ATOM      2  HN  UNL     1      63.645   5.816   3.875  1.00  0.00     0.165 HD
HETATM    3  CA  UNL     1      63.379   7.462   5.126  1.00  0.00     0.110 A 
HETATM    4  C   UNL     1      63.013   8.797   5.259  1.00  0.00     0.049 A 
HETATM    5  C   UNL     1      62.610   9.504   4.121  1.00  0.00    -0.022 A 
HETATM    6  C   UNL     1      62.973   7.500   2.856  1.00  0.00     0.100 A 
HETATM    7  C   UNL     1      62.582   8.841   2.878  1.00  0.00    -0.011 A 
HETATM    8  C   UNL     1      62.229  10.855   4.186  1.00  0.00     0.012 A 
HETATM    9  C   UNL     1      62.175   9.537   1.727  1.00  0.00     0.013 A 
HETATM   10  C   UNL     1      61.827  11.536   3.035  1.00  0.00     0.001 A 
HETATM   11  C   UNL     1      61.799  10.878   1.807  1.00  0.00     0.001 A 
ENDROOT
BRANCH   3  12
HETATM   12  C   UNL     1      63.802   6.717   6.349  1.00  0.00     0.226 C 
HETATM   13  O   UNL     1      64.519   7.156   7.233  1.00  0.00    -0.643 OA
HETATM   14  OXT UNL     1      63.312   5.463   6.416  1.00  0.00    -0.643 OA
ENDBRANCH   3  12
TORSDOF 1
ENDMDL
MODEL 6
REMARK VINA RESULT:      -5.4     16.968     19.753
REMARK  1 active torsions:
REMARK  status: ('A' for Active; 'I' for Inactive)
REMARK    1  A    between atoms: CA_3  and  C_4 
ROOT
HETATM    1  N   UNL     1      63.431   8.812   4.753  1.00  0.00    -0.360 N 
ATOM      2  HN  UNL     1      63.820   8.808   5.696  1.00  0.00     0.165 HD
HETATM    3  CA  UNL     1      62.767   9.889   4.259  1.00  0.00     0.110 A 
HETATM    4  C   UNL     1      62.225   9.936   2.979  1.00  0.00     0.049 A 
HETATM    5  C   UNL     1      62.364   8.820   2.145  1.00  0.00    -0.022 A 
HETATM    6  C   UNL     1      63.552   7.746   3.929  1.00  0.00     0.100 A 
HETATM    7  C   UNL     1      63.044   7.685   2.629  1.00  0.00    -0.011 A 
HETATM    8  C   UNL     1      61.842   8.802   0.840  1.00  0.00     0.012 A 
HETATM    9  C   UNL     1      63.187   6.556   1.805  1.00  0.00     0.013 A 
HETATM   10  C   UNL     1      61.993   7.675   0.030  1.00  0.00     0.001 A 
HETATM   11  C   UNL     1      62.662   6.552   0.512  1.00  0.00     0.001 A 
ENDROOT
BRANCH   3  12
HETATM   12  C   UNL     1      62.606  11.083   5.141  1.00  0.00     0.226 C 
HETATM   13  O   UNL     1      63.054  11.194   6.270  1.00  0.00    -0.643 OA
HETATM   14  OXT UNL     1      61.898  12.082   4.576  1.00  0.00    -0.643 OA
ENDBRANCH   3  12
TORSDOF 1
ENDMDL
MODEL 7
REMARK VINA RESULT:      -5.4     17.057     18.808
REMARK  1 active torsions:
REMARK  status: ('A' for Active; 'I' for Inactive)
REMARK    1  A    between atoms: CA_3  and  C_4 
ROOT
HETATM    1  N   UNL     1      67.204   7.315   8.280  1.00  0.00    -0.360 N 
ATOM      2  HN  UNL     1      66.907   8.209   8.670  1.00  0.00     0.165 HD
HETATM    3  CA  UNL     1      67.157   7.067   6.945  1.00  0.00     0.110 A 
HETATM    4  C   UNL     1      67.555   5.863   6.373  1.00  0.00     0.049 A 
HETATM    5  C   UNL     1      68.028   4.843   7.206  1.00  0.00    -0.022 A 
HETATM    6  C   UNL     1      67.663   6.313   9.064  1.00  0.00     0.100 A 
HETATM    7  C   UNL     1      68.084   5.065   8.596  1.00  0.00    -0.011 A 
HETATM    8  C   UNL     1      68.446   3.604   6.693  1.00  0.00     0.012 A 
HETATM    9  C   UNL     1      68.552   4.049   9.446  1.00  0.00     0.013 A 
HETATM   10  C   UNL     1      68.912   2.602   7.547  1.00  0.00     0.001 A 
HETATM   11  C   UNL     1      68.964   2.822   8.921  1.00  0.00     0.001 A 
ENDROOT
BRANCH   3  12
HETATM   12  C   UNL     1      66.648   8.145   6.046  1.00  0.00     0.226 C 
HETATM   13  O   UNL     1      65.763   8.938   6.323  1.00  0.00    -0.643 OA
HETATM   14  OXT UNL     1      67.263   8.187   4.848  1.00  0.00    -0.643 OA
ENDBRANCH   3  12
TORSDOF 1
ENDMDL
MODEL 8
REMARK VINA RESULT:      -5.2     17.580     18.712
REMARK  1 active torsions:
REMARK  status: ('A' for Active; 'I' for Inactive)
REMARK    1  A    between atoms: CA_3  and  C_4 
ROOT
HETATM    1  N   UNL     1      66.617   6.017   5.089  1.00  0.00    -0.360 N 
ATOM      2  HN  UNL     1      66.252   6.057   4.137  1.00  0.00     0.165 HD
HETATM    3  CA  UNL     1      66.377   7.005   5.989  1.00  0.00     0.110 A 
HETATM    4  C   UNL     1      66.853   6.987   7.295  1.00  0.00     0.049 A 
HETATM    5  C   UNL     1      67.624   5.898   7.718  1.00  0.00    -0.022 A 
HETATM    6  C   UNL     1      67.366   4.976   5.520  1.00  0.00     0.100 A 
HETATM    7  C   UNL     1      67.896   4.858   6.808  1.00  0.00    -0.011 A 
HETATM    8  C   UNL     1      68.135   5.817   9.025  1.00  0.00     0.012 A 
HETATM    9  C   UNL     1      68.674   3.761   7.216  1.00  0.00     0.013 A 
HETATM   10  C   UNL     1      68.904   4.720   9.419  1.00  0.00     0.001 A 
HETATM   11  C   UNL     1      69.175   3.694   8.517  1.00  0.00     0.001 A 
ENDROOT
BRANCH   3  12
HETATM   12  C   UNL     1      65.560   8.176   5.548  1.00  0.00     0.226 C 
HETATM   13  O   UNL     1      64.778   8.181   4.612  1.00  0.00    -0.643 OA
HETATM   14  OXT UNL     1      65.754   9.282   6.293  1.00  0.00    -0.643 OA
ENDBRANCH   3  12
TORSDOF 1
ENDMDL
MODEL 9
REMARK VINA RESULT:      -4.9     18.296     19.884
REMARK  1 active torsions:
REMARK  status: ('A' for Active; 'I' for Inactive)
REMARK    1  A    between atoms: CA_3  and  C_4 
ROOT
HETATM    1  N   UNL     1      69.087   2.414   7.803  1.00  0.00    -0.360 N 
ATOM      2  HN  UNL     1      69.457   1.513   7.499  1.00  0.00     0.165 HD
HETATM    3  CA  UNL     1      69.037   2.761   9.115  1.00  0.00     0.110 A 
HETATM    4  C   UNL     1      68.544   3.979   9.570  1.00  0.00     0.049 A 
HETATM    5  C   UNL     1      68.070   4.907   8.636  1.00  0.00    -0.022 A 
HETATM    6  C   UNL     1      68.622   3.327   6.919  1.00  0.00     0.100 A 
HETATM    7  C   UNL     1      68.103   4.577   7.267  1.00  0.00    -0.011 A 
HETATM    8  C   UNL     1      67.561   6.156   9.028  1.00  0.00     0.012 A 
HETATM    9  C   UNL     1      67.626   5.497   6.317  1.00  0.00     0.013 A 
HETATM   10  C   UNL     1      67.091   7.063   8.075  1.00  0.00     0.001 A 
HETATM   11  C   UNL     1      67.122   6.734   6.722  1.00  0.00     0.001 A 
ENDROOT
BRANCH   3  12
HETATM   12  C   UNL     1      69.534   1.777  10.123  1.00  0.00     0.226 C 
HETATM   13  O   UNL     1      70.685   1.382  10.219  1.00  0.00    -0.643 OA
HETATM   14  OXT UNL     1      68.578   1.332  10.963  1.00  0.00    -0.643 OA
ENDBRANCH   3  12
TORSDOF 1
ENDMDL
