MODEL 1
REMARK VINA RESULT:      -6.7      0.000      0.000
REMARK  1 active torsions:
REMARK  status: ('A' for Active; 'I' for Inactive)
REMARK    1  A    between atoms: C_1  and  C_2 
ROOT
HETATM    1  C   UNL     1      77.659   9.351  16.461  1.00  0.00     0.054 A 
HETATM    2  C   UNL     1      77.151   8.026  16.601  1.00  0.00     0.008 A 
HETATM    3  N   UNL     1      77.351   7.762  14.196  1.00  0.00    -0.365 N 
ATOM      4  HN  UNL     1      77.241   7.188  13.360  1.00  0.00     0.165 HD
HETATM    5  C   UNL     1      77.022   7.283  15.404  1.00  0.00     0.043 A 
HETATM    6  C   UNL     1      77.829   9.014  14.107  1.00  0.00     0.089 A 
HETATM    7  C   UNL     1      77.998   9.839  15.194  1.00  0.00     0.036 A 
HETATM    8  C   UNL     1      76.767   7.386  17.814  1.00  0.00     0.015 A 
HETATM    9  C   UNL     1      76.531   5.985  15.450  1.00  0.00     0.030 A 
HETATM   10  C   UNL     1      76.278   6.078  17.834  1.00  0.00     0.001 A 
HETATM   11  C   UNL     1      76.158   5.374  16.647  1.00  0.00     0.002 A 
ENDROOT
BRANCH   1  12
HETATM   12  C   UNL     1      77.843  10.262  17.632  1.00  0.00     0.210 C 
HETATM   13  O   UNL     1      77.123  11.169  17.998  1.00  0.00    -0.644 OA
HETATM   14  O   UNL     1      78.970   9.989  18.323  1.00  0.00    -0.644 OA
ENDBRANCH   1  12
TORSDOF 1
ENDMDL
MODEL 2
REMARK VINA RESULT:      -5.8     18.859     19.708
REMARK  1 active torsions:
REMARK  status: ('A' for Active; 'I' for Inactive)
REMARK    1  A    between atoms: C_1  and  C_2 
ROOT
HETATM    1  C   UNL     1      63.016   9.458   4.471  1.00  0.00     0.054 A 
HETATM    2  C   UNL     1      62.763   8.850   3.206  1.00  0.00     0.008 A 
HETATM    3  N   UNL     1      61.602  10.873   2.533  1.00  0.00    -0.365 N 
ATOM      4  HN  UNL     1      61.083  11.398   1.830  1.00  0.00     0.165 HD
HETATM    5  C   UNL     1      62.038   9.630   2.277  1.00  0.00     0.043 A 
HETATM    6  C   UNL     1      61.864  11.412   3.735  1.00  0.00     0.089 A 
HETATM    7  C   UNL     1      62.555  10.756   4.725  1.00  0.00     0.036 A 
HETATM    8  C   UNL     1      63.166   7.547   2.795  1.00  0.00     0.015 A 
HETATM    9  C   UNL     1      61.745   9.111   1.023  1.00  0.00     0.030 A 
HETATM   10  C   UNL     1      62.861   7.048   1.526  1.00  0.00     0.001 A 
HETATM   11  C   UNL     1      62.146   7.833   0.637  1.00  0.00     0.002 A 
ENDROOT
BRANCH   1  12
HETATM   12  C   UNL     1      63.761   8.756   5.560  1.00  0.00     0.210 C 
HETATM   13  O   UNL     1      63.348   7.910   6.327  1.00  0.00    -0.644 OA
HETATM   14  O   UNL     1      65.045   9.163   5.648  1.00  0.00    -0.644 OA
ENDBRANCH   1  12
TORSDOF 1
ENDMDL
MODEL 3
REMARK VINA RESULT:      -5.7     18.586     19.550
REMARK  1 active torsions:
REMARK  status: ('A' for Active; 'I' for Inactive)
REMARK    1  A    between atoms: C_1  and  C_2 
ROOT
HETATM    1  C   UNL     1      63.191   7.921   4.383  1.00  0.00     0.054 A 
HETATM    2  C   UNL     1      62.695   9.065   3.691  1.00  0.00     0.008 A 
HETATM    3  N   UNL     1      62.689   7.751   1.650  1.00  0.00    -0.365 N 
ATOM      4  HN  UNL     1      62.509   7.680   0.649  1.00  0.00     0.165 HD
HETATM    5  C   UNL     1      62.467   8.901   2.305  1.00  0.00     0.043 A 
HETATM    6  C   UNL     1      63.153   6.696   2.339  1.00  0.00     0.089 A 
HETATM    7  C   UNL     1      63.418   6.728   3.687  1.00  0.00     0.036 A 
HETATM    8  C   UNL     1      62.409  10.342   4.255  1.00  0.00     0.015 A 
HETATM    9  C   UNL     1      61.988   9.966   1.555  1.00  0.00     0.030 A 
HETATM   10  C   UNL     1      61.926  11.398   3.479  1.00  0.00     0.001 A 
HETATM   11  C   UNL     1      61.716  11.210   2.123  1.00  0.00     0.002 A 
ENDROOT
BRANCH   1  12
HETATM   12  C   UNL     1      63.489   7.942   5.848  1.00  0.00     0.210 C 
HETATM   13  O   UNL     1      62.731   7.723   6.772  1.00  0.00    -0.644 OA
HETATM   14  O   UNL     1      64.777   8.253   6.105  1.00  0.00    -0.644 OA
ENDBRANCH   1  12
TORSDOF 1
ENDMDL
MODEL 4
REMARK VINA RESULT:      -5.3      5.855      7.759
REMARK  1 active torsions:
REMARK  status: ('A' for Active; 'I' for Inactive)
REMARK    1  A    between atoms: C_1  and  C_2 
ROOT
HETATM    1  C   UNL     1      75.455   1.066  17.484  1.00  0.00     0.054 A 
HETATM    2  C   UNL     1      75.539   2.479  17.316  1.00  0.00     0.008 A 
HETATM    3  N   UNL     1      77.692   2.423  18.435  1.00  0.00    -0.365 N 
ATOM      4  HN  UNL     1      78.515   2.912  18.788  1.00  0.00     0.165 HD
HETATM    5  C   UNL     1      76.703   3.097  17.827  1.00  0.00     0.043 A 
HETATM    6  C   UNL     1      77.577   1.092  18.570  1.00  0.00     0.089 A 
HETATM    7  C   UNL     1      76.494   0.376  18.120  1.00  0.00     0.036 A 
HETATM    8  C   UNL     1      74.573   3.319  16.690  1.00  0.00     0.015 A 
HETATM    9  C   UNL     1      76.862   4.471  17.710  1.00  0.00     0.030 A 
HETATM   10  C   UNL     1      74.757   4.700  16.582  1.00  0.00     0.001 A 
HETATM   11  C   UNL     1      75.906   5.278  17.096  1.00  0.00     0.002 A 
ENDROOT
BRANCH   1  12
HETATM   12  C   UNL     1      74.281   0.273  17.005  1.00  0.00     0.210 C 
HETATM   13  O   UNL     1      73.897   0.116  15.863  1.00  0.00    -0.644 OA
HETATM   14  O   UNL     1      73.609  -0.312  18.018  1.00  0.00    -0.644 OA
ENDBRANCH   1  12
TORSDOF 1
ENDMDL
MODEL 5
REMARK VINA RESULT:      -5.1     18.333     19.219
REMARK  1 active torsions:
REMARK  status: ('A' for Active; 'I' for Inactive)
REMARK    1  A    between atoms: C_1  and  C_2 
ROOT
HETATM    1  C   UNL     1      62.370   9.325   3.375  1.00  0.00     0.054 A 
HETATM    2  C   UNL     1      63.430   8.485   3.826  1.00  0.00     0.008 A 
HETATM    3  N   UNL     1      63.814  10.050   5.642  1.00  0.00    -0.365 N 
ATOM      4  HN  UNL     1      64.338  10.323   6.474  1.00  0.00     0.165 HD
HETATM    5  C   UNL     1      64.118   8.922   4.982  1.00  0.00     0.043 A 
HETATM    6  C   UNL     1      62.806  10.811   5.187  1.00  0.00     0.089 A 
HETATM    7  C   UNL     1      62.064  10.499   4.073  1.00  0.00     0.036 A 
HETATM    8  C   UNL     1      63.859   7.264   3.232  1.00  0.00     0.015 A 
HETATM    9  C   UNL     1      65.167   8.165   5.486  1.00  0.00     0.030 A 
HETATM   10  C   UNL     1      64.917   6.519   3.759  1.00  0.00     0.001 A 
HETATM   11  C   UNL     1      65.575   6.972   4.890  1.00  0.00     0.002 A 
ENDROOT
BRANCH   1  12
HETATM   12  C   UNL     1      61.557   9.002   2.162  1.00  0.00     0.210 C 
HETATM   13  O   UNL     1      60.563   8.309   2.088  1.00  0.00    -0.644 OA
HETATM   14  O   UNL     1      62.047   9.584   1.047  1.00  0.00    -0.644 OA
ENDBRANCH   1  12
TORSDOF 1
ENDMDL
MODEL 6
REMARK VINA RESULT:      -4.9     13.450     14.489
REMARK  1 active torsions:
REMARK  status: ('A' for Active; 'I' for Inactive)
REMARK    1  A    between atoms: C_1  and  C_2 
ROOT
HETATM    1  C   UNL     1      66.458   6.387   6.056  1.00  0.00     0.054 A 
HETATM    2  C   UNL     1      67.287   5.756   7.029  1.00  0.00     0.008 A 
HETATM    3  N   UNL     1      67.787   4.031   5.396  1.00  0.00    -0.365 N 
ATOM      4  HN  UNL     1      68.269   3.168   5.146  1.00  0.00     0.165 HD
HETATM    5  C   UNL     1      67.926   4.563   6.620  1.00  0.00     0.043 A 
HETATM    6  C   UNL     1      67.000   4.658   4.507  1.00  0.00     0.089 A 
HETATM    7  C   UNL     1      66.322   5.821   4.783  1.00  0.00     0.036 A 
HETATM    8  C   UNL     1      67.530   6.207   8.358  1.00  0.00     0.015 A 
HETATM    9  C   UNL     1      68.747   3.883   7.509  1.00  0.00     0.030 A 
HETATM   10  C   UNL     1      68.363   5.505   9.233  1.00  0.00     0.001 A 
HETATM   11  C   UNL     1      68.973   4.337   8.807  1.00  0.00     0.002 A 
ENDROOT
BRANCH   1  12
HETATM   12  C   UNL     1      65.709   7.649   6.342  1.00  0.00     0.210 C 
HETATM   13  O   UNL     1      66.098   8.794   6.228  1.00  0.00    -0.644 OA
HETATM   14  O   UNL     1      64.454   7.413   6.779  1.00  0.00    -0.644 OA
ENDBRANCH   1  12
TORSDOF 1
ENDMDL
MODEL 7
REMARK VINA RESULT:      -4.7     12.121     13.337
REMARK  1 active torsions:
REMARK  status: ('A' for Active; 'I' for Inactive)
REMARK    1  A    between atoms: C_1  and  C_2 
ROOT
HETATM    1  C   UNL     1      68.815   3.429   8.348  1.00  0.00     0.054 A 
HETATM    2  C   UNL     1      68.095   4.648   8.182  1.00  0.00     0.008 A 
HETATM    3  N   UNL     1      67.685   4.019   5.873  1.00  0.00    -0.365 N 
ATOM      4  HN  UNL     1      67.275   4.228   4.963  1.00  0.00     0.165 HD
HETATM    5  C   UNL     1      67.553   4.878   6.896  1.00  0.00     0.043 A 
HETATM    6  C   UNL     1      68.368   2.880   6.072  1.00  0.00     0.089 A 
HETATM    7  C   UNL     1      68.945   2.543   7.273  1.00  0.00     0.036 A 
HETATM    8  C   UNL     1      67.872   5.645   9.174  1.00  0.00     0.015 A 
HETATM    9  C   UNL     1      66.841   6.043   6.647  1.00  0.00     0.030 A 
HETATM   10  C   UNL     1      67.150   6.809   8.899  1.00  0.00     0.001 A 
HETATM   11  C   UNL     1      66.633   7.010   7.630  1.00  0.00     0.002 A 
ENDROOT
BRANCH   1  12
HETATM   12  C   UNL     1      69.454   3.050   9.646  1.00  0.00     0.210 C 
HETATM   13  O   UNL     1      69.062   2.248  10.469  1.00  0.00    -0.644 OA
HETATM   14  O   UNL     1      70.603   3.723   9.868  1.00  0.00    -0.644 OA
ENDBRANCH   1  12
TORSDOF 1
ENDMDL
MODEL 8
REMARK VINA RESULT:      -4.6     19.612     20.680
REMARK  1 active torsions:
REMARK  status: ('A' for Active; 'I' for Inactive)
REMARK    1  A    between atoms: C_1  and  C_2 
ROOT
HETATM    1  C   UNL     1      62.599   7.399   2.612  1.00  0.00     0.054 A 
HETATM    2  C   UNL     1      62.350   8.799   2.716  1.00  0.00     0.008 A 
HETATM    3  N   UNL     1      62.779   8.636   5.100  1.00  0.00    -0.365 N 
ATOM      4  HN  UNL     1      62.847   9.080   6.016  1.00  0.00     0.165 HD
HETATM    5  C   UNL     1      62.459   9.353   4.013  1.00  0.00     0.043 A 
HETATM    6  C   UNL     1      63.009   7.320   4.959  1.00  0.00     0.089 A 
HETATM    7  C   UNL     1      62.932   6.662   3.755  1.00  0.00     0.036 A 
HETATM    8  C   UNL     1      62.007   9.682   1.653  1.00  0.00     0.015 A 
HETATM    9  C   UNL     1      62.228  10.709   4.203  1.00  0.00     0.030 A 
HETATM   10  C   UNL     1      61.782  11.044   1.870  1.00  0.00     0.001 A 
HETATM   11  C   UNL     1      61.891  11.559   3.151  1.00  0.00     0.002 A 
ENDROOT
BRANCH   1  12
HETATM   12  C   UNL     1      62.513   6.668   1.310  1.00  0.00     0.210 C 
HETATM   13  O   UNL     1      63.418   6.366   0.559  1.00  0.00    -0.644 OA
HETATM   14  O   UNL     1      61.245   6.335   0.991  1.00  0.00    -0.644 OA
ENDBRANCH   1  12
TORSDOF 1
ENDMDL
MODEL 9
REMARK VINA RESULT:      -4.5     13.474     14.580
REMARK  1 active torsions:
REMARK  status: ('A' for Active; 'I' for Inactive)
REMARK    1  A    between atoms: C_1  and  C_2 
ROOT
HETATM    1  C   UNL     1      67.002   5.477   5.743  1.00  0.00     0.054 A 
HETATM    2  C   UNL     1      67.772   5.027   6.855  1.00  0.00     0.008 A 
HETATM    3  N   UNL     1      67.311   7.143   7.952  1.00  0.00    -0.365 N 
ATOM      4  HN  UNL     1      67.419   7.761   8.756  1.00  0.00     0.165 HD
HETATM    5  C   UNL     1      67.884   5.931   7.937  1.00  0.00     0.043 A 
HETATM    6  C   UNL     1      66.591   7.528   6.885  1.00  0.00     0.089 A 
HETATM    7  C   UNL     1      66.409   6.745   5.771  1.00  0.00     0.036 A 
HETATM    8  C   UNL     1      68.430   3.770   6.980  1.00  0.00     0.015 A 
HETATM    9  C   UNL     1      68.620   5.573   9.059  1.00  0.00     0.030 A 
HETATM   10  C   UNL     1      69.163   3.433   8.121  1.00  0.00     0.001 A 
HETATM   11  C   UNL     1      69.260   4.339   9.164  1.00  0.00     0.002 A 
ENDROOT
BRANCH   1  12
HETATM   12  C   UNL     1      66.800   4.640   4.520  1.00  0.00     0.210 C 
HETATM   13  O   UNL     1      67.516   4.554   3.543  1.00  0.00    -0.644 OA
HETATM   14  O   UNL     1      65.662   3.917   4.576  1.00  0.00    -0.644 OA
ENDBRANCH   1  12
TORSDOF 1
ENDMDL
