MODEL 1
REMARK VINA RESULT:      -4.4      0.000      0.000
REMARK  2 active torsions:
REMARK  status: ('A' for Active; 'I' for Inactive)
REMARK    1  A    between atoms: C_3  and  C_7 
REMARK    2  A    between atoms: C_7  and  O_10 
ROOT
HETATM    1  N   UNL     1      78.653  11.223  20.610  1.00  0.00    -0.357 N 
ATOM      2  HN  UNL     1      79.284  10.469  20.883  1.00  0.00     0.166 HD
HETATM    3  C   UNL     1      77.022  12.321  19.351  1.00  0.00     0.030 A 
HETATM    4  S   UNL     1      77.415  13.472  20.561  1.00  0.00    -0.078 SA
HETATM    5  C   UNL     1      77.781  11.176  19.533  1.00  0.00     0.021 A 
HETATM    6  C   UNL     1      78.552  12.378  21.231  1.00  0.00     0.047 A 
HETATM    7  C   UNL     1      77.763   9.938  18.710  1.00  0.00     0.069 C 
HETATM    8  C   UNL     1      79.354  12.747  22.430  1.00  0.00     0.076 C 
ENDROOT
BRANCH   3   9
HETATM    9  C   UNL     1      75.989  12.623  18.323  1.00  0.00     0.212 C 
BRANCH   9  10
HETATM   10  O   UNL     1      76.661  12.999  17.127  1.00  0.00    -0.396 OA
HETATM   11  H   UNL     1      77.433  13.542  17.347  1.00  0.00     0.209 HD
ENDBRANCH   9  10
ENDBRANCH   3   9
TORSDOF 2
ENDMDL
MODEL 2
REMARK VINA RESULT:      -4.1      2.666      4.121
REMARK  2 active torsions:
REMARK  status: ('A' for Active; 'I' for Inactive)
REMARK    1  A    between atoms: C_3  and  C_7 
REMARK    2  A    between atoms: C_7  and  O_10 
ROOT
HETATM    1  N   UNL     1      76.771  11.194  18.288  1.00  0.00    -0.357 N 
ATOM      2  HN  UNL     1      75.938  11.356  17.722  1.00  0.00     0.166 HD
HETATM    3  C   UNL     1      78.320  11.555  19.998  1.00  0.00     0.030 A 
HETATM    4  S   UNL     1      78.958  10.187  19.181  1.00  0.00    -0.078 SA
HETATM    5  C   UNL     1      77.146  11.959  19.382  1.00  0.00     0.021 A 
HETATM    6  C   UNL     1      77.643  10.231  18.082  1.00  0.00     0.047 A 
HETATM    7  C   UNL     1      76.273  13.101  19.760  1.00  0.00     0.069 C 
HETATM    8  C   UNL     1      77.530   9.233  16.984  1.00  0.00     0.076 C 
ENDROOT
BRANCH   3   9
HETATM    9  C   UNL     1      79.013  12.120  21.187  1.00  0.00     0.212 C 
BRANCH   9  10
HETATM   10  O   UNL     1      80.193  11.358  21.408  1.00  0.00    -0.396 OA
HETATM   11  H   UNL     1      79.996  10.623  22.008  1.00  0.00     0.209 HD
ENDBRANCH   9  10
ENDBRANCH   3   9
TORSDOF 2
ENDMDL
MODEL 3
REMARK VINA RESULT:      -4.1     20.660     21.869
REMARK  2 active torsions:
REMARK  status: ('A' for Active; 'I' for Inactive)
REMARK    1  A    between atoms: C_3  and  C_7 
REMARK    2  A    between atoms: C_7  and  O_10 
ROOT
HETATM    1  N   UNL     1      63.069   8.532   3.218  1.00  0.00    -0.357 N 
ATOM      2  HN  UNL     1      63.379   7.633   2.849  1.00  0.00     0.166 HD
HETATM    3  C   UNL     1      62.845  10.266   4.767  1.00  0.00     0.030 A 
HETATM    4  S   UNL     1      61.941  10.830   3.422  1.00  0.00    -0.078 SA
HETATM    5  C   UNL     1      63.379   9.019   4.479  1.00  0.00     0.021 A 
HETATM    6  C   UNL     1      62.319   9.394   2.566  1.00  0.00     0.047 A 
HETATM    7  C   UNL     1      64.221   8.171   5.362  1.00  0.00     0.069 C 
HETATM    8  C   UNL     1      61.814   9.171   1.184  1.00  0.00     0.076 C 
ENDROOT
BRANCH   3   9
HETATM    9  C   UNL     1      62.974  11.094   5.996  1.00  0.00     0.212 C 
BRANCH   9  10
HETATM   10  O   UNL     1      64.351  11.396   6.176  1.00  0.00    -0.396 OA
HETATM   11  H   UNL     1      64.453  12.013   6.917  1.00  0.00     0.209 HD
ENDBRANCH   9  10
ENDBRANCH   3   9
TORSDOF 2
ENDMDL
MODEL 4
REMARK VINA RESULT:      -4.0     13.591     14.446
REMARK  2 active torsions:
REMARK  status: ('A' for Active; 'I' for Inactive)
REMARK    1  A    between atoms: C_3  and  C_7 
REMARK    2  A    between atoms: C_7  and  O_10 
ROOT
HETATM    1  N   UNL     1      69.831  23.090  13.305  1.00  0.00    -0.357 N 
ATOM      2  HN  UNL     1      68.977  22.765  12.852  1.00  0.00     0.166 HD
HETATM    3  C   UNL     1      72.121  23.234  13.740  1.00  0.00     0.030 A 
HETATM    4  S   UNL     1      71.445  24.350  14.855  1.00  0.00    -0.078 SA
HETATM    5  C   UNL     1      71.110  22.653  12.991  1.00  0.00     0.021 A 
HETATM    6  C   UNL     1      69.877  23.985  14.268  1.00  0.00     0.047 A 
HETATM    7  C   UNL     1      71.249  21.632  11.920  1.00  0.00     0.069 C 
HETATM    8  C   UNL     1      68.673  24.651  14.836  1.00  0.00     0.076 C 
ENDROOT
BRANCH   3   9
HETATM    9  C   UNL     1      73.593  23.022  13.676  1.00  0.00     0.212 C 
BRANCH   9  10
HETATM   10  O   UNL     1      73.902  21.870  14.451  1.00  0.00    -0.396 OA
HETATM   11  H   UNL     1      73.914  21.088  13.878  1.00  0.00     0.209 HD
ENDBRANCH   9  10
ENDBRANCH   3   9
TORSDOF 2
ENDMDL
MODEL 5
REMARK VINA RESULT:      -4.0      8.569      9.877
REMARK  2 active torsions:
REMARK  status: ('A' for Active; 'I' for Inactive)
REMARK    1  A    between atoms: C_3  and  C_7 
REMARK    2  A    between atoms: C_7  and  O_10 
ROOT
HETATM    1  N   UNL     1      77.388   3.802  17.974  1.00  0.00    -0.357 N 
ATOM      2  HN  UNL     1      78.306   4.087  18.314  1.00  0.00     0.166 HD
HETATM    3  C   UNL     1      75.606   2.361  17.523  1.00  0.00     0.030 A 
HETATM    4  S   UNL     1      75.048   3.866  16.918  1.00  0.00    -0.078 SA
HETATM    5  C   UNL     1      76.878   2.515  18.054  1.00  0.00     0.021 A 
HETATM    6  C   UNL     1      76.518   4.604  17.398  1.00  0.00     0.047 A 
HETATM    7  C   UNL     1      77.731   1.469  18.676  1.00  0.00     0.069 C 
HETATM    8  C   UNL     1      76.760   6.053  17.161  1.00  0.00     0.076 C 
ENDROOT
BRANCH   3   9
HETATM    9  C   UNL     1      74.751   1.146  17.444  1.00  0.00     0.212 C 
BRANCH   9  10
HETATM   10  O   UNL     1      74.321   0.829  18.762  1.00  0.00    -0.396 OA
HETATM   11  H   UNL     1      74.808   0.055  19.084  1.00  0.00     0.209 HD
ENDBRANCH   9  10
ENDBRANCH   3   9
TORSDOF 2
ENDMDL
MODEL 6
REMARK VINA RESULT:      -3.7     15.097     16.218
REMARK  2 active torsions:
REMARK  status: ('A' for Active; 'I' for Inactive)
REMARK    1  A    between atoms: C_3  and  C_7 
REMARK    2  A    between atoms: C_7  and  O_10 
ROOT
HETATM    1  N   UNL     1      69.216   5.928   8.323  1.00  0.00    -0.357 N 
ATOM      2  HN  UNL     1      69.616   6.837   8.088  1.00  0.00     0.166 HD
HETATM    3  C   UNL     1      69.180   3.714   9.066  1.00  0.00     0.030 A 
HETATM    4  S   UNL     1      67.540   4.012   8.660  1.00  0.00    -0.078 SA
HETATM    5  C   UNL     1      69.934   4.852   8.822  1.00  0.00     0.021 A 
HETATM    6  C   UNL     1      67.946   5.611   8.195  1.00  0.00     0.047 A 
HETATM    7  C   UNL     1      71.395   5.030   9.029  1.00  0.00     0.069 C 
HETATM    8  C   UNL     1      66.907   6.546   7.684  1.00  0.00     0.076 C 
ENDROOT
BRANCH   3   9
HETATM    9  C   UNL     1      69.601   2.393   9.605  1.00  0.00     0.212 C 
BRANCH   9  10
HETATM   10  O   UNL     1      69.792   2.535  11.007  1.00  0.00    -0.396 OA
HETATM   11  H   UNL     1      69.585   3.444  11.272  1.00  0.00     0.209 HD
ENDBRANCH   9  10
ENDBRANCH   3   9
TORSDOF 2
ENDMDL
MODEL 7
REMARK VINA RESULT:      -3.7     16.715     17.892
REMARK  2 active torsions:
REMARK  status: ('A' for Active; 'I' for Inactive)
REMARK    1  A    between atoms: C_3  and  C_7 
REMARK    2  A    between atoms: C_7  and  O_10 
ROOT
HETATM    1  N   UNL     1      68.177   6.694   6.851  1.00  0.00    -0.357 N 
ATOM      2  HN  UNL     1      69.189   6.584   6.781  1.00  0.00     0.166 HD
HETATM    3  C   UNL     1      66.035   7.391   6.232  1.00  0.00     0.030 A 
HETATM    4  S   UNL     1      65.758   6.548   7.700  1.00  0.00    -0.078 SA
HETATM    5  C   UNL     1      67.388   7.367   5.929  1.00  0.00     0.021 A 
HETATM    6  C   UNL     1      67.435   6.217   7.827  1.00  0.00     0.047 A 
HETATM    7  C   UNL     1      68.064   7.978   4.755  1.00  0.00     0.069 C 
HETATM    8  C   UNL     1      67.977   5.443   8.976  1.00  0.00     0.076 C 
ENDROOT
BRANCH   3   9
HETATM    9  C   UNL     1      64.905   8.000   5.480  1.00  0.00     0.212 C 
BRANCH   9  10
HETATM   10  O   UNL     1      64.942   9.405   5.699  1.00  0.00    -0.396 OA
HETATM   11  H   UNL     1      65.359   9.840   4.940  1.00  0.00     0.209 HD
ENDBRANCH   9  10
ENDBRANCH   3   9
TORSDOF 2
ENDMDL
MODEL 8
REMARK VINA RESULT:      -3.7     21.246     22.527
REMARK  2 active torsions:
REMARK  status: ('A' for Active; 'I' for Inactive)
REMARK    1  A    between atoms: C_3  and  C_7 
REMARK    2  A    between atoms: C_7  and  O_10 
ROOT
HETATM    1  N   UNL     1      61.097   9.116   3.070  1.00  0.00    -0.357 N 
ATOM      2  HN  UNL     1      60.416   9.098   2.311  1.00  0.00     0.166 HD
HETATM    3  C   UNL     1      62.331   8.309   4.881  1.00  0.00     0.030 A 
HETATM    4  S   UNL     1      62.906   9.916   4.707  1.00  0.00    -0.078 SA
HETATM    5  C   UNL     1      61.366   8.053   3.918  1.00  0.00     0.021 A 
HETATM    6  C   UNL     1      61.844  10.153   3.383  1.00  0.00     0.047 A 
HETATM    7  C   UNL     1      60.607   6.793   3.712  1.00  0.00     0.069 C 
HETATM    8  C   UNL     1      61.798  11.455   2.663  1.00  0.00     0.076 C 
ENDROOT
BRANCH   3   9
HETATM    9  C   UNL     1      62.878   7.416   5.938  1.00  0.00     0.212 C 
BRANCH   9  10
HETATM   10  O   UNL     1      62.543   7.979   7.200  1.00  0.00    -0.396 OA
HETATM   11  H   UNL     1      61.618   8.270   7.190  1.00  0.00     0.209 HD
ENDBRANCH   9  10
ENDBRANCH   3   9
TORSDOF 2
ENDMDL
MODEL 9
REMARK VINA RESULT:      -3.6      4.152      5.339
REMARK  2 active torsions:
REMARK  status: ('A' for Active; 'I' for Inactive)
REMARK    1  A    between atoms: C_3  and  C_7 
REMARK    2  A    between atoms: C_7  and  O_10 
ROOT
HETATM    1  N   UNL     1      78.340  11.326  23.778  1.00  0.00    -0.357 N 
ATOM      2  HN  UNL     1      77.499  10.897  23.392  1.00  0.00     0.166 HD
HETATM    3  C   UNL     1      80.290  12.612  23.801  1.00  0.00     0.030 A 
HETATM    4  S   UNL     1      80.206  12.010  25.405  1.00  0.00    -0.078 SA
HETATM    5  C   UNL     1      79.208  12.144  23.070  1.00  0.00     0.021 A 
HETATM    6  C   UNL     1      78.756  11.180  25.017  1.00  0.00     0.047 A 
HETATM    7  C   UNL     1      78.894  12.417  21.644  1.00  0.00     0.069 C 
HETATM    8  C   UNL     1      78.047  10.361  26.038  1.00  0.00     0.076 C 
ENDROOT
BRANCH   3   9
HETATM    9  C   UNL     1      81.402  13.508  23.383  1.00  0.00     0.212 C 
BRANCH   9  10
HETATM   10  O   UNL     1      82.201  12.802  22.443  1.00  0.00    -0.396 OA
HETATM   11  H   UNL     1      83.138  12.937  22.649  1.00  0.00     0.209 HD
ENDBRANCH   9  10
ENDBRANCH   3   9
TORSDOF 2
ENDMDL
