MODEL 1
REMARK VINA RESULT:      -4.5      0.000      0.000
REMARK  1 active torsions:
REMARK  status: ('A' for Active; 'I' for Inactive)
REMARK    1  A    between atoms: C_1  and  C_5 
ROOT
HETATM    1  C   UNK     1      73.838  22.656  14.993  1.00  0.00     0.117 A 
HETATM    2  N   UNK     1      73.469  23.878  15.559  1.00  0.00    -0.348 N 
ATOM      3  HN  UNK     1      73.816  24.235  16.449  1.00  0.00     0.166 HD
HETATM    4  C   UNK     1      73.232  22.394  13.777  1.00  0.00     0.088 A 
HETATM    5  C   UNK     1      72.612  24.502  14.782  1.00  0.00     0.047 A 
HETATM    6  S   UNK     1      72.193  23.681  13.333  1.00  0.00    -0.086 SA
HETATM    7  C   UNK     1      72.009  25.828  15.086  1.00  0.00     0.076 C 
ENDROOT
BRANCH   1   8
HETATM    8  C   UNK     1      74.776  21.737  15.631  1.00  0.00     0.227 C 
HETATM    9  O   UNK     1      74.496  20.946  16.522  1.00  0.00    -0.643 OA
HETATM   10  O   UNK     1      76.045  21.804  15.166  1.00  0.00    -0.643 OA
ENDBRANCH   1   8
TORSDOF 1
ENDMDL
MODEL 2
REMARK VINA RESULT:      -4.2     20.279     21.308
REMARK  1 active torsions:
REMARK  status: ('A' for Active; 'I' for Inactive)
REMARK    1  A    between atoms: C_1  and  C_5 
ROOT
HETATM    1  C   UNK     1      76.676   2.598  18.086  1.00  0.00     0.117 A 
HETATM    2  N   UNK     1      75.567   2.489  17.244  1.00  0.00    -0.348 N 
ATOM      3  HN  UNK     1      74.880   3.226  17.088  1.00  0.00     0.166 HD
HETATM    4  C   UNK     1      77.462   1.461  18.131  1.00  0.00     0.088 A 
HETATM    5  C   UNK     1      75.535   1.301  16.682  1.00  0.00     0.047 A 
HETATM    6  S   UNK     1      76.817   0.243  17.115  1.00  0.00    -0.086 SA
HETATM    7  C   UNK     1      74.484   0.845  15.732  1.00  0.00     0.076 C 
ENDROOT
BRANCH   1   8
HETATM    8  C   UNK     1      76.974   3.804  18.853  1.00  0.00     0.227 C 
HETATM    9  O   UNK     1      76.951   4.946  18.411  1.00  0.00    -0.643 OA
HETATM   10  O   UNK     1      77.299   3.592  20.149  1.00  0.00    -0.643 OA
ENDBRANCH   1   8
TORSDOF 1
ENDMDL
MODEL 3
REMARK VINA RESULT:      -4.2     18.074     19.359
REMARK  1 active torsions:
REMARK  status: ('A' for Active; 'I' for Inactive)
REMARK    1  A    between atoms: C_1  and  C_5 
ROOT
HETATM    1  C   UNK     1      76.396   4.822  17.324  1.00  0.00     0.117 A 
HETATM    2  N   UNK     1      77.263   3.919  17.944  1.00  0.00    -0.348 N 
ATOM      3  HN  UNK     1      78.151   4.169  18.379  1.00  0.00     0.166 HD
HETATM    4  C   UNK     1      75.252   4.240  16.810  1.00  0.00     0.088 A 
HETATM    5  C   UNK     1      76.771   2.701  17.887  1.00  0.00     0.047 A 
HETATM    6  S   UNK     1      75.252   2.553  17.099  1.00  0.00    -0.086 SA
HETATM    7  C   UNK     1      77.440   1.494  18.445  1.00  0.00     0.076 C 
ENDROOT
BRANCH   1   8
HETATM    8  C   UNK     1      76.678   6.251  17.227  1.00  0.00     0.227 C 
HETATM    9  O   UNK     1      76.735   7.026  18.173  1.00  0.00    -0.643 OA
HETATM   10  O   UNK     1      76.883   6.709  15.971  1.00  0.00    -0.643 OA
ENDBRANCH   1   8
TORSDOF 1
ENDMDL
MODEL 4
REMARK VINA RESULT:      -4.2      3.902      4.459
REMARK  1 active torsions:
REMARK  status: ('A' for Active; 'I' for Inactive)
REMARK    1  A    between atoms: C_1  and  C_5 
ROOT
HETATM    1  C   UNK     1      71.781  21.978  11.688  1.00  0.00     0.117 A 
HETATM    2  N   UNK     1      72.770  22.782  12.259  1.00  0.00    -0.348 N 
ATOM      3  HN  UNK     1      73.742  22.816  11.952  1.00  0.00     0.166 HD
HETATM    4  C   UNK     1      70.538  22.110  12.280  1.00  0.00     0.088 A 
HETATM    5  C   UNK     1      72.270  23.488  13.249  1.00  0.00     0.047 A 
HETATM    6  S   UNK     1      70.598  23.245  13.560  1.00  0.00    -0.086 SA
HETATM    7  C   UNK     1      73.049  24.445  14.080  1.00  0.00     0.076 C 
ENDROOT
BRANCH   1   8
HETATM    8  C   UNK     1      72.041  21.077  10.568  1.00  0.00     0.227 C 
HETATM    9  O   UNK     1      73.116  20.949   9.999  1.00  0.00    -0.643 OA
HETATM   10  O   UNK     1      70.975  20.349  10.163  1.00  0.00    -0.643 OA
ENDBRANCH   1   8
TORSDOF 1
ENDMDL
MODEL 5
REMARK VINA RESULT:      -4.1     20.150     21.470
REMARK  1 active torsions:
REMARK  status: ('A' for Active; 'I' for Inactive)
REMARK    1  A    between atoms: C_1  and  C_5 
ROOT
HETATM    1  C   UNK     1      77.048   2.806  18.199  1.00  0.00     0.117 A 
HETATM    2  N   UNK     1      77.877   2.542  19.291  1.00  0.00    -0.348 N 
ATOM      3  HN  UNK     1      78.226   3.247  19.940  1.00  0.00     0.166 HD
HETATM    4  C   UNK     1      76.707   1.683  17.467  1.00  0.00     0.088 A 
HETATM    5  C   UNK     1      78.143   1.257  19.363  1.00  0.00     0.047 A 
HETATM    6  S   UNK     1      77.425   0.284  18.144  1.00  0.00    -0.086 SA
HETATM    7  C   UNK     1      79.004   0.631  20.403  1.00  0.00     0.076 C 
ENDROOT
BRANCH   1   8
HETATM    8  C   UNK     1      76.585   4.149  17.860  1.00  0.00     0.227 C 
HETATM    9  O   UNK     1      77.006   5.187  18.354  1.00  0.00    -0.643 OA
HETATM   10  O   UNK     1      75.611   4.198  16.923  1.00  0.00    -0.643 OA
ENDBRANCH   1   8
TORSDOF 1
ENDMDL
MODEL 6
REMARK VINA RESULT:      -4.1     19.090     19.491
REMARK  1 active torsions:
REMARK  status: ('A' for Active; 'I' for Inactive)
REMARK    1  A    between atoms: C_1  and  C_5 
ROOT
HETATM    1  C   UNK     1      66.767   7.200   6.895  1.00  0.00     0.117 A 
HETATM    2  N   UNK     1      68.064   6.731   7.115  1.00  0.00    -0.348 N 
ATOM      3  HN  UNK     1      68.893   7.060   6.621  1.00  0.00     0.166 HD
HETATM    4  C   UNK     1      65.809   6.598   7.691  1.00  0.00     0.088 A 
HETATM    5  C   UNK     1      68.063   5.806   8.049  1.00  0.00     0.047 A 
HETATM    6  S   UNK     1      66.528   5.438   8.725  1.00  0.00    -0.086 SA
HETATM    7  C   UNK     1      69.277   5.090   8.527  1.00  0.00     0.076 C 
ENDROOT
BRANCH   1   8
HETATM    8  C   UNK     1      66.452   8.230   5.909  1.00  0.00     0.227 C 
HETATM    9  O   UNK     1      65.514   9.014   5.980  1.00  0.00    -0.643 OA
HETATM   10  O   UNK     1      67.293   8.283   4.850  1.00  0.00    -0.643 OA
ENDBRANCH   1   8
TORSDOF 1
ENDMDL
MODEL 7
REMARK VINA RESULT:      -4.0     20.473     21.323
REMARK  1 active torsions:
REMARK  status: ('A' for Active; 'I' for Inactive)
REMARK    1  A    between atoms: C_1  and  C_5 
ROOT
HETATM    1  C   UNK     1      62.294   9.899   3.770  1.00  0.00     0.117 A 
HETATM    2  N   UNK     1      61.335   9.855   2.756  1.00  0.00    -0.348 N 
ATOM      3  HN  UNK     1      60.634  10.577   2.585  1.00  0.00     0.166 HD
HETATM    4  C   UNK     1      63.134   8.801   3.797  1.00  0.00     0.088 A 
HETATM    5  C   UNK     1      61.463   8.752   2.053  1.00  0.00     0.047 A 
HETATM    6  S   UNK     1      62.728   7.702   2.549  1.00  0.00    -0.086 SA
HETATM    7  C   UNK     1      60.598   8.381   0.900  1.00  0.00     0.076 C 
ENDROOT
BRANCH   1   8
HETATM    8  C   UNK     1      62.396  11.006   4.717  1.00  0.00     0.227 C 
HETATM    9  O   UNK     1      61.924  12.123   4.553  1.00  0.00    -0.643 OA
HETATM   10  O   UNK     1      63.079  10.726   5.851  1.00  0.00    -0.643 OA
ENDBRANCH   1   8
TORSDOF 1
ENDMDL
MODEL 8
REMARK VINA RESULT:      -4.0     19.118     20.019
REMARK  1 active torsions:
REMARK  status: ('A' for Active; 'I' for Inactive)
REMARK    1  A    between atoms: C_1  and  C_5 
ROOT
HETATM    1  C   UNK     1      63.389   9.645   4.929  1.00  0.00     0.117 A 
HETATM    2  N   UNK     1      64.490   9.059   5.557  1.00  0.00    -0.348 N 
ATOM      3  HN  UNK     1      65.002   9.469   6.338  1.00  0.00     0.166 HD
HETATM    4  C   UNK     1      62.865   8.892   3.893  1.00  0.00     0.088 A 
HETATM    5  C   UNK     1      64.774   7.904   4.998  1.00  0.00     0.047 A 
HETATM    6  S   UNK     1      63.751   7.441   3.697  1.00  0.00    -0.086 SA
HETATM    7  C   UNK     1      65.892   7.016   5.416  1.00  0.00     0.076 C 
ENDROOT
BRANCH   1   8
HETATM    8  C   UNK     1      62.843  10.938   5.330  1.00  0.00     0.227 C 
HETATM    9  O   UNK     1      62.079  11.622   4.661  1.00  0.00    -0.643 OA
HETATM   10  O   UNK     1      63.244  11.375   6.547  1.00  0.00    -0.643 OA
ENDBRANCH   1   8
TORSDOF 1
ENDMDL
MODEL 9
REMARK VINA RESULT:      -3.9     20.831     21.669
REMARK  1 active torsions:
REMARK  status: ('A' for Active; 'I' for Inactive)
REMARK    1  A    between atoms: C_1  and  C_5 
ROOT
HETATM    1  C   UNK     1      61.832   9.923   3.674  1.00  0.00     0.117 A 
HETATM    2  N   UNK     1      60.711   9.166   3.328  1.00  0.00    -0.348 N 
ATOM      3  HN  UNK     1      59.879   9.534   2.866  1.00  0.00     0.166 HD
HETATM    4  C   UNK     1      62.833   9.195   4.292  1.00  0.00     0.088 A 
HETATM    5  C   UNK     1      60.879   7.911   3.682  1.00  0.00     0.047 A 
HETATM    6  S   UNK     1      62.376   7.553   4.444  1.00  0.00    -0.086 SA
HETATM    7  C   UNK     1      59.877   6.833   3.469  1.00  0.00     0.076 C 
ENDROOT
BRANCH   1   8
HETATM    8  C   UNK     1      61.934  11.355   3.409  1.00  0.00     0.227 C 
HETATM    9  O   UNK     1      61.956  12.233   4.263  1.00  0.00    -0.643 OA
HETATM   10  O   UNK     1      62.006  11.690   2.101  1.00  0.00    -0.643 OA
ENDBRANCH   1   8
TORSDOF 1
ENDMDL
