MODEL 1
REMARK VINA RESULT:      -5.1      0.000      0.000
REMARK  1 active torsions:
REMARK  status: ('A' for Active; 'I' for Inactive)
REMARK    1  A    between atoms: C_1  and  C_5 
ROOT
HETATM    1  C   UNL     1      76.464   2.807  18.003  1.00  0.00     0.084 A 
HETATM    2  S   UNL     1      77.348   1.347  18.145  1.00  0.00    -0.065 SA
HETATM    3  C   UNL     1      76.330   0.541  17.045  1.00  0.00     0.085 A 
HETATM    4  C   UNL     1      75.393   2.664  17.138  1.00  0.00     0.040 A 
HETATM    5  C   UNL     1      75.307   1.354  16.568  1.00  0.00    -0.001 A 
HETATM    6  N   UNL     1      76.552  -0.748  16.714  1.00  0.00    -0.360 N 
ATOM      7  HN  UNL     1      77.318  -1.298  17.102  1.00  0.00     0.166 HD
HETATM    8  C   UNL     1      74.411   0.778  15.644  1.00  0.00     0.015 A 
HETATM    9  C   UNL     1      75.668  -1.246  15.824  1.00  0.00     0.089 A 
HETATM   10  C   UNL     1      74.607  -0.549  15.271  1.00  0.00     0.018 A 
ENDROOT
BRANCH   1  11
HETATM   11  C   UNL     1      76.890   3.969  18.742  1.00  0.00     0.216 C 
HETATM   12  O   UNL     1      76.950   5.134  18.379  1.00  0.00    -0.643 OA
HETATM   13  O   UNL     1      77.250   3.645  20.006  1.00  0.00    -0.643 OA
ENDBRANCH   1  11
TORSDOF 1
ENDMDL
MODEL 2
REMARK VINA RESULT:      -4.7     13.086     14.148
REMARK  1 active torsions:
REMARK  status: ('A' for Active; 'I' for Inactive)
REMARK    1  A    between atoms: C_1  and  C_5 
ROOT
HETATM    1  C   UNL     1      66.448   6.596   6.942  1.00  0.00     0.084 A 
HETATM    2  S   UNL     1      65.701   5.157   7.490  1.00  0.00    -0.065 SA
HETATM    3  C   UNL     1      67.139   4.599   8.209  1.00  0.00     0.085 A 
HETATM    4  C   UNL     1      67.787   6.631   7.291  1.00  0.00     0.040 A 
HETATM    5  C   UNL     1      68.200   5.481   8.036  1.00  0.00    -0.001 A 
HETATM    6  N   UNL     1      67.173   3.420   8.864  1.00  0.00    -0.360 N 
ATOM      7  HN  UNL     1      66.360   2.810   8.955  1.00  0.00     0.166 HD
HETATM    8  C   UNL     1      69.437   5.110   8.601  1.00  0.00     0.015 A 
HETATM    9  C   UNL     1      68.379   3.119   9.389  1.00  0.00     0.089 A 
HETATM   10  C   UNL     1      69.516   3.903   9.291  1.00  0.00     0.018 A 
ENDROOT
BRANCH   1  11
HETATM   11  C   UNL     1      65.668   7.571   6.222  1.00  0.00     0.216 C 
HETATM   12  O   UNL     1      66.037   8.407   5.411  1.00  0.00    -0.643 OA
HETATM   13  O   UNL     1      64.354   7.480   6.535  1.00  0.00    -0.643 OA
ENDBRANCH   1  11
TORSDOF 1
ENDMDL
MODEL 3
REMARK VINA RESULT:      -4.7     19.055     20.093
REMARK  1 active torsions:
REMARK  status: ('A' for Active; 'I' for Inactive)
REMARK    1  A    between atoms: C_1  and  C_5 
ROOT
HETATM    1  C   UNL     1      63.584   7.776   5.187  1.00  0.00     0.084 A 
HETATM    2  S   UNL     1      63.427   7.237   3.569  1.00  0.00    -0.065 SA
HETATM    3  C   UNL     1      62.765   8.721   3.063  1.00  0.00     0.085 A 
HETATM    4  C   UNL     1      63.113   9.070   5.333  1.00  0.00     0.040 A 
HETATM    5  C   UNL     1      62.642   9.634   4.105  1.00  0.00    -0.001 A 
HETATM    6  N   UNL     1      62.422   8.922   1.773  1.00  0.00    -0.360 N 
ATOM      7  HN  UNL     1      62.531   8.209   1.052  1.00  0.00     0.166 HD
HETATM    8  C   UNL     1      62.107  10.899   3.785  1.00  0.00     0.015 A 
HETATM    9  C   UNL     1      61.921  10.149   1.524  1.00  0.00     0.089 A 
HETATM   10  C   UNL     1      61.745  11.151   2.465  1.00  0.00     0.018 A 
ENDROOT
BRANCH   1  11
HETATM   11  C   UNL     1      64.154   6.897   6.176  1.00  0.00     0.216 C 
HETATM   12  O   UNL     1      64.475   7.139   7.330  1.00  0.00    -0.643 OA
HETATM   13  O   UNL     1      64.319   5.645   5.687  1.00  0.00    -0.643 OA
ENDBRANCH   1  11
TORSDOF 1
ENDMDL
MODEL 4
REMARK VINA RESULT:      -4.6     12.545     13.640
REMARK  1 active torsions:
REMARK  status: ('A' for Active; 'I' for Inactive)
REMARK    1  A    between atoms: C_1  and  C_5 
ROOT
HETATM    1  C   UNL     1      68.485   4.376   8.607  1.00  0.00     0.084 A 
HETATM    2  S   UNL     1      67.931   5.908   9.136  1.00  0.00    -0.065 SA
HETATM    3  C   UNL     1      67.518   6.384   7.555  1.00  0.00     0.085 A 
HETATM    4  C   UNL     1      68.371   4.248   7.233  1.00  0.00     0.040 A 
HETATM    5  C   UNL     1      67.803   5.405   6.610  1.00  0.00    -0.001 A 
HETATM    6  N   UNL     1      66.974   7.596   7.318  1.00  0.00    -0.360 N 
ATOM      7  HN  UNL     1      66.792   8.278   8.055  1.00  0.00     0.166 HD
HETATM    8  C   UNL     1      67.491   5.703   5.268  1.00  0.00     0.015 A 
HETATM    9  C   UNL     1      66.691   7.825   6.019  1.00  0.00     0.089 A 
HETATM   10  C   UNL     1      66.922   6.940   4.979  1.00  0.00     0.018 A 
ENDROOT
BRANCH   1  11
HETATM   11  C   UNL     1      68.980   3.428   9.573  1.00  0.00     0.216 C 
HETATM   12  O   UNL     1      70.057   3.406  10.150  1.00  0.00    -0.643 OA
HETATM   13  O   UNL     1      68.065   2.463   9.830  1.00  0.00    -0.643 OA
ENDBRANCH   1  11
TORSDOF 1
ENDMDL
MODEL 5
REMARK VINA RESULT:      -4.6     11.124     12.295
REMARK  1 active torsions:
REMARK  status: ('A' for Active; 'I' for Inactive)
REMARK    1  A    between atoms: C_1  and  C_5 
ROOT
HETATM    1  C   UNL     1      69.250   2.391   9.146  1.00  0.00     0.084 A 
HETATM    2  S   UNL     1      69.372   4.033   9.617  1.00  0.00    -0.065 SA
HETATM    3  C   UNL     1      68.679   4.576   8.160  1.00  0.00     0.085 A 
HETATM    4  C   UNL     1      68.703   2.271   7.880  1.00  0.00     0.040 A 
HETATM    5  C   UNL     1      68.359   3.532   7.298  1.00  0.00    -0.001 A 
HETATM    6  N   UNL     1      68.487   5.893   7.934  1.00  0.00    -0.360 N 
ATOM      7  HN  UNL     1      68.748   6.616   8.604  1.00  0.00     0.166 HD
HETATM    8  C   UNL     1      67.773   3.880   6.064  1.00  0.00     0.015 A 
HETATM    9  C   UNL     1      67.919   6.167   6.741  1.00  0.00     0.089 A 
HETATM   10  C   UNL     1      67.552   5.228   5.792  1.00  0.00     0.018 A 
ENDROOT
BRANCH   1  11
HETATM   11  C   UNL     1      69.692   1.359  10.050  1.00  0.00     0.216 C 
HETATM   12  O   UNL     1      69.692   0.147   9.896  1.00  0.00    -0.643 OA
HETATM   13  O   UNL     1      70.168   1.885  11.203  1.00  0.00    -0.643 OA
ENDBRANCH   1  11
TORSDOF 1
ENDMDL
MODEL 6
REMARK VINA RESULT:      -4.5     19.021     20.057
REMARK  1 active torsions:
REMARK  status: ('A' for Active; 'I' for Inactive)
REMARK    1  A    between atoms: C_1  and  C_5 
ROOT
HETATM    1  C   UNL     1      63.997   8.173   4.959  1.00  0.00     0.084 A 
HETATM    2  S   UNL     1      62.994   9.555   4.838  1.00  0.00    -0.065 SA
HETATM    3  C   UNL     1      62.488   9.139   3.267  1.00  0.00     0.085 A 
HETATM    4  C   UNL     1      63.955   7.418   3.799  1.00  0.00     0.040 A 
HETATM    5  C   UNL     1      63.076   7.964   2.810  1.00  0.00    -0.001 A 
HETATM    6  N   UNL     1      61.607   9.911   2.597  1.00  0.00    -0.360 N 
ATOM      7  HN  UNL     1      61.213  10.768   2.983  1.00  0.00     0.166 HD
HETATM    8  C   UNL     1      62.715   7.531   1.518  1.00  0.00     0.015 A 
HETATM    9  C   UNL     1      61.295   9.446   1.369  1.00  0.00     0.089 A 
HETATM   10  C   UNL     1      61.804   8.295   0.793  1.00  0.00     0.018 A 
ENDROOT
BRANCH   1  11
HETATM   11  C   UNL     1      64.737   7.936   6.173  1.00  0.00     0.216 C 
HETATM   12  O   UNL     1      64.475   7.187   7.102  1.00  0.00    -0.643 OA
HETATM   13  O   UNL     1      65.870   8.676   6.212  1.00  0.00    -0.643 OA
ENDBRANCH   1  11
TORSDOF 1
ENDMDL
MODEL 7
REMARK VINA RESULT:      -4.5      2.691      3.306
REMARK  1 active torsions:
REMARK  status: ('A' for Active; 'I' for Inactive)
REMARK    1  A    between atoms: C_1  and  C_5 
ROOT
HETATM    1  C   UNL     1      75.481   0.769  16.555  1.00  0.00     0.084 A 
HETATM    2  S   UNL     1      76.984   0.019  16.885  1.00  0.00    -0.065 SA
HETATM    3  C   UNL     1      77.243  -0.348  15.243  1.00  0.00     0.085 A 
HETATM    4  C   UNL     1      75.179   0.716  15.205  1.00  0.00     0.040 A 
HETATM    5  C   UNL     1      76.199   0.078  14.429  1.00  0.00    -0.001 A 
HETATM    6  N   UNL     1      78.366  -0.982  14.845  1.00  0.00    -0.360 N 
ATOM      7  HN  UNL     1      79.098  -1.275  15.492  1.00  0.00     0.166 HD
HETATM    8  C   UNL     1      76.322  -0.176  13.048  1.00  0.00     0.015 A 
HETATM    9  C   UNL     1      78.433  -1.193  13.514  1.00  0.00     0.089 A 
HETATM   10  C   UNL     1      77.468  -0.823  12.593  1.00  0.00     0.018 A 
ENDROOT
BRANCH   1  11
HETATM   11  C   UNL     1      74.724   1.348  17.636  1.00  0.00     0.216 C 
HETATM   12  O   UNL     1      74.489   0.891  18.744  1.00  0.00    -0.643 OA
HETATM   13  O   UNL     1      74.247   2.572  17.304  1.00  0.00    -0.643 OA
ENDBRANCH   1  11
TORSDOF 1
ENDMDL
MODEL 8
REMARK VINA RESULT:      -4.4     20.099     21.108
REMARK  1 active torsions:
REMARK  status: ('A' for Active; 'I' for Inactive)
REMARK    1  A    between atoms: C_1  and  C_5 
ROOT
HETATM    1  C   UNL     1      63.184   9.058   4.110  1.00  0.00     0.084 A 
HETATM    2  S   UNL     1      61.795   9.911   3.587  1.00  0.00    -0.065 SA
HETATM    3  C   UNL     1      61.532   8.834   2.296  1.00  0.00     0.085 A 
HETATM    4  C   UNL     1      63.448   7.976   3.288  1.00  0.00     0.040 A 
HETATM    5  C   UNL     1      62.491   7.828   2.235  1.00  0.00    -0.001 A 
HETATM    6  N   UNL     1      60.483   8.996   1.462  1.00  0.00    -0.360 N 
ATOM      7  HN  UNL     1      59.812   9.759   1.554  1.00  0.00     0.166 HD
HETATM    8  C   UNL     1      62.357   6.880   1.200  1.00  0.00     0.015 A 
HETATM    9  C   UNL     1      60.401   8.058   0.496  1.00  0.00     0.089 A 
HETATM   10  C   UNL     1      61.285   7.006   0.320  1.00  0.00     0.018 A 
ENDROOT
BRANCH   1  11
HETATM   11  C   UNL     1      63.898   9.512   5.277  1.00  0.00     0.216 C 
HETATM   12  O   UNL     1      65.032   9.240   5.641  1.00  0.00    -0.643 OA
HETATM   13  O   UNL     1      63.145  10.359   6.017  1.00  0.00    -0.643 OA
ENDBRANCH   1  11
TORSDOF 1
ENDMDL
MODEL 9
REMARK VINA RESULT:      -4.4     13.341     14.436
REMARK  1 active torsions:
REMARK  status: ('A' for Active; 'I' for Inactive)
REMARK    1  A    between atoms: C_1  and  C_5 
ROOT
HETATM    1  C   UNL     1      66.608   6.754   6.371  1.00  0.00     0.084 A 
HETATM    2  S   UNL     1      66.870   7.009   8.044  1.00  0.00    -0.065 SA
HETATM    3  C   UNL     1      67.766   5.569   8.196  1.00  0.00     0.085 A 
HETATM    4  C   UNL     1      67.184   5.569   5.948  1.00  0.00     0.040 A 
HETATM    5  C   UNL     1      67.867   4.874   6.996  1.00  0.00    -0.001 A 
HETATM    6  N   UNL     1      68.294   5.205   9.383  1.00  0.00    -0.360 N 
ATOM      7  HN  UNL     1      68.181   5.755  10.234  1.00  0.00     0.166 HD
HETATM    8  C   UNL     1      68.596   3.667   7.017  1.00  0.00     0.015 A 
HETATM    9  C   UNL     1      68.984   4.047   9.343  1.00  0.00     0.089 A 
HETATM   10  C   UNL     1      69.164   3.257   8.220  1.00  0.00     0.018 A 
ENDROOT
BRANCH   1  11
HETATM   11  C   UNL     1      65.867   7.730   5.612  1.00  0.00     0.216 C 
HETATM   12  O   UNL     1      65.321   7.609   4.526  1.00  0.00    -0.643 OA
HETATM   13  O   UNL     1      65.805   8.916   6.262  1.00  0.00    -0.643 OA
ENDBRANCH   1  11
TORSDOF 1
ENDMDL
