MODEL 1
REMARK VINA RESULT:      -5.6      0.000      0.000
REMARK  2 active torsions:
REMARK  status: ('A' for Active; 'I' for Inactive)
REMARK    1  A    between atoms: C_4  and  C_7 
REMARK    2  A    between atoms: C_7  and  O_11 
ROOT
HETATM    1  N   UNL     1      63.857   8.863   5.589  1.00  0.00    -0.300 N 
ATOM      2  HN  UNL     1      64.323   8.771   6.492  1.00  0.00     0.187 HD
HETATM    3  N   UNL     1      63.764   7.949   4.602  1.00  0.00    -0.296 N 
HETATM    4  C   UNL     1      63.190   9.924   5.103  1.00  0.00     0.061 A 
HETATM    5  C   UNL     1      62.706   9.692   3.787  1.00  0.00     0.018 A 
HETATM    6  C   UNL     1      63.099   8.391   3.486  1.00  0.00     0.062 A 
HETATM    7  C   UNL     1      64.329   6.633   4.793  1.00  0.00     0.178 C 
HETATM    8  C   UNL     1      61.988  10.431   2.829  1.00  0.00     0.016 A 
HETATM    9  C   UNL     1      62.806   7.781   2.257  1.00  0.00     0.032 A 
HETATM   10  C   UNL     1      61.690   9.838   1.596  1.00  0.00     0.001 A 
HETATM   11  C   UNL     1      62.094   8.533   1.318  1.00  0.00     0.002 A 
ENDROOT
BRANCH   4  12
HETATM   12  C   UNL     1      63.058  11.158   5.931  1.00  0.00     0.223 C 
BRANCH  12  13
HETATM   13  O   UNL     1      64.319  11.586   6.447  1.00  0.00    -0.395 OA
HETATM   14  H   UNL     1      64.385  11.341   7.384  1.00  0.00     0.209 HD
ENDBRANCH  12  13
ENDBRANCH   4  12
TORSDOF 2
ENDMDL
MODEL 2
REMARK VINA RESULT:      -5.1      1.411      2.985
REMARK  2 active torsions:
REMARK  status: ('A' for Active; 'I' for Inactive)
REMARK    1  A    between atoms: C_4  and  C_7 
REMARK    2  A    between atoms: C_7  and  O_11 
ROOT
HETATM    1  N   UNL     1      62.077  10.551   3.900  1.00  0.00    -0.300 N 
ATOM      2  HN  UNL     1      61.458  11.356   3.802  1.00  0.00     0.187 HD
HETATM    3  N   UNL     1      62.240   9.516   3.051  1.00  0.00    -0.296 N 
HETATM    4  C   UNL     1      62.923  10.271   4.907  1.00  0.00     0.061 A 
HETATM    5  C   UNL     1      63.596   9.035   4.711  1.00  0.00     0.018 A 
HETATM    6  C   UNL     1      63.126   8.563   3.488  1.00  0.00     0.062 A 
HETATM    7  C   UNL     1      61.518   9.499   1.800  1.00  0.00     0.178 C 
HETATM    8  C   UNL     1      64.538   8.272   5.424  1.00  0.00     0.016 A 
HETATM    9  C   UNL     1      63.558   7.349   2.934  1.00  0.00     0.032 A 
HETATM   10  C   UNL     1      64.977   7.057   4.886  1.00  0.00     0.001 A 
HETATM   11  C   UNL     1      64.493   6.605   3.660  1.00  0.00     0.002 A 
ENDROOT
BRANCH   4  12
HETATM   12  C   UNL     1      63.040  11.213   6.058  1.00  0.00     0.223 C 
BRANCH  12  13
HETATM   13  O   UNL     1      64.403  11.494   6.376  1.00  0.00    -0.395 OA
HETATM   14  H   UNL     1      64.922  11.544   5.558  1.00  0.00     0.209 HD
ENDBRANCH  12  13
ENDBRANCH   4  12
TORSDOF 2
ENDMDL
MODEL 3
REMARK VINA RESULT:      -5.0     19.306     20.500
REMARK  2 active torsions:
REMARK  status: ('A' for Active; 'I' for Inactive)
REMARK    1  A    between atoms: C_4  and  C_7 
REMARK    2  A    between atoms: C_7  and  O_11 
ROOT
HETATM    1  N   UNL     1      77.628   3.073  18.476  1.00  0.00    -0.300 N 
ATOM      2  HN  UNL     1      78.329   3.720  18.839  1.00  0.00     0.187 HD
HETATM    3  N   UNL     1      77.557   1.739  18.653  1.00  0.00    -0.296 N 
HETATM    4  C   UNL     1      76.560   3.350  17.709  1.00  0.00     0.061 A 
HETATM    5  C   UNL     1      75.830   2.179  17.369  1.00  0.00     0.018 A 
HETATM    6  C   UNL     1      76.509   1.140  18.000  1.00  0.00     0.062 A 
HETATM    7  C   UNL     1      78.530   1.076  19.490  1.00  0.00     0.178 C 
HETATM    8  C   UNL     1      74.686   1.887  16.604  1.00  0.00     0.016 A 
HETATM    9  C   UNL     1      76.094  -0.197  17.905  1.00  0.00     0.032 A 
HETATM   10  C   UNL     1      74.260   0.557  16.498  1.00  0.00     0.001 A 
HETATM   11  C   UNL     1      74.955  -0.466  17.139  1.00  0.00     0.002 A 
ENDROOT
BRANCH   4  12
HETATM   12  C   UNL     1      76.286   4.759  17.303  1.00  0.00     0.223 C 
BRANCH  12  13
HETATM   13  O   UNL     1      76.445   5.665  18.396  1.00  0.00    -0.395 OA
HETATM   14  H   UNL     1      76.198   6.559  18.113  1.00  0.00     0.209 HD
ENDBRANCH  12  13
ENDBRANCH   4  12
TORSDOF 2
ENDMDL
MODEL 4
REMARK VINA RESULT:      -4.9      1.841      2.738
REMARK  2 active torsions:
REMARK  status: ('A' for Active; 'I' for Inactive)
REMARK    1  A    between atoms: C_4  and  C_7 
REMARK    2  A    between atoms: C_7  and  O_11 
ROOT
HETATM    1  N   UNL     1      63.365   7.034   3.470  1.00  0.00    -0.300 N 
ATOM      2  HN  UNL     1      63.722   6.081   3.550  1.00  0.00     0.187 HD
HETATM    3  N   UNL     1      62.876   7.651   2.376  1.00  0.00    -0.296 N 
HETATM    4  C   UNL     1      63.271   7.969   4.431  1.00  0.00     0.061 A 
HETATM    5  C   UNL     1      62.755   9.196   3.933  1.00  0.00     0.018 A 
HETATM    6  C   UNL     1      62.507   8.957   2.584  1.00  0.00     0.062 A 
HETATM    7  C   UNL     1      62.766   6.921   1.134  1.00  0.00     0.178 C 
HETATM    8  C   UNL     1      62.474  10.467   4.467  1.00  0.00     0.016 A 
HETATM    9  C   UNL     1      61.985   9.938   1.729  1.00  0.00     0.032 A 
HETATM   10  C   UNL     1      61.955  11.458   3.626  1.00  0.00     0.001 A 
HETATM   11  C   UNL     1      61.714  11.195   2.279  1.00  0.00     0.002 A 
ENDROOT
BRANCH   4  12
HETATM   12  C   UNL     1      63.712   7.650   5.820  1.00  0.00     0.223 C 
BRANCH  12  13
HETATM   13  O   UNL     1      62.631   7.727   6.749  1.00  0.00    -0.395 OA
HETATM   14  H   UNL     1      62.531   6.874   7.200  1.00  0.00     0.209 HD
ENDBRANCH  12  13
ENDBRANCH   4  12
TORSDOF 2
ENDMDL
MODEL 5
REMARK VINA RESULT:      -4.7     19.500     21.153
REMARK  2 active torsions:
REMARK  status: ('A' for Active; 'I' for Inactive)
REMARK    1  A    between atoms: C_4  and  C_7 
REMARK    2  A    between atoms: C_7  and  O_11 
ROOT
HETATM    1  N   UNL     1      77.897   2.706  18.880  1.00  0.00    -0.300 N 
ATOM      2  HN  UNL     1      78.600   3.197  19.433  1.00  0.00     0.187 HD
HETATM    3  N   UNL     1      76.908   3.233  18.131  1.00  0.00    -0.296 N 
HETATM    4  C   UNL     1      77.740   1.380  18.726  1.00  0.00     0.061 A 
HETATM    5  C   UNL     1      76.623   1.067  17.905  1.00  0.00     0.018 A 
HETATM    6  C   UNL     1      76.097   2.302  17.533  1.00  0.00     0.062 A 
HETATM    7  C   UNL     1      76.794   4.668  18.008  1.00  0.00     0.178 C 
HETATM    8  C   UNL     1      76.004  -0.109  17.443  1.00  0.00     0.016 A 
HETATM    9  C   UNL     1      74.968   2.421  16.709  1.00  0.00     0.032 A 
HETATM   10  C   UNL     1      74.875  -0.007  16.622  1.00  0.00     0.001 A 
HETATM   11  C   UNL     1      74.368   1.240  16.262  1.00  0.00     0.002 A 
ENDROOT
BRANCH   4  12
HETATM   12  C   UNL     1      78.677   0.439  19.407  1.00  0.00     0.223 C 
BRANCH  12  13
HETATM   13  O   UNL     1      79.214   1.002  20.604  1.00  0.00    -0.395 OA
HETATM   14  H   UNL     1      79.814   0.363  21.021  1.00  0.00     0.209 HD
ENDBRANCH  12  13
ENDBRANCH   4  12
TORSDOF 2
ENDMDL
MODEL 6
REMARK VINA RESULT:      -4.6      1.536      2.869
REMARK  2 active torsions:
REMARK  status: ('A' for Active; 'I' for Inactive)
REMARK    1  A    between atoms: C_4  and  C_7 
REMARK    2  A    between atoms: C_7  and  O_11 
ROOT
HETATM    1  N   UNL     1      63.497   9.246   5.649  1.00  0.00    -0.300 N 
ATOM      2  HN  UNL     1      63.760   9.440   6.616  1.00  0.00     0.187 HD
HETATM    3  N   UNL     1      62.858  10.056   4.782  1.00  0.00    -0.296 N 
HETATM    4  C   UNL     1      63.707   8.123   4.940  1.00  0.00     0.061 A 
HETATM    5  C   UNL     1      63.165   8.211   3.630  1.00  0.00     0.018 A 
HETATM    6  C   UNL     1      62.613   9.488   3.556  1.00  0.00     0.062 A 
HETATM    7  C   UNL     1      62.512  11.401   5.182  1.00  0.00     0.178 C 
HETATM    8  C   UNL     1      63.079   7.362   2.511  1.00  0.00     0.016 A 
HETATM    9  C   UNL     1      61.972   9.966   2.404  1.00  0.00     0.032 A 
HETATM   10  C   UNL     1      62.439   7.823   1.355  1.00  0.00     0.001 A 
HETATM   11  C   UNL     1      61.896   9.105   1.304  1.00  0.00     0.002 A 
ENDROOT
BRANCH   4  12
HETATM   12  C   UNL     1      64.418   6.973   5.570  1.00  0.00     0.223 C 
BRANCH  12  13
HETATM   13  O   UNL     1      64.911   7.302   6.869  1.00  0.00    -0.395 OA
HETATM   14  H   UNL     1      65.876   7.200   6.884  1.00  0.00     0.209 HD
ENDBRANCH  12  13
ENDBRANCH   4  12
TORSDOF 2
ENDMDL
MODEL 7
REMARK VINA RESULT:      -4.5      2.453      3.756
REMARK  2 active torsions:
REMARK  status: ('A' for Active; 'I' for Inactive)
REMARK    1  A    between atoms: C_4  and  C_7 
REMARK    2  A    between atoms: C_7  and  O_11 
ROOT
HETATM    1  N   UNL     1      62.918   7.319   2.142  1.00  0.00    -0.300 N 
ATOM      2  HN  UNL     1      62.952   6.502   1.532  1.00  0.00     0.187 HD
HETATM    3  N   UNL     1      63.579   7.522   3.299  1.00  0.00    -0.296 N 
HETATM    4  C   UNL     1      62.202   8.445   1.983  1.00  0.00     0.061 A 
HETATM    5  C   UNL     1      62.383   9.350   3.064  1.00  0.00     0.018 A 
HETATM    6  C   UNL     1      63.289   8.716   3.911  1.00  0.00     0.062 A 
HETATM    7  C   UNL     1      64.510   6.525   3.774  1.00  0.00     0.178 C 
HETATM    8  C   UNL     1      61.887  10.618   3.416  1.00  0.00     0.016 A 
HETATM    9  C   UNL     1      63.731   9.296   5.109  1.00  0.00     0.032 A 
HETATM   10  C   UNL     1      62.315  11.209   4.610  1.00  0.00     0.001 A 
HETATM   11  C   UNL     1      63.223  10.556   5.441  1.00  0.00     0.002 A 
ENDROOT
BRANCH   4  12
HETATM   12  C   UNL     1      61.332   8.606   0.781  1.00  0.00     0.223 C 
BRANCH  12  13
HETATM   13  O   UNL     1      59.950   8.678   1.134  1.00  0.00    -0.395 OA
HETATM   14  H   UNL     1      59.414   8.747   0.328  1.00  0.00     0.209 HD
ENDBRANCH  12  13
ENDBRANCH   4  12
TORSDOF 2
ENDMDL
MODEL 8
REMARK VINA RESULT:      -4.4      2.197      3.382
REMARK  2 active torsions:
REMARK  status: ('A' for Active; 'I' for Inactive)
REMARK    1  A    between atoms: C_4  and  C_7 
REMARK    2  A    between atoms: C_7  and  O_11 
ROOT
HETATM    1  N   UNL     1      60.700   9.142   3.379  1.00  0.00    -0.300 N 
ATOM      2  HN  UNL     1      59.855   9.514   2.944  1.00  0.00     0.187 HD
HETATM    3  N   UNL     1      60.951   7.873   3.759  1.00  0.00    -0.296 N 
HETATM    4  C   UNL     1      61.824   9.801   3.709  1.00  0.00     0.061 A 
HETATM    5  C   UNL     1      62.776   8.951   4.334  1.00  0.00     0.018 A 
HETATM    6  C   UNL     1      62.175   7.695   4.354  1.00  0.00     0.062 A 
HETATM    7  C   UNL     1      59.969   6.844   3.506  1.00  0.00     0.178 C 
HETATM    8  C   UNL     1      64.064   9.104   4.880  1.00  0.00     0.016 A 
HETATM    9  C   UNL     1      62.806   6.568   4.900  1.00  0.00     0.032 A 
HETATM   10  C   UNL     1      64.706   7.989   5.431  1.00  0.00     0.001 A 
HETATM   11  C   UNL     1      64.085   6.742   5.439  1.00  0.00     0.002 A 
ENDROOT
BRANCH   4  12
HETATM   12  C   UNL     1      61.936  11.261   3.424  1.00  0.00     0.223 C 
BRANCH  12  13
HETATM   13  O   UNL     1      62.074  12.024   4.623  1.00  0.00    -0.395 OA
HETATM   14  H   UNL     1      61.232  12.462   4.827  1.00  0.00     0.209 HD
ENDBRANCH  12  13
ENDBRANCH   4  12
TORSDOF 2
ENDMDL
MODEL 9
REMARK VINA RESULT:      -4.3      2.720      3.809
REMARK  2 active torsions:
REMARK  status: ('A' for Active; 'I' for Inactive)
REMARK    1  A    between atoms: C_4  and  C_7 
REMARK    2  A    between atoms: C_7  and  O_11 
ROOT
HETATM    1  N   UNL     1      62.781   7.047   3.514  1.00  0.00    -0.300 N 
ATOM      2  HN  UNL     1      62.966   6.065   3.721  1.00  0.00     0.187 HD
HETATM    3  N   UNL     1      62.688   8.077   4.378  1.00  0.00    -0.296 N 
HETATM    4  C   UNL     1      62.573   7.617   2.315  1.00  0.00     0.061 A 
HETATM    5  C   UNL     1      62.310   9.009   2.425  1.00  0.00     0.018 A 
HETATM    6  C   UNL     1      62.390   9.281   3.789  1.00  0.00     0.062 A 
HETATM    7  C   UNL     1      62.915   7.851   5.786  1.00  0.00     0.178 C 
HETATM    8  C   UNL     1      62.015  10.057   1.534  1.00  0.00     0.016 A 
HETATM    9  C   UNL     1      62.188  10.566   4.314  1.00  0.00     0.032 A 
HETATM   10  C   UNL     1      61.808  11.345   2.042  1.00  0.00     0.001 A 
HETATM   11  C   UNL     1      61.894  11.592   3.411  1.00  0.00     0.002 A 
ENDROOT
BRANCH   4  12
HETATM   12  C   UNL     1      62.613   6.781   1.080  1.00  0.00     0.223 C 
BRANCH  12  13
HETATM   13  O   UNL     1      62.007   5.504   1.285  1.00  0.00    -0.395 OA
HETATM   14  H   UNL     1      62.696   4.845   1.464  1.00  0.00     0.209 HD
ENDBRANCH  12  13
ENDBRANCH   4  12
TORSDOF 2
ENDMDL
