MODEL 1
REMARK VINA RESULT:      -5.6      0.000      0.000
REMARK  2 active torsions:
REMARK  status: ('A' for Active; 'I' for Inactive)
REMARK    1  A    between atoms: C_4  and  C_7 
REMARK    2  A    between atoms: C_7  and  O_8 
ROOT
HETATM    1  N   UNL     1      80.154  11.083  20.982  1.00  0.00    -0.351 N 
ATOM      2  HN  UNL     1      80.974  10.483  21.071  1.00  0.00     0.166 HD
HETATM    3  S   UNL     1      78.414  12.939  21.411  1.00  0.00    -0.072 SA
HETATM    4  C   UNL     1      79.884  12.116  21.757  1.00  0.00     0.075 A 
HETATM    5  C   UNL     1      79.155  10.936  20.031  1.00  0.00     0.050 A 
HETATM    6  C   UNL     1      78.111  11.857  20.104  1.00  0.00     0.033 A 
HETATM    7  C   UNL     1      79.112   9.951  19.020  1.00  0.00     0.031 A 
HETATM    8  C   UNL     1      77.024  11.831  19.210  1.00  0.00     0.021 A 
HETATM    9  C   UNL     1      77.005  10.842  18.222  1.00  0.00     0.002 A 
HETATM   10  C   UNL     1      78.037   9.912  18.125  1.00  0.00     0.002 A 
ENDROOT
BRANCH   4  11
HETATM   11  C   UNL     1      80.750  12.587  22.885  1.00  0.00     0.229 C 
BRANCH  11  12
HETATM   12  O   UNL     1      82.120  12.364  22.551  1.00  0.00    -0.394 OA
HETATM   13  H   UNL     1      82.639  13.154  22.768  1.00  0.00     0.209 HD
ENDBRANCH  11  12
ENDBRANCH   4  11
TORSDOF 2
ENDMDL
MODEL 2
REMARK VINA RESULT:      -5.2     15.504     16.081
REMARK  2 active torsions:
REMARK  status: ('A' for Active; 'I' for Inactive)
REMARK    1  A    between atoms: C_4  and  C_7 
REMARK    2  A    between atoms: C_7  and  O_8 
ROOT
HETATM    1  N   UNL     1      72.727  22.486  11.919  1.00  0.00    -0.351 N 
ATOM      2  HN  UNL     1      73.669  22.441  11.531  1.00  0.00     0.166 HD
HETATM    3  S   UNL     1      70.208  22.075  12.303  1.00  0.00    -0.072 SA
HETATM    4  C   UNL     1      71.696  21.783  11.491  1.00  0.00     0.075 A 
HETATM    5  C   UNL     1      72.336  23.294  12.977  1.00  0.00     0.050 A 
HETATM    6  C   UNL     1      70.990  23.213  13.334  1.00  0.00     0.033 A 
HETATM    7  C   UNL     1      73.171  24.171  13.702  1.00  0.00     0.031 A 
HETATM    8  C   UNL     1      70.446  23.976  14.384  1.00  0.00     0.021 A 
HETATM    9  C   UNL     1      71.296  24.840  15.082  1.00  0.00     0.002 A 
HETATM   10  C   UNL     1      72.643  24.937  14.747  1.00  0.00     0.002 A 
ENDROOT
BRANCH   4  11
HETATM   11  C   UNL     1      71.746  20.790  10.369  1.00  0.00     0.229 C 
BRANCH  11  12
HETATM   12  O   UNL     1      73.073  20.742   9.844  1.00  0.00    -0.394 OA
HETATM   13  H   UNL     1      73.440  19.853   9.972  1.00  0.00     0.209 HD
ENDBRANCH  11  12
ENDBRANCH   4  11
TORSDOF 2
ENDMDL
MODEL 3
REMARK VINA RESULT:      -5.1     21.950     23.621
REMARK  2 active torsions:
REMARK  status: ('A' for Active; 'I' for Inactive)
REMARK    1  A    between atoms: C_4  and  C_7 
REMARK    2  A    between atoms: C_7  and  O_8 
ROOT
HETATM    1  N   UNL     1      62.215  10.863   3.880  1.00  0.00    -0.351 N 
ATOM      2  HN  UNL     1      61.771  11.769   3.731  1.00  0.00     0.166 HD
HETATM    3  S   UNL     1      63.539   8.927   4.954  1.00  0.00    -0.072 SA
HETATM    4  C   UNL     1      62.852  10.503   4.978  1.00  0.00     0.075 A 
HETATM    5  C   UNL     1      62.241   9.825   2.961  1.00  0.00     0.050 A 
HETATM    6  C   UNL     1      62.925   8.678   3.364  1.00  0.00     0.033 A 
HETATM    7  C   UNL     1      61.648   9.837   1.680  1.00  0.00     0.031 A 
HETATM    8  C   UNL     1      63.040   7.545   2.537  1.00  0.00     0.021 A 
HETATM    9  C   UNL     1      62.447   7.587   1.272  1.00  0.00     0.002 A 
HETATM   10  C   UNL     1      61.757   8.719   0.846  1.00  0.00     0.002 A 
ENDROOT
BRANCH   4  11
HETATM   11  C   UNL     1      63.012  11.364   6.194  1.00  0.00     0.229 C 
BRANCH  11  12
HETATM   12  O   UNL     1      64.403  11.553   6.456  1.00  0.00    -0.394 OA
HETATM   13  H   UNL     1      64.556  12.465   6.747  1.00  0.00     0.209 HD
ENDBRANCH  11  12
ENDBRANCH   4  11
TORSDOF 2
ENDMDL
MODEL 4
REMARK VINA RESULT:      -5.0      3.364      4.855
REMARK  2 active torsions:
REMARK  status: ('A' for Active; 'I' for Inactive)
REMARK    1  A    between atoms: C_4  and  C_7 
REMARK    2  A    between atoms: C_7  and  O_8 
ROOT
HETATM    1  N   UNL     1      76.721  11.163  17.866  1.00  0.00    -0.351 N 
ATOM      2  HN  UNL     1      75.950  11.343  17.223  1.00  0.00     0.166 HD
HETATM    3  S   UNL     1      78.796  10.106  18.975  1.00  0.00    -0.072 SA
HETATM    4  C   UNL     1      77.622  10.210  17.724  1.00  0.00     0.075 A 
HETATM    5  C   UNL     1      76.980  11.884  19.024  1.00  0.00     0.050 A 
HETATM    6  C   UNL     1      78.076  11.454  19.771  1.00  0.00     0.033 A 
HETATM    7  C   UNL     1      76.239  12.989  19.494  1.00  0.00     0.031 A 
HETATM    8  C   UNL     1      78.458  12.083  20.970  1.00  0.00     0.021 A 
HETATM    9  C   UNL     1      77.703  13.172  21.415  1.00  0.00     0.002 A 
HETATM   10  C   UNL     1      76.606  13.623  20.686  1.00  0.00     0.002 A 
ENDROOT
BRANCH   4  11
HETATM   11  C   UNL     1      77.668   9.244  16.580  1.00  0.00     0.229 C 
BRANCH  11  12
HETATM   12  O   UNL     1      78.409   9.822  15.505  1.00  0.00    -0.394 OA
HETATM   13  H   UNL     1      77.796  10.142  14.825  1.00  0.00     0.209 HD
ENDBRANCH  11  12
ENDBRANCH   4  11
TORSDOF 2
ENDMDL
MODEL 5
REMARK VINA RESULT:      -4.8     21.692     23.202
REMARK  2 active torsions:
REMARK  status: ('A' for Active; 'I' for Inactive)
REMARK    1  A    between atoms: C_4  and  C_7 
REMARK    2  A    between atoms: C_7  and  O_8 
ROOT
HETATM    1  N   UNL     1      63.042   8.899   5.538  1.00  0.00    -0.351 N 
ATOM      2  HN  UNL     1      63.128   9.312   6.467  1.00  0.00     0.166 HD
HETATM    3  S   UNL     1      63.105   7.214   3.586  1.00  0.00    -0.072 SA
HETATM    4  C   UNL     1      63.301   7.641   5.240  1.00  0.00     0.075 A 
HETATM    5  C   UNL     1      62.633   9.577   4.398  1.00  0.00     0.050 A 
HETATM    6  C   UNL     1      62.607   8.823   3.225  1.00  0.00     0.033 A 
HETATM    7  C   UNL     1      62.255  10.935   4.332  1.00  0.00     0.031 A 
HETATM    8  C   UNL     1      62.219   9.374   1.989  1.00  0.00     0.021 A 
HETATM    9  C   UNL     1      61.854  10.723   1.953  1.00  0.00     0.002 A 
HETATM   10  C   UNL     1      61.869  11.497   3.110  1.00  0.00     0.002 A 
ENDROOT
BRANCH   4  11
HETATM   11  C   UNL     1      63.751   6.606   6.226  1.00  0.00     0.229 C 
BRANCH  11  12
HETATM   12  O   UNL     1      64.480   7.242   7.276  1.00  0.00    -0.394 OA
HETATM   13  H   UNL     1      63.948   7.962   7.648  1.00  0.00     0.209 HD
ENDBRANCH  11  12
ENDBRANCH   4  11
TORSDOF 2
ENDMDL
MODEL 6
REMARK VINA RESULT:      -4.7     15.314     16.315
REMARK  2 active torsions:
REMARK  status: ('A' for Active; 'I' for Inactive)
REMARK    1  A    between atoms: C_4  and  C_7 
REMARK    2  A    between atoms: C_7  and  O_8 
ROOT
HETATM    1  N   UNL     1      70.135  22.475  12.953  1.00  0.00    -0.351 N 
ATOM      2  HN  UNL     1      69.188  22.107  12.870  1.00  0.00     0.166 HD
HETATM    3  S   UNL     1      72.680  22.789  12.667  1.00  0.00    -0.072 SA
HETATM    4  C   UNL     1      71.192  22.001  12.321  1.00  0.00     0.075 A 
HETATM    5  C   UNL     1      70.508  23.552  13.746  1.00  0.00     0.050 A 
HETATM    6  C   UNL     1      71.864  23.875  13.727  1.00  0.00     0.033 A 
HETATM    7  C   UNL     1      69.645  24.324  14.553  1.00  0.00     0.031 A 
HETATM    8  C   UNL     1      72.392  24.938  14.483  1.00  0.00     0.021 A 
HETATM    9  C   UNL     1      71.515  25.683  15.277  1.00  0.00     0.002 A 
HETATM   10  C   UNL     1      70.156  25.382  15.312  1.00  0.00     0.002 A 
ENDROOT
BRANCH   4  11
HETATM   11  C   UNL     1      71.167  20.848  11.364  1.00  0.00     0.229 C 
BRANCH  11  12
HETATM   12  O   UNL     1      71.618  19.671  12.034  1.00  0.00    -0.394 OA
HETATM   13  H   UNL     1      72.570  19.740  12.204  1.00  0.00     0.209 HD
ENDBRANCH  11  12
ENDBRANCH   4  11
TORSDOF 2
ENDMDL
MODEL 7
REMARK VINA RESULT:      -4.7      5.788      6.960
REMARK  2 active torsions:
REMARK  status: ('A' for Active; 'I' for Inactive)
REMARK    1  A    between atoms: C_4  and  C_7 
REMARK    2  A    between atoms: C_7  and  O_8 
ROOT
HETATM    1  N   UNL     1      76.973   6.938  17.679  1.00  0.00    -0.351 N 
ATOM      2  HN  UNL     1      76.981   7.003  18.698  1.00  0.00     0.166 HD
HETATM    3  S   UNL     1      76.801   6.002  15.281  1.00  0.00    -0.072 SA
HETATM    4  C   UNL     1      76.713   5.843  16.992  1.00  0.00     0.075 A 
HETATM    5  C   UNL     1      77.236   7.987  16.810  1.00  0.00     0.050 A 
HETATM    6  C   UNL     1      77.193   7.671  15.452  1.00  0.00     0.033 A 
HETATM    7  C   UNL     1      77.538   9.315  17.181  1.00  0.00     0.031 A 
HETATM    8  C   UNL     1      77.442   8.629  14.451  1.00  0.00     0.021 A 
HETATM    9  C   UNL     1      77.743   9.935  14.848  1.00  0.00     0.002 A 
HETATM   10  C   UNL     1      77.789  10.277  16.197  1.00  0.00     0.002 A 
ENDROOT
BRANCH   4  11
HETATM   11  C   UNL     1      76.368   4.516  17.597  1.00  0.00     0.229 C 
BRANCH  11  12
HETATM   12  O   UNL     1      76.766   4.508  18.968  1.00  0.00    -0.394 OA
HETATM   13  H   UNL     1      77.622   4.060  19.054  1.00  0.00     0.209 HD
ENDBRANCH  11  12
ENDBRANCH   4  11
TORSDOF 2
ENDMDL
MODEL 8
REMARK VINA RESULT:      -4.7      8.722      9.864
REMARK  2 active torsions:
REMARK  status: ('A' for Active; 'I' for Inactive)
REMARK    1  A    between atoms: C_4  and  C_7 
REMARK    2  A    between atoms: C_7  and  O_8 
ROOT
HETATM    1  N   UNL     1      77.789   2.546  18.544  1.00  0.00    -0.351 N 
ATOM      2  HN  UNL     1      78.650   2.929  18.934  1.00  0.00     0.166 HD
HETATM    3  S   UNL     1      75.951   0.892  17.807  1.00  0.00    -0.072 SA
HETATM    4  C   UNL     1      77.444   1.273  18.570  1.00  0.00     0.075 A 
HETATM    5  C   UNL     1      76.804   3.285  17.905  1.00  0.00     0.050 A 
HETATM    6  C   UNL     1      75.716   2.556  17.426  1.00  0.00     0.033 A 
HETATM    7  C   UNL     1      76.816   4.683  17.704  1.00  0.00     0.031 A 
HETATM    8  C   UNL     1      74.642   3.167  16.753  1.00  0.00     0.021 A 
HETATM    9  C   UNL     1      74.683   4.552  16.564  1.00  0.00     0.002 A 
HETATM   10  C   UNL     1      75.756   5.304  17.034  1.00  0.00     0.002 A 
ENDROOT
BRANCH   4  11
HETATM   11  C   UNL     1      78.258   0.181  19.195  1.00  0.00     0.229 C 
BRANCH  11  12
HETATM   12  O   UNL     1      79.369   0.758  19.882  1.00  0.00    -0.394 OA
HETATM   13  H   UNL     1      79.806   1.405  19.306  1.00  0.00     0.209 HD
ENDBRANCH  11  12
ENDBRANCH   4  11
TORSDOF 2
ENDMDL
MODEL 9
REMARK VINA RESULT:      -4.5     20.363     22.057
REMARK  2 active torsions:
REMARK  status: ('A' for Active; 'I' for Inactive)
REMARK    1  A    between atoms: C_4  and  C_7 
REMARK    2  A    between atoms: C_7  and  O_8 
ROOT
HETATM    1  N   UNL     1      64.530   9.097   5.812  1.00  0.00    -0.351 N 
ATOM      2  HN  UNL     1      64.659   9.746   6.588  1.00  0.00     0.166 HD
HETATM    3  S   UNL     1      64.823   7.093   4.213  1.00  0.00    -0.072 SA
HETATM    4  C   UNL     1      65.222   7.989   5.625  1.00  0.00     0.075 A 
HETATM    5  C   UNL     1      63.600   9.246   4.792  1.00  0.00     0.050 A 
HETATM    6  C   UNL     1      63.609   8.249   3.817  1.00  0.00     0.033 A 
HETATM    7  C   UNL     1      62.671  10.301   4.666  1.00  0.00     0.031 A 
HETATM    8  C   UNL     1      62.728   8.267   2.719  1.00  0.00     0.021 A 
HETATM    9  C   UNL     1      61.821   9.327   2.617  1.00  0.00     0.002 A 
HETATM   10  C   UNL     1      61.791  10.333   3.579  1.00  0.00     0.002 A 
ENDROOT
BRANCH   4  11
HETATM   11  C   UNL     1      66.304   7.495   6.537  1.00  0.00     0.229 C 
BRANCH  11  12
HETATM   12  O   UNL     1      66.926   8.610   7.176  1.00  0.00    -0.394 OA
HETATM   13  H   UNL     1      67.277   9.214   6.503  1.00  0.00     0.209 HD
ENDBRANCH  11  12
ENDBRANCH   4  11
TORSDOF 2
ENDMDL
