MODEL 1
REMARK VINA RESULT:      -6.3      0.000      0.000
REMARK  2 active torsions:
REMARK  status: ('A' for Active; 'I' for Inactive)
REMARK    1  A    between atoms: C_4  and  C_7 
REMARK    2  A    between atoms: C_7  and  N_9 
ROOT
HETATM    1  N   UNL     1      79.967  10.910  20.627  1.00  0.00    -0.300 N 
ATOM      2  HN  UNL     1      80.825  10.385  20.797  1.00  0.00     0.187 HD
HETATM    3  N   UNL     1      79.074  10.744  19.633  1.00  0.00    -0.296 N 
HETATM    4  C   UNL     1      79.463  11.928  21.343  1.00  0.00     0.064 A 
HETATM    5  C   UNL     1      78.255  12.424  20.780  1.00  0.00     0.018 A 
HETATM    6  C   UNL     1      78.025  11.629  19.660  1.00  0.00     0.062 A 
HETATM    7  C   UNL     1      79.260   9.667  18.689  1.00  0.00     0.178 C 
HETATM    8  C   UNL     1      77.326  13.427  21.113  1.00  0.00     0.016 A 
HETATM    9  C   UNL     1      76.904  11.795  18.837  1.00  0.00     0.032 A 
HETATM   10  C   UNL     1      76.198  13.605  20.303  1.00  0.00     0.001 A 
HETATM   11  C   UNL     1      75.995  12.802  19.181  1.00  0.00     0.002 A 
ENDROOT
BRANCH   4  12
HETATM   12  C   UNL     1      80.147  12.383  22.597  1.00  0.00     0.291 C 
BRANCH  12  13
HETATM   13  N   UNL     1      81.613  12.413  22.446  1.00  0.00    -0.074 N 
HETATM   14  C   UNL     1      82.172  13.706  22.827  1.00  0.00     0.267 C 
HETATM   15  H   UNL     1      81.847  12.226  21.471  1.00  0.00     0.277 HD
HETATM   16  H   UNL     1      82.010  11.702  23.061  1.00  0.00     0.277 HD
ENDBRANCH  12  13
ENDBRANCH   4  12
TORSDOF 2
ENDMDL
MODEL 2
REMARK VINA RESULT:      -5.7      3.664      5.721
REMARK  2 active torsions:
REMARK  status: ('A' for Active; 'I' for Inactive)
REMARK    1  A    between atoms: C_4  and  C_7 
REMARK    2  A    between atoms: C_7  and  N_9 
ROOT
HETATM    1  N   UNL     1      77.079   8.338  18.452  1.00  0.00    -0.300 N 
ATOM      2  HN  UNL     1      76.935   8.131  19.441  1.00  0.00     0.187 HD
HETATM    3  N   UNL     1      76.954   7.505  17.402  1.00  0.00    -0.296 N 
HETATM    4  C   UNL     1      77.439   9.505  17.894  1.00  0.00     0.064 A 
HETATM    5  C   UNL     1      77.565   9.399  16.481  1.00  0.00     0.018 A 
HETATM    6  C   UNL     1      77.242   8.076  16.188  1.00  0.00     0.062 A 
HETATM    7  C   UNL     1      76.502   6.152  17.624  1.00  0.00     0.178 C 
HETATM    8  C   UNL     1      77.883  10.278  15.429  1.00  0.00     0.016 A 
HETATM    9  C   UNL     1      77.231   7.577  14.879  1.00  0.00     0.032 A 
HETATM   10  C   UNL     1      77.875   9.796  14.115  1.00  0.00     0.001 A 
HETATM   11  C   UNL     1      77.557   8.466  13.848  1.00  0.00     0.002 A 
ENDROOT
BRANCH   4  12
HETATM   12  C   UNL     1      77.617  10.728  18.742  1.00  0.00     0.291 C 
BRANCH  12  13
HETATM   13  N   UNL     1      76.543  11.713  18.521  1.00  0.00    -0.074 N 
HETATM   14  C   UNL     1      76.880  13.018  19.084  1.00  0.00     0.267 C 
HETATM   15  H   UNL     1      75.689  11.374  18.962  1.00  0.00     0.277 HD
HETATM   16  H   UNL     1      76.418  11.825  17.514  1.00  0.00     0.277 HD
ENDBRANCH  12  13
ENDBRANCH   4  12
TORSDOF 2
ENDMDL
MODEL 3
REMARK VINA RESULT:      -5.1      8.500     10.916
REMARK  2 active torsions:
REMARK  status: ('A' for Active; 'I' for Inactive)
REMARK    1  A    between atoms: C_4  and  C_7 
REMARK    2  A    between atoms: C_7  and  N_9 
ROOT
HETATM    1  N   UNL     1      77.329   3.313  18.222  1.00  0.00    -0.300 N 
ATOM      2  HN  UNL     1      77.962   4.051  18.531  1.00  0.00     0.187 HD
HETATM    3  N   UNL     1      77.381   1.999  18.512  1.00  0.00    -0.296 N 
HETATM    4  C   UNL     1      76.250   3.424  17.431  1.00  0.00     0.064 A 
HETATM    5  C   UNL     1      75.631   2.165  17.200  1.00  0.00     0.018 A 
HETATM    6  C   UNL     1      76.394   1.250  17.921  1.00  0.00     0.062 A 
HETATM    7  C   UNL     1      78.395   1.514  19.417  1.00  0.00     0.178 C 
HETATM    8  C   UNL     1      74.501   1.712  16.494  1.00  0.00     0.016 A 
HETATM    9  C   UNL     1      76.088  -0.117  17.963  1.00  0.00     0.032 A 
HETATM   10  C   UNL     1      74.180   0.350  16.527  1.00  0.00     0.001 A 
HETATM   11  C   UNL     1      74.965  -0.548  17.248  1.00  0.00     0.002 A 
ENDROOT
BRANCH   4  12
HETATM   12  C   UNL     1      75.808   4.769  16.938  1.00  0.00     0.291 C 
BRANCH  12  13
HETATM   13  N   UNL     1      75.992   5.817  17.958  1.00  0.00    -0.074 N 
HETATM   14  C   UNL     1      76.889   6.873  17.496  1.00  0.00     0.267 C 
HETATM   15  H   UNL     1      76.386   5.394  18.798  1.00  0.00     0.277 HD
HETATM   16  H   UNL     1      75.082   6.237  18.151  1.00  0.00     0.277 HD
ENDBRANCH  12  13
ENDBRANCH   4  12
TORSDOF 2
ENDMDL
MODEL 4
REMARK VINA RESULT:      -4.9      8.939     11.182
REMARK  2 active torsions:
REMARK  status: ('A' for Active; 'I' for Inactive)
REMARK    1  A    between atoms: C_4  and  C_7 
REMARK    2  A    between atoms: C_7  and  N_9 
ROOT
HETATM    1  N   UNL     1      77.779   3.041  18.884  1.00  0.00    -0.300 N 
ATOM      2  HN  UNL     1      78.458   3.595  19.405  1.00  0.00     0.187 HD
HETATM    3  N   UNL     1      76.774   3.478  18.101  1.00  0.00    -0.296 N 
HETATM    4  C   UNL     1      77.678   1.703  18.817  1.00  0.00     0.064 A 
HETATM    5  C   UNL     1      76.584   1.295  18.005  1.00  0.00     0.018 A 
HETATM    6  C   UNL     1      76.010   2.480  17.550  1.00  0.00     0.062 A 
HETATM    7  C   UNL     1      76.618   4.895  17.878  1.00  0.00     0.178 C 
HETATM    8  C   UNL     1      76.045   0.065  17.586  1.00  0.00     0.016 A 
HETATM    9  C   UNL     1      74.902   2.498  16.694  1.00  0.00     0.032 A 
HETATM   10  C   UNL     1      74.939   0.065  16.728  1.00  0.00     0.001 A 
HETATM   11  C   UNL     1      74.376   1.264  16.294  1.00  0.00     0.002 A 
ENDROOT
BRANCH   4  12
HETATM   12  C   UNL     1      78.678   0.833  19.517  1.00  0.00     0.291 C 
BRANCH  12  13
HETATM   13  N   UNL     1      78.425   0.760  20.967  1.00  0.00    -0.074 N 
HETATM   14  C   UNL     1      79.349  -0.153  21.634  1.00  0.00     0.267 C 
HETATM   15  H   UNL     1      77.471   0.433  21.119  1.00  0.00     0.277 HD
HETATM   16  H   UNL     1      78.561   1.692  21.360  1.00  0.00     0.277 HD
ENDBRANCH  12  13
ENDBRANCH   4  12
TORSDOF 2
ENDMDL
MODEL 5
REMARK VINA RESULT:      -4.9     20.654     22.969
REMARK  2 active torsions:
REMARK  status: ('A' for Active; 'I' for Inactive)
REMARK    1  A    between atoms: C_4  and  C_7 
REMARK    2  A    between atoms: C_7  and  N_9 
ROOT
HETATM    1  N   UNL     1      63.478   9.337   5.688  1.00  0.00    -0.300 N 
ATOM      2  HN  UNL     1      63.762   9.528   6.649  1.00  0.00     0.187 HD
HETATM    3  N   UNL     1      62.819  10.148   4.840  1.00  0.00    -0.296 N 
HETATM    4  C   UNL     1      63.673   8.217   4.973  1.00  0.00     0.064 A 
HETATM    5  C   UNL     1      63.110   8.316   3.671  1.00  0.00     0.018 A 
HETATM    6  C   UNL     1      62.556   9.593   3.613  1.00  0.00     0.062 A 
HETATM    7  C   UNL     1      62.497  11.493   5.255  1.00  0.00     0.178 C 
HETATM    8  C   UNL     1      63.039   7.484   2.539  1.00  0.00     0.016 A 
HETATM    9  C   UNL     1      61.916  10.082   2.468  1.00  0.00     0.032 A 
HETATM   10  C   UNL     1      62.405   7.959   1.385  1.00  0.00     0.001 A 
HETATM   11  C   UNL     1      61.850   9.237   1.354  1.00  0.00     0.002 A 
ENDROOT
BRANCH   4  12
HETATM   12  C   UNL     1      64.446   7.072   5.555  1.00  0.00     0.291 C 
BRANCH  12  13
HETATM   13  N   UNL     1      65.180   7.465   6.772  1.00  0.00    -0.074 N 
HETATM   14  C   UNL     1      66.557   7.849   6.475  1.00  0.00     0.267 C 
HETATM   15  H   UNL     1      65.189   6.677   7.420  1.00  0.00     0.277 HD
HETATM   16  H   UNL     1      64.708   8.272   7.181  1.00  0.00     0.277 HD
ENDBRANCH  12  13
ENDBRANCH   4  12
TORSDOF 2
ENDMDL
MODEL 6
REMARK VINA RESULT:      -4.9     21.295     23.518
REMARK  2 active torsions:
REMARK  status: ('A' for Active; 'I' for Inactive)
REMARK    1  A    between atoms: C_4  and  C_7 
REMARK    2  A    between atoms: C_7  and  N_9 
ROOT
HETATM    1  N   UNL     1      63.271   6.840   3.484  1.00  0.00    -0.300 N 
ATOM      2  HN  UNL     1      63.582   5.881   3.645  1.00  0.00     0.187 HD
HETATM    3  N   UNL     1      62.960   7.427   2.313  1.00  0.00    -0.296 N 
HETATM    4  C   UNL     1      63.077   7.811   4.391  1.00  0.00     0.064 A 
HETATM    5  C   UNL     1      62.664   9.028   3.782  1.00  0.00     0.018 A 
HETATM    6  C   UNL     1      62.596   8.746   2.420  1.00  0.00     0.062 A 
HETATM    7  C   UNL     1      62.988   6.644   1.101  1.00  0.00     0.178 C 
HETATM    8  C   UNL     1      62.312  10.313   4.236  1.00  0.00     0.016 A 
HETATM    9  C   UNL     1      62.201   9.700   1.473  1.00  0.00     0.032 A 
HETATM   10  C   UNL     1      61.913  11.277   3.304  1.00  0.00     0.001 A 
HETATM   11  C   UNL     1      61.862  10.973   1.944  1.00  0.00     0.002 A 
ENDROOT
BRANCH   4  12
HETATM   12  C   UNL     1      63.259   7.530   5.852  1.00  0.00     0.291 C 
BRANCH  12  13
HETATM   13  N   UNL     1      64.632   7.823   6.303  1.00  0.00    -0.074 N 
HETATM   14  C   UNL     1      65.238   6.677   6.973  1.00  0.00     0.267 C 
HETATM   15  H   UNL     1      64.604   8.609   6.951  1.00  0.00     0.277 HD
HETATM   16  H   UNL     1      65.195   8.044   5.481  1.00  0.00     0.277 HD
ENDBRANCH  12  13
ENDBRANCH   4  12
TORSDOF 2
ENDMDL
MODEL 7
REMARK VINA RESULT:      -4.6      9.342     11.788
REMARK  2 active torsions:
REMARK  status: ('A' for Active; 'I' for Inactive)
REMARK    1  A    between atoms: C_4  and  C_7 
REMARK    2  A    between atoms: C_7  and  N_9 
ROOT
HETATM    1  N   UNL     1      76.214   0.537  18.505  1.00  0.00    -0.300 N 
ATOM      2  HN  UNL     1      76.383  -0.396  18.882  1.00  0.00     0.187 HD
HETATM    3  N   UNL     1      76.998   1.627  18.604  1.00  0.00    -0.296 N 
HETATM    4  C   UNL     1      75.159   0.965  17.794  1.00  0.00     0.064 A 
HETATM    5  C   UNL     1      75.268   2.343  17.464  1.00  0.00     0.018 A 
HETATM    6  C   UNL     1      76.483   2.751  18.008  1.00  0.00     0.062 A 
HETATM    7  C   UNL     1      78.281   1.518  19.258  1.00  0.00     0.178 C 
HETATM    8  C   UNL     1      74.492   3.271  16.743  1.00  0.00     0.016 A 
HETATM    9  C   UNL     1      76.965   4.060  17.877  1.00  0.00     0.032 A 
HETATM   10  C   UNL     1      74.960   4.582  16.600  1.00  0.00     0.001 A 
HETATM   11  C   UNL     1      76.176   4.968  17.163  1.00  0.00     0.002 A 
ENDROOT
BRANCH   4  12
HETATM   12  C   UNL     1      74.069   0.011  17.408  1.00  0.00     0.291 C 
BRANCH  12  13
HETATM   13  N   UNL     1      73.499  -0.678  18.580  1.00  0.00    -0.074 N 
HETATM   14  C   UNL     1      73.511  -2.129  18.417  1.00  0.00     0.267 C 
HETATM   15  H   UNL     1      72.535  -0.368  18.708  1.00  0.00     0.277 HD
HETATM   16  H   UNL     1      74.070  -0.446  19.394  1.00  0.00     0.277 HD
ENDBRANCH  12  13
ENDBRANCH   4  12
TORSDOF 2
ENDMDL
MODEL 8
REMARK VINA RESULT:      -4.5      9.435     11.925
REMARK  2 active torsions:
REMARK  status: ('A' for Active; 'I' for Inactive)
REMARK    1  A    between atoms: C_4  and  C_7 
REMARK    2  A    between atoms: C_7  and  N_9 
ROOT
HETATM    1  N   UNL     1      77.996   2.381  19.580  1.00  0.00    -0.300 N 
ATOM      2  HN  UNL     1      78.181   3.168  20.203  1.00  0.00     0.187 HD
HETATM    3  N   UNL     1      78.307   1.084  19.765  1.00  0.00    -0.296 N 
HETATM    4  C   UNL     1      77.384   2.397  18.386  1.00  0.00     0.064 A 
HETATM    5  C   UNL     1      77.332   1.102  17.801  1.00  0.00     0.018 A 
HETATM    6  C   UNL     1      77.946   0.262  18.727  1.00  0.00     0.062 A 
HETATM    7  C   UNL     1      78.927   0.675  21.003  1.00  0.00     0.178 C 
HETATM    8  C   UNL     1      76.809   0.552  16.616  1.00  0.00     0.016 A 
HETATM    9  C   UNL     1      78.075  -1.117  18.521  1.00  0.00     0.032 A 
HETATM   10  C   UNL     1      76.928  -0.826  16.396  1.00  0.00     0.001 A 
HETATM   11  C   UNL     1      77.555  -1.644  17.334  1.00  0.00     0.002 A 
ENDROOT
BRANCH   4  12
HETATM   12  C   UNL     1      76.817   3.674  17.841  1.00  0.00     0.291 C 
BRANCH  12  13
HETATM   13  N   UNL     1      75.379   3.555  17.542  1.00  0.00    -0.074 N 
HETATM   14  C   UNL     1      74.938   4.565  16.585  1.00  0.00     0.267 C 
HETATM   15  H   UNL     1      74.852   3.668  18.409  1.00  0.00     0.277 HD
HETATM   16  H   UNL     1      75.215   2.635  17.131  1.00  0.00     0.277 HD
ENDBRANCH  12  13
ENDBRANCH   4  12
TORSDOF 2
ENDMDL
MODEL 9
REMARK VINA RESULT:      -4.4     16.749     19.070
REMARK  2 active torsions:
REMARK  status: ('A' for Active; 'I' for Inactive)
REMARK    1  A    between atoms: C_4  and  C_7 
REMARK    2  A    between atoms: C_7  and  N_9 
ROOT
HETATM    1  N   UNL     1      68.354   5.637   8.993  1.00  0.00    -0.300 N 
ATOM      2  HN  UNL     1      68.464   6.224   9.821  1.00  0.00     0.187 HD
HETATM    3  N   UNL     1      68.934   4.450   8.735  1.00  0.00    -0.296 N 
HETATM    4  C   UNL     1      67.599   5.868   7.908  1.00  0.00     0.064 A 
HETATM    5  C   UNL     1      67.724   4.828   6.946  1.00  0.00     0.018 A 
HETATM    6  C   UNL     1      68.605   3.913   7.515  1.00  0.00     0.062 A 
HETATM    7  C   UNL     1      69.779   3.843   9.736  1.00  0.00     0.178 C 
HETATM    8  C   UNL     1      67.166   4.551   5.684  1.00  0.00     0.016 A 
HETATM    9  C   UNL     1      68.973   2.723   6.873  1.00  0.00     0.032 A 
HETATM   10  C   UNL     1      67.520   3.366   5.030  1.00  0.00     0.001 A 
HETATM   11  C   UNL     1      68.413   2.470   5.616  1.00  0.00     0.002 A 
ENDROOT
BRANCH   4  12
HETATM   12  C   UNL     1      66.728   7.086   7.836  1.00  0.00     0.291 C 
BRANCH  12  13
HETATM   13  N   UNL     1      67.158   8.008   6.768  1.00  0.00    -0.074 N 
HETATM   14  C   UNL     1      66.149   8.131   5.720  1.00  0.00     0.267 C 
HETATM   15  H   UNL     1      68.021   7.654   6.356  1.00  0.00     0.277 HD
HETATM   16  H   UNL     1      67.298   8.930   7.183  1.00  0.00     0.277 HD
ENDBRANCH  12  13
ENDBRANCH   4  12
TORSDOF 2
ENDMDL
