MODEL 1
REMARK VINA RESULT:      -6.0      0.000      0.000
REMARK  1 active torsions:
REMARK  status: ('A' for Active; 'I' for Inactive)
REMARK    1  A    between atoms: C_1  and  C_4 
ROOT
HETATM    1  C   UNL     1      77.497  10.098  17.806  1.00  0.00     0.153 A 
HETATM    2  O   UNL     1      76.788  11.263  17.657  1.00  0.00    -0.303 OA
HETATM    3  C   UNL     1      78.092  10.076  19.054  1.00  0.00     0.058 A 
HETATM    4  C   UNL     1      76.943  11.981  18.805  1.00  0.00     0.086 A 
HETATM    5  C   UNL     1      77.745  11.288  19.703  1.00  0.00     0.001 A 
HETATM    6  C   UNL     1      76.389  13.232  19.061  1.00  0.00     0.038 A 
HETATM    7  C   UNL     1      78.025  11.875  20.950  1.00  0.00     0.014 A 
HETATM    8  C   UNL     1      77.485  13.136  21.234  1.00  0.00     0.001 A 
HETATM    9  C   UNL     1      76.681  13.803  20.306  1.00  0.00     0.003 A 
ENDROOT
BRANCH   1  10
HETATM   10  C   UNL     1      77.539   9.127  16.746  1.00  0.00     0.234 C 
HETATM   11  O   UNL     1      77.853   9.319  15.579  1.00  0.00    -0.642 OA
HETATM   12  O   UNL     1      77.171   7.892  17.154  1.00  0.00    -0.642 OA
ENDBRANCH   1  10
TORSDOF 1
ENDMDL
MODEL 2
REMARK VINA RESULT:      -5.3     19.225     20.704
REMARK  1 active torsions:
REMARK  status: ('A' for Active; 'I' for Inactive)
REMARK    1  A    between atoms: C_1  and  C_4 
ROOT
HETATM    1  C   UNL     1      63.235   7.838   5.329  1.00  0.00     0.153 A 
HETATM    2  O   UNL     1      62.974   9.154   5.613  1.00  0.00    -0.303 OA
HETATM    3  C   UNL     1      63.024   7.606   3.982  1.00  0.00     0.058 A 
HETATM    4  C   UNL     1      62.588   9.751   4.451  1.00  0.00     0.086 A 
HETATM    5  C   UNL     1      62.601   8.831   3.409  1.00  0.00     0.001 A 
HETATM    6  C   UNL     1      62.226  11.087   4.304  1.00  0.00     0.038 A 
HETATM    7  C   UNL     1      62.225   9.262   2.124  1.00  0.00     0.014 A 
HETATM    8  C   UNL     1      61.851  10.601   1.947  1.00  0.00     0.001 A 
HETATM    9  C   UNL     1      61.851  11.497   3.019  1.00  0.00     0.003 A 
ENDROOT
BRANCH   1  10
HETATM   10  C   UNL     1      63.656   6.935   6.366  1.00  0.00     0.234 C 
HETATM   11  O   UNL     1      64.464   7.158   7.257  1.00  0.00    -0.642 OA
HETATM   12  O   UNL     1      63.059   5.726   6.281  1.00  0.00    -0.642 OA
ENDBRANCH   1  10
TORSDOF 1
ENDMDL
MODEL 3
REMARK VINA RESULT:      -5.3     17.564     19.379
REMARK  1 active torsions:
REMARK  status: ('A' for Active; 'I' for Inactive)
REMARK    1  A    between atoms: C_1  and  C_4 
ROOT
HETATM    1  C   UNL     1      63.771   9.514   5.018  1.00  0.00     0.153 A 
HETATM    2  O   UNL     1      64.980   9.398   5.655  1.00  0.00    -0.303 OA
HETATM    3  C   UNL     1      63.594   8.439   4.166  1.00  0.00     0.058 A 
HETATM    4  C   UNL     1      65.571   8.258   5.200  1.00  0.00     0.086 A 
HETATM    5  C   UNL     1      64.751   7.627   4.272  1.00  0.00     0.001 A 
HETATM    6  C   UNL     1      66.817   7.776   5.592  1.00  0.00     0.038 A 
HETATM    7  C   UNL     1      65.195   6.430   3.683  1.00  0.00     0.014 A 
HETATM    8  C   UNL     1      66.448   5.924   4.054  1.00  0.00     0.001 A 
HETATM    9  C   UNL     1      67.245   6.586   4.992  1.00  0.00     0.003 A 
ENDROOT
BRANCH   1  10
HETATM   10  C   UNL     1      62.910  10.636   5.281  1.00  0.00     0.234 C 
HETATM   11  O   UNL     1      62.010  11.060   4.568  1.00  0.00    -0.642 OA
HETATM   12  O   UNL     1      63.187  11.243   6.456  1.00  0.00    -0.642 OA
ENDBRANCH   1  10
TORSDOF 1
ENDMDL
MODEL 4
REMARK VINA RESULT:      -5.1     17.922     19.551
REMARK  1 active torsions:
REMARK  status: ('A' for Active; 'I' for Inactive)
REMARK    1  A    between atoms: C_1  and  C_4 
ROOT
HETATM    1  C   UNL     1      65.321   8.274   5.452  1.00  0.00     0.153 A 
HETATM    2  O   UNL     1      64.609   9.426   5.667  1.00  0.00    -0.303 OA
HETATM    3  C   UNL     1      64.762   7.576   4.397  1.00  0.00     0.058 A 
HETATM    4  C   UNL     1      63.595   9.452   4.757  1.00  0.00     0.086 A 
HETATM    5  C   UNL     1      63.646   8.324   3.947  1.00  0.00     0.001 A 
HETATM    6  C   UNL     1      62.633  10.452   4.640  1.00  0.00     0.038 A 
HETATM    7  C   UNL     1      62.672   8.169   2.945  1.00  0.00     0.014 A 
HETATM    8  C   UNL     1      61.687   9.157   2.806  1.00  0.00     0.001 A 
HETATM    9  C   UNL     1      61.669  10.278   3.640  1.00  0.00     0.003 A 
ENDROOT
BRANCH   1  10
HETATM   10  C   UNL     1      66.458   7.953   6.272  1.00  0.00     0.234 C 
HETATM   11  O   UNL     1      67.084   6.902   6.290  1.00  0.00    -0.642 OA
HETATM   12  O   UNL     1      66.813   8.967   7.093  1.00  0.00    -0.642 OA
ENDBRANCH   1  10
TORSDOF 1
ENDMDL
MODEL 5
REMARK VINA RESULT:      -5.0     15.106     17.041
REMARK  1 active torsions:
REMARK  status: ('A' for Active; 'I' for Inactive)
REMARK    1  A    between atoms: C_1  and  C_4 
ROOT
HETATM    1  C   UNL     1      65.776   7.488   5.926  1.00  0.00     0.153 A 
HETATM    2  O   UNL     1      66.003   7.661   7.268  1.00  0.00    -0.303 OA
HETATM    3  C   UNL     1      66.481   6.386   5.477  1.00  0.00     0.058 A 
HETATM    4  C   UNL     1      66.859   6.678   7.664  1.00  0.00     0.086 A 
HETATM    5  C   UNL     1      67.186   5.861   6.589  1.00  0.00     0.001 A 
HETATM    6  C   UNL     1      67.350   6.499   8.955  1.00  0.00     0.038 A 
HETATM    7  C   UNL     1      68.067   4.786   6.801  1.00  0.00     0.014 A 
HETATM    8  C   UNL     1      68.582   4.584   8.089  1.00  0.00     0.001 A 
HETATM    9  C   UNL     1      68.229   5.426   9.147  1.00  0.00     0.003 A 
ENDROOT
BRANCH   1  10
HETATM   10  C   UNL     1      64.914   8.389   5.208  1.00  0.00     0.234 C 
HETATM   11  O   UNL     1      64.262   8.143   4.203  1.00  0.00    -0.642 OA
HETATM   12  O   UNL     1      64.877   9.624   5.756  1.00  0.00    -0.642 OA
ENDBRANCH   1  10
TORSDOF 1
ENDMDL
MODEL 6
REMARK VINA RESULT:      -4.9     14.573     16.173
REMARK  1 active torsions:
REMARK  status: ('A' for Active; 'I' for Inactive)
REMARK    1  A    between atoms: C_1  and  C_4 
ROOT
HETATM    1  C   UNL     1      66.286   5.603   7.575  1.00  0.00     0.153 A 
HETATM    2  O   UNL     1      66.314   4.420   8.269  1.00  0.00    -0.303 OA
HETATM    3  C   UNL     1      67.556   6.151   7.545  1.00  0.00     0.058 A 
HETATM    4  C   UNL     1      67.596   4.226   8.687  1.00  0.00     0.086 A 
HETATM    5  C   UNL     1      68.406   5.273   8.264  1.00  0.00     0.001 A 
HETATM    6  C   UNL     1      68.052   3.142   9.433  1.00  0.00     0.038 A 
HETATM    7  C   UNL     1      69.770   5.252   8.605  1.00  0.00     0.014 A 
HETATM    8  C   UNL     1      70.256   4.176   9.361  1.00  0.00     0.001 A 
HETATM    9  C   UNL     1      69.412   3.140   9.767  1.00  0.00     0.003 A 
ENDROOT
BRANCH   1  10
HETATM   10  C   UNL     1      65.056   6.093   7.014  1.00  0.00     0.234 C 
HETATM   11  O   UNL     1      64.499   7.153   7.266  1.00  0.00    -0.642 OA
HETATM   12  O   UNL     1      64.508   5.234   6.126  1.00  0.00    -0.642 OA
ENDBRANCH   1  10
TORSDOF 1
ENDMDL
MODEL 7
REMARK VINA RESULT:      -4.8     15.092     16.597
REMARK  1 active torsions:
REMARK  status: ('A' for Active; 'I' for Inactive)
REMARK    1  A    between atoms: C_1  and  C_4 
ROOT
HETATM    1  C   UNL     1      66.374   6.944   6.698  1.00  0.00     0.153 A 
HETATM    2  O   UNL     1      66.828   5.797   6.097  1.00  0.00    -0.303 OA
HETATM    3  C   UNL     1      66.902   7.037   7.973  1.00  0.00     0.058 A 
HETATM    4  C   UNL     1      67.632   5.161   6.994  1.00  0.00     0.086 A 
HETATM    5  C   UNL     1      67.709   5.889   8.175  1.00  0.00     0.001 A 
HETATM    6  C   UNL     1      68.290   3.953   6.781  1.00  0.00     0.038 A 
HETATM    7  C   UNL     1      68.493   5.386   9.228  1.00  0.00     0.014 A 
HETATM    8  C   UNL     1      69.164   4.169   9.044  1.00  0.00     0.001 A 
HETATM    9  C   UNL     1      69.063   3.465   7.841  1.00  0.00     0.003 A 
ENDROOT
BRANCH   1  10
HETATM   10  C   UNL     1      65.484   7.833   6.001  1.00  0.00     0.234 C 
HETATM   11  O   UNL     1      65.779   8.643   5.133  1.00  0.00    -0.642 OA
HETATM   12  O   UNL     1      64.200   7.710   6.405  1.00  0.00    -0.642 OA
ENDBRANCH   1  10
TORSDOF 1
ENDMDL
MODEL 8
REMARK VINA RESULT:      -4.8     14.717     16.039
REMARK  1 active torsions:
REMARK  status: ('A' for Active; 'I' for Inactive)
REMARK    1  A    between atoms: C_1  and  C_4 
ROOT
HETATM    1  C   UNL     1      66.971   6.221   7.799  1.00  0.00     0.153 A 
HETATM    2  O   UNL     1      67.097   5.057   7.083  1.00  0.00    -0.303 OA
HETATM    3  C   UNL     1      67.727   6.136   8.954  1.00  0.00     0.058 A 
HETATM    4  C   UNL     1      67.921   4.234   7.790  1.00  0.00     0.086 A 
HETATM    5  C   UNL     1      68.338   4.857   8.960  1.00  0.00     0.001 A 
HETATM    6  C   UNL     1      68.303   2.949   7.414  1.00  0.00     0.038 A 
HETATM    7  C   UNL     1      69.195   4.158   9.828  1.00  0.00     0.014 A 
HETATM    8  C   UNL     1      69.592   2.860   9.479  1.00  0.00     0.001 A 
HETATM    9  C   UNL     1      69.153   2.267   8.292  1.00  0.00     0.003 A 
ENDROOT
BRANCH   1  10
HETATM   10  C   UNL     1      66.144   7.293   7.313  1.00  0.00     0.234 C 
HETATM   11  O   UNL     1      66.517   8.357   6.839  1.00  0.00    -0.642 OA
HETATM   12  O   UNL     1      64.824   7.029   7.432  1.00  0.00    -0.642 OA
ENDBRANCH   1  10
TORSDOF 1
ENDMDL
MODEL 9
REMARK VINA RESULT:      -4.7     14.463     15.840
REMARK  1 active torsions:
REMARK  status: ('A' for Active; 'I' for Inactive)
REMARK    1  A    between atoms: C_1  and  C_4 
ROOT
HETATM    1  C   UNL     1      68.518   2.931   9.687  1.00  0.00     0.153 A 
HETATM    2  O   UNL     1      67.300   2.842   9.061  1.00  0.00    -0.303 OA
HETATM    3  C   UNL     1      69.171   4.074   9.265  1.00  0.00     0.058 A 
HETATM    4  C   UNL     1      67.189   3.921   8.237  1.00  0.00     0.086 A 
HETATM    5  C   UNL     1      68.325   4.716   8.326  1.00  0.00     0.001 A 
HETATM    6  C   UNL     1      66.102   4.205   7.413  1.00  0.00     0.038 A 
HETATM    7  C   UNL     1      68.398   5.880   7.540  1.00  0.00     0.014 A 
HETATM    8  C   UNL     1      67.322   6.189   6.697  1.00  0.00     0.001 A 
HETATM    9  C   UNL     1      66.194   5.366   6.635  1.00  0.00     0.003 A 
ENDROOT
BRANCH   1  10
HETATM   10  C   UNL     1      68.936   1.919  10.619  1.00  0.00     0.234 C 
HETATM   11  O   UNL     1      70.070   1.721  11.036  1.00  0.00    -0.642 OA
HETATM   12  O   UNL     1      67.916   1.134  11.032  1.00  0.00    -0.642 OA
ENDBRANCH   1  10
TORSDOF 1
ENDMDL
