MODEL 1
REMARK VINA RESULT:      -6.0      0.000      0.000
REMARK  2 active torsions:
REMARK  status: ('A' for Active; 'I' for Inactive)
REMARK    1  A    between atoms: C_8  and  C_11 
REMARK    2  A    between atoms: O_10  and  C_11 
ROOT
HETATM    1  C   UNL     1      77.322   8.064  15.127  1.00  0.00     0.000 A 
HETATM    2  C   UNL     1      77.475   9.019  16.124  1.00  0.00     0.085 A 
HETATM    3  C   UNL     1      77.922  10.029  14.238  1.00  0.00     0.143 A 
HETATM    4  O   UNL     1      77.837  10.214  15.581  1.00  0.00    -0.322 OA
HETATM    5  C   UNL     1      77.613   8.728  13.906  1.00  0.00     0.039 A 
HETATM    6  C   UNL     1      76.949   6.759  15.500  1.00  0.00     0.023 A 
HETATM    7  C   UNL     1      77.283   8.770  17.480  1.00  0.00     0.039 A 
HETATM    8  C   UNL     1      76.748   6.462  16.863  1.00  0.00    -0.034 A 
HETATM    9  C   UNL     1      76.920   7.464  17.832  1.00  0.00     0.012 A 
ENDROOT
BRANCH   8  10
HETATM   10  C   UNL     1      76.374   5.058  17.269  1.00  0.00     0.202 C 
BRANCH  10  11
HETATM   11  O   UNL     1      76.666   4.846  18.642  1.00  0.00    -0.396 OA
HETATM   12  H   UNL     1      75.875   4.507  19.092  1.00  0.00     0.209 HD
ENDBRANCH  10  11
ENDBRANCH   8  10
TORSDOF 2
ENDMDL
MODEL 2
REMARK VINA RESULT:      -5.8      0.911      4.228
REMARK  2 active torsions:
REMARK  status: ('A' for Active; 'I' for Inactive)
REMARK    1  A    between atoms: C_8  and  C_11 
REMARK    2  A    between atoms: O_10  and  C_11 
ROOT
HETATM    1  C   UNL     1      76.933   6.972  16.117  1.00  0.00     0.000 A 
HETATM    2  C   UNL     1      77.019   7.326  17.457  1.00  0.00     0.085 A 
HETATM    3  C   UNL     1      76.431   5.221  17.418  1.00  0.00     0.143 A 
HETATM    4  O   UNL     1      76.715   6.259  18.247  1.00  0.00    -0.322 OA
HETATM    5  C   UNL     1      76.553   5.605  16.101  1.00  0.00     0.039 A 
HETATM    6  C   UNL     1      77.213   7.952  15.146  1.00  0.00     0.023 A 
HETATM    7  C   UNL     1      77.365   8.596  17.909  1.00  0.00     0.039 A 
HETATM    8  C   UNL     1      77.563   9.253  15.559  1.00  0.00    -0.034 A 
HETATM    9  C   UNL     1      77.631   9.559  16.928  1.00  0.00     0.012 A 
ENDROOT
BRANCH   8  10
HETATM   10  C   UNL     1      77.838  10.312  14.521  1.00  0.00     0.202 C 
BRANCH  10  11
HETATM   11  O   UNL     1      77.447  11.590  15.003  1.00  0.00    -0.396 OA
HETATM   12  H   UNL     1      76.664  11.893  14.518  1.00  0.00     0.209 HD
ENDBRANCH  10  11
ENDBRANCH   8  10
TORSDOF 2
ENDMDL
MODEL 3
REMARK VINA RESULT:      -5.3      5.688      7.286
REMARK  2 active torsions:
REMARK  status: ('A' for Active; 'I' for Inactive)
REMARK    1  A    between atoms: C_8  and  C_11 
REMARK    2  A    between atoms: O_10  and  C_11 
ROOT
HETATM    1  C   UNL     1      77.586  12.849  20.638  1.00  0.00     0.000 A 
HETATM    2  C   UNL     1      77.943  11.864  19.727  1.00  0.00     0.085 A 
HETATM    3  C   UNL     1      76.078  12.732  18.987  1.00  0.00     0.143 A 
HETATM    4  O   UNL     1      77.026  11.796  18.722  1.00  0.00    -0.322 OA
HETATM    5  C   UNL     1      76.375  13.408  20.150  1.00  0.00     0.039 A 
HETATM    6  C   UNL     1      78.418  13.066  21.752  1.00  0.00     0.023 A 
HETATM    7  C   UNL     1      79.079  11.069  19.842  1.00  0.00     0.039 A 
HETATM    8  C   UNL     1      79.577  12.280  21.911  1.00  0.00    -0.034 A 
HETATM    9  C   UNL     1      79.891  11.294  20.962  1.00  0.00     0.012 A 
ENDROOT
BRANCH   8  10
HETATM   10  C   UNL     1      80.457  12.491  23.117  1.00  0.00     0.202 C 
BRANCH  10  11
HETATM   11  O   UNL     1      81.818  12.265  22.782  1.00  0.00    -0.396 OA
HETATM   12  H   UNL     1      82.280  11.883  23.545  1.00  0.00     0.209 HD
ENDBRANCH  10  11
ENDBRANCH   8  10
TORSDOF 2
ENDMDL
MODEL 4
REMARK VINA RESULT:      -5.3     18.359     19.446
REMARK  2 active torsions:
REMARK  status: ('A' for Active; 'I' for Inactive)
REMARK    1  A    between atoms: C_8  and  C_11 
REMARK    2  A    between atoms: O_10  and  C_11 
ROOT
HETATM    1  C   UNL     1      62.166   9.534   2.736  1.00  0.00     0.000 A 
HETATM    2  C   UNL     1      62.916   8.377   2.899  1.00  0.00     0.085 A 
HETATM    3  C   UNL     1      61.906   8.183   0.970  1.00  0.00     0.143 A 
HETATM    4  O   UNL     1      62.759   7.557   1.822  1.00  0.00    -0.322 OA
HETATM    5  C   UNL     1      61.515   9.401   1.481  1.00  0.00     0.039 A 
HETATM    6  C   UNL     1      62.202  10.506   3.754  1.00  0.00     0.023 A 
HETATM    7  C   UNL     1      63.708   8.109   4.012  1.00  0.00     0.039 A 
HETATM    8  C   UNL     1      62.987  10.274   4.902  1.00  0.00    -0.034 A 
HETATM    9  C   UNL     1      63.724   9.084   5.018  1.00  0.00     0.012 A 
ENDROOT
BRANCH   8  10
HETATM   10  C   UNL     1      63.008  11.301   6.006  1.00  0.00     0.202 C 
BRANCH  10  11
HETATM   11  O   UNL     1      64.339  11.526   6.446  1.00  0.00    -0.396 OA
HETATM   12  H   UNL     1      64.899  11.745   5.685  1.00  0.00     0.209 HD
ENDBRANCH  10  11
ENDBRANCH   8  10
TORSDOF 2
ENDMDL
MODEL 5
REMARK VINA RESULT:      -5.2      4.987      6.704
REMARK  2 active torsions:
REMARK  status: ('A' for Active; 'I' for Inactive)
REMARK    1  A    between atoms: C_8  and  C_11 
REMARK    2  A    between atoms: O_10  and  C_11 
ROOT
HETATM    1  C   UNL     1      78.649  10.942  19.716  1.00  0.00     0.000 A 
HETATM    2  C   UNL     1      77.509  11.726  19.603  1.00  0.00     0.085 A 
HETATM    3  C   UNL     1      77.348  10.187  18.059  1.00  0.00     0.143 A 
HETATM    4  O   UNL     1      76.716  11.264  18.596  1.00  0.00    -0.322 OA
HETATM    5  C   UNL     1      78.536   9.945  18.712  1.00  0.00     0.039 A 
HETATM    6  C   UNL     1      79.593  11.270  20.708  1.00  0.00     0.023 A 
HETATM    7  C   UNL     1      77.232  12.825  20.411  1.00  0.00     0.039 A 
HETATM    8  C   UNL     1      79.356  12.379  21.546  1.00  0.00    -0.034 A 
HETATM    9  C   UNL     1      78.186  13.140  21.387  1.00  0.00     0.012 A 
ENDROOT
BRANCH   8  10
HETATM   10  C   UNL     1      80.376  12.749  22.593  1.00  0.00     0.202 C 
BRANCH  10  11
HETATM   11  O   UNL     1      81.683  12.724  22.039  1.00  0.00    -0.396 OA
HETATM   12  H   UNL     1      82.012  11.812  22.025  1.00  0.00     0.209 HD
ENDBRANCH  10  11
ENDBRANCH   8  10
TORSDOF 2
ENDMDL
MODEL 6
REMARK VINA RESULT:      -5.2     18.865     19.983
REMARK  2 active torsions:
REMARK  status: ('A' for Active; 'I' for Inactive)
REMARK    1  A    between atoms: C_8  and  C_11 
REMARK    2  A    between atoms: O_10  and  C_11 
ROOT
HETATM    1  C   UNL     1      62.582   8.876   2.942  1.00  0.00     0.000 A 
HETATM    2  C   UNL     1      62.026   9.739   2.007  1.00  0.00     0.085 A 
HETATM    3  C   UNL     1      62.288   7.823   0.989  1.00  0.00     0.143 A 
HETATM    4  O   UNL     1      61.846   9.096   0.820  1.00  0.00    -0.322 OA
HETATM    5  C   UNL     1      62.747   7.634   2.274  1.00  0.00     0.039 A 
HETATM    6  C   UNL     1      62.843   9.367   4.235  1.00  0.00     0.023 A 
HETATM    7  C   UNL     1      61.708  11.070   2.263  1.00  0.00     0.039 A 
HETATM    8  C   UNL     1      62.540  10.710   4.538  1.00  0.00    -0.034 A 
HETATM    9  C   UNL     1      61.983  11.542   3.553  1.00  0.00     0.012 A 
ENDROOT
BRANCH   8  10
HETATM   10  C   UNL     1      62.843  11.247   5.914  1.00  0.00     0.202 C 
BRANCH  10  11
HETATM   11  O   UNL     1      64.246  11.304   6.125  1.00  0.00    -0.396 OA
HETATM   12  H   UNL     1      64.670  11.734   5.365  1.00  0.00     0.209 HD
ENDBRANCH  10  11
ENDBRANCH   8  10
TORSDOF 2
ENDMDL
MODEL 7
REMARK VINA RESULT:      -5.0      3.964      5.430
REMARK  2 active torsions:
REMARK  status: ('A' for Active; 'I' for Inactive)
REMARK    1  A    between atoms: C_8  and  C_11 
REMARK    2  A    between atoms: O_10  and  C_11 
ROOT
HETATM    1  C   UNL     1      77.989  11.568  20.049  1.00  0.00     0.000 A 
HETATM    2  C   UNL     1      77.219  12.595  19.522  1.00  0.00     0.085 A 
HETATM    3  C   UNL     1      78.078  13.367  21.378  1.00  0.00     0.143 A 
HETATM    4  O   UNL     1      77.276  13.691  20.331  1.00  0.00    -0.322 OA
HETATM    5  C   UNL     1      78.544  12.077  21.253  1.00  0.00     0.039 A 
HETATM    6  C   UNL     1      78.052  10.349  19.349  1.00  0.00     0.023 A 
HETATM    7  C   UNL     1      76.496  12.501  18.337  1.00  0.00     0.039 A 
HETATM    8  C   UNL     1      77.332  10.207  18.145  1.00  0.00    -0.034 A 
HETATM    9  C   UNL     1      76.564  11.278  17.657  1.00  0.00     0.012 A 
ENDROOT
BRANCH   8  10
HETATM   10  C   UNL     1      77.375   8.894  17.405  1.00  0.00     0.202 C 
BRANCH  10  11
HETATM   11  O   UNL     1      76.907   7.843  18.236  1.00  0.00    -0.396 OA
HETATM   12  H   UNL     1      77.366   7.019  18.005  1.00  0.00     0.209 HD
ENDBRANCH  10  11
ENDBRANCH   8  10
TORSDOF 2
ENDMDL
MODEL 8
REMARK VINA RESULT:      -4.9      3.621      5.253
REMARK  2 active torsions:
REMARK  status: ('A' for Active; 'I' for Inactive)
REMARK    1  A    between atoms: C_8  and  C_11 
REMARK    2  A    between atoms: O_10  and  C_11 
ROOT
HETATM    1  C   UNL     1      77.002  11.849  19.165  1.00  0.00     0.000 A 
HETATM    2  C   UNL     1      78.149  11.742  19.939  1.00  0.00     0.085 A 
HETATM    3  C   UNL     1      77.073  13.492  20.683  1.00  0.00     0.143 A 
HETATM    4  O   UNL     1      78.190  12.741  20.865  1.00  0.00    -0.322 OA
HETATM    5  C   UNL     1      76.308  12.986  19.655  1.00  0.00     0.039 A 
HETATM    6  C   UNL     1      76.787  10.899  18.149  1.00  0.00     0.023 A 
HETATM    7  C   UNL     1      79.112  10.749  19.777  1.00  0.00     0.039 A 
HETATM    8  C   UNL     1      77.739   9.878  17.946  1.00  0.00    -0.034 A 
HETATM    9  C   UNL     1      78.885   9.818  18.756  1.00  0.00     0.012 A 
ENDROOT
BRANCH   8  10
HETATM   10  C   UNL     1      77.525   8.874  16.842  1.00  0.00     0.202 C 
BRANCH  10  11
HETATM   11  O   UNL     1      77.798   9.463  15.579  1.00  0.00    -0.396 OA
HETATM   12  H   UNL     1      78.609   9.992  15.637  1.00  0.00     0.209 HD
ENDBRANCH  10  11
ENDBRANCH   8  10
TORSDOF 2
ENDMDL
MODEL 9
REMARK VINA RESULT:      -4.7      5.138      6.831
REMARK  2 active torsions:
REMARK  status: ('A' for Active; 'I' for Inactive)
REMARK    1  A    between atoms: C_8  and  C_11 
REMARK    2  A    between atoms: O_10  and  C_11 
ROOT
HETATM    1  C   UNL     1      79.428  11.780  21.134  1.00  0.00     0.000 A 
HETATM    2  C   UNL     1      78.414  12.637  21.539  1.00  0.00     0.085 A 
HETATM    3  C   UNL     1      80.082  12.975  22.911  1.00  0.00     0.143 A 
HETATM    4  O   UNL     1      78.814  13.366  22.619  1.00  0.00    -0.322 OA
HETATM    5  C   UNL     1      80.508  12.006  22.028  1.00  0.00     0.039 A 
HETATM    6  C   UNL     1      79.196  10.942  20.027  1.00  0.00     0.023 A 
HETATM    7  C   UNL     1      77.171  12.724  20.920  1.00  0.00     0.039 A 
HETATM    8  C   UNL     1      77.949  10.994  19.372  1.00  0.00    -0.034 A 
HETATM    9  C   UNL     1      76.955  11.877  19.826  1.00  0.00     0.012 A 
ENDROOT
BRANCH   8  10
HETATM   10  C   UNL     1      77.687  10.079  18.202  1.00  0.00     0.202 C 
BRANCH  10  11
HETATM   11  O   UNL     1      78.879   9.873  17.459  1.00  0.00    -0.396 OA
HETATM   12  H   UNL     1      79.571  10.471  17.785  1.00  0.00     0.209 HD
ENDBRANCH  10  11
ENDBRANCH   8  10
TORSDOF 2
ENDMDL
