MODEL 1
REMARK VINA RESULT:      -5.3      0.000      0.000
REMARK  1 active torsions:
REMARK  status: ('A' for Active; 'I' for Inactive)
REMARK    1  A    between atoms: C_8  and  N_9 
ROOT
HETATM    1  C   UNL     1      70.962  23.027  13.241  1.00  0.00     0.002 A 
HETATM    2  C   UNL     1      72.334  23.043  13.027  1.00  0.00     0.085 A 
HETATM    3  C   UNL     1      71.530  21.498  11.706  1.00  0.00     0.143 A 
HETATM    4  O   UNL     1      72.679  22.111  12.096  1.00  0.00    -0.322 OA
HETATM    5  C   UNL     1      70.449  22.020  12.381  1.00  0.00     0.039 A 
HETATM    6  C   UNL     1      70.415  23.939  14.163  1.00  0.00     0.043 A 
HETATM    7  C   UNL     1      73.211  23.911  13.669  1.00  0.00     0.040 A 
HETATM    8  C   UNL     1      71.268  24.811  14.862  1.00  0.00     0.026 A 
HETATM    9  C   UNL     1      72.639  24.814  14.577  1.00  0.00     0.032 A 
ENDROOT
BRANCH   8  10
HETATM   10  N   UNL     1      70.718  25.828  15.655  1.00  0.00    -0.399 N 
HETATM   11  H   UNL     1      71.186  26.124  16.469  1.00  0.00     0.156 HD
HETATM   12  H   UNL     1      69.866  26.247  15.396  1.00  0.00     0.156 HD
ENDBRANCH   8  10
TORSDOF 1
ENDMDL
MODEL 2
REMARK VINA RESULT:      -4.8      1.502      2.753
REMARK  1 active torsions:
REMARK  status: ('A' for Active; 'I' for Inactive)
REMARK    1  A    between atoms: C_8  and  N_9 
ROOT
HETATM    1  C   UNL     1      72.129  23.494  14.710  1.00  0.00     0.002 A 
HETATM    2  C   UNL     1      72.202  22.622  13.632  1.00  0.00     0.085 A 
HETATM    3  C   UNL     1      74.172  22.588  14.578  1.00  0.00     0.143 A 
HETATM    4  O   UNL     1      73.446  22.074  13.550  1.00  0.00    -0.322 OA
HETATM    5  C   UNL     1      73.412  23.466  15.317  1.00  0.00     0.039 A 
HETATM    6  C   UNL     1      70.907  24.146  14.965  1.00  0.00     0.043 A 
HETATM    7  C   UNL     1      71.138  22.347  12.780  1.00  0.00     0.040 A 
HETATM    8  C   UNL     1      69.815  23.926  14.109  1.00  0.00     0.026 A 
HETATM    9  C   UNL     1      69.931  23.004  13.060  1.00  0.00     0.032 A 
ENDROOT
BRANCH   8  10
HETATM   10  N   UNL     1      68.555  24.440  14.449  1.00  0.00    -0.399 N 
HETATM   11  H   UNL     1      67.773  23.842  14.486  1.00  0.00     0.156 HD
HETATM   12  H   UNL     1      68.453  25.397  14.651  1.00  0.00     0.156 HD
ENDBRANCH   8  10
TORSDOF 1
ENDMDL
MODEL 3
REMARK VINA RESULT:      -4.8     14.620     15.042
REMARK  1 active torsions:
REMARK  status: ('A' for Active; 'I' for Inactive)
REMARK    1  A    between atoms: C_8  and  N_9 
ROOT
HETATM    1  C   UNL     1      77.645  12.731  20.516  1.00  0.00     0.002 A 
HETATM    2  C   UNL     1      77.713  11.729  19.557  1.00  0.00     0.085 A 
HETATM    3  C   UNL     1      75.858  12.817  19.169  1.00  0.00     0.143 A 
HETATM    4  O   UNL     1      76.624  11.779  18.741  1.00  0.00    -0.322 OA
HETATM    5  C   UNL     1      76.437  13.431  20.257  1.00  0.00     0.039 A 
HETATM    6  C   UNL     1      78.698  12.847  21.443  1.00  0.00     0.043 A 
HETATM    7  C   UNL     1      78.764  10.824  19.452  1.00  0.00     0.040 A 
HETATM    8  C   UNL     1      79.764  11.931  21.396  1.00  0.00     0.026 A 
HETATM    9  C   UNL     1      79.803  10.965  20.383  1.00  0.00     0.032 A 
ENDROOT
BRANCH   8  10
HETATM   10  N   UNL     1      80.890  12.139  22.206  1.00  0.00    -0.399 N 
HETATM   11  H   UNL     1      81.282  13.039  22.282  1.00  0.00     0.156 HD
HETATM   12  H   UNL     1      81.287  11.385  22.698  1.00  0.00     0.156 HD
ENDBRANCH   8  10
TORSDOF 1
ENDMDL
MODEL 4
REMARK VINA RESULT:      -4.7     18.045     19.371
REMARK  1 active torsions:
REMARK  status: ('A' for Active; 'I' for Inactive)
REMARK    1  A    between atoms: C_8  and  N_9 
ROOT
HETATM    1  C   UNL     1      62.177   9.959   2.992  1.00  0.00     0.002 A 
HETATM    2  C   UNL     1      62.846   8.744   3.042  1.00  0.00     0.085 A 
HETATM    3  C   UNL     1      61.862   8.817   1.091  1.00  0.00     0.143 A 
HETATM    4  O   UNL     1      62.651   8.048   1.887  1.00  0.00    -0.322 OA
HETATM    5  C   UNL     1      61.541   9.998   1.723  1.00  0.00     0.039 A 
HETATM    6  C   UNL     1      62.277  10.828   4.096  1.00  0.00     0.043 A 
HETATM    7  C   UNL     1      63.616   8.324   4.121  1.00  0.00     0.040 A 
HETATM    8  C   UNL     1      63.016  10.429   5.223  1.00  0.00     0.026 A 
HETATM    9  C   UNL     1      63.705   9.210   5.204  1.00  0.00     0.032 A 
ENDROOT
BRANCH   8  10
HETATM   10  N   UNL     1      63.256  11.350   6.253  1.00  0.00    -0.399 N 
HETATM   11  H   UNL     1      63.442  12.293   6.038  1.00  0.00     0.156 HD
HETATM   12  H   UNL     1      63.237  11.053   7.192  1.00  0.00     0.156 HD
ENDBRANCH   8  10
TORSDOF 1
ENDMDL
MODEL 5
REMARK VINA RESULT:      -4.7     17.938     19.092
REMARK  1 active torsions:
REMARK  status: ('A' for Active; 'I' for Inactive)
REMARK    1  A    between atoms: C_8  and  N_9 
ROOT
HETATM    1  C   UNL     1      63.238   8.684   3.883  1.00  0.00     0.002 A 
HETATM    2  C   UNL     1      63.471   9.331   5.090  1.00  0.00     0.085 A 
HETATM    3  C   UNL     1      64.496   7.405   5.224  1.00  0.00     0.143 A 
HETATM    4  O   UNL     1      64.232   8.550   5.906  1.00  0.00    -0.322 OA
HETATM    5  C   UNL     1      63.907   7.435   3.980  1.00  0.00     0.039 A 
HETATM    6  C   UNL     1      62.479   9.347   2.900  1.00  0.00     0.043 A 
HETATM    7  C   UNL     1      62.999  10.603   5.393  1.00  0.00     0.040 A 
HETATM    8  C   UNL     1      61.952  10.620   3.178  1.00  0.00     0.026 A 
HETATM    9  C   UNL     1      62.251  11.244   4.395  1.00  0.00     0.032 A 
ENDROOT
BRANCH   8  10
HETATM   10  N   UNL     1      61.337  11.353   2.151  1.00  0.00    -0.399 N 
HETATM   11  H   UNL     1      61.034  10.895   1.334  1.00  0.00     0.156 HD
HETATM   12  H   UNL     1      61.208  12.323   2.250  1.00  0.00     0.156 HD
ENDBRANCH   8  10
TORSDOF 1
ENDMDL
MODEL 6
REMARK VINA RESULT:      -4.7     18.156     20.016
REMARK  1 active torsions:
REMARK  status: ('A' for Active; 'I' for Inactive)
REMARK    1  A    between atoms: C_8  and  N_9 
ROOT
HETATM    1  C   UNL     1      62.685   9.512   3.894  1.00  0.00     0.002 A 
HETATM    2  C   UNL     1      62.155  10.610   3.229  1.00  0.00     0.085 A 
HETATM    3  C   UNL     1      62.586  11.280   5.264  1.00  0.00     0.143 A 
HETATM    4  O   UNL     1      62.092  11.684   4.064  1.00  0.00    -0.322 OA
HETATM    5  C   UNL     1      62.960   9.956   5.214  1.00  0.00     0.039 A 
HETATM    6  C   UNL     1      62.843   8.307   3.183  1.00  0.00     0.043 A 
HETATM    7  C   UNL     1      61.768  10.597   1.893  1.00  0.00     0.040 A 
HETATM    8  C   UNL     1      62.432   8.239   1.840  1.00  0.00     0.026 A 
HETATM    9  C   UNL     1      61.942   9.388   1.206  1.00  0.00     0.032 A 
ENDROOT
BRANCH   8  10
HETATM   10  N   UNL     1      62.736   7.099   1.081  1.00  0.00    -0.399 N 
HETATM   11  H   UNL     1      63.659   6.757   1.055  1.00  0.00     0.156 HD
HETATM   12  H   UNL     1      62.026   6.641   0.576  1.00  0.00     0.156 HD
ENDBRANCH   8  10
TORSDOF 1
ENDMDL
MODEL 7
REMARK VINA RESULT:      -4.5     18.559     19.612
REMARK  1 active torsions:
REMARK  status: ('A' for Active; 'I' for Inactive)
REMARK    1  A    between atoms: C_8  and  N_9 
ROOT
HETATM    1  C   UNL     1      62.321   9.671   2.805  1.00  0.00     0.002 A 
HETATM    2  C   UNL     1      62.367  10.541   3.885  1.00  0.00     0.085 A 
HETATM    3  C   UNL     1      61.664  11.720   2.183  1.00  0.00     0.143 A 
HETATM    4  O   UNL     1      61.972  11.788   3.506  1.00  0.00    -0.322 OA
HETATM    5  C   UNL     1      61.864  10.444   1.705  1.00  0.00     0.039 A 
HETATM    6  C   UNL     1      62.681   8.325   3.010  1.00  0.00     0.043 A 
HETATM    7  C   UNL     1      62.749  10.168   5.169  1.00  0.00     0.040 A 
HETATM    8  C   UNL     1      63.107   7.911   4.283  1.00  0.00     0.026 A 
HETATM    9  C   UNL     1      63.096   8.821   5.348  1.00  0.00     0.032 A 
ENDROOT
BRANCH   8  10
HETATM   10  N   UNL     1      63.309   6.546   4.535  1.00  0.00    -0.399 N 
HETATM   11  H   UNL     1      62.605   6.018   4.977  1.00  0.00     0.156 HD
HETATM   12  H   UNL     1      64.154   6.117   4.269  1.00  0.00     0.156 HD
ENDBRANCH   8  10
TORSDOF 1
ENDMDL
MODEL 8
REMARK VINA RESULT:      -4.3     18.628     19.983
REMARK  1 active torsions:
REMARK  status: ('A' for Active; 'I' for Inactive)
REMARK    1  A    between atoms: C_8  and  N_9 
ROOT
HETATM    1  C   UNL     1      62.645   8.720   2.665  1.00  0.00     0.002 A 
HETATM    2  C   UNL     1      62.043   9.661   1.843  1.00  0.00     0.085 A 
HETATM    3  C   UNL     1      62.239   7.843   0.645  1.00  0.00     0.143 A 
HETATM    4  O   UNL     1      61.799   9.129   0.613  1.00  0.00    -0.322 OA
HETATM    5  C   UNL     1      62.770   7.544   1.879  1.00  0.00     0.039 A 
HETATM    6  C   UNL     1      62.959   9.085   3.988  1.00  0.00     0.043 A 
HETATM    7  C   UNL     1      61.724  10.954   2.244  1.00  0.00     0.040 A 
HETATM    8  C   UNL     1      62.687  10.393   4.426  1.00  0.00     0.026 A 
HETATM    9  C   UNL     1      62.040  11.291   3.568  1.00  0.00     0.032 A 
ENDROOT
BRANCH   8  10
HETATM   10  N   UNL     1      62.843  10.715   5.782  1.00  0.00    -0.399 N 
HETATM   11  H   UNL     1      62.051  10.884   6.342  1.00  0.00     0.156 HD
HETATM   12  H   UNL     1      63.745  10.770   6.174  1.00  0.00     0.156 HD
ENDBRANCH   8  10
TORSDOF 1
ENDMDL
MODEL 9
REMARK VINA RESULT:      -4.2     19.161     20.051
REMARK  1 active torsions:
REMARK  status: ('A' for Active; 'I' for Inactive)
REMARK    1  A    between atoms: C_8  and  N_9 
ROOT
HETATM    1  C   UNL     1      62.594   9.221   4.108  1.00  0.00     0.002 A 
HETATM    2  C   UNL     1      62.678   8.228   3.141  1.00  0.00     0.085 A 
HETATM    3  C   UNL     1      63.200   7.277   5.038  1.00  0.00     0.143 A 
HETATM    4  O   UNL     1      63.050   7.047   3.707  1.00  0.00    -0.322 OA
HETATM    5  C   UNL     1      62.935   8.595   5.335  1.00  0.00     0.039 A 
HETATM    6  C   UNL     1      62.204  10.515   3.711  1.00  0.00     0.043 A 
HETATM    7  C   UNL     1      62.399   8.429   1.794  1.00  0.00     0.040 A 
HETATM    8  C   UNL     1      61.946  10.772   2.353  1.00  0.00     0.026 A 
HETATM    9  C   UNL     1      62.006   9.724   1.426  1.00  0.00     0.032 A 
ENDROOT
BRANCH   8  10
HETATM   10  N   UNL     1      61.401  12.008   1.975  1.00  0.00    -0.399 N 
HETATM   11  H   UNL     1      61.357  12.746   2.625  1.00  0.00     0.156 HD
HETATM   12  H   UNL     1      61.064  12.136   1.059  1.00  0.00     0.156 HD
ENDBRANCH   8  10
TORSDOF 1
ENDMDL
