MODEL 1
REMARK VINA RESULT:      -3.8      0.000      0.000
REMARK  0 active torsions:
REMARK  status: ('A' for Active; 'I' for Inactive)
ROOT
HETATM    1  C   UNL     1      79.198  10.345  19.239  1.00  0.00     0.158 A 
HETATM    2  S   UNL     1      77.935  11.394  19.752  1.00  0.00    -0.046 SA
HETATM    3  N   UNL     1      80.267  10.390  20.004  1.00  0.00    -0.280 N 
ATOM      4  HN  UNL     1      81.103   9.828  19.843  1.00  0.00     0.189 HD
HETATM    5  N   UNL     1      80.136  11.283  21.050  1.00  0.00    -0.303 N 
ATOM      6  HN  UNL     1      80.858  11.457  21.750  1.00  0.00     0.186 HD
HETATM    7  C   UNL     1      78.965  11.881  21.031  1.00  0.00     0.160 A 
HETATM    8  N   UNL     1      79.063   9.554  18.159  1.00  0.00    -0.379 N 
HETATM    9  H   UNL     1      78.230   9.576  17.635  1.00  0.00     0.158 HD
HETATM   10  H   UNL     1      79.797   8.954  17.894  1.00  0.00     0.158 HD
ENDROOT
TORSDOF 0
ENDMDL
MODEL 2
REMARK VINA RESULT:      -3.7      0.936      2.616
REMARK  0 active torsions:
REMARK  status: ('A' for Active; 'I' for Inactive)
ROOT
HETATM    1  C   UNL     1      79.068  11.922  21.094  1.00  0.00     0.158 A 
HETATM    2  S   UNL     1      77.916  11.558  19.870  1.00  0.00    -0.046 SA
HETATM    3  N   UNL     1      80.184  11.233  20.992  1.00  0.00    -0.280 N 
ATOM      4  HN  UNL     1      80.971  11.332  21.634  1.00  0.00     0.189 HD
HETATM    5  N   UNL     1      80.176  10.360  19.921  1.00  0.00    -0.303 N 
ATOM      6  HN  UNL     1      80.950   9.743  19.678  1.00  0.00     0.186 HD
HETATM    7  C   UNL     1      79.044  10.426  19.254  1.00  0.00     0.160 A 
HETATM    8  N   UNL     1      78.822  12.844  22.043  1.00  0.00    -0.379 N 
HETATM    9  H   UNL     1      77.960  13.320  22.054  1.00  0.00     0.158 HD
HETATM   10  H   UNL     1      79.504  13.041  22.725  1.00  0.00     0.158 HD
ENDROOT
TORSDOF 0
ENDMDL
MODEL 3
REMARK VINA RESULT:      -3.6      7.661      8.325
REMARK  0 active torsions:
REMARK  status: ('A' for Active; 'I' for Inactive)
ROOT
HETATM    1  C   UNL     1      76.740   3.558  18.575  1.00  0.00     0.158 A 
HETATM    2  S   UNL     1      76.823   4.980  17.611  1.00  0.00    -0.046 SA
HETATM    3  N   UNL     1      75.734   2.768  18.268  1.00  0.00    -0.280 N 
ATOM      4  HN  UNL     1      75.545   1.883  18.740  1.00  0.00     0.189 HD
HETATM    5  N   UNL     1      74.961   3.266  17.238  1.00  0.00    -0.303 N 
ATOM      6  HN  UNL     1      74.139   2.796  16.859  1.00  0.00     0.186 HD
HETATM    7  C   UNL     1      75.417   4.421  16.807  1.00  0.00     0.160 A 
HETATM    8  N   UNL     1      77.648   3.304  19.536  1.00  0.00    -0.379 N 
HETATM    9  H   UNL     1      78.374   3.945  19.708  1.00  0.00     0.158 HD
HETATM   10  H   UNL     1      77.584   2.476  20.066  1.00  0.00     0.158 HD
ENDROOT
TORSDOF 0
ENDMDL
MODEL 4
REMARK VINA RESULT:      -3.6      8.490      8.766
REMARK  0 active torsions:
REMARK  status: ('A' for Active; 'I' for Inactive)
ROOT
HETATM    1  C   UNL     1      76.579   2.910  18.243  1.00  0.00     0.158 A 
HETATM    2  S   UNL     1      77.248   1.347  17.982  1.00  0.00    -0.046 SA
HETATM    3  N   UNL     1      77.100   3.545  19.271  1.00  0.00    -0.280 N 
ATOM      4  HN  UNL     1      76.819   4.482  19.559  1.00  0.00     0.189 HD
HETATM    5  N   UNL     1      78.070   2.803  19.918  1.00  0.00    -0.303 N 
ATOM      6  HN  UNL     1      78.588   3.126  20.736  1.00  0.00     0.186 HD
HETATM    7  C   UNL     1      78.241   1.630  19.349  1.00  0.00     0.160 A 
HETATM    8  N   UNL     1      75.622   3.411  17.440  1.00  0.00    -0.379 N 
HETATM    9  H   UNL     1      75.280   2.875  16.689  1.00  0.00     0.158 HD
HETATM   10  H   UNL     1      75.264   4.313  17.605  1.00  0.00     0.158 HD
ENDROOT
TORSDOF 0
ENDMDL
MODEL 5
REMARK VINA RESULT:      -3.5      8.472      9.048
REMARK  0 active torsions:
REMARK  status: ('A' for Active; 'I' for Inactive)
ROOT
HETATM    1  C   UNL     1      78.213   1.620  19.328  1.00  0.00     0.158 A 
HETATM    2  S   UNL     1      77.238   1.371  17.933  1.00  0.00    -0.046 SA
HETATM    3  N   UNL     1      78.029   2.790  19.901  1.00  0.00    -0.280 N 
ATOM      4  HN  UNL     1      78.524   3.094  20.739  1.00  0.00     0.189 HD
HETATM    5  N   UNL     1      77.093   3.564  19.242  1.00  0.00    -0.303 N 
ATOM      6  HN  UNL     1      76.815   4.501  19.535  1.00  0.00     0.186 HD
HETATM    7  C   UNL     1      76.606   2.943  18.191  1.00  0.00     0.160 A 
HETATM    8  N   UNL     1      79.063   0.676  19.773  1.00  0.00    -0.379 N 
HETATM    9  H   UNL     1      79.146  -0.177  19.290  1.00  0.00     0.158 HD
HETATM   10  H   UNL     1      79.601   0.840  20.581  1.00  0.00     0.158 HD
ENDROOT
TORSDOF 0
ENDMDL
MODEL 6
REMARK VINA RESULT:      -3.4     21.629     22.676
REMARK  0 active torsions:
REMARK  status: ('A' for Active; 'I' for Inactive)
ROOT
HETATM    1  C   UNL     1      62.996  10.940   5.359  1.00  0.00     0.158 A 
HETATM    2  S   UNL     1      63.040   9.257   5.004  1.00  0.00    -0.046 SA
HETATM    3  N   UNL     1      62.251  11.636   4.528  1.00  0.00    -0.280 N 
ATOM      4  HN  UNL     1      62.113  12.645   4.601  1.00  0.00     0.189 HD
HETATM    5  N   UNL     1      61.674  10.854   3.546  1.00  0.00    -0.303 N 
ATOM      6  HN  UNL     1      61.063  11.213   2.812  1.00  0.00     0.186 HD
HETATM    7  C   UNL     1      62.011   9.590   3.676  1.00  0.00     0.160 A 
HETATM    8  N   UNL     1      63.662  11.457   6.407  1.00  0.00    -0.379 N 
HETATM    9  H   UNL     1      64.201  10.871   6.985  1.00  0.00     0.158 HD
HETATM   10  H   UNL     1      63.610  12.422   6.594  1.00  0.00     0.158 HD
ENDROOT
TORSDOF 0
ENDMDL
MODEL 7
REMARK VINA RESULT:      -3.2     26.186     26.480
REMARK  0 active torsions:
REMARK  status: ('A' for Active; 'I' for Inactive)
ROOT
HETATM    1  C   UNL     1      52.822   8.401  24.498  1.00  0.00     0.158 A 
HETATM    2  S   UNL     1      52.715   7.515  25.968  1.00  0.00    -0.046 SA
HETATM    3  N   UNL     1      54.052   8.728  24.165  1.00  0.00    -0.280 N 
ATOM      4  HN  UNL     1      54.290   9.249  23.321  1.00  0.00     0.189 HD
HETATM    5  N   UNL     1      54.986   8.288  25.083  1.00  0.00    -0.303 N 
ATOM      6  HN  UNL     1      55.991   8.444  24.998  1.00  0.00     0.186 HD
HETATM    7  C   UNL     1      54.419   7.645  26.079  1.00  0.00     0.160 A 
HETATM    8  N   UNL     1      51.728   8.701  23.774  1.00  0.00    -0.379 N 
HETATM    9  H   UNL     1      50.838   8.422  24.088  1.00  0.00     0.158 HD
HETATM   10  H   UNL     1      51.819   9.200  22.930  1.00  0.00     0.158 HD
ENDROOT
TORSDOF 0
ENDMDL
MODEL 8
REMARK VINA RESULT:      -3.1     19.893     20.421
REMARK  0 active torsions:
REMARK  status: ('A' for Active; 'I' for Inactive)
ROOT
HETATM    1  C   UNL     1      63.043  -2.348  21.936  1.00  0.00     0.158 A 
HETATM    2  S   UNL     1      63.529  -2.850  23.508  1.00  0.00    -0.046 SA
HETATM    3  N   UNL     1      63.891  -1.525  21.357  1.00  0.00    -0.280 N 
ATOM      4  HN  UNL     1      63.755  -1.137  20.423  1.00  0.00     0.189 HD
HETATM    5  N   UNL     1      64.985  -1.242  22.152  1.00  0.00    -0.303 N 
ATOM      6  HN  UNL     1      65.750  -0.627  21.876  1.00  0.00     0.186 HD
HETATM    7  C   UNL     1      64.917  -1.867  23.307  1.00  0.00     0.160 A 
HETATM    8  N   UNL     1      61.901  -2.788  21.377  1.00  0.00    -0.379 N 
HETATM    9  H   UNL     1      61.315  -3.404  21.873  1.00  0.00     0.158 HD
HETATM   10  H   UNL     1      61.652  -2.493  20.471  1.00  0.00     0.158 HD
ENDROOT
TORSDOF 0
ENDMDL
MODEL 9
REMARK VINA RESULT:      -3.1     26.161     26.487
REMARK  0 active torsions:
REMARK  status: ('A' for Active; 'I' for Inactive)
ROOT
HETATM    1  C   UNL     1      54.174   7.978  24.129  1.00  0.00     0.158 A 
HETATM    2  S   UNL     1      53.400   6.532  24.648  1.00  0.00    -0.046 SA
HETATM    3  N   UNL     1      53.341   8.968  23.894  1.00  0.00    -0.280 N 
ATOM      4  HN  UNL     1      53.637   9.894  23.584  1.00  0.00     0.189 HD
HETATM    5  N   UNL     1      52.022   8.619  24.111  1.00  0.00    -0.303 N 
ATOM      6  HN  UNL     1      51.233   9.252  23.983  1.00  0.00     0.186 HD
HETATM    7  C   UNL     1      51.913   7.369  24.503  1.00  0.00     0.160 A 
HETATM    8  N   UNL     1      55.511   8.055  24.001  1.00  0.00    -0.379 N 
HETATM    9  H   UNL     1      56.071   7.269  24.196  1.00  0.00     0.158 HD
HETATM   10  H   UNL     1      55.929   8.899  23.713  1.00  0.00     0.158 HD
ENDROOT
TORSDOF 0
ENDMDL
