MODEL 1
REMARK VINA RESULT:      -3.6      0.000      0.000
REMARK  2 active torsions:
REMARK  status: ('A' for Active; 'I' for Inactive)
REMARK    1  A    between atoms: C_3  and  C_7 
REMARK    2  A    between atoms: C_7  and  O_8 
ROOT
HETATM    1  N   UNL     1      64.048   9.148   5.338  1.00  0.00    -0.361 N 
ATOM      2  HN  UNL     1      64.732   9.108   6.093  1.00  0.00     0.165 HD
HETATM    3  C   UNL     1      63.185  10.126   5.146  1.00  0.00     0.074 A 
HETATM    4  S   UNL     1      62.157   9.948   3.778  1.00  0.00    -0.085 SA
HETATM    5  C   UNL     1      63.884   8.187   4.359  1.00  0.00     0.096 A 
HETATM    6  C   UNL     1      62.908   8.451   3.423  1.00  0.00     0.068 A 
ENDROOT
BRANCH   3   7
HETATM    7  C   UNL     1      63.068  11.328   6.033  1.00  0.00     0.229 C 
BRANCH   7   8
HETATM    8  O   UNL     1      64.367  11.659   6.512  1.00  0.00    -0.394 OA
HETATM    9  H   UNL     1      64.300  12.372   7.166  1.00  0.00     0.209 HD
ENDBRANCH   7   8
ENDBRANCH   3   7
TORSDOF 2
ENDMDL
MODEL 2
REMARK VINA RESULT:      -3.6     20.593     21.079
REMARK  2 active torsions:
REMARK  status: ('A' for Active; 'I' for Inactive)
REMARK    1  A    between atoms: C_3  and  C_7 
REMARK    2  A    between atoms: C_7  and  O_8 
ROOT
HETATM    1  N   UNL     1      78.338  11.668  20.832  1.00  0.00    -0.361 N 
ATOM      2  HN  UNL     1      79.009  11.086  21.333  1.00  0.00     0.165 HD
HETATM    3  C   UNL     1      77.775  11.361  19.680  1.00  0.00     0.074 A 
HETATM    4  S   UNL     1      76.661  12.521  19.068  1.00  0.00    -0.085 SA
HETATM    5  C   UNL     1      77.878  12.900  21.258  1.00  0.00     0.096 A 
HETATM    6  C   UNL     1      76.959  13.510  20.433  1.00  0.00     0.068 A 
ENDROOT
BRANCH   3   7
HETATM    7  C   UNL     1      78.059  10.103  18.916  1.00  0.00     0.229 C 
BRANCH   7   8
HETATM    8  O   UNL     1      79.441  10.091  18.573  1.00  0.00    -0.394 OA
HETATM    9  H   UNL     1      79.973  10.252  19.368  1.00  0.00     0.209 HD
ENDBRANCH   7   8
ENDBRANCH   3   7
TORSDOF 2
ENDMDL
MODEL 3
REMARK VINA RESULT:      -3.5     19.682     19.903
REMARK  2 active torsions:
REMARK  status: ('A' for Active; 'I' for Inactive)
REMARK    1  A    between atoms: C_3  and  C_7 
REMARK    2  A    between atoms: C_7  and  O_8 
ROOT
HETATM    1  N   UNL     1      74.851   2.131  18.142  1.00  0.00    -0.361 N 
ATOM      2  HN  UNL     1      74.205   2.851  18.467  1.00  0.00     0.165 HD
HETATM    3  C   UNL     1      76.144   2.300  17.950  1.00  0.00     0.074 A 
HETATM    4  S   UNL     1      77.001   0.907  17.416  1.00  0.00    -0.085 SA
HETATM    5  C   UNL     1      74.503   0.829  17.835  1.00  0.00     0.096 A 
HETATM    6  C   UNL     1      75.539   0.017  17.427  1.00  0.00     0.068 A 
ENDROOT
BRANCH   3   7
HETATM    7  C   UNL     1      76.862   3.598  18.167  1.00  0.00     0.229 C 
BRANCH   7   8
HETATM    8  O   UNL     1      76.925   3.846  19.567  1.00  0.00    -0.394 OA
HETATM    9  H   UNL     1      77.851   3.959  19.835  1.00  0.00     0.209 HD
ENDBRANCH   7   8
ENDBRANCH   3   7
TORSDOF 2
ENDMDL
MODEL 4
REMARK VINA RESULT:      -3.4     21.068     21.421
REMARK  2 active torsions:
REMARK  status: ('A' for Active; 'I' for Inactive)
REMARK    1  A    between atoms: C_3  and  C_7 
REMARK    2  A    between atoms: C_7  and  O_8 
ROOT
HETATM    1  N   UNL     1      78.193   2.316  19.585  1.00  0.00    -0.361 N 
ATOM      2  HN  UNL     1      78.417   3.161  20.110  1.00  0.00     0.165 HD
HETATM    3  C   UNL     1      77.416   2.265  18.521  1.00  0.00     0.074 A 
HETATM    4  S   UNL     1      77.225   0.707  17.817  1.00  0.00    -0.085 SA
HETATM    5  C   UNL     1      78.658   1.048  19.880  1.00  0.00     0.096 A 
HETATM    6  C   UNL     1      78.242   0.049  19.027  1.00  0.00     0.068 A 
ENDROOT
BRANCH   3   7
HETATM    7  C   UNL     1      76.723   3.456  17.931  1.00  0.00     0.229 C 
BRANCH   7   8
HETATM    8  O   UNL     1      77.197   4.623  18.594  1.00  0.00    -0.394 OA
HETATM    9  H   UNL     1      76.601   5.366  18.407  1.00  0.00     0.209 HD
ENDBRANCH   7   8
ENDBRANCH   3   7
TORSDOF 2
ENDMDL
MODEL 5
REMARK VINA RESULT:      -3.2     19.375     19.734
REMARK  2 active torsions:
REMARK  status: ('A' for Active; 'I' for Inactive)
REMARK    1  A    between atoms: C_3  and  C_7 
REMARK    2  A    between atoms: C_7  and  O_8 
ROOT
HETATM    1  N   UNL     1      77.254   4.347  18.077  1.00  0.00    -0.361 N 
ATOM      2  HN  UNL     1      78.095   4.541  18.620  1.00  0.00     0.165 HD
HETATM    3  C   UNL     1      76.737   3.151  17.876  1.00  0.00     0.074 A 
HETATM    4  S   UNL     1      75.297   3.115  16.936  1.00  0.00    -0.085 SA
HETATM    5  C   UNL     1      76.481   5.298  17.439  1.00  0.00     0.096 A 
HETATM    6  C   UNL     1      75.375   4.817  16.772  1.00  0.00     0.068 A 
ENDROOT
BRANCH   3   7
HETATM    7  C   UNL     1      77.330   1.881  18.408  1.00  0.00     0.229 C 
BRANCH   7   8
HETATM    8  O   UNL     1      78.481   2.213  19.178  1.00  0.00    -0.394 OA
HETATM    9  H   UNL     1      79.035   1.424  19.287  1.00  0.00     0.209 HD
ENDBRANCH   7   8
ENDBRANCH   3   7
TORSDOF 2
ENDMDL
MODEL 6
REMARK VINA RESULT:      -3.2      9.213      9.857
REMARK  2 active torsions:
REMARK  status: ('A' for Active; 'I' for Inactive)
REMARK    1  A    between atoms: C_3  and  C_7 
REMARK    2  A    between atoms: C_7  and  O_8 
ROOT
HETATM    1  N   UNL     1      67.391   3.302   9.126  1.00  0.00    -0.361 N 
ATOM      2  HN  UNL     1      66.577   2.699   9.237  1.00  0.00     0.165 HD
HETATM    3  C   UNL     1      68.611   3.017   9.538  1.00  0.00     0.074 A 
HETATM    4  S   UNL     1      69.804   4.210   9.201  1.00  0.00    -0.085 SA
HETATM    5  C   UNL     1      67.386   4.544   8.518  1.00  0.00     0.096 A 
HETATM    6  C   UNL     1      68.605   5.184   8.461  1.00  0.00     0.068 A 
ENDROOT
BRANCH   3   7
HETATM    7  C   UNL     1      68.979   1.757  10.260  1.00  0.00     0.229 C 
BRANCH   7   8
HETATM    8  O   UNL     1      69.824   2.098  11.354  1.00  0.00    -0.394 OA
HETATM    9  H   UNL     1      69.553   2.957  11.716  1.00  0.00     0.209 HD
ENDBRANCH   7   8
ENDBRANCH   3   7
TORSDOF 2
ENDMDL
MODEL 7
REMARK VINA RESULT:      -3.1      2.536      2.675
REMARK  2 active torsions:
REMARK  status: ('A' for Active; 'I' for Inactive)
REMARK    1  A    between atoms: C_3  and  C_7 
REMARK    2  A    between atoms: C_7  and  O_8 
ROOT
HETATM    1  N   UNL     1      60.948   9.090   3.217  1.00  0.00    -0.361 N 
ATOM      2  HN  UNL     1      60.213   9.279   2.537  1.00  0.00     0.165 HD
HETATM    3  C   UNL     1      61.821   9.974   3.659  1.00  0.00     0.074 A 
HETATM    4  S   UNL     1      62.944   9.388   4.823  1.00  0.00    -0.085 SA
HETATM    5  C   UNL     1      61.183   7.867   3.818  1.00  0.00     0.096 A 
HETATM    6  C   UNL     1      62.223   7.838   4.722  1.00  0.00     0.068 A 
ENDROOT
BRANCH   3   7
HETATM    7  C   UNL     1      61.873  11.401   3.204  1.00  0.00     0.229 C 
BRANCH   7   8
HETATM    8  O   UNL     1      62.090  12.226   4.344  1.00  0.00    -0.394 OA
HETATM    9  H   UNL     1      61.968  13.156   4.098  1.00  0.00     0.209 HD
ENDBRANCH   7   8
ENDBRANCH   3   7
TORSDOF 2
ENDMDL
MODEL 8
REMARK VINA RESULT:      -3.1     13.161     13.265
REMARK  2 active torsions:
REMARK  status: ('A' for Active; 'I' for Inactive)
REMARK    1  A    between atoms: C_3  and  C_7 
REMARK    2  A    between atoms: C_7  and  O_8 
ROOT
HETATM    1  N   UNL     1      57.639   1.740  14.497  1.00  0.00    -0.361 N 
ATOM      2  HN  UNL     1      57.409   1.537  15.470  1.00  0.00     0.165 HD
HETATM    3  C   UNL     1      56.782   2.146  13.581  1.00  0.00     0.074 A 
HETATM    4  S   UNL     1      57.447   2.433  12.021  1.00  0.00    -0.085 SA
HETATM    5  C   UNL     1      58.898   1.631  13.937  1.00  0.00     0.096 A 
HETATM    6  C   UNL     1      58.988   1.970  12.604  1.00  0.00     0.068 A 
ENDROOT
BRANCH   3   7
HETATM    7  C   UNL     1      55.319   2.353  13.835  1.00  0.00     0.229 C 
BRANCH   7   8
HETATM    8  O   UNL     1      55.179   3.229  14.948  1.00  0.00    -0.394 OA
HETATM    9  H   UNL     1      54.711   2.770  15.664  1.00  0.00     0.209 HD
ENDBRANCH   7   8
ENDBRANCH   3   7
TORSDOF 2
ENDMDL
MODEL 9
REMARK VINA RESULT:      -3.0     14.985     15.429
REMARK  2 active torsions:
REMARK  status: ('A' for Active; 'I' for Inactive)
REMARK    1  A    between atoms: C_3  and  C_7 
REMARK    2  A    between atoms: C_7  and  O_8 
ROOT
HETATM    1  N   UNL     1      51.551   8.865  16.022  1.00  0.00    -0.361 N 
ATOM      2  HN  UNL     1      51.311   9.822  16.278  1.00  0.00     0.165 HD
HETATM    3  C   UNL     1      52.695   8.485  15.487  1.00  0.00     0.074 A 
HETATM    4  S   UNL     1      52.842   6.800  15.173  1.00  0.00    -0.085 SA
HETATM    5  C   UNL     1      50.727   7.766  16.181  1.00  0.00     0.096 A 
HETATM    6  C   UNL     1      51.259   6.560  15.780  1.00  0.00     0.068 A 
ENDROOT
BRANCH   3   7
HETATM    7  C   UNL     1      53.818   9.420  15.156  1.00  0.00     0.229 C 
BRANCH   7   8
HETATM    8  O   UNL     1      53.616   9.911  13.835  1.00  0.00    -0.394 OA
HETATM    9  H   UNL     1      53.068   9.284  13.337  1.00  0.00     0.209 HD
ENDBRANCH   7   8
ENDBRANCH   3   7
TORSDOF 2
ENDMDL
