MODEL 1
REMARK VINA RESULT:      -5.8      0.000      0.000
REMARK  2 active torsions:
REMARK  status: ('A' for Active; 'I' for Inactive)
REMARK    1  A    between atoms: C_4  and  C_7 
REMARK    2  A    between atoms: C_7  and  O_8 
ROOT
HETATM    1  N   UNL     1      79.794  11.450  21.237  1.00  0.00    -0.342 N 
ATOM      2  HN  UNL     1      80.458  10.701  21.043  1.00  0.00     0.167 HD
HETATM    3  N   UNL     1      78.771  13.184  22.172  1.00  0.00    -0.342 N 
HETATM    4  C   UNL     1      79.860  12.344  22.204  1.00  0.00     0.106 A 
HETATM    5  C   UNL     1      78.638  11.741  20.545  1.00  0.00     0.060 A 
HETATM    6  C   UNL     1      77.978  12.823  21.113  1.00  0.00     0.060 A 
HETATM    7  C   UNL     1      78.088  11.126  19.409  1.00  0.00     0.032 A 
HETATM    8  C   UNL     1      76.779  13.339  20.615  1.00  0.00     0.032 A 
HETATM    9  C   UNL     1      76.245  12.715  19.483  1.00  0.00     0.002 A 
HETATM   10  C   UNL     1      76.888  11.627  18.886  1.00  0.00     0.002 A 
HETATM   11  H   UNL     1      78.592  13.919  22.801  1.00  0.00     0.167 HD
ENDROOT
BRANCH   4  12
HETATM   12  C   UNL     1      80.939  12.492  23.222  1.00  0.00     0.240 C 
BRANCH  12  13
HETATM   13  O   UNL     1      82.201  12.382  22.574  1.00  0.00    -0.393 OA
HETATM   14  H   UNL     1      82.107  11.847  21.771  1.00  0.00     0.209 HD
ENDBRANCH  12  13
ENDBRANCH   4  12
TORSDOF 2
ENDMDL
MODEL 2
REMARK VINA RESULT:      -5.5      6.266      7.602
REMARK  2 active torsions:
REMARK  status: ('A' for Active; 'I' for Inactive)
REMARK    1  A    between atoms: C_4  and  C_7 
REMARK    2  A    between atoms: C_7  and  O_8 
ROOT
HETATM    1  N   UNL     1      76.818   6.110  15.525  1.00  0.00    -0.342 N 
ATOM      2  HN  UNL     1      76.651   5.429  14.784  1.00  0.00     0.167 HD
HETATM    3  N   UNL     1      77.014   7.065  17.518  1.00  0.00    -0.342 N 
HETATM    4  C   UNL     1      76.751   5.906  16.826  1.00  0.00     0.106 A 
HETATM    5  C   UNL     1      77.162   7.437  15.377  1.00  0.00     0.060 A 
HETATM    6  C   UNL     1      77.289   8.057  16.613  1.00  0.00     0.060 A 
HETATM    7  C   UNL     1      77.394   8.184  14.211  1.00  0.00     0.032 A 
HETATM    8  C   UNL     1      77.632   9.403  16.765  1.00  0.00     0.032 A 
HETATM    9  C   UNL     1      77.860  10.132  15.594  1.00  0.00     0.002 A 
HETATM   10  C   UNL     1      77.745   9.535  14.336  1.00  0.00     0.002 A 
HETATM   11  H   UNL     1      77.007   7.165  18.498  1.00  0.00     0.167 HD
ENDROOT
BRANCH   4  12
HETATM   12  C   UNL     1      76.446   4.624  17.522  1.00  0.00     0.240 C 
BRANCH  12  13
HETATM   13  O   UNL     1      77.040   4.650  18.814  1.00  0.00    -0.393 OA
HETATM   14  H   UNL     1      77.349   3.761  19.047  1.00  0.00     0.209 HD
ENDBRANCH  12  13
ENDBRANCH   4  12
TORSDOF 2
ENDMDL
MODEL 3
REMARK VINA RESULT:      -5.2     22.282     23.872
REMARK  2 active torsions:
REMARK  status: ('A' for Active; 'I' for Inactive)
REMARK    1  A    between atoms: C_4  and  C_7 
REMARK    2  A    between atoms: C_7  and  O_8 
ROOT
HETATM    1  N   UNL     1      63.295   9.259   4.824  1.00  0.00    -0.342 N 
ATOM      2  HN  UNL     1      63.819   8.698   5.497  1.00  0.00     0.167 HD
HETATM    3  N   UNL     1      62.164  10.914   3.873  1.00  0.00    -0.342 N 
HETATM    4  C   UNL     1      62.852  10.490   4.986  1.00  0.00     0.106 A 
HETATM    5  C   UNL     1      62.903   8.889   3.556  1.00  0.00     0.060 A 
HETATM    6  C   UNL     1      62.190   9.909   2.940  1.00  0.00     0.060 A 
HETATM    7  C   UNL     1      63.128   7.694   2.854  1.00  0.00     0.032 A 
HETATM    8  C   UNL     1      61.671   9.812   1.646  1.00  0.00     0.032 A 
HETATM    9  C   UNL     1      61.905   8.615   0.962  1.00  0.00     0.002 A 
HETATM   10  C   UNL     1      62.622   7.571   1.553  1.00  0.00     0.002 A 
HETATM   11  H   UNL     1      61.728  11.790   3.765  1.00  0.00     0.167 HD
ENDROOT
BRANCH   4  12
HETATM   12  C   UNL     1      63.039  11.366   6.178  1.00  0.00     0.240 C 
BRANCH  12  13
HETATM   13  O   UNL     1      64.431  11.499   6.436  1.00  0.00    -0.393 OA
HETATM   14  H   UNL     1      64.562  11.878   7.319  1.00  0.00     0.209 HD
ENDBRANCH  12  13
ENDBRANCH   4  12
TORSDOF 2
ENDMDL
MODEL 4
REMARK VINA RESULT:      -5.1      8.615      9.889
REMARK  2 active torsions:
REMARK  status: ('A' for Active; 'I' for Inactive)
REMARK    1  A    between atoms: C_4  and  C_7 
REMARK    2  A    between atoms: C_7  and  O_8 
ROOT
HETATM    1  N   UNL     1      77.346   4.506  17.917  1.00  0.00    -0.342 N 
ATOM      2  HN  UNL     1      78.259   4.626  18.356  1.00  0.00     0.167 HD
HETATM    3  N   UNL     1      75.417   4.911  16.897  1.00  0.00    -0.342 N 
HETATM    4  C   UNL     1      76.597   5.440  17.365  1.00  0.00     0.106 A 
HETATM    5  C   UNL     1      76.636   3.333  17.776  1.00  0.00     0.060 A 
HETATM    6  C   UNL     1      75.422   3.561  17.141  1.00  0.00     0.060 A 
HETATM    7  C   UNL     1      76.970   2.024  18.159  1.00  0.00     0.032 A 
HETATM    8  C   UNL     1      74.498   2.551  16.863  1.00  0.00     0.032 A 
HETATM    9  C   UNL     1      74.847   1.253  17.251  1.00  0.00     0.002 A 
HETATM   10  C   UNL     1      76.063   0.991  17.888  1.00  0.00     0.002 A 
HETATM   11  H   UNL     1      74.693   5.415  16.461  1.00  0.00     0.167 HD
ENDROOT
BRANCH   4  12
HETATM   12  C   UNL     1      76.922   6.889  17.223  1.00  0.00     0.240 C 
BRANCH  12  13
HETATM   13  O   UNL     1      76.512   7.569  18.403  1.00  0.00    -0.393 OA
HETATM   14  H   UNL     1      76.966   8.424  18.459  1.00  0.00     0.209 HD
ENDBRANCH  12  13
ENDBRANCH   4  12
TORSDOF 2
ENDMDL
MODEL 5
REMARK VINA RESULT:      -5.1      8.479      9.820
REMARK  2 active torsions:
REMARK  status: ('A' for Active; 'I' for Inactive)
REMARK    1  A    between atoms: C_4  and  C_7 
REMARK    2  A    between atoms: C_7  and  O_8 
ROOT
HETATM    1  N   UNL     1      75.409   5.071  16.808  1.00  0.00    -0.342 N 
ATOM      2  HN  UNL     1      74.643   5.547  16.331  1.00  0.00     0.167 HD
HETATM    3  N   UNL     1      77.338   4.654  17.822  1.00  0.00    -0.342 N 
HETATM    4  C   UNL     1      76.526   5.609  17.257  1.00  0.00     0.106 A 
HETATM    5  C   UNL     1      75.494   3.731  17.119  1.00  0.00     0.060 A 
HETATM    6  C   UNL     1      76.696   3.444  17.754  1.00  0.00     0.060 A 
HETATM    7  C   UNL     1      74.575   2.693  16.898  1.00  0.00     0.032 A 
HETATM    8  C   UNL     1      77.050   2.163  18.185  1.00  0.00     0.032 A 
HETATM    9  C   UNL     1      76.123   1.142  17.957  1.00  0.00     0.002 A 
HETATM   10  C   UNL     1      74.904   1.399  17.325  1.00  0.00     0.002 A 
HETATM   11  H   UNL     1      78.229   4.812  18.211  1.00  0.00     0.167 HD
ENDROOT
BRANCH   4  12
HETATM   12  C   UNL     1      76.920   7.046  17.202  1.00  0.00     0.240 C 
BRANCH  12  13
HETATM   13  O   UNL     1      76.677   7.637  18.473  1.00  0.00    -0.393 OA
HETATM   14  H   UNL     1      75.727   7.619  18.663  1.00  0.00     0.209 HD
ENDBRANCH  12  13
ENDBRANCH   4  12
TORSDOF 2
ENDMDL
MODEL 6
REMARK VINA RESULT:      -4.8     21.807     23.450
REMARK  2 active torsions:
REMARK  status: ('A' for Active; 'I' for Inactive)
REMARK    1  A    between atoms: C_4  and  C_7 
REMARK    2  A    between atoms: C_7  and  O_8 
ROOT
HETATM    1  N   UNL     1      62.992   9.226   5.619  1.00  0.00    -0.342 N 
ATOM      2  HN  UNL     1      63.048   9.699   6.521  1.00  0.00     0.167 HD
HETATM    3  N   UNL     1      63.112   7.687   4.024  1.00  0.00    -0.342 N 
HETATM    4  C   UNL     1      63.281   7.966   5.360  1.00  0.00     0.106 A 
HETATM    5  C   UNL     1      62.599   9.769   4.415  1.00  0.00     0.060 A 
HETATM    6  C   UNL     1      62.667   8.824   3.399  1.00  0.00     0.060 A 
HETATM    7  C   UNL     1      62.158  11.066   4.111  1.00  0.00     0.032 A 
HETATM    8  C   UNL     1      62.324   9.096   2.072  1.00  0.00     0.032 A 
HETATM    9  C   UNL     1      61.886  10.394   1.787  1.00  0.00     0.002 A 
HETATM   10  C   UNL     1      61.803  11.365   2.789  1.00  0.00     0.002 A 
HETATM   11  H   UNL     1      63.280   6.820   3.590  1.00  0.00     0.167 HD
ENDROOT
BRANCH   4  12
HETATM   12  C   UNL     1      63.727   6.926   6.331  1.00  0.00     0.240 C 
BRANCH  12  13
HETATM   13  O   UNL     1      64.901   7.386   6.991  1.00  0.00    -0.393 OA
HETATM   14  H   UNL     1      65.636   7.417   6.359  1.00  0.00     0.209 HD
ENDBRANCH  12  13
ENDBRANCH   4  12
TORSDOF 2
ENDMDL
MODEL 7
REMARK VINA RESULT:      -4.7     21.689     22.853
REMARK  2 active torsions:
REMARK  status: ('A' for Active; 'I' for Inactive)
REMARK    1  A    between atoms: C_4  and  C_7 
REMARK    2  A    between atoms: C_7  and  O_8 
ROOT
HETATM    1  N   UNL     1      62.687   9.565   4.080  1.00  0.00    -0.342 N 
ATOM      2  HN  UNL     1      61.881  10.020   3.650  1.00  0.00     0.167 HD
HETATM    3  N   UNL     1      64.405   9.117   5.410  1.00  0.00    -0.342 N 
HETATM    4  C   UNL     1      63.365   9.974   5.134  1.00  0.00     0.106 A 
HETATM    5  C   UNL     1      63.294   8.393   3.682  1.00  0.00     0.060 A 
HETATM    6  C   UNL     1      64.375   8.093   4.500  1.00  0.00     0.060 A 
HETATM    7  C   UNL     1      62.970   7.521   2.631  1.00  0.00     0.032 A 
HETATM    8  C   UNL     1      65.175   6.959   4.330  1.00  0.00     0.032 A 
HETATM    9  C   UNL     1      64.839   6.101   3.279  1.00  0.00     0.002 A 
HETATM   10  C   UNL     1      63.753   6.374   2.442  1.00  0.00     0.002 A 
HETATM   11  H   UNL     1      65.059   9.222   6.139  1.00  0.00     0.167 HD
ENDROOT
BRANCH   4  12
HETATM   12  C   UNL     1      63.096  11.181   5.966  1.00  0.00     0.240 C 
BRANCH  12  13
HETATM   13  O   UNL     1      64.328  11.659   6.494  1.00  0.00    -0.393 OA
HETATM   14  H   UNL     1      65.065  11.275   5.995  1.00  0.00     0.209 HD
ENDBRANCH  12  13
ENDBRANCH   4  12
TORSDOF 2
ENDMDL
MODEL 8
REMARK VINA RESULT:      -4.5     17.834     19.201
REMARK  2 active torsions:
REMARK  status: ('A' for Active; 'I' for Inactive)
REMARK    1  A    between atoms: C_4  and  C_7 
REMARK    2  A    between atoms: C_7  and  O_8 
ROOT
HETATM    1  N   UNL     1      67.408   5.618   5.777  1.00  0.00    -0.342 N 
ATOM      2  HN  UNL     1      67.309   5.220   4.843  1.00  0.00     0.167 HD
HETATM    3  N   UNL     1      67.345   7.014   7.501  1.00  0.00    -0.342 N 
HETATM    4  C   UNL     1      67.025   6.814   6.178  1.00  0.00     0.106 A 
HETATM    5  C   UNL     1      67.968   5.019   6.885  1.00  0.00     0.060 A 
HETATM    6  C   UNL     1      67.943   5.875   7.978  1.00  0.00     0.060 A 
HETATM    7  C   UNL     1      68.515   3.735   7.036  1.00  0.00     0.032 A 
HETATM    8  C   UNL     1      68.443   5.530   9.236  1.00  0.00     0.032 A 
HETATM    9  C   UNL     1      68.984   4.247   9.370  1.00  0.00     0.002 A 
HETATM   10  C   UNL     1      69.020   3.361   8.289  1.00  0.00     0.002 A 
HETATM   11  H   UNL     1      67.174   7.834   8.017  1.00  0.00     0.167 HD
ENDROOT
BRANCH   4  12
HETATM   12  C   UNL     1      66.329   7.856   5.370  1.00  0.00     0.240 C 
BRANCH  12  13
HETATM   13  O   UNL     1      65.929   8.915   6.232  1.00  0.00    -0.393 OA
HETATM   14  H   UNL     1      65.164   8.634   6.757  1.00  0.00     0.209 HD
ENDBRANCH  12  13
ENDBRANCH   4  12
TORSDOF 2
ENDMDL
MODEL 9
REMARK VINA RESULT:      -4.4     17.630     18.836
REMARK  2 active torsions:
REMARK  status: ('A' for Active; 'I' for Inactive)
REMARK    1  A    between atoms: C_4  and  C_7 
REMARK    2  A    between atoms: C_7  and  O_8 
ROOT
HETATM    1  N   UNL     1      68.041   6.609   7.565  1.00  0.00    -0.342 N 
ATOM      2  HN  UNL     1      68.542   7.455   7.292  1.00  0.00     0.167 HD
HETATM    3  N   UNL     1      66.437   5.109   7.886  1.00  0.00    -0.342 N 
HETATM    4  C   UNL     1      66.769   6.333   7.353  1.00  0.00     0.106 A 
HETATM    5  C   UNL     1      68.550   5.516   8.232  1.00  0.00     0.060 A 
HETATM    6  C   UNL     1      67.563   4.563   8.447  1.00  0.00     0.060 A 
HETATM    7  C   UNL     1      69.855   5.260   8.682  1.00  0.00     0.032 A 
HETATM    8  C   UNL     1      67.796   3.349   9.099  1.00  0.00     0.032 A 
HETATM    9  C   UNL     1      69.102   3.110   9.540  1.00  0.00     0.002 A 
HETATM   10  C   UNL     1      70.117   4.048   9.335  1.00  0.00     0.002 A 
HETATM   11  H   UNL     1      65.544   4.696   7.867  1.00  0.00     0.167 HD
ENDROOT
BRANCH   4  12
HETATM   12  C   UNL     1      65.771   7.177   6.636  1.00  0.00     0.240 C 
BRANCH  12  13
HETATM   13  O   UNL     1      64.511   7.048   7.283  1.00  0.00    -0.393 OA
HETATM   14  H   UNL     1      63.853   7.593   6.824  1.00  0.00     0.209 HD
ENDBRANCH  12  13
ENDBRANCH   4  12
TORSDOF 2
ENDMDL
