MODEL 1
REMARK VINA RESULT:      -5.0      0.000      0.000
REMARK  2 active torsions:
REMARK  status: ('A' for Active; 'I' for Inactive)
REMARK    1  A    between atoms: C_10  and  C_12 
REMARK    2  A    between atoms: C_12  and  O_13 
ROOT
HETATM    1  C   UNL     1      67.337   4.481   8.637  1.00  0.00     0.067 A 
HETATM    2  S   UNL     1      66.062   6.343   7.788  1.00  0.00     0.068 SA
HETATM    3  C   UNL     1      68.287   5.619   8.376  1.00  0.00     0.067 A 
HETATM    4  N   UNL     1      66.062   4.775   8.342  1.00  0.00    -0.310 N 
ATOM      5  HN  UNL     1      65.254   4.160   8.437  1.00  0.00     0.176 HD
HETATM    6  N   UNL     1      67.679   6.715   7.896  1.00  0.00    -0.310 N 
ATOM      7  HN  UNL     1      68.121   7.599   7.647  1.00  0.00     0.176 HD
HETATM    8  C   UNL     1      67.805   3.246   9.146  1.00  0.00     0.041 A 
HETATM    9  C   UNL     1      69.670   5.479   8.632  1.00  0.00     0.033 A 
HETATM   10  C   UNL     1      69.193   3.145   9.390  1.00  0.00    -0.033 A 
HETATM   11  C   UNL     1      70.082   4.231   9.139  1.00  0.00     0.012 A 
ENDROOT
BRANCH  10  12
HETATM   12  C   UNL     1      69.751   1.855   9.946  1.00  0.00     0.203 C 
BRANCH  12  13
HETATM   13  O   UNL     1      69.929   1.961  11.351  1.00  0.00    -0.396 OA
HETATM   14  H   UNL     1      70.780   2.385  11.537  1.00  0.00     0.209 HD
ENDBRANCH  12  13
ENDBRANCH  10  12
TORSDOF 2
ENDMDL
MODEL 2
REMARK VINA RESULT:      -4.8     10.500     11.441
REMARK  2 active torsions:
REMARK  status: ('A' for Active; 'I' for Inactive)
REMARK    1  A    between atoms: C_10  and  C_12 
REMARK    2  A    between atoms: C_12  and  O_13 
ROOT
HETATM    1  C   UNL     1      75.368   3.541  17.081  1.00  0.00     0.067 A 
HETATM    2  S   UNL     1      76.411   5.668  17.529  1.00  0.00     0.068 SA
HETATM    3  C   UNL     1      76.663   3.285  17.805  1.00  0.00     0.067 A 
HETATM    4  N   UNL     1      75.126   4.844  16.872  1.00  0.00    -0.310 N 
ATOM      5  HN  UNL     1      74.315   5.247  16.404  1.00  0.00     0.176 HD
HETATM    6  N   UNL     1      77.332   4.408  18.104  1.00  0.00    -0.310 N 
ATOM      7  HN  UNL     1      78.227   4.476  18.588  1.00  0.00     0.176 HD
HETATM    8  C   UNL     1      74.531   2.469  16.687  1.00  0.00     0.041 A 
HETATM    9  C   UNL     1      77.074   1.966  18.106  1.00  0.00     0.033 A 
HETATM   10  C   UNL     1      74.975   1.166  17.008  1.00  0.00    -0.033 A 
HETATM   11  C   UNL     1      76.204   0.938  17.694  1.00  0.00     0.012 A 
ENDROOT
BRANCH  10  12
HETATM   12  C   UNL     1      74.117  -0.018  16.624  1.00  0.00     0.203 C 
BRANCH  12  13
HETATM   13  O   UNL     1      73.917  -0.045  15.219  1.00  0.00    -0.396 OA
HETATM   14  H   UNL     1      73.045  -0.420  15.024  1.00  0.00     0.209 HD
ENDBRANCH  12  13
ENDBRANCH  10  12
TORSDOF 2
ENDMDL
MODEL 3
REMARK VINA RESULT:      -4.4     11.701     12.643
REMARK  2 active torsions:
REMARK  status: ('A' for Active; 'I' for Inactive)
REMARK    1  A    between atoms: C_10  and  C_12 
REMARK    2  A    between atoms: C_12  and  O_13 
ROOT
HETATM    1  C   UNL     1      77.138   0.649  17.798  1.00  0.00     0.067 A 
HETATM    2  S   UNL     1      78.723   1.100  19.558  1.00  0.00     0.068 SA
HETATM    3  C   UNL     1      76.929   2.065  18.265  1.00  0.00     0.067 A 
HETATM    4  N   UNL     1      78.119   0.012  18.455  1.00  0.00    -0.310 N 
ATOM      5  HN  UNL     1      78.432  -0.947  18.308  1.00  0.00     0.176 HD
HETATM    6  N   UNL     1      77.764   2.424  19.252  1.00  0.00    -0.310 N 
ATOM      7  HN  UNL     1      77.802   3.329  19.721  1.00  0.00     0.176 HD
HETATM    8  C   UNL     1      76.345   0.101  16.762  1.00  0.00     0.041 A 
HETATM    9  C   UNL     1      75.933   2.879  17.679  1.00  0.00     0.033 A 
HETATM   10  C   UNL     1      75.362   0.947  16.200  1.00  0.00    -0.033 A 
HETATM   11  C   UNL     1      75.175   2.286  16.651  1.00  0.00     0.012 A 
ENDROOT
BRANCH  10  12
HETATM   12  C   UNL     1      74.492   0.421  15.080  1.00  0.00     0.203 C 
BRANCH  12  13
HETATM   13  O   UNL     1      73.607  -0.574  15.571  1.00  0.00    -0.396 OA
HETATM   14  H   UNL     1      74.020  -1.035  16.317  1.00  0.00     0.209 HD
ENDBRANCH  12  13
ENDBRANCH  10  12
TORSDOF 2
ENDMDL
MODEL 4
REMARK VINA RESULT:      -4.4      1.893      2.497
REMARK  2 active torsions:
REMARK  status: ('A' for Active; 'I' for Inactive)
REMARK    1  A    between atoms: C_10  and  C_12 
REMARK    2  A    between atoms: C_12  and  O_13 
ROOT
HETATM    1  C   UNL     1      67.352   5.745   6.693  1.00  0.00     0.067 A 
HETATM    2  S   UNL     1      65.729   6.978   5.405  1.00  0.00     0.068 SA
HETATM    3  C   UNL     1      66.642   6.695   7.620  1.00  0.00     0.067 A 
HETATM    4  N   UNL     1      66.920   5.819   5.425  1.00  0.00    -0.310 N 
ATOM      5  HN  UNL     1      67.256   5.273   4.631  1.00  0.00     0.176 HD
HETATM    6  N   UNL     1      65.711   7.438   7.003  1.00  0.00    -0.310 N 
ATOM      7  HN  UNL     1      65.112   8.145   7.429  1.00  0.00     0.176 HD
HETATM    8  C   UNL     1      68.366   4.882   7.173  1.00  0.00     0.041 A 
HETATM    9  C   UNL     1      66.974   6.749   8.993  1.00  0.00     0.033 A 
HETATM   10  C   UNL     1      68.668   4.964   8.552  1.00  0.00    -0.033 A 
HETATM   11  C   UNL     1      67.988   5.868   9.418  1.00  0.00     0.012 A 
ENDROOT
BRANCH  10  12
HETATM   12  C   UNL     1      69.734   4.058   9.126  1.00  0.00     0.203 C 
BRANCH  12  13
HETATM   13  O   UNL     1      69.445   3.758  10.483  1.00  0.00    -0.396 OA
HETATM   14  H   UNL     1      70.254   3.835  11.010  1.00  0.00     0.209 HD
ENDBRANCH  12  13
ENDBRANCH  10  12
TORSDOF 2
ENDMDL
MODEL 5
REMARK VINA RESULT:      -4.3      7.722      9.014
REMARK  2 active torsions:
REMARK  status: ('A' for Active; 'I' for Inactive)
REMARK    1  A    between atoms: C_10  and  C_12 
REMARK    2  A    between atoms: C_12  and  O_13 
ROOT
HETATM    1  C   UNL     1      64.213   8.433   5.148  1.00  0.00     0.067 A 
HETATM    2  S   UNL     1      65.619   6.616   5.880  1.00  0.00     0.068 SA
HETATM    3  C   UNL     1      64.130   7.333   4.123  1.00  0.00     0.067 A 
HETATM    4  N   UNL     1      65.021   8.139   6.178  1.00  0.00    -0.310 N 
ATOM      5  HN  UNL     1      65.227   8.731   6.981  1.00  0.00     0.176 HD
HETATM    6  N   UNL     1      64.882   6.266   4.431  1.00  0.00    -0.310 N 
ATOM      7  HN  UNL     1      64.981   5.410   3.886  1.00  0.00     0.176 HD
HETATM    8  C   UNL     1      63.483   9.635   4.985  1.00  0.00     0.041 A 
HETATM    9  C   UNL     1      63.323   7.478   2.971  1.00  0.00     0.033 A 
HETATM   10  C   UNL     1      62.686   9.741   3.822  1.00  0.00    -0.033 A 
HETATM   11  C   UNL     1      62.617   8.692   2.860  1.00  0.00     0.012 A 
ENDROOT
BRANCH  10  12
HETATM   12  C   UNL     1      61.874  10.996   3.600  1.00  0.00     0.203 C 
BRANCH  12  13
HETATM   13  O   UNL     1      62.218  11.981   4.562  1.00  0.00    -0.396 OA
HETATM   14  H   UNL     1      61.421  12.265   5.034  1.00  0.00     0.209 HD
ENDBRANCH  12  13
ENDBRANCH  10  12
TORSDOF 2
ENDMDL
MODEL 6
REMARK VINA RESULT:      -4.3      9.381     10.452
REMARK  2 active torsions:
REMARK  status: ('A' for Active; 'I' for Inactive)
REMARK    1  A    between atoms: C_10  and  C_12 
REMARK    2  A    between atoms: C_12  and  O_13 
ROOT
HETATM    1  C   UNL     1      62.982   7.841   2.548  1.00  0.00     0.067 A 
HETATM    2  S   UNL     1      63.091   6.168   0.815  1.00  0.00     0.068 SA
HETATM    3  C   UNL     1      62.318   8.397   1.317  1.00  0.00     0.067 A 
HETATM    4  N   UNL     1      63.454   6.596   2.380  1.00  0.00    -0.310 N 
ATOM      5  HN  UNL     1      63.939   6.027   3.073  1.00  0.00     0.176 HD
HETATM    6  N   UNL     1      62.323   7.543   0.282  1.00  0.00    -0.310 N 
ATOM      7  HN  UNL     1      61.933   7.705  -0.646  1.00  0.00     0.176 HD
HETATM    8  C   UNL     1      63.068   8.606   3.736  1.00  0.00     0.041 A 
HETATM    9  C   UNL     1      61.765   9.699   1.319  1.00  0.00     0.033 A 
HETATM   10  C   UNL     1      62.503   9.901   3.699  1.00  0.00    -0.033 A 
HETATM   11  C   UNL     1      61.876  10.415   2.527  1.00  0.00     0.012 A 
ENDROOT
BRANCH  10  12
HETATM   12  C   UNL     1      62.552  10.760   4.942  1.00  0.00     0.203 C 
BRANCH  12  13
HETATM   13  O   UNL     1      62.113  12.077   4.647  1.00  0.00    -0.396 OA
HETATM   14  H   UNL     1      62.342  12.667   5.382  1.00  0.00     0.209 HD
ENDBRANCH  12  13
ENDBRANCH  10  12
TORSDOF 2
ENDMDL
MODEL 7
REMARK VINA RESULT:      -4.2      1.633      2.182
REMARK  2 active torsions:
REMARK  status: ('A' for Active; 'I' for Inactive)
REMARK    1  A    between atoms: C_10  and  C_12 
REMARK    2  A    between atoms: C_12  and  O_13 
ROOT
HETATM    1  C   UNL     1      67.679   6.201   7.938  1.00  0.00     0.067 A 
HETATM    2  S   UNL     1      66.528   7.558   6.311  1.00  0.00     0.068 SA
HETATM    3  C   UNL     1      67.567   5.410   6.663  1.00  0.00     0.067 A 
HETATM    4  N   UNL     1      67.129   7.422   7.855  1.00  0.00    -0.310 N 
ATOM      5  HN  UNL     1      67.087   8.126   8.592  1.00  0.00     0.176 HD
HETATM    6  N   UNL     1      66.937   6.074   5.683  1.00  0.00    -0.310 N 
ATOM      7  HN  UNL     1      66.746   5.735   4.740  1.00  0.00     0.176 HD
HETATM    8  C   UNL     1      68.316   5.656   9.079  1.00  0.00     0.041 A 
HETATM    9  C   UNL     1      68.094   4.100   6.576  1.00  0.00     0.033 A 
HETATM   10  C   UNL     1      68.831   4.346   8.953  1.00  0.00    -0.033 A 
HETATM   11  C   UNL     1      68.718   3.607   7.739  1.00  0.00     0.012 A 
ENDROOT
BRANCH  10  12
HETATM   12  C   UNL     1      69.533   3.715  10.134  1.00  0.00     0.203 C 
BRANCH  12  13
HETATM   13  O   UNL     1      70.179   2.515   9.738  1.00  0.00    -0.396 OA
HETATM   14  H   UNL     1      71.139   2.641   9.762  1.00  0.00     0.209 HD
ENDBRANCH  12  13
ENDBRANCH  10  12
TORSDOF 2
ENDMDL
MODEL 8
REMARK VINA RESULT:      -4.1      7.927      8.863
REMARK  2 active torsions:
REMARK  status: ('A' for Active; 'I' for Inactive)
REMARK    1  A    between atoms: C_10  and  C_12 
REMARK    2  A    between atoms: C_12  and  O_13 
ROOT
HETATM    1  C   UNL     1      62.813   8.158   2.704  1.00  0.00     0.067 A 
HETATM    2  S   UNL     1      61.209   8.530   0.941  1.00  0.00     0.068 SA
HETATM    3  C   UNL     1      62.042   9.409   3.028  1.00  0.00     0.067 A 
HETATM    4  N   UNL     1      62.430   7.582   1.554  1.00  0.00    -0.310 N 
ATOM      5  HN  UNL     1      62.811   6.732   1.139  1.00  0.00     0.176 HD
HETATM    6  N   UNL     1      61.117   9.714   2.106  1.00  0.00    -0.310 N 
ATOM      7  HN  UNL     1      60.483  10.513   2.117  1.00  0.00     0.176 HD
HETATM    8  C   UNL     1      63.829   7.685   3.568  1.00  0.00     0.041 A 
HETATM    9  C   UNL     1      62.318  10.143   4.205  1.00  0.00     0.033 A 
HETATM   10  C   UNL     1      64.074   8.445   4.734  1.00  0.00    -0.033 A 
HETATM   11  C   UNL     1      63.337   9.628   5.030  1.00  0.00     0.012 A 
ENDROOT
BRANCH  10  12
HETATM   12  C   UNL     1      65.140   7.983   5.702  1.00  0.00     0.203 C 
BRANCH  12  13
HETATM   13  O   UNL     1      64.543   7.357   6.828  1.00  0.00    -0.396 OA
HETATM   14  H   UNL     1      64.246   8.034   7.455  1.00  0.00     0.209 HD
ENDBRANCH  12  13
ENDBRANCH  10  12
TORSDOF 2
ENDMDL
MODEL 9
REMARK VINA RESULT:      -4.1      9.786     10.866
REMARK  2 active torsions:
REMARK  status: ('A' for Active; 'I' for Inactive)
REMARK    1  A    between atoms: C_10  and  C_12 
REMARK    2  A    between atoms: C_12  and  O_13 
ROOT
HETATM    1  C   UNL     1      62.401   8.055   0.991  1.00  0.00     0.067 A 
HETATM    2  S   UNL     1      62.939   5.913   0.021  1.00  0.00     0.068 SA
HETATM    3  C   UNL     1      63.041   7.205   2.056  1.00  0.00     0.067 A 
HETATM    4  N   UNL     1      62.293   7.430  -0.192  1.00  0.00    -0.310 N 
ATOM      5  HN  UNL     1      61.894   7.810  -1.050  1.00  0.00     0.176 HD
HETATM    6  N   UNL     1      63.381   5.982   1.623  1.00  0.00    -0.310 N 
ATOM      7  HN  UNL     1      63.823   5.242   2.168  1.00  0.00     0.176 HD
HETATM    8  C   UNL     1      61.979   9.376   1.271  1.00  0.00     0.041 A 
HETATM    9  C   UNL     1      63.232   7.708   3.364  1.00  0.00     0.033 A 
HETATM   10  C   UNL     1      62.189   9.844   2.588  1.00  0.00    -0.033 A 
HETATM   11  C   UNL     1      62.795   9.029   3.588  1.00  0.00     0.012 A 
ENDROOT
BRANCH  10  12
HETATM   12  C   UNL     1      61.770  11.252   2.944  1.00  0.00     0.203 C 
BRANCH  12  13
HETATM   13  O   UNL     1      62.097  12.144   1.889  1.00  0.00    -0.396 OA
HETATM   14  H   UNL     1      61.545  11.949   1.117  1.00  0.00     0.209 HD
ENDBRANCH  12  13
ENDBRANCH  10  12
TORSDOF 2
ENDMDL
