MODEL 1
REMARK VINA RESULT:      -5.5      0.000      0.000
REMARK  2 active torsions:
REMARK  status: ('A' for Active; 'I' for Inactive)
REMARK    1  A    between atoms: C_2  and  C_6 
REMARK    2  A    between atoms: C_3  and  C_7 
ROOT
HETATM    1  S   UNL     1      64.785   8.308   5.245  1.00  0.00    -0.083 SA
HETATM    2  C   UNL     1      64.554   7.005   6.326  1.00  0.00     0.082 A 
HETATM    3  C   UNL     1      63.133   8.333   4.769  1.00  0.00     0.016 A 
HETATM    4  C   UNL     1      63.245   6.571   6.309  1.00  0.00     0.027 A 
HETATM    5  C   UNL     1      62.432   7.330   5.417  1.00  0.00     0.021 A 
ENDROOT
BRANCH   3   6
HETATM    6  C   UNL     1      62.639   9.313   3.781  1.00  0.00    -0.019 A 
HETATM    7  C   UNL     1      62.313  10.618   4.186  1.00  0.00     0.013 A 
HETATM    8  C   UNL     1      61.858  11.567   3.266  1.00  0.00     0.001 A 
HETATM    9  C   UNL     1      61.720  11.228   1.924  1.00  0.00     0.000 A 
HETATM   10  C   UNL     1      62.038   9.941   1.500  1.00  0.00     0.001 A 
HETATM   11  C   UNL     1      62.496   8.993   2.421  1.00  0.00     0.013 A 
ENDBRANCH   3   6
BRANCH   2  12
HETATM   12  C   UNL     1      65.673   6.519   7.099  1.00  0.00     0.216 C 
HETATM   13  O   UNL     1      66.016   5.366   7.319  1.00  0.00    -0.643 OA
HETATM   14  O   UNL     1      66.399   7.539   7.616  1.00  0.00    -0.643 OA
ENDBRANCH   2  12
TORSDOF 2
ENDMDL
MODEL 2
REMARK VINA RESULT:      -5.5      3.451      7.671
REMARK  2 active torsions:
REMARK  status: ('A' for Active; 'I' for Inactive)
REMARK    1  A    between atoms: C_2  and  C_6 
REMARK    2  A    between atoms: C_3  and  C_7 
ROOT
HETATM    1  S   UNL     1      65.825   6.718   6.763  1.00  0.00    -0.083 SA
HETATM    2  C   UNL     1      65.898   7.871   5.504  1.00  0.00     0.082 A 
HETATM    3  C   UNL     1      67.476   6.273   6.583  1.00  0.00     0.016 A 
HETATM    4  C   UNL     1      67.153   7.902   4.930  1.00  0.00     0.027 A 
HETATM    5  C   UNL     1      68.055   6.986   5.547  1.00  0.00     0.021 A 
ENDROOT
BRANCH   3   6
HETATM    6  C   UNL     1      68.087   5.244   7.448  1.00  0.00    -0.019 A 
HETATM    7  C   UNL     1      68.296   3.944   6.957  1.00  0.00     0.013 A 
HETATM    8  C   UNL     1      68.887   2.958   7.753  1.00  0.00     0.001 A 
HETATM    9  C   UNL     1      69.278   3.253   9.055  1.00  0.00     0.000 A 
HETATM   10  C   UNL     1      69.080   4.534   9.562  1.00  0.00     0.001 A 
HETATM   11  C   UNL     1      68.493   5.522   8.764  1.00  0.00     0.013 A 
ENDBRANCH   3   6
BRANCH   2  12
HETATM   12  C   UNL     1      64.723   8.647   5.185  1.00  0.00     0.216 C 
HETATM   13  O   UNL     1      63.797   8.371   4.436  1.00  0.00    -0.643 OA
HETATM   14  O   UNL     1      64.714   9.828   5.848  1.00  0.00    -0.643 OA
ENDBRANCH   2  12
TORSDOF 2
ENDMDL
MODEL 3
REMARK VINA RESULT:      -5.3      5.692      7.177
REMARK  2 active torsions:
REMARK  status: ('A' for Active; 'I' for Inactive)
REMARK    1  A    between atoms: C_2  and  C_6 
REMARK    2  A    between atoms: C_3  and  C_7 
ROOT
HETATM    1  S   UNL     1      67.814   3.018   8.274  1.00  0.00    -0.083 SA
HETATM    2  C   UNL     1      68.832   3.060   9.646  1.00  0.00     0.082 A 
HETATM    3  C   UNL     1      68.378   4.534   7.689  1.00  0.00     0.016 A 
HETATM    4  C   UNL     1      69.573   4.223   9.681  1.00  0.00     0.027 A 
HETATM    5  C   UNL     1      69.313   5.067   8.561  1.00  0.00     0.021 A 
ENDROOT
BRANCH   3   6
HETATM    6  C   UNL     1      67.855   5.108   6.434  1.00  0.00    -0.019 A 
HETATM    7  C   UNL     1      67.758   6.502   6.284  1.00  0.00     0.013 A 
HETATM    8  C   UNL     1      67.281   7.070   5.098  1.00  0.00     0.001 A 
HETATM    9  C   UNL     1      66.890   6.253   4.042  1.00  0.00     0.000 A 
HETATM   10  C   UNL     1      66.978   4.869   4.169  1.00  0.00     0.001 A 
HETATM   11  C   UNL     1      67.460   4.303   5.353  1.00  0.00     0.013 A 
ENDBRANCH   3   6
BRANCH   2  12
HETATM   12  C   UNL     1      68.819   1.952  10.572  1.00  0.00     0.216 C 
HETATM   13  O   UNL     1      67.870   1.288  10.966  1.00  0.00    -0.643 OA
HETATM   14  O   UNL     1      70.064   1.663  11.018  1.00  0.00    -0.643 OA
ENDBRANCH   2  12
TORSDOF 2
ENDMDL
MODEL 4
REMARK VINA RESULT:      -5.2      1.483      2.423
REMARK  2 active torsions:
REMARK  status: ('A' for Active; 'I' for Inactive)
REMARK    1  A    between atoms: C_2  and  C_6 
REMARK    2  A    between atoms: C_3  and  C_7 
ROOT
HETATM    1  S   UNL     1      64.196   6.750   6.492  1.00  0.00    -0.083 SA
HETATM    2  C   UNL     1      65.761   6.686   7.177  1.00  0.00     0.082 A 
HETATM    3  C   UNL     1      64.647   7.936   5.332  1.00  0.00     0.016 A 
HETATM    4  C   UNL     1      66.612   7.575   6.554  1.00  0.00     0.027 A 
HETATM    5  C   UNL     1      65.975   8.291   5.499  1.00  0.00     0.021 A 
ENDROOT
BRANCH   3   6
HETATM    6  C   UNL     1      63.670   8.456   4.354  1.00  0.00    -0.019 A 
HETATM    7  C   UNL     1      63.428   7.756   3.160  1.00  0.00     0.013 A 
HETATM    8  C   UNL     1      62.496   8.220   2.227  1.00  0.00     0.001 A 
HETATM    9  C   UNL     1      61.790   9.394   2.470  1.00  0.00     0.000 A 
HETATM   10  C   UNL     1      62.014  10.103   3.646  1.00  0.00     0.001 A 
HETATM   11  C   UNL     1      62.943   9.636   4.581  1.00  0.00     0.013 A 
ENDBRANCH   3   6
BRANCH   2  12
HETATM   12  C   UNL     1      66.021   5.772   8.264  1.00  0.00     0.216 C 
HETATM   13  O   UNL     1      65.993   4.549   8.267  1.00  0.00    -0.643 OA
HETATM   14  O   UNL     1      66.339   6.433   9.402  1.00  0.00    -0.643 OA
ENDBRANCH   2  12
TORSDOF 2
ENDMDL
MODEL 5
REMARK VINA RESULT:      -4.9     18.499     20.687
REMARK  2 active torsions:
REMARK  status: ('A' for Active; 'I' for Inactive)
REMARK    1  A    between atoms: C_2  and  C_6 
REMARK    2  A    between atoms: C_3  and  C_7 
ROOT
HETATM    1  S   UNL     1      78.273   1.707  19.520  1.00  0.00    -0.083 SA
HETATM    2  C   UNL     1      78.678   0.047  19.533  1.00  0.00     0.082 A 
HETATM    3  C   UNL     1      77.174   1.529  18.209  1.00  0.00     0.016 A 
HETATM    4  C   UNL     1      78.011  -0.635  18.536  1.00  0.00     0.027 A 
HETATM    5  C   UNL     1      77.151   0.214  17.778  1.00  0.00     0.021 A 
ENDROOT
BRANCH   3   6
HETATM    6  C   UNL     1      76.428   2.687  17.678  1.00  0.00    -0.019 A 
HETATM    7  C   UNL     1      75.136   2.512  17.155  1.00  0.00     0.013 A 
HETATM    8  C   UNL     1      74.404   3.596  16.660  1.00  0.00     0.001 A 
HETATM    9  C   UNL     1      74.952   4.875  16.679  1.00  0.00     0.000 A 
HETATM   10  C   UNL     1      76.231   5.071  17.193  1.00  0.00     0.001 A 
HETATM   11  C   UNL     1      76.961   3.987  17.691  1.00  0.00     0.013 A 
ENDBRANCH   3   6
BRANCH   2  12
HETATM   12  C   UNL     1      79.613  -0.447  20.516  1.00  0.00     0.216 C 
HETATM   13  O   UNL     1      79.824  -0.042  21.650  1.00  0.00    -0.643 OA
HETATM   14  O   UNL     1      80.311  -1.508  20.047  1.00  0.00    -0.643 OA
ENDBRANCH   2  12
TORSDOF 2
ENDMDL
MODEL 6
REMARK VINA RESULT:      -4.9      4.638      8.739
REMARK  2 active torsions:
REMARK  status: ('A' for Active; 'I' for Inactive)
REMARK    1  A    between atoms: C_2  and  C_6 
REMARK    2  A    between atoms: C_3  and  C_7 
ROOT
HETATM    1  S   UNL     1      67.508   5.361   6.717  1.00  0.00    -0.083 SA
HETATM    2  C   UNL     1      66.935   6.896   7.205  1.00  0.00     0.082 A 
HETATM    3  C   UNL     1      67.922   4.898   8.321  1.00  0.00     0.016 A 
HETATM    4  C   UNL     1      67.080   7.071   8.566  1.00  0.00     0.027 A 
HETATM    5  C   UNL     1      67.646   5.928   9.204  1.00  0.00     0.021 A 
ENDROOT
BRANCH   3   6
HETATM    6  C   UNL     1      68.506   3.572   8.604  1.00  0.00    -0.019 A 
HETATM    7  C   UNL     1      69.065   3.303   9.864  1.00  0.00     0.013 A 
HETATM    8  C   UNL     1      69.610   2.050  10.161  1.00  0.00     0.001 A 
HETATM    9  C   UNL     1      69.608   1.043   9.200  1.00  0.00     0.000 A 
HETATM   10  C   UNL     1      69.060   1.288   7.944  1.00  0.00     0.001 A 
HETATM   11  C   UNL     1      68.511   2.540   7.650  1.00  0.00     0.013 A 
ENDBRANCH   3   6
BRANCH   2  12
HETATM   12  C   UNL     1      66.393   7.797   6.216  1.00  0.00     0.216 C 
HETATM   13  O   UNL     1      65.992   8.944   6.355  1.00  0.00    -0.643 OA
HETATM   14  O   UNL     1      66.359   7.224   4.989  1.00  0.00    -0.643 OA
ENDBRANCH   2  12
TORSDOF 2
ENDMDL
MODEL 7
REMARK VINA RESULT:      -4.8     17.775     19.080
REMARK  2 active torsions:
REMARK  status: ('A' for Active; 'I' for Inactive)
REMARK    1  A    between atoms: C_2  and  C_6 
REMARK    2  A    between atoms: C_3  and  C_7 
ROOT
HETATM    1  S   UNL     1      76.563   0.001  16.427  1.00  0.00    -0.083 SA
HETATM    2  C   UNL     1      74.960   0.444  16.822  1.00  0.00     0.082 A 
HETATM    3  C   UNL     1      76.204  -0.177  14.755  1.00  0.00     0.016 A 
HETATM    4  C   UNL     1      74.151   0.431  15.705  1.00  0.00     0.027 A 
HETATM    5  C   UNL     1      74.863   0.074  14.522  1.00  0.00     0.021 A 
ENDROOT
BRANCH   3   6
HETATM    6  C   UNL     1      77.250  -0.571  13.790  1.00  0.00    -0.019 A 
HETATM    7  C   UNL     1      78.452  -1.138  14.245  1.00  0.00     0.013 A 
HETATM    8  C   UNL     1      79.449  -1.534  13.349  1.00  0.00     0.001 A 
HETATM    9  C   UNL     1      79.264  -1.367  11.980  1.00  0.00     0.000 A 
HETATM   10  C   UNL     1      78.081  -0.807  11.507  1.00  0.00     0.001 A 
HETATM   11  C   UNL     1      77.081  -0.416  12.404  1.00  0.00     0.013 A 
ENDBRANCH   3   6
BRANCH   2  12
HETATM   12  C   UNL     1      74.631   0.767  18.190  1.00  0.00     0.216 C 
HETATM   13  O   UNL     1      74.199   0.039  19.073  1.00  0.00    -0.643 OA
HETATM   14  O   UNL     1      74.864   2.074  18.461  1.00  0.00    -0.643 OA
ENDBRANCH   2  12
TORSDOF 2
ENDMDL
MODEL 8
REMARK VINA RESULT:      -4.6      2.934      4.437
REMARK  2 active torsions:
REMARK  status: ('A' for Active; 'I' for Inactive)
REMARK    1  A    between atoms: C_2  and  C_6 
REMARK    2  A    between atoms: C_3  and  C_7 
ROOT
HETATM    1  S   UNL     1      65.859   5.009   7.756  1.00  0.00    -0.083 SA
HETATM    2  C   UNL     1      67.529   4.721   7.983  1.00  0.00     0.082 A 
HETATM    3  C   UNL     1      66.132   6.374   6.747  1.00  0.00     0.016 A 
HETATM    4  C   UNL     1      68.289   5.665   7.324  1.00  0.00     0.027 A 
HETATM    5  C   UNL     1      67.490   6.612   6.618  1.00  0.00     0.021 A 
ENDROOT
BRANCH   3   6
HETATM    6  C   UNL     1      65.005   7.131   6.168  1.00  0.00    -0.019 A 
HETATM    7  C   UNL     1      63.682   6.732   6.426  1.00  0.00     0.013 A 
HETATM    8  C   UNL     1      62.598   7.443   5.902  1.00  0.00     0.001 A 
HETATM    9  C   UNL     1      62.817   8.565   5.109  1.00  0.00     0.000 A 
HETATM   10  C   UNL     1      64.119   8.978   4.841  1.00  0.00     0.001 A 
HETATM   11  C   UNL     1      65.203   8.269   5.368  1.00  0.00     0.013 A 
ENDBRANCH   3   6
BRANCH   2  12
HETATM   12  C   UNL     1      67.952   3.597   8.784  1.00  0.00     0.216 C 
HETATM   13  O   UNL     1      67.276   2.712   9.289  1.00  0.00    -0.643 OA
HETATM   14  O   UNL     1      69.296   3.586   8.952  1.00  0.00    -0.643 OA
ENDBRANCH   2  12
TORSDOF 2
ENDMDL
MODEL 9
REMARK VINA RESULT:      -4.4     17.004     18.348
REMARK  2 active torsions:
REMARK  status: ('A' for Active; 'I' for Inactive)
REMARK    1  A    between atoms: C_2  and  C_6 
REMARK    2  A    between atoms: C_3  and  C_7 
ROOT
HETATM    1  S   UNL     1      48.055  18.606   2.891  1.00  0.00    -0.083 SA
HETATM    2  C   UNL     1      48.901  19.201   1.531  1.00  0.00     0.082 A 
HETATM    3  C   UNL     1      48.943  17.134   2.922  1.00  0.00     0.016 A 
HETATM    4  C   UNL     1      49.830  18.284   1.083  1.00  0.00     0.027 A 
HETATM    5  C   UNL     1      49.853  17.101   1.879  1.00  0.00     0.021 A 
ENDROOT
BRANCH   3   6
HETATM    6  C   UNL     1      48.678  16.104   3.946  1.00  0.00    -0.019 A 
HETATM    7  C   UNL     1      49.624  15.852   4.954  1.00  0.00     0.013 A 
HETATM    8  C   UNL     1      49.387  14.894   5.944  1.00  0.00     0.001 A 
HETATM    9  C   UNL     1      48.200  14.168   5.943  1.00  0.00     0.000 A 
HETATM   10  C   UNL     1      47.249  14.401   4.953  1.00  0.00     0.001 A 
HETATM   11  C   UNL     1      47.484  15.363   3.966  1.00  0.00     0.013 A 
ENDBRANCH   3   6
BRANCH   2  12
HETATM   12  C   UNL     1      48.585  20.513   1.018  1.00  0.00     0.216 C 
HETATM   13  O   UNL     1      48.884  21.013  -0.057  1.00  0.00    -0.643 OA
HETATM   14  O   UNL     1      47.850  21.228   1.904  1.00  0.00    -0.643 OA
ENDBRANCH   2  12
TORSDOF 2
ENDMDL
