MODEL 1
REMARK VINA RESULT:      -6.0      0.000      0.000
REMARK  0 active torsions:
REMARK  status: ('A' for Active; 'I' for Inactive)
ROOT
HETATM    1  C   UNL     1      77.598   9.550  17.252  1.00  0.00    -0.078 C 
HETATM    2  C   UNL     1      77.463   8.772  16.346  1.00  0.00     0.018 C 
HETATM    3  C   UNL     1      79.008  11.256  20.255  1.00  0.00     0.060 A 
HETATM    4  N   UNL     1      80.089  11.144  21.053  1.00  0.00    -0.363 N 
ATOM      5  HN  UNL     1      80.790  10.417  20.910  1.00  0.00     0.165 HD
HETATM    6  N   UNL     1      78.154  13.153  21.480  1.00  0.00    -0.363 N 
ATOM      7  HN  UNL     1      77.454  13.876  21.646  1.00  0.00     0.165 HD
HETATM    8  C   UNL     1      78.039  12.271  20.467  1.00  0.00     0.059 A 
HETATM    9  C   UNL     1      78.840  10.368  19.199  1.00  0.00     0.052 A 
HETATM   10  C   UNL     1      77.748  10.473  18.335  1.00  0.00     0.019 A 
HETATM   11  C   UNL     1      76.957  12.362  19.602  1.00  0.00     0.033 A 
HETATM   12  C   UNL     1      76.807  11.478  18.531  1.00  0.00     0.023 A 
HETATM   13  C   UNL     1      80.194  12.047  22.053  1.00  0.00     0.105 A 
HETATM   14  C   UNL     1      79.246  13.026  22.265  1.00  0.00     0.105 A 
ENDROOT
TORSDOF 0
ENDMDL
MODEL 2
REMARK VINA RESULT:      -4.8     15.577     17.097
REMARK  0 active torsions:
REMARK  status: ('A' for Active; 'I' for Inactive)
ROOT
HETATM    1  C   UNL     1      67.645   5.553   5.928  1.00  0.00    -0.078 C 
HETATM    2  C   UNL     1      67.224   6.113   4.951  1.00  0.00     0.018 C 
HETATM    3  C   UNL     1      68.855   2.851   8.198  1.00  0.00     0.060 A 
HETATM    4  N   UNL     1      69.099   1.526   8.135  1.00  0.00    -0.363 N 
ATOM      5  HN  UNL     1      68.932   0.989   7.283  1.00  0.00     0.165 HD
HETATM    6  N   UNL     1      69.550   2.987  10.506  1.00  0.00    -0.363 N 
ATOM      7  HN  UNL     1      69.708   3.508  11.369  1.00  0.00     0.165 HD
HETATM    8  C   UNL     1      69.089   3.585   9.390  1.00  0.00     0.059 A 
HETATM    9  C   UNL     1      68.373   3.515   7.076  1.00  0.00     0.052 A 
HETATM   10  C   UNL     1      68.137   4.891   7.097  1.00  0.00     0.019 A 
HETATM   11  C   UNL     1      68.847   4.953   9.397  1.00  0.00     0.033 A 
HETATM   12  C   UNL     1      68.383   5.615   8.258  1.00  0.00     0.023 A 
HETATM   13  C   UNL     1      69.576   0.949   9.259  1.00  0.00     0.105 A 
HETATM   14  C   UNL     1      69.792   1.662  10.420  1.00  0.00     0.105 A 
ENDROOT
TORSDOF 0
ENDMDL
MODEL 3
REMARK VINA RESULT:      -4.7      3.047      4.828
REMARK  0 active torsions:
REMARK  status: ('A' for Active; 'I' for Inactive)
ROOT
HETATM    1  C   UNL     1      78.150  12.371  20.960  1.00  0.00    -0.078 C 
HETATM    2  C   UNL     1      77.496  12.372  19.952  1.00  0.00     0.018 C 
HETATM    3  C   UNL     1      79.195  11.738  24.486  1.00  0.00     0.060 A 
HETATM    4  N   UNL     1      78.719  11.092  25.569  1.00  0.00    -0.363 N 
ATOM      5  HN  UNL     1      77.820  10.609  25.555  1.00  0.00     0.165 HD
HETATM    6  N   UNL     1      81.200  12.434  25.636  1.00  0.00    -0.363 N 
ATOM      7  HN  UNL     1      82.094  12.925  25.670  1.00  0.00     0.165 HD
HETATM    8  C   UNL     1      80.446  12.407  24.519  1.00  0.00     0.059 A 
HETATM    9  C   UNL     1      78.454  11.745  23.310  1.00  0.00     0.052 A 
HETATM   10  C   UNL     1      78.929  12.380  22.160  1.00  0.00     0.019 A 
HETATM   11  C   UNL     1      80.905  13.037  23.370  1.00  0.00     0.033 A 
HETATM   12  C   UNL     1      80.163  13.021  22.187  1.00  0.00     0.023 A 
HETATM   13  C   UNL     1      79.497  11.116  26.673  1.00  0.00     0.105 A 
HETATM   14  C   UNL     1      80.707  11.777  26.708  1.00  0.00     0.105 A 
ENDROOT
TORSDOF 0
ENDMDL
MODEL 4
REMARK VINA RESULT:      -4.7     22.363     24.123
REMARK  0 active torsions:
REMARK  status: ('A' for Active; 'I' for Inactive)
ROOT
HETATM    1  C   UNL     1      62.522   6.998  -0.621  1.00  0.00    -0.078 C 
HETATM    2  C   UNL     1      62.504   6.441  -1.686  1.00  0.00     0.018 C 
HETATM    3  C   UNL     1      62.162   9.648   1.981  1.00  0.00     0.060 A 
HETATM    4  N   UNL     1      61.733  10.923   2.056  1.00  0.00    -0.363 N 
ATOM      5  HN  UNL     1      61.399  11.427   1.234  1.00  0.00     0.165 HD
HETATM    6  N   UNL     1      62.670   9.556   4.339  1.00  0.00    -0.363 N 
ATOM      7  HN  UNL     1      63.015   9.071   5.167  1.00  0.00     0.165 HD
HETATM    8  C   UNL     1      62.627   8.959   3.132  1.00  0.00     0.059 A 
HETATM    9  C   UNL     1      62.144   8.988   0.758  1.00  0.00     0.052 A 
HETATM   10  C   UNL     1      62.554   7.658   0.648  1.00  0.00     0.019 A 
HETATM   11  C   UNL     1      63.034   7.638   3.008  1.00  0.00     0.033 A 
HETATM   12  C   UNL     1      62.992   6.977   1.779  1.00  0.00     0.023 A 
HETATM   13  C   UNL     1      61.768  11.499   3.277  1.00  0.00     0.105 A 
HETATM   14  C   UNL     1      62.231  10.832   4.393  1.00  0.00     0.105 A 
ENDROOT
TORSDOF 0
ENDMDL
MODEL 5
REMARK VINA RESULT:      -4.7     21.526     23.593
REMARK  0 active torsions:
REMARK  status: ('A' for Active; 'I' for Inactive)
ROOT
HETATM    1  C   UNL     1      63.159   6.113   0.547  1.00  0.00    -0.078 C 
HETATM    2  C   UNL     1      63.446   5.091  -0.017  1.00  0.00     0.018 C 
HETATM    3  C   UNL     1      62.852   8.702   3.217  1.00  0.00     0.060 A 
HETATM    4  N   UNL     1      63.252   8.874   4.493  1.00  0.00    -0.363 N 
ATOM      5  HN  UNL     1      63.785   8.161   4.990  1.00  0.00     0.165 HD
HETATM    6  N   UNL     1      61.761  10.854   3.143  1.00  0.00    -0.363 N 
ATOM      7  HN  UNL     1      61.215  11.570   2.664  1.00  0.00     0.165 HD
HETATM    8  C   UNL     1      62.108   9.701   2.537  1.00  0.00     0.059 A 
HETATM    9  C   UNL     1      63.180   7.528   2.547  1.00  0.00     0.052 A 
HETATM   10  C   UNL     1      62.808   7.327   1.217  1.00  0.00     0.019 A 
HETATM   11  C   UNL     1      61.742   9.487   1.215  1.00  0.00     0.033 A 
HETATM   12  C   UNL     1      62.094   8.314   0.545  1.00  0.00     0.023 A 
HETATM   13  C   UNL     1      62.908  10.043   5.077  1.00  0.00     0.105 A 
HETATM   14  C   UNL     1      62.175  11.008   4.419  1.00  0.00     0.105 A 
ENDROOT
TORSDOF 0
ENDMDL
MODEL 6
REMARK VINA RESULT:      -4.7     15.831     17.368
REMARK  0 active torsions:
REMARK  status: ('A' for Active; 'I' for Inactive)
ROOT
HETATM    1  C   UNL     1      69.681   2.068   9.588  1.00  0.00    -0.078 C 
HETATM    2  C   UNL     1      70.108   1.078  10.119  1.00  0.00     0.018 C 
HETATM    3  C   UNL     1      68.264   4.348   6.997  1.00  0.00     0.060 A 
HETATM    4  N   UNL     1      67.832   4.268   5.722  1.00  0.00    -0.363 N 
ATOM      5  HN  UNL     1      67.863   3.392   5.199  1.00  0.00     0.165 HD
HETATM    6  N   UNL     1      67.756   6.703   7.144  1.00  0.00    -0.363 N 
ATOM      7  HN  UNL     1      67.733   7.590   7.649  1.00  0.00     0.165 HD
HETATM    8  C   UNL     1      68.218   5.573   7.713  1.00  0.00     0.059 A 
HETATM    9  C   UNL     1      68.755   3.212   7.629  1.00  0.00     0.052 A 
HETATM   10  C   UNL     1      69.183   3.251   8.957  1.00  0.00     0.019 A 
HETATM   11  C   UNL     1      68.649   5.599   9.033  1.00  0.00     0.033 A 
HETATM   12  C   UNL     1      69.122   4.447   9.665  1.00  0.00     0.023 A 
HETATM   13  C   UNL     1      67.358   5.408   5.175  1.00  0.00     0.105 A 
HETATM   14  C   UNL     1      67.325   6.600   5.868  1.00  0.00     0.105 A 
ENDROOT
TORSDOF 0
ENDMDL
MODEL 7
REMARK VINA RESULT:      -4.7     15.853     17.880
REMARK  0 active torsions:
REMARK  status: ('A' for Active; 'I' for Inactive)
ROOT
HETATM    1  C   UNL     1      69.171   3.651   9.223  1.00  0.00    -0.078 C 
HETATM    2  C   UNL     1      69.697   3.071  10.135  1.00  0.00     0.018 C 
HETATM    3  C   UNL     1      67.503   6.341   7.247  1.00  0.00     0.060 A 
HETATM    4  N   UNL     1      67.136   7.627   7.419  1.00  0.00    -0.363 N 
ATOM      5  HN  UNL     1      67.290   8.116   8.301  1.00  0.00     0.165 HD
HETATM    6  N   UNL     1      66.684   6.288   4.977  1.00  0.00    -0.363 N 
ATOM      7  HN  UNL     1      66.510   5.808   4.094  1.00  0.00     0.165 HD
HETATM    8  C   UNL     1      67.281   5.671   6.016  1.00  0.00     0.059 A 
HETATM    9  C   UNL     1      68.117   5.657   8.290  1.00  0.00     0.052 A 
HETATM   10  C   UNL     1      68.537   4.334   8.137  1.00  0.00     0.019 A 
HETATM   11  C   UNL     1      67.700   4.355   5.879  1.00  0.00     0.033 A 
HETATM   12  C   UNL     1      68.336   3.682   6.925  1.00  0.00     0.023 A 
HETATM   13  C   UNL     1      66.554   8.232   6.361  1.00  0.00     0.105 A 
HETATM   14  C   UNL     1      66.328   7.577   5.169  1.00  0.00     0.105 A 
ENDROOT
TORSDOF 0
ENDMDL
MODEL 8
REMARK VINA RESULT:      -4.6     19.449     21.787
REMARK  0 active torsions:
REMARK  status: ('A' for Active; 'I' for Inactive)
ROOT
HETATM    1  C   UNL     1      61.515   8.568   1.816  1.00  0.00    -0.078 C 
HETATM    2  C   UNL     1      60.722   8.544   0.912  1.00  0.00     0.018 C 
HETATM    3  C   UNL     1      64.331   7.601   4.064  1.00  0.00     0.060 A 
HETATM    4  N   UNL     1      65.262   6.628   4.139  1.00  0.00    -0.363 N 
ATOM      5  HN  UNL     1      65.307   5.874   3.453  1.00  0.00     0.165 HD
HETATM    6  N   UNL     1      65.143   8.695   6.057  1.00  0.00    -0.363 N 
ATOM      7  HN  UNL     1      65.101   9.434   6.759  1.00  0.00     0.165 HD
HETATM    8  C   UNL     1      64.277   8.643   5.026  1.00  0.00     0.059 A 
HETATM    9  C   UNL     1      63.409   7.591   3.023  1.00  0.00     0.052 A 
HETATM   10  C   UNL     1      62.450   8.597   2.898  1.00  0.00     0.019 A 
HETATM   11  C   UNL     1      63.316   9.636   4.891  1.00  0.00     0.033 A 
HETATM   12  C   UNL     1      62.408   9.629   3.830  1.00  0.00     0.023 A 
HETATM   13  C   UNL     1      66.131   6.707   5.170  1.00  0.00     0.105 A 
HETATM   14  C   UNL     1      66.070   7.714   6.111  1.00  0.00     0.105 A 
ENDROOT
TORSDOF 0
ENDMDL
MODEL 9
REMARK VINA RESULT:      -4.6     16.222     18.696
REMARK  0 active torsions:
REMARK  status: ('A' for Active; 'I' for Inactive)
ROOT
HETATM    1  C   UNL     1      64.246   7.792   4.244  1.00  0.00    -0.078 C 
HETATM    2  C   UNL     1      63.335   8.171   3.557  1.00  0.00     0.018 C 
HETATM    3  C   UNL     1      66.197   6.716   7.236  1.00  0.00     0.060 A 
HETATM    4  N   UNL     1      65.979   6.507   8.550  1.00  0.00    -0.363 N 
ATOM      5  HN  UNL     1      65.065   6.665   8.975  1.00  0.00     0.165 HD
HETATM    6  N   UNL     1      68.520   6.079   7.401  1.00  0.00    -0.363 N 
ATOM      7  HN  UNL     1      69.444   5.931   6.994  1.00  0.00     0.165 HD
HETATM    8  C   UNL     1      67.474   6.494   6.659  1.00  0.00     0.059 A 
HETATM    9  C   UNL     1      65.153   7.150   6.427  1.00  0.00     0.052 A 
HETATM   10  C   UNL     1      65.336   7.349   5.057  1.00  0.00     0.019 A 
HETATM   11  C   UNL     1      67.643   6.699   5.296  1.00  0.00     0.033 A 
HETATM   12  C   UNL     1      66.583   7.114   4.487  1.00  0.00     0.023 A 
HETATM   13  C   UNL     1      67.035   6.076   9.274  1.00  0.00     0.105 A 
HETATM   14  C   UNL     1      68.278   5.871   8.713  1.00  0.00     0.105 A 
ENDROOT
TORSDOF 0
ENDMDL
