MODEL 1
REMARK VINA RESULT:      -5.3      0.000      0.000
REMARK  2 active torsions:
REMARK  status: ('A' for Active; 'I' for Inactive)
REMARK    1  A    between atoms: C_1  and  C_8 
REMARK    2  A    between atoms: C_4  and  C_7 
ROOT
HETATM    1  C   UNK     1      77.007   7.576  17.236  1.00  0.00     0.117 A 
HETATM    2  N   UNK     1      76.968   8.529  18.258  1.00  0.00    -0.344 N 
ATOM      3  HN  UNK     1      76.690   8.337  19.220  1.00  0.00     0.167 HD
HETATM    4  C   UNK     1      77.342   9.712  17.806  1.00  0.00     0.091 A 
HETATM    5  S   UNK     1      77.763   9.742  16.135  1.00  0.00    -0.080 SA
HETATM    6  C   UNK     1      77.428   8.072  16.017  1.00  0.00     0.088 A 
ENDROOT
BRANCH   4   7
HETATM    7  C   UNK     1      77.386  10.875  18.666  1.00  0.00     0.038 A 
HETATM    8  S   UNK     1      76.395  12.262  18.435  1.00  0.00    -0.099 SA
HETATM    9  C   UNK     1      77.052  13.060  19.792  1.00  0.00     0.050 A 
HETATM   10  C   UNK     1      78.013  12.301  20.419  1.00  0.00     0.008 A 
HETATM   11  C   UNK     1      78.201  11.042  19.774  1.00  0.00     0.022 A 
ENDBRANCH   4   7
BRANCH   1  12
HETATM   12  C   UNK     1      76.631   6.180  17.437  1.00  0.00     0.227 C 
HETATM   13  O   UNK     1      76.851   5.530  18.451  1.00  0.00    -0.643 OA
HETATM   14  O   UNK     1      75.999   5.601  16.392  1.00  0.00    -0.643 OA
ENDBRANCH   1  12
TORSDOF 2
ENDMDL
MODEL 2
REMARK VINA RESULT:      -5.3      5.324      8.010
REMARK  2 active torsions:
REMARK  status: ('A' for Active; 'I' for Inactive)
REMARK    1  A    between atoms: C_1  and  C_8 
REMARK    2  A    between atoms: C_4  and  C_7 
ROOT
HETATM    1  C   UNK     1      76.414   4.727  17.363  1.00  0.00     0.117 A 
HETATM    2  N   UNK     1      77.297   3.851  18.000  1.00  0.00    -0.344 N 
ATOM      3  HN  UNK     1      78.178   4.128  18.432  1.00  0.00     0.167 HD
HETATM    4  C   UNK     1      76.834   2.615  17.965  1.00  0.00     0.091 A 
HETATM    5  S   UNK     1      75.314   2.441  17.171  1.00  0.00    -0.080 SA
HETATM    6  C   UNK     1      75.278   4.120  16.863  1.00  0.00     0.088 A 
ENDROOT
BRANCH   4   7
HETATM    7  C   UNK     1      77.563   1.513  18.554  1.00  0.00     0.038 A 
HETATM    8  S   UNK     1      77.386  -0.120  18.043  1.00  0.00    -0.099 SA
HETATM    9  C   UNK     1      78.526  -0.686  19.179  1.00  0.00     0.050 A 
HETATM   10  C   UNK     1      79.039   0.335  19.945  1.00  0.00     0.008 A 
HETATM   11  C   UNK     1      78.488   1.600  19.582  1.00  0.00     0.022 A 
ENDBRANCH   4   7
BRANCH   1  12
HETATM   12  C   UNK     1      76.671   6.159  17.232  1.00  0.00     0.227 C 
HETATM   13  O   UNK     1      76.715   6.954  18.162  1.00  0.00    -0.643 OA
HETATM   14  O   UNK     1      76.862   6.592  15.967  1.00  0.00    -0.643 OA
ENDBRANCH   1  12
TORSDOF 2
ENDMDL
MODEL 3
REMARK VINA RESULT:      -4.9     17.116     18.629
REMARK  2 active torsions:
REMARK  status: ('A' for Active; 'I' for Inactive)
REMARK    1  A    between atoms: C_1  and  C_8 
REMARK    2  A    between atoms: C_4  and  C_7 
ROOT
HETATM    1  C   UNK     1      63.296   9.684   4.887  1.00  0.00     0.117 A 
HETATM    2  N   UNK     1      64.340   9.030   5.546  1.00  0.00    -0.344 N 
ATOM      3  HN  UNK     1      64.829   9.395   6.363  1.00  0.00     0.167 HD
HETATM    4  C   UNK     1      64.607   7.874   4.966  1.00  0.00     0.091 A 
HETATM    5  S   UNK     1      63.617   7.511   3.603  1.00  0.00    -0.080 SA
HETATM    6  C   UNK     1      62.783   8.986   3.810  1.00  0.00     0.088 A 
ENDROOT
BRANCH   4   7
HETATM    7  C   UNK     1      65.652   7.001   5.456  1.00  0.00     0.038 A 
HETATM    8  S   UNK     1      65.735   6.445   7.082  1.00  0.00    -0.099 SA
HETATM    9  C   UNK     1      67.154   5.545   6.788  1.00  0.00     0.050 A 
HETATM   10  C   UNK     1      67.573   5.657   5.483  1.00  0.00     0.008 A 
HETATM   11  C   UNK     1      66.706   6.491   4.716  1.00  0.00     0.022 A 
ENDBRANCH   4   7
BRANCH   1  12
HETATM   12  C   UNK     1      62.794  10.993   5.295  1.00  0.00     0.227 C 
HETATM   13  O   UNK     1      62.062  11.708   4.623  1.00  0.00    -0.643 OA
HETATM   14  O   UNK     1      63.204  11.408   6.514  1.00  0.00    -0.643 OA
ENDBRANCH   1  12
TORSDOF 2
ENDMDL
MODEL 4
REMARK VINA RESULT:      -4.7     16.144     17.487
REMARK  2 active torsions:
REMARK  status: ('A' for Active; 'I' for Inactive)
REMARK    1  A    between atoms: C_1  and  C_8 
REMARK    2  A    between atoms: C_4  and  C_7 
ROOT
HETATM    1  C   UNK     1      66.251   6.806   7.299  1.00  0.00     0.117 A 
HETATM    2  N   UNK     1      65.053   7.361   6.837  1.00  0.00    -0.344 N 
ATOM      3  HN  UNK     1      64.179   7.372   7.362  1.00  0.00     0.167 HD
HETATM    4  C   UNK     1      65.210   7.867   5.628  1.00  0.00     0.091 A 
HETATM    5  S   UNK     1      66.801   7.709   4.984  1.00  0.00    -0.080 SA
HETATM    6  C   UNK     1      67.305   6.921   6.412  1.00  0.00     0.088 A 
ENDROOT
BRANCH   4   7
HETATM    7  C   UNK     1      64.117   8.500   4.921  1.00  0.00     0.038 A 
HETATM    8  S   UNK     1      63.381   7.828   3.519  1.00  0.00    -0.099 SA
HETATM    9  C   UNK     1      62.280   9.123   3.375  1.00  0.00     0.050 A 
HETATM   10  C   UNK     1      62.458  10.062   4.365  1.00  0.00     0.008 A 
HETATM   11  C   UNK     1      63.512   9.701   5.257  1.00  0.00     0.022 A 
ENDBRANCH   4   7
BRANCH   1  12
HETATM   12  C   UNK     1      66.376   6.158   8.601  1.00  0.00     0.227 C 
HETATM   13  O   UNK     1      66.768   6.704   9.625  1.00  0.00    -0.643 OA
HETATM   14  O   UNK     1      66.029   4.853   8.626  1.00  0.00    -0.643 OA
ENDBRANCH   1  12
TORSDOF 2
ENDMDL
MODEL 5
REMARK VINA RESULT:      -4.7     15.680     17.158
REMARK  2 active torsions:
REMARK  status: ('A' for Active; 'I' for Inactive)
REMARK    1  A    between atoms: C_1  and  C_8 
REMARK    2  A    between atoms: C_4  and  C_7 
ROOT
HETATM    1  C   UNK     1      64.407   8.496   5.217  1.00  0.00     0.117 A 
HETATM    2  N   UNK     1      65.242   8.192   6.296  1.00  0.00    -0.344 N 
ATOM      3  HN  UNK     1      65.377   8.790   7.111  1.00  0.00     0.167 HD
HETATM    4  C   UNK     1      65.831   7.025   6.114  1.00  0.00     0.091 A 
HETATM    5  S   UNK     1      65.411   6.230   4.645  1.00  0.00    -0.080 SA
HETATM    6  C   UNK     1      64.378   7.525   4.235  1.00  0.00     0.088 A 
ENDROOT
BRANCH   4   7
HETATM    7  C   UNK     1      66.752   6.478   7.089  1.00  0.00     0.038 A 
HETATM    8  S   UNK     1      66.442   6.466   8.781  1.00  0.00    -0.099 SA
HETATM    9  C   UNK     1      67.924   5.698   9.131  1.00  0.00     0.050 A 
HETATM   10  C   UNK     1      68.657   5.451   7.992  1.00  0.00     0.008 A 
HETATM   11  C   UNK     1      67.980   5.896   6.818  1.00  0.00     0.022 A 
ENDBRANCH   4   7
BRANCH   1  12
HETATM   12  C   UNK     1      63.636   9.734   5.133  1.00  0.00     0.227 C 
HETATM   13  O   UNK     1      62.663   9.909   4.411  1.00  0.00    -0.643 OA
HETATM   14  O   UNK     1      64.074  10.735   5.927  1.00  0.00    -0.643 OA
ENDBRANCH   1  12
TORSDOF 2
ENDMDL
MODEL 6
REMARK VINA RESULT:      -4.7     14.102     15.704
REMARK  2 active torsions:
REMARK  status: ('A' for Active; 'I' for Inactive)
REMARK    1  A    between atoms: C_1  and  C_8 
REMARK    2  A    between atoms: C_4  and  C_7 
ROOT
HETATM    1  C   UNK     1      66.250   6.810   6.464  1.00  0.00     0.117 A 
HETATM    2  N   UNK     1      67.284   6.284   7.243  1.00  0.00    -0.344 N 
ATOM      3  HN  UNK     1      68.157   6.768   7.453  1.00  0.00     0.167 HD
HETATM    4  C   UNK     1      66.976   5.073   7.671  1.00  0.00     0.091 A 
HETATM    5  S   UNK     1      65.429   4.506   7.165  1.00  0.00    -0.080 SA
HETATM    6  C   UNK     1      65.161   5.970   6.330  1.00  0.00     0.088 A 
ENDROOT
BRANCH   4   7
HETATM    7  C   UNK     1      67.882   4.306   8.499  1.00  0.00     0.038 A 
HETATM    8  S   UNK     1      67.737   2.609   8.738  1.00  0.00    -0.099 SA
HETATM    9  C   UNK     1      69.105   2.552   9.755  1.00  0.00     0.050 A 
HETATM   10  C   UNK     1      69.672   3.794   9.925  1.00  0.00     0.008 A 
HETATM   11  C   UNK     1      68.971   4.802   9.198  1.00  0.00     0.022 A 
ENDBRANCH   4   7
BRANCH   1  12
HETATM   12  C   UNK     1      66.317   8.129   5.841  1.00  0.00     0.227 C 
HETATM   13  O   UNK     1      65.552   9.057   6.073  1.00  0.00    -0.643 OA
HETATM   14  O   UNK     1      67.311   8.286   4.940  1.00  0.00    -0.643 OA
ENDBRANCH   1  12
TORSDOF 2
ENDMDL
MODEL 7
REMARK VINA RESULT:      -4.6     13.083     14.780
REMARK  2 active torsions:
REMARK  status: ('A' for Active; 'I' for Inactive)
REMARK    1  A    between atoms: C_1  and  C_8 
REMARK    2  A    between atoms: C_4  and  C_7 
ROOT
HETATM    1  C   UNK     1      68.717   3.008   9.753  1.00  0.00     0.117 A 
HETATM    2  N   UNK     1      67.514   3.392   9.156  1.00  0.00    -0.344 N 
ATOM      3  HN  UNK     1      66.646   2.859   9.204  1.00  0.00     0.167 HD
HETATM    4  C   UNK     1      67.655   4.541   8.520  1.00  0.00     0.091 A 
HETATM    5  S   UNK     1      69.236   5.221   8.611  1.00  0.00    -0.080 SA
HETATM    6  C   UNK     1      69.754   3.900   9.559  1.00  0.00     0.088 A 
ENDROOT
BRANCH   4   7
HETATM    7  C   UNK     1      66.553   5.159   7.813  1.00  0.00     0.038 A 
HETATM    8  S   UNK     1      66.389   6.860   7.619  1.00  0.00    -0.099 SA
HETATM    9  C   UNK     1      64.939   6.703   6.734  1.00  0.00     0.050 A 
HETATM   10  C   UNK     1      64.570   5.386   6.583  1.00  0.00     0.008 A 
HETATM   11  C   UNK     1      65.501   4.498   7.200  1.00  0.00     0.022 A 
ENDBRANCH   4   7
BRANCH   1  12
HETATM   12  C   UNK     1      68.868   1.769  10.512  1.00  0.00     0.227 C 
HETATM   13  O   UNK     1      67.948   1.038  10.855  1.00  0.00    -0.643 OA
HETATM   14  O   UNK     1      70.138   1.453  10.844  1.00  0.00    -0.643 OA
ENDBRANCH   1  12
TORSDOF 2
ENDMDL
MODEL 8
REMARK VINA RESULT:      -4.5      6.805      9.874
REMARK  2 active torsions:
REMARK  status: ('A' for Active; 'I' for Inactive)
REMARK    1  A    between atoms: C_1  and  C_8 
REMARK    2  A    between atoms: C_4  and  C_7 
ROOT
HETATM    1  C   UNK     1      76.410   2.791  17.888  1.00  0.00     0.117 A 
HETATM    2  N   UNK     1      77.208   1.676  17.612  1.00  0.00    -0.344 N 
ATOM      3  HN  UNK     1      78.156   1.541  17.961  1.00  0.00     0.167 HD
HETATM    4  C   UNK     1      76.564   0.822  16.838  1.00  0.00     0.091 A 
HETATM    5  S   UNK     1      74.969   1.309  16.405  1.00  0.00    -0.080 SA
HETATM    6  C   UNK     1      75.155   2.743  17.312  1.00  0.00     0.088 A 
ENDROOT
BRANCH   4   7
HETATM    7  C   UNK     1      77.172  -0.417  16.403  1.00  0.00     0.038 A 
HETATM    8  S   UNK     1      77.550  -0.761  14.761  1.00  0.00    -0.099 SA
HETATM    9  C   UNK     1      78.184  -2.297  15.141  1.00  0.00     0.050 A 
HETATM   10  C   UNK     1      78.114  -2.563  16.490  1.00  0.00     0.008 A 
HETATM   11  C   UNK     1      77.535  -1.479  17.215  1.00  0.00     0.022 A 
ENDBRANCH   4   7
BRANCH   1  12
HETATM   12  C   UNK     1      76.865   3.910  18.708  1.00  0.00     0.227 C 
HETATM   13  O   UNK     1      76.970   5.068  18.323  1.00  0.00    -0.643 OA
HETATM   14  O   UNK     1      77.192   3.591  19.979  1.00  0.00    -0.643 OA
ENDBRANCH   1  12
TORSDOF 2
ENDMDL
MODEL 9
REMARK VINA RESULT:      -4.5     14.958     16.540
REMARK  2 active torsions:
REMARK  status: ('A' for Active; 'I' for Inactive)
REMARK    1  A    between atoms: C_1  and  C_8 
REMARK    2  A    between atoms: C_4  and  C_7 
ROOT
HETATM    1  C   UNK     1      64.715   7.308   6.016  1.00  0.00     0.117 A 
HETATM    2  N   UNK     1      65.331   6.373   6.853  1.00  0.00    -0.344 N 
ATOM      3  HN  UNK     1      64.832   5.708   7.445  1.00  0.00     0.167 HD
HETATM    4  C   UNK     1      66.645   6.469   6.773  1.00  0.00     0.091 A 
HETATM    5  S   UNK     1      67.211   7.681   5.686  1.00  0.00    -0.080 SA
HETATM    6  C   UNK     1      65.600   8.094   5.301  1.00  0.00     0.088 A 
ENDROOT
BRANCH   4   7
HETATM    7  C   UNK     1      67.518   5.611   7.545  1.00  0.00     0.038 A 
HETATM    8  S   UNK     1      68.139   4.118   6.959  1.00  0.00    -0.099 SA
HETATM    9  C   UNK     1      69.000   3.815   8.400  1.00  0.00     0.050 A 
HETATM   10  C   UNK     1      68.827   4.820   9.324  1.00  0.00     0.008 A 
HETATM   11  C   UNK     1      67.978   5.855   8.829  1.00  0.00     0.022 A 
ENDBRANCH   4   7
BRANCH   1  12
HETATM   12  C   UNK     1      63.266   7.446   5.908  1.00  0.00     0.227 C 
HETATM   13  O   UNK     1      62.616   7.276   4.884  1.00  0.00    -0.643 OA
HETATM   14  O   UNK     1      62.639   7.798   7.052  1.00  0.00    -0.643 OA
ENDBRANCH   1  12
TORSDOF 2
ENDMDL
