MODEL 1
REMARK VINA RESULT:      -4.9      0.000      0.000
REMARK  3 active torsions:
REMARK  status: ('A' for Active; 'I' for Inactive)
REMARK    1  A    between atoms: C_1  and  C_5 
REMARK    2  A    between atoms: C_6  and  C_12 
REMARK    3  A    between atoms: C_12  and  N_13 
ROOT
HETATM    1  C   UNL     1      78.820  12.203  21.192  1.00  0.00     0.091 A 
HETATM    2  N   UNL     1      78.940  11.109  20.463  1.00  0.00    -0.351 N 
ATOM      3  HN  UNL     1      79.667  10.405  20.585  1.00  0.00     0.166 HD
HETATM    4  S   UNL     1      77.491  13.214  20.763  1.00  0.00    -0.081 SA
HETATM    5  C   UNL     1      77.932  11.053  19.502  1.00  0.00     0.042 A 
HETATM    6  C   UNL     1      77.055  12.121  19.527  1.00  0.00     0.078 A 
ENDROOT
BRANCH   1   7
HETATM    7  C   UNL     1      79.751  12.514  22.257  1.00  0.00     0.038 A 
HETATM    8  S   UNL     1      79.471  12.115  23.908  1.00  0.00    -0.099 SA
HETATM    9  C   UNL     1      80.948  12.807  24.412  1.00  0.00     0.050 A 
HETATM   10  C   UNL     1      81.654  13.335  23.358  1.00  0.00     0.008 A 
HETATM   11  C   UNL     1      80.968  13.164  22.118  1.00  0.00     0.022 A 
ENDBRANCH   1   7
BRANCH   5  12
HETATM   12  C   UNL     1      77.869   9.889  18.566  1.00  0.00     0.286 C 
BRANCH  12  13
HETATM   13  N   UNL     1      79.228   9.524  18.179  1.00  0.00    -0.074 N 
HETATM   14  H   UNL     1      79.816  10.357  18.171  1.00  0.00     0.274 HD
HETATM   15  H   UNL     1      79.216   9.109  17.246  1.00  0.00     0.274 HD
HETATM   16  H   UNL     1      79.602   8.850  18.846  1.00  0.00     0.274 HD
ENDBRANCH  12  13
ENDBRANCH   5  12
TORSDOF 3
ENDMDL
MODEL 2
REMARK VINA RESULT:      -4.6      2.363      5.213
REMARK  3 active torsions:
REMARK  status: ('A' for Active; 'I' for Inactive)
REMARK    1  A    between atoms: C_1  and  C_5 
REMARK    2  A    between atoms: C_6  and  C_12 
REMARK    3  A    between atoms: C_12  and  N_13 
ROOT
HETATM    1  C   UNL     1      79.106  12.379  22.253  1.00  0.00     0.091 A 
HETATM    2  N   UNL     1      78.746  11.898  23.428  1.00  0.00    -0.351 N 
ATOM      3  HN  UNL     1      77.831  11.499  23.638  1.00  0.00     0.166 HD
HETATM    4  S   UNL     1      80.719  12.987  22.188  1.00  0.00    -0.081 SA
HETATM    5  C   UNL     1      79.792  12.011  24.342  1.00  0.00     0.042 A 
HETATM    6  C   UNL     1      80.941  12.583  23.831  1.00  0.00     0.078 A 
ENDROOT
BRANCH   1   7
HETATM    7  C   UNL     1      78.199  12.395  21.125  1.00  0.00     0.038 A 
HETATM    8  S   UNL     1      78.242  11.232  19.856  1.00  0.00    -0.099 SA
HETATM    9  C   UNL     1      76.944  11.967  19.027  1.00  0.00     0.050 A 
HETATM   10  C   UNL     1      76.473  13.076  19.687  1.00  0.00     0.008 A 
HETATM   11  C   UNL     1      77.192  13.321  20.896  1.00  0.00     0.022 A 
ENDBRANCH   1   7
BRANCH   5  12
HETATM   12  C   UNL     1      79.606  11.518  25.741  1.00  0.00     0.286 C 
BRANCH  12  13
HETATM   13  N   UNL     1      78.417  10.673  25.787  1.00  0.00    -0.074 N 
HETATM   14  H   UNL     1      78.694   9.692  25.749  1.00  0.00     0.274 HD
HETATM   15  H   UNL     1      77.817  10.887  24.990  1.00  0.00     0.274 HD
HETATM   16  H   UNL     1      77.908  10.850  26.652  1.00  0.00     0.274 HD
ENDBRANCH  12  13
ENDBRANCH   5  12
TORSDOF 3
ENDMDL
MODEL 3
REMARK VINA RESULT:      -4.4     20.127     21.808
REMARK  3 active torsions:
REMARK  status: ('A' for Active; 'I' for Inactive)
REMARK    1  A    between atoms: C_1  and  C_5 
REMARK    2  A    between atoms: C_6  and  C_12 
REMARK    3  A    between atoms: C_12  and  N_13 
ROOT
HETATM    1  C   UNL     1      64.694   7.962   5.140  1.00  0.00     0.091 A 
HETATM    2  N   UNL     1      64.397   9.133   5.671  1.00  0.00    -0.351 N 
ATOM      3  HN  UNL     1      64.879   9.550   6.467  1.00  0.00     0.166 HD
HETATM    4  S   UNL     1      63.710   7.510   3.797  1.00  0.00    -0.081 SA
HETATM    5  C   UNL     1      63.330   9.720   4.992  1.00  0.00     0.042 A 
HETATM    6  C   UNL     1      62.836   8.969   3.943  1.00  0.00     0.078 A 
ENDROOT
BRANCH   1   7
HETATM    7  C   UNL     1      65.758   7.134   5.666  1.00  0.00     0.038 A 
HETATM    8  S   UNL     1      65.782   6.531   7.278  1.00  0.00    -0.099 SA
HETATM    9  C   UNL     1      67.275   5.738   7.048  1.00  0.00     0.050 A 
HETATM   10  C   UNL     1      67.761   5.915   5.775  1.00  0.00     0.008 A 
HETATM   11  C   UNL     1      66.888   6.716   4.979  1.00  0.00     0.022 A 
ENDBRANCH   1   7
BRANCH   5  12
HETATM   12  C   UNL     1      62.829  11.060   5.422  1.00  0.00     0.286 C 
BRANCH  12  13
HETATM   13  N   UNL     1      63.730  11.594   6.440  1.00  0.00    -0.074 N 
HETATM   14  H   UNL     1      64.690  11.557   6.099  1.00  0.00     0.274 HD
HETATM   15  H   UNL     1      63.650  11.035   7.290  1.00  0.00     0.274 HD
HETATM   16  H   UNL     1      63.477  12.561   6.643  1.00  0.00     0.274 HD
ENDBRANCH  12  13
ENDBRANCH   5  12
TORSDOF 3
ENDMDL
MODEL 4
REMARK VINA RESULT:      -4.4     20.221     22.930
REMARK  3 active torsions:
REMARK  status: ('A' for Active; 'I' for Inactive)
REMARK    1  A    between atoms: C_1  and  C_5 
REMARK    2  A    between atoms: C_6  and  C_12 
REMARK    3  A    between atoms: C_12  and  N_13 
ROOT
HETATM    1  C   UNL     1      63.616   8.079   5.159  1.00  0.00     0.091 A 
HETATM    2  N   UNL     1      64.796   8.299   5.707  1.00  0.00    -0.351 N 
ATOM      3  HN  UNL     1      65.342   9.152   5.590  1.00  0.00     0.166 HD
HETATM    4  S   UNL     1      62.922   6.544   5.534  1.00  0.00    -0.081 SA
HETATM    5  C   UNL     1      65.192   7.200   6.467  1.00  0.00     0.042 A 
HETATM    6  C   UNL     1      64.287   6.156   6.481  1.00  0.00     0.078 A 
ENDROOT
BRANCH   1   7
HETATM    7  C   UNL     1      62.977   9.058   4.306  1.00  0.00     0.038 A 
HETATM    8  S   UNL     1      62.619  10.666   4.808  1.00  0.00    -0.099 SA
HETATM    9  C   UNL     1      61.923  11.070   3.303  1.00  0.00     0.050 A 
HETATM   10  C   UNL     1      61.955  10.016   2.422  1.00  0.00     0.008 A 
HETATM   11  C   UNL     1      62.564   8.860   2.996  1.00  0.00     0.022 A 
ENDBRANCH   1   7
BRANCH   5  12
HETATM   12  C   UNL     1      66.501   7.235   7.188  1.00  0.00     0.286 C 
BRANCH  12  13
HETATM   13  N   UNL     1      67.006   8.605   7.179  1.00  0.00    -0.074 N 
HETATM   14  H   UNL     1      66.280   9.238   7.513  1.00  0.00     0.274 HD
HETATM   15  H   UNL     1      67.270   8.863   6.228  1.00  0.00     0.274 HD
HETATM   16  H   UNL     1      67.821   8.669   7.788  1.00  0.00     0.274 HD
ENDBRANCH  12  13
ENDBRANCH   5  12
TORSDOF 3
ENDMDL
MODEL 5
REMARK VINA RESULT:      -4.3      9.668     11.878
REMARK  3 active torsions:
REMARK  status: ('A' for Active; 'I' for Inactive)
REMARK    1  A    between atoms: C_1  and  C_5 
REMARK    2  A    between atoms: C_6  and  C_12 
REMARK    3  A    between atoms: C_12  and  N_13 
ROOT
HETATM    1  C   UNL     1      74.921   1.717  17.367  1.00  0.00     0.091 A 
HETATM    2  N   UNL     1      74.740   1.063  18.499  1.00  0.00    -0.351 N 
ATOM      3  HN  UNL     1      74.985   1.420  19.423  1.00  0.00     0.166 HD
HETATM    4  S   UNL     1      74.410   0.868  15.955  1.00  0.00    -0.081 SA
HETATM    5  C   UNL     1      74.166  -0.184  18.255  1.00  0.00     0.042 A 
HETATM    6  C   UNL     1      73.920  -0.450  16.922  1.00  0.00     0.078 A 
ENDROOT
BRANCH   1   7
HETATM    7  C   UNL     1      75.516   3.036  17.336  1.00  0.00     0.038 A 
HETATM    8  S   UNL     1      76.933   3.460  18.217  1.00  0.00    -0.099 SA
HETATM    9  C   UNL     1      76.907   5.069  17.648  1.00  0.00     0.050 A 
HETATM   10  C   UNL     1      75.849   5.298  16.802  1.00  0.00     0.008 A 
HETATM   11  C   UNL     1      75.050   4.129  16.619  1.00  0.00     0.022 A 
ENDBRANCH   1   7
BRANCH   5  12
HETATM   12  C   UNL     1      73.864  -1.094  19.401  1.00  0.00     0.286 C 
BRANCH  12  13
HETATM   13  N   UNL     1      75.029  -1.147  20.279  1.00  0.00    -0.074 N 
HETATM   14  H   UNL     1      75.333  -2.114  20.384  1.00  0.00     0.274 HD
HETATM   15  H   UNL     1      74.782  -0.767  21.194  1.00  0.00     0.274 HD
HETATM   16  H   UNL     1      75.784  -0.595  19.874  1.00  0.00     0.274 HD
ENDBRANCH  12  13
ENDBRANCH   5  12
TORSDOF 3
ENDMDL
MODEL 6
REMARK VINA RESULT:      -4.2      2.238      5.303
REMARK  3 active torsions:
REMARK  status: ('A' for Active; 'I' for Inactive)
REMARK    1  A    between atoms: C_1  and  C_5 
REMARK    2  A    between atoms: C_6  and  C_12 
REMARK    3  A    between atoms: C_12  and  N_13 
ROOT
HETATM    1  C   UNL     1      79.141  12.637  21.900  1.00  0.00     0.091 A 
HETATM    2  N   UNL     1      80.294  13.248  21.706  1.00  0.00    -0.351 N 
ATOM      3  HN  UNL     1      80.576  13.696  20.834  1.00  0.00     0.166 HD
HETATM    4  S   UNL     1      78.934  11.972  23.478  1.00  0.00    -0.081 SA
HETATM    5  C   UNL     1      81.073  13.196  22.861  1.00  0.00     0.042 A 
HETATM    6  C   UNL     1      80.482  12.537  23.922  1.00  0.00     0.078 A 
ENDROOT
BRANCH   1   7
HETATM    7  C   UNL     1      78.147  12.533  20.852  1.00  0.00     0.038 A 
HETATM    8  S   UNL     1      78.108  11.250  19.705  1.00  0.00    -0.099 SA
HETATM    9  C   UNL     1      76.737  11.887  18.914  1.00  0.00     0.050 A 
HETATM   10  C   UNL     1      76.302  13.053  19.498  1.00  0.00     0.008 A 
HETATM   11  C   UNL     1      77.111  13.423  20.614  1.00  0.00     0.022 A 
ENDBRANCH   1   7
BRANCH   5  12
HETATM   12  C   UNL     1      82.423  13.837  22.869  1.00  0.00     0.286 C 
BRANCH  12  13
HETATM   13  N   UNL     1      82.418  14.931  23.836  1.00  0.00    -0.074 N 
HETATM   14  H   UNL     1      83.334  15.379  23.849  1.00  0.00     0.274 HD
HETATM   15  H   UNL     1      82.206  14.564  24.764  1.00  0.00     0.274 HD
HETATM   16  H   UNL     1      81.709  15.614  23.571  1.00  0.00     0.274 HD
ENDBRANCH  12  13
ENDBRANCH   5  12
TORSDOF 3
ENDMDL
MODEL 7
REMARK VINA RESULT:      -4.2     19.068     21.881
REMARK  3 active torsions:
REMARK  status: ('A' for Active; 'I' for Inactive)
REMARK    1  A    between atoms: C_1  and  C_5 
REMARK    2  A    between atoms: C_6  and  C_12 
REMARK    3  A    between atoms: C_12  and  N_13 
ROOT
HETATM    1  C   UNL     1      65.299   7.777   5.432  1.00  0.00     0.091 A 
HETATM    2  N   UNL     1      65.218   7.499   6.720  1.00  0.00    -0.351 N 
ATOM      3  HN  UNL     1      64.382   7.626   7.291  1.00  0.00     0.166 HD
HETATM    4  S   UNL     1      66.839   7.458   4.723  1.00  0.00    -0.081 SA
HETATM    5  C   UNL     1      66.434   7.007   7.190  1.00  0.00     0.042 A 
HETATM    6  C   UNL     1      67.426   6.920   6.232  1.00  0.00     0.078 A 
ENDROOT
BRANCH   1   7
HETATM    7  C   UNL     1      64.176   8.317   4.696  1.00  0.00     0.038 A 
HETATM    8  S   UNL     1      63.308   9.721   5.185  1.00  0.00    -0.099 SA
HETATM    9  C   UNL     1      62.240   9.625   3.857  1.00  0.00     0.050 A 
HETATM   10  C   UNL     1      62.524   8.553   3.045  1.00  0.00     0.008 A 
HETATM   11  C   UNL     1      63.639   7.802   3.526  1.00  0.00     0.022 A 
ENDBRANCH   1   7
BRANCH   5  12
HETATM   12  C   UNL     1      66.567   6.618   8.626  1.00  0.00     0.286 C 
BRANCH  12  13
HETATM   13  N   UNL     1      67.981   6.422   8.931  1.00  0.00    -0.074 N 
HETATM   14  H   UNL     1      68.073   5.898   9.801  1.00  0.00     0.274 HD
HETATM   15  H   UNL     1      68.436   7.330   9.032  1.00  0.00     0.274 HD
HETATM   16  H   UNL     1      68.423   5.903   8.173  1.00  0.00     0.274 HD
ENDBRANCH  12  13
ENDBRANCH   5  12
TORSDOF 3
ENDMDL
MODEL 8
REMARK VINA RESULT:      -4.2     17.941     18.976
REMARK  3 active torsions:
REMARK  status: ('A' for Active; 'I' for Inactive)
REMARK    1  A    between atoms: C_1  and  C_5 
REMARK    2  A    between atoms: C_6  and  C_12 
REMARK    3  A    between atoms: C_12  and  N_13 
ROOT
HETATM    1  C   UNL     1      67.724   5.436   7.839  1.00  0.00     0.091 A 
HETATM    2  N   UNL     1      68.108   5.896   6.663  1.00  0.00    -0.351 N 
ATOM      3  HN  UNL     1      68.859   5.498   6.100  1.00  0.00     0.166 HD
HETATM    4  S   UNL     1      66.424   6.308   8.563  1.00  0.00    -0.081 SA
HETATM    5  C   UNL     1      67.343   7.004   6.300  1.00  0.00     0.042 A 
HETATM    6  C   UNL     1      66.379   7.362   7.223  1.00  0.00     0.078 A 
ENDROOT
BRANCH   1   7
HETATM    7  C   UNL     1      68.365   4.295   8.458  1.00  0.00     0.038 A 
HETATM    8  S   UNL     1      68.368   2.718   7.766  1.00  0.00    -0.099 SA
HETATM    9  C   UNL     1      69.260   2.061   9.064  1.00  0.00     0.050 A 
HETATM   10  C   UNL     1      69.561   3.007  10.014  1.00  0.00     0.008 A 
HETATM   11  C   UNL     1      69.049   4.293   9.664  1.00  0.00     0.022 A 
ENDBRANCH   1   7
BRANCH   5  12
HETATM   12  C   UNL     1      67.603   7.683   4.995  1.00  0.00     0.286 C 
BRANCH  12  13
HETATM   13  N   UNL     1      68.959   8.224   5.008  1.00  0.00    -0.074 N 
HETATM   14  H   UNL     1      69.315   8.276   4.054  1.00  0.00     0.274 HD
HETATM   15  H   UNL     1      69.562   7.616   5.564  1.00  0.00     0.274 HD
HETATM   16  H   UNL     1      68.948   9.157   5.418  1.00  0.00     0.274 HD
ENDBRANCH  12  13
ENDBRANCH   5  12
TORSDOF 3
ENDMDL
MODEL 9
REMARK VINA RESULT:      -4.0     20.277     22.760
REMARK  3 active torsions:
REMARK  status: ('A' for Active; 'I' for Inactive)
REMARK    1  A    between atoms: C_1  and  C_5 
REMARK    2  A    between atoms: C_6  and  C_12 
REMARK    3  A    between atoms: C_12  and  N_13 
ROOT
HETATM    1  C   UNL     1      64.017   8.111   4.726  1.00  0.00     0.091 A 
HETATM    2  N   UNL     1      63.447   9.294   4.860  1.00  0.00    -0.351 N 
ATOM      3  HN  UNL     1      63.580   9.917   5.656  1.00  0.00     0.166 HD
HETATM    4  S   UNL     1      63.612   7.278   3.271  1.00  0.00    -0.081 SA
HETATM    5  C   UNL     1      62.639   9.573   3.759  1.00  0.00     0.042 A 
HETATM    6  C   UNL     1      62.615   8.579   2.799  1.00  0.00     0.078 A 
ENDROOT
BRANCH   1   7
HETATM    7  C   UNL     1      64.899   7.571   5.738  1.00  0.00     0.038 A 
HETATM    8  S   UNL     1      66.569   7.972   5.853  1.00  0.00    -0.099 SA
HETATM    9  C   UNL     1      66.805   6.957   7.205  1.00  0.00     0.050 A 
HETATM   10  C   UNL     1      65.647   6.318   7.577  1.00  0.00     0.008 A 
HETATM   11  C   UNL     1      64.550   6.673   6.736  1.00  0.00     0.022 A 
ENDBRANCH   1   7
BRANCH   5  12
HETATM   12  C   UNL     1      61.900  10.870   3.696  1.00  0.00     0.286 C 
BRANCH  12  13
HETATM   13  N   UNL     1      61.585  11.165   2.301  1.00  0.00    -0.074 N 
HETATM   14  H   UNL     1      62.377  10.910   1.712  1.00  0.00     0.274 HD
HETATM   15  H   UNL     1      61.393  12.162   2.200  1.00  0.00     0.274 HD
HETATM   16  H   UNL     1      60.764  10.631   2.019  1.00  0.00     0.274 HD
ENDBRANCH  12  13
ENDBRANCH   5  12
TORSDOF 3
ENDMDL
