MODEL 1
REMARK VINA RESULT:      -4.9      0.000      0.000
REMARK  1 active torsions:
REMARK  status: ('A' for Active; 'I' for Inactive)
REMARK    1  A    between atoms: C_8  and  N_10 
ROOT
HETATM    1  C   UNL     1      67.569   4.369   8.674  1.00  0.00     0.061 A 
HETATM    2  C   UNL     1      68.038   3.345   9.490  1.00  0.00     0.060 A 
HETATM    3  N   UNL     1      66.259   4.422   8.352  1.00  0.00    -0.363 N 
ATOM      4  HN  UNL     1      65.596   3.720   8.682  1.00  0.00     0.165 HD
HETATM    5  N   UNL     1      68.077   6.366   7.418  1.00  0.00    -0.363 N 
ATOM      6  HN  UNL     1      68.730   7.070   7.073  1.00  0.00     0.165 HD
HETATM    7  C   UNL     1      68.479   5.348   8.205  1.00  0.00     0.059 A 
HETATM    8  C   UNL     1      69.387   3.234   9.837  1.00  0.00     0.028 A 
HETATM    9  C   UNL     1      69.810   5.262   8.588  1.00  0.00     0.034 A 
HETATM   10  C   UNL     1      70.262   4.232   9.416  1.00  0.00     0.031 A 
HETATM   11  C   UNL     1      65.874   5.453   7.570  1.00  0.00     0.105 A 
HETATM   12  C   UNL     1      66.763   6.403   7.113  1.00  0.00     0.105 A 
ENDROOT
BRANCH   8  13
HETATM   13  N   UNL     1      69.801   2.284  10.776  1.00  0.00    -0.399 N 
HETATM   14  H   UNL     1      70.666   1.827  10.666  1.00  0.00     0.156 HD
HETATM   15  H   UNL     1      69.225   2.072  11.546  1.00  0.00     0.156 HD
ENDBRANCH   8  13
TORSDOF 1
ENDMDL
MODEL 2
REMARK VINA RESULT:      -4.7      7.949      9.351
REMARK  1 active torsions:
REMARK  status: ('A' for Active; 'I' for Inactive)
REMARK    1  A    between atoms: C_8  and  N_10 
ROOT
HETATM    1  C   UNL     1      62.109   9.675   3.135  1.00  0.00     0.061 A 
HETATM    2  C   UNL     1      62.238  10.592   4.173  1.00  0.00     0.060 A 
HETATM    3  N   UNL     1      61.241   9.919   2.130  1.00  0.00    -0.363 N 
ATOM      4  HN  UNL     1      60.660  10.758   2.113  1.00  0.00     0.165 HD
HETATM    5  N   UNL     1      62.827   7.587   2.163  1.00  0.00    -0.363 N 
ATOM      6  HN  UNL     1      63.394   6.739   2.171  1.00  0.00     0.165 HD
HETATM    7  C   UNL     1      62.906   8.504   3.148  1.00  0.00     0.059 A 
HETATM    8  C   UNL     1      63.107  10.379   5.246  1.00  0.00     0.028 A 
HETATM    9  C   UNL     1      63.802   8.316   4.190  1.00  0.00     0.034 A 
HETATM   10  C   UNL     1      63.924   9.252   5.220  1.00  0.00     0.031 A 
HETATM   11  C   UNL     1      61.182   8.993   1.149  1.00  0.00     0.105 A 
HETATM   12  C   UNL     1      61.957   7.852   1.166  1.00  0.00     0.105 A 
ENDROOT
BRANCH   8  13
HETATM   13  N   UNL     1      63.323  11.384   6.193  1.00  0.00    -0.399 N 
HETATM   14  H   UNL     1      63.665  11.154   7.087  1.00  0.00     0.156 HD
HETATM   15  H   UNL     1      63.131  12.323   5.965  1.00  0.00     0.156 HD
ENDBRANCH   8  13
TORSDOF 1
ENDMDL
MODEL 3
REMARK VINA RESULT:      -4.7     10.694     11.908
REMARK  1 active torsions:
REMARK  status: ('A' for Active; 'I' for Inactive)
REMARK    1  A    between atoms: C_8  and  N_10 
ROOT
HETATM    1  C   UNL     1      75.282   3.170  17.056  1.00  0.00     0.061 A 
HETATM    2  C   UNL     1      74.453   2.105  16.716  1.00  0.00     0.060 A 
HETATM    3  N   UNL     1      74.921   4.429  16.729  1.00  0.00    -0.363 N 
ATOM      4  HN  UNL     1      74.057   4.627  16.223  1.00  0.00     0.165 HD
HETATM    5  N   UNL     1      77.321   3.905  18.116  1.00  0.00    -0.363 N 
ATOM      6  HN  UNL     1      78.192   3.722  18.613  1.00  0.00     0.165 HD
HETATM    7  C   UNL     1      76.486   2.910  17.754  1.00  0.00     0.059 A 
HETATM    8  C   UNL     1      74.789   0.781  17.013  1.00  0.00     0.028 A 
HETATM    9  C   UNL     1      76.795   1.599  18.090  1.00  0.00     0.034 A 
HETATM   10  C   UNL     1      75.948   0.543  17.748  1.00  0.00     0.031 A 
HETATM   11  C   UNL     1      75.765   5.413  17.107  1.00  0.00     0.105 A 
HETATM   12  C   UNL     1      76.939   5.156  17.784  1.00  0.00     0.105 A 
ENDROOT
BRANCH   8  13
HETATM   13  N   UNL     1      73.870  -0.249  16.792  1.00  0.00    -0.399 N 
HETATM   14  H   UNL     1      74.109  -1.178  17.013  1.00  0.00     0.156 HD
HETATM   15  H   UNL     1      72.985  -0.044  16.414  1.00  0.00     0.156 HD
ENDBRANCH   8  13
TORSDOF 1
ENDMDL
MODEL 4
REMARK VINA RESULT:      -4.6     10.981     13.624
REMARK  1 active torsions:
REMARK  status: ('A' for Active; 'I' for Inactive)
REMARK    1  A    between atoms: C_8  and  N_10 
ROOT
HETATM    1  C   UNL     1      77.224   2.203  18.371  1.00  0.00     0.061 A 
HETATM    2  C   UNL     1      76.723   3.426  17.936  1.00  0.00     0.060 A 
HETATM    3  N   UNL     1      78.342   2.168  19.125  1.00  0.00    -0.363 N 
ATOM      4  HN  UNL     1      78.846   3.019  19.379  1.00  0.00     0.165 HD
HETATM    5  N   UNL     1      76.974  -0.196  18.423  1.00  0.00    -0.363 N 
ATOM      6  HN  UNL     1      76.487  -1.056  18.169  1.00  0.00     0.165 HD
HETATM    7  C   UNL     1      76.537   1.014  18.022  1.00  0.00     0.059 A 
HETATM    8  C   UNL     1      75.580   3.515  17.136  1.00  0.00     0.028 A 
HETATM    9  C   UNL     1      75.377   1.109  17.267  1.00  0.00     0.034 A 
HETATM   10  C   UNL     1      74.883   2.345  16.846  1.00  0.00     0.031 A 
HETATM   11  C   UNL     1      78.760   0.948  19.525  1.00  0.00     0.105 A 
HETATM   12  C   UNL     1      78.091  -0.208  19.181  1.00  0.00     0.105 A 
ENDROOT
BRANCH   8  13
HETATM   13  N   UNL     1      75.019   4.761  16.841  1.00  0.00    -0.399 N 
HETATM   14  H   UNL     1      74.491   4.881  16.019  1.00  0.00     0.156 HD
HETATM   15  H   UNL     1      75.154   5.519  17.455  1.00  0.00     0.156 HD
ENDBRANCH   8  13
TORSDOF 1
ENDMDL
MODEL 5
REMARK VINA RESULT:      -4.6      1.514      1.897
REMARK  1 active torsions:
REMARK  status: ('A' for Active; 'I' for Inactive)
REMARK    1  A    between atoms: C_8  and  N_10 
ROOT
HETATM    1  C   UNL     1      67.897   5.756   8.150  1.00  0.00     0.061 A 
HETATM    2  C   UNL     1      68.471   5.245   9.310  1.00  0.00     0.060 A 
HETATM    3  N   UNL     1      67.345   6.987   8.164  1.00  0.00    -0.363 N 
ATOM      4  HN  UNL     1      67.322   7.557   9.010  1.00  0.00     0.165 HD
HETATM    5  N   UNL     1      67.385   5.425   5.816  1.00  0.00    -0.363 N 
ATOM      6  HN  UNL     1      67.392   4.863   4.965  1.00  0.00     0.165 HD
HETATM    7  C   UNL     1      67.919   4.974   6.970  1.00  0.00     0.059 A 
HETATM    8  C   UNL     1      69.038   3.969   9.355  1.00  0.00     0.028 A 
HETATM    9  C   UNL     1      68.524   3.727   7.004  1.00  0.00     0.034 A 
HETATM   10  C   UNL     1      69.102   3.232   8.175  1.00  0.00     0.031 A 
HETATM   11  C   UNL     1      66.823   7.424   6.998  1.00  0.00     0.105 A 
HETATM   12  C   UNL     1      66.842   6.660   5.850  1.00  0.00     0.105 A 
ENDROOT
BRANCH   8  13
HETATM   13  N   UNL     1      69.736   3.544  10.490  1.00  0.00    -0.399 N 
HETATM   14  H   UNL     1      69.432   3.817  11.386  1.00  0.00     0.156 HD
HETATM   15  H   UNL     1      70.532   2.973  10.392  1.00  0.00     0.156 HD
ENDBRANCH   8  13
TORSDOF 1
ENDMDL
MODEL 6
REMARK VINA RESULT:      -4.6      8.382      9.700
REMARK  1 active torsions:
REMARK  status: ('A' for Active; 'I' for Inactive)
REMARK    1  A    between atoms: C_8  and  N_10 
ROOT
HETATM    1  C   UNL     1      62.794   8.864   3.322  1.00  0.00     0.061 A 
HETATM    2  C   UNL     1      63.098   9.315   4.602  1.00  0.00     0.060 A 
HETATM    3  N   UNL     1      63.121   7.605   2.962  1.00  0.00    -0.363 N 
ATOM      4  HN  UNL     1      63.601   6.970   3.600  1.00  0.00     0.165 HD
HETATM    5  N   UNL     1      61.806   9.347   1.175  1.00  0.00    -0.363 N 
ATOM      6  HN  UNL     1      61.335   9.973   0.522  1.00  0.00     0.165 HD
HETATM    7  C   UNL     1      62.132   9.735   2.424  1.00  0.00     0.059 A 
HETATM    8  C   UNL     1      62.799  10.615   5.020  1.00  0.00     0.028 A 
HETATM    9  C   UNL     1      61.794  11.010   2.855  1.00  0.00     0.034 A 
HETATM   10  C   UNL     1      62.099  11.444   4.147  1.00  0.00     0.031 A 
HETATM   11  C   UNL     1      62.780   7.231   1.710  1.00  0.00     0.105 A 
HETATM   12  C   UNL     1      62.138   8.083   0.836  1.00  0.00     0.105 A 
ENDROOT
BRANCH   8  13
HETATM   13  N   UNL     1      62.981  10.990   6.354  1.00  0.00    -0.399 N 
HETATM   14  H   UNL     1      63.452  10.388   6.975  1.00  0.00     0.156 HD
HETATM   15  H   UNL     1      62.638  11.856   6.672  1.00  0.00     0.156 HD
ENDBRANCH   8  13
TORSDOF 1
ENDMDL
MODEL 7
REMARK VINA RESULT:      -4.4      1.208      3.823
REMARK  1 active torsions:
REMARK  status: ('A' for Active; 'I' for Inactive)
REMARK    1  A    between atoms: C_8  and  N_10 
ROOT
HETATM    1  C   UNL     1      68.027   3.379   9.054  1.00  0.00     0.061 A 
HETATM    2  C   UNL     1      67.634   4.414   8.210  1.00  0.00     0.060 A 
HETATM    3  N   UNL     1      67.184   2.352   9.289  1.00  0.00    -0.363 N 
ATOM      4  HN  UNL     1      66.252   2.315   8.874  1.00  0.00     0.165 HD
HETATM    5  N   UNL     1      69.749   2.441  10.458  1.00  0.00    -0.363 N 
ATOM      6  HN  UNL     1      70.674   2.469  10.888  1.00  0.00     0.165 HD
HETATM    7  C   UNL     1      69.315   3.420   9.640  1.00  0.00     0.059 A 
HETATM    8  C   UNL     1      68.461   5.510   7.949  1.00  0.00     0.028 A 
HETATM    9  C   UNL     1      70.152   4.486   9.342  1.00  0.00     0.034 A 
HETATM   10  C   UNL     1      69.745   5.512   8.487  1.00  0.00     0.031 A 
HETATM   11  C   UNL     1      67.639   1.376  10.104  1.00  0.00     0.105 A 
HETATM   12  C   UNL     1      68.893   1.420  10.676  1.00  0.00     0.105 A 
ENDROOT
BRANCH   8  13
HETATM   13  N   UNL     1      68.099   6.455   6.984  1.00  0.00    -0.399 N 
HETATM   14  H   UNL     1      67.418   6.234   6.309  1.00  0.00     0.156 HD
HETATM   15  H   UNL     1      68.528   7.341   6.980  1.00  0.00     0.156 HD
ENDBRANCH   8  13
TORSDOF 1
ENDMDL
MODEL 8
REMARK VINA RESULT:      -4.4      5.692      8.666
REMARK  1 active torsions:
REMARK  status: ('A' for Active; 'I' for Inactive)
REMARK    1  A    between atoms: C_8  and  N_10 
ROOT
HETATM    1  C   UNL     1      63.738   8.196   3.874  1.00  0.00     0.061 A 
HETATM    2  C   UNL     1      62.782   8.563   2.932  1.00  0.00     0.060 A 
HETATM    3  N   UNL     1      64.482   7.088   3.676  1.00  0.00    -0.363 N 
ATOM      4  HN  UNL     1      64.357   6.496   2.854  1.00  0.00     0.165 HD
HETATM    5  N   UNL     1      64.837   8.702   5.961  1.00  0.00    -0.363 N 
ATOM      6  HN  UNL     1      64.968   9.279   6.793  1.00  0.00     0.165 HD
HETATM    7  C   UNL     1      63.920   9.007   5.022  1.00  0.00     0.059 A 
HETATM    8  C   UNL     1      61.972   9.690   3.099  1.00  0.00     0.028 A 
HETATM    9  C   UNL     1      63.147  10.150   5.163  1.00  0.00     0.034 A 
HETATM   10  C   UNL     1      62.198  10.507   4.203  1.00  0.00     0.031 A 
HETATM   11  C   UNL     1      65.402   6.804   4.623  1.00  0.00     0.105 A 
HETATM   12  C   UNL     1      65.575   7.593   5.742  1.00  0.00     0.105 A 
ENDROOT
BRANCH   8  13
HETATM   13  N   UNL     1      61.128  10.113   2.069  1.00  0.00    -0.399 N 
HETATM   14  H   UNL     1      60.412  10.764   2.254  1.00  0.00     0.156 HD
HETATM   15  H   UNL     1      61.249   9.760   1.158  1.00  0.00     0.156 HD
ENDBRANCH   8  13
TORSDOF 1
ENDMDL
MODEL 9
REMARK VINA RESULT:      -4.3      1.701      4.240
REMARK  1 active torsions:
REMARK  status: ('A' for Active; 'I' for Inactive)
REMARK    1  A    between atoms: C_8  and  N_10 
ROOT
HETATM    1  C   UNL     1      69.140   3.372   9.409  1.00  0.00     0.061 A 
HETATM    2  C   UNL     1      68.833   4.726   9.495  1.00  0.00     0.060 A 
HETATM    3  N   UNL     1      69.621   2.726  10.492  1.00  0.00    -0.363 N 
ATOM      4  HN  UNL     1      69.780   3.206  11.378  1.00  0.00     0.165 HD
HETATM    5  N   UNL     1      69.201   1.381   8.048  1.00  0.00    -0.363 N 
ATOM      6  HN  UNL     1      69.057   0.890   7.166  1.00  0.00     0.165 HD
HETATM    7  C   UNL     1      68.928   2.694   8.184  1.00  0.00     0.059 A 
HETATM    8  C   UNL     1      68.351   5.447   8.398  1.00  0.00     0.028 A 
HETATM    9  C   UNL     1      68.406   3.401   7.110  1.00  0.00     0.034 A 
HETATM   10  C   UNL     1      68.095   4.758   7.216  1.00  0.00     0.031 A 
HETATM   11  C   UNL     1      69.880   1.409  10.339  1.00  0.00     0.105 A 
HETATM   12  C   UNL     1      69.676   0.752   9.144  1.00  0.00     0.105 A 
ENDROOT
BRANCH   8  13
HETATM   13  N   UNL     1      67.912   6.765   8.555  1.00  0.00    -0.399 N 
HETATM   14  H   UNL     1      67.092   6.954   9.066  1.00  0.00     0.156 HD
HETATM   15  H   UNL     1      68.424   7.504   8.154  1.00  0.00     0.156 HD
ENDBRANCH   8  13
TORSDOF 1
ENDMDL
