MODEL 1
REMARK VINA RESULT:      -5.4      0.000      0.000
REMARK  1 active torsions:
REMARK  status: ('A' for Active; 'I' for Inactive)
REMARK    1  A    between atoms: C_1  and  C_5 
ROOT
HETATM    1  C   UNL     1      63.148   8.045   4.543  1.00  0.00     0.068 A 
HETATM    2  C   UNL     1      63.288   7.076   3.562  1.00  0.00     0.107 A 
HETATM    3  C   UNL     1      62.660   9.223   3.883  1.00  0.00     0.009 A 
HETATM    4  N   UNL     1      62.908   7.610   2.362  1.00  0.00    -0.364 N 
HETATM    5  C   UNL     1      62.524   8.919   2.526  1.00  0.00     0.043 A 
HETATM    6  C   UNL     1      62.321  10.526   4.310  1.00  0.00     0.015 A 
HETATM    7  C   UNL     1      62.072   9.847   1.579  1.00  0.00     0.030 A 
HETATM    8  C   UNL     1      61.870  11.467   3.375  1.00  0.00     0.001 A 
HETATM    9  C   UNL     1      61.749  11.130   2.029  1.00  0.00     0.002 A 
HETATM   10  H   UNL     1      62.908   7.126   1.505  1.00  0.00     0.165 HD
ENDROOT
BRANCH   1  11
HETATM   11  C   UNL     1      63.449   7.871   5.950  1.00  0.00     0.211 C 
HETATM   12  O   UNL     1      62.633   7.732   6.851  1.00  0.00    -0.644 OA
HETATM   13  O   UNL     1      64.772   7.871   6.241  1.00  0.00    -0.644 OA
ENDBRANCH   1  11
TORSDOF 1
ENDMDL
MODEL 2
REMARK VINA RESULT:      -5.3      2.105      2.925
REMARK  1 active torsions:
REMARK  status: ('A' for Active; 'I' for Inactive)
REMARK    1  A    between atoms: C_1  and  C_5 
ROOT
HETATM    1  C   UNL     1      62.864   9.721   4.496  1.00  0.00     0.068 A 
HETATM    2  C   UNL     1      63.461   8.666   5.168  1.00  0.00     0.107 A 
HETATM    3  C   UNL     1      62.572   9.246   3.173  1.00  0.00     0.009 A 
HETATM    4  N   UNL     1      63.536   7.595   4.321  1.00  0.00    -0.364 N 
HETATM    5  C   UNL     1      63.006   7.920   3.097  1.00  0.00     0.043 A 
HETATM    6  C   UNL     1      61.980   9.819   2.026  1.00  0.00     0.015 A 
HETATM    7  C   UNL     1      62.881   7.143   1.938  1.00  0.00     0.030 A 
HETATM    8  C   UNL     1      61.851   9.057   0.857  1.00  0.00     0.001 A 
HETATM    9  C   UNL     1      62.297   7.738   0.817  1.00  0.00     0.002 A 
HETATM   10  H   UNL     1      63.914   6.717   4.556  1.00  0.00     0.165 HD
ENDROOT
BRANCH   1  11
HETATM   11  C   UNL     1      62.604  11.035   5.050  1.00  0.00     0.211 C 
HETATM   12  O   UNL     1      61.956  11.927   4.519  1.00  0.00    -0.644 OA
HETATM   13  O   UNL     1      63.154  11.245   6.269  1.00  0.00    -0.644 OA
ENDBRANCH   1  11
TORSDOF 1
ENDMDL
MODEL 3
REMARK VINA RESULT:      -5.3      1.871      3.024
REMARK  1 active torsions:
REMARK  status: ('A' for Active; 'I' for Inactive)
REMARK    1  A    between atoms: C_1  and  C_5 
ROOT
HETATM    1  C   UNL     1      62.493  10.086   4.034  1.00  0.00     0.068 A 
HETATM    2  C   UNL     1      61.903  11.196   3.450  1.00  0.00     0.107 A 
HETATM    3  C   UNL     1      62.547   9.073   3.018  1.00  0.00     0.009 A 
HETATM    4  N   UNL     1      61.609  10.900   2.149  1.00  0.00    -0.364 N 
HETATM    5  C   UNL     1      61.985   9.611   1.858  1.00  0.00     0.043 A 
HETATM    6  C   UNL     1      63.018   7.742   2.974  1.00  0.00     0.015 A 
HETATM    7  C   UNL     1      61.869   8.891   0.662  1.00  0.00     0.030 A 
HETATM    8  C   UNL     1      62.906   7.007   1.787  1.00  0.00     0.001 A 
HETATM    9  C   UNL     1      62.339   7.575   0.649  1.00  0.00     0.002 A 
HETATM   10  H   UNL     1      61.188  11.522   1.511  1.00  0.00     0.165 HD
ENDROOT
BRANCH   1  11
HETATM   11  C   UNL     1      62.951   9.998   5.407  1.00  0.00     0.211 C 
HETATM   12  O   UNL     1      63.149   8.968   6.037  1.00  0.00    -0.644 OA
HETATM   13  O   UNL     1      63.161  11.196   6.003  1.00  0.00    -0.644 OA
ENDBRANCH   1  11
TORSDOF 1
ENDMDL
MODEL 4
REMARK VINA RESULT:      -5.0      2.169      3.692
REMARK  1 active torsions:
REMARK  status: ('A' for Active; 'I' for Inactive)
REMARK    1  A    between atoms: C_1  and  C_5 
ROOT
HETATM    1  C   UNL     1      62.646   9.812   4.262  1.00  0.00     0.068 A 
HETATM    2  C   UNL     1      61.705   9.460   3.307  1.00  0.00     0.107 A 
HETATM    3  C   UNL     1      63.637   8.773   4.258  1.00  0.00     0.009 A 
HETATM    4  N   UNL     1      62.083   8.276   2.737  1.00  0.00    -0.364 N 
HETATM    5  C   UNL     1      63.254   7.831   3.300  1.00  0.00     0.043 A 
HETATM    6  C   UNL     1      64.826   8.539   4.983  1.00  0.00     0.015 A 
HETATM    7  C   UNL     1      63.995   6.673   3.032  1.00  0.00     0.030 A 
HETATM    8  C   UNL     1      65.577   7.384   4.729  1.00  0.00     0.001 A 
HETATM    9  C   UNL     1      65.164   6.465   3.767  1.00  0.00     0.002 A 
HETATM   10  H   UNL     1      61.587   7.810   2.025  1.00  0.00     0.165 HD
ENDROOT
BRANCH   1  11
HETATM   11  C   UNL     1      62.604  11.002   5.088  1.00  0.00     0.211 C 
HETATM   12  O   UNL     1      63.102  11.128   6.198  1.00  0.00    -0.644 OA
HETATM   13  O   UNL     1      61.938  12.043   4.534  1.00  0.00    -0.644 OA
ENDBRANCH   1  11
TORSDOF 1
ENDMDL
MODEL 5
REMARK VINA RESULT:      -4.8      5.233      7.590
REMARK  1 active torsions:
REMARK  status: ('A' for Active; 'I' for Inactive)
REMARK    1  A    between atoms: C_1  and  C_5 
ROOT
HETATM    1  C   UNL     1      66.651   6.250   6.482  1.00  0.00     0.068 A 
HETATM    2  C   UNL     1      66.664   5.519   5.304  1.00  0.00     0.107 A 
HETATM    3  C   UNL     1      67.529   5.570   7.392  1.00  0.00     0.009 A 
HETATM    4  N   UNL     1      67.500   4.449   5.463  1.00  0.00    -0.364 N 
HETATM    5  C   UNL     1      68.038   4.451   6.727  1.00  0.00     0.043 A 
HETATM    6  C   UNL     1      67.939   5.796   8.724  1.00  0.00     0.015 A 
HETATM    7  C   UNL     1      68.931   3.552   7.324  1.00  0.00     0.030 A 
HETATM    8  C   UNL     1      68.829   4.904   9.337  1.00  0.00     0.001 A 
HETATM    9  C   UNL     1      69.315   3.798   8.644  1.00  0.00     0.002 A 
HETATM   10  H   UNL     1      67.690   3.775   4.771  1.00  0.00     0.165 HD
ENDROOT
BRANCH   1  11
HETATM   11  C   UNL     1      65.886   7.458   6.717  1.00  0.00     0.211 C 
HETATM   12  O   UNL     1      66.253   8.602   6.484  1.00  0.00    -0.644 OA
HETATM   13  O   UNL     1      64.657   7.247   7.246  1.00  0.00    -0.644 OA
ENDBRANCH   1  11
TORSDOF 1
ENDMDL
MODEL 6
REMARK VINA RESULT:      -4.7      2.006      2.600
REMARK  1 active torsions:
REMARK  status: ('A' for Active; 'I' for Inactive)
REMARK    1  A    between atoms: C_1  and  C_5 
ROOT
HETATM    1  C   UNL     1      63.088   7.669   4.039  1.00  0.00     0.068 A 
HETATM    2  C   UNL     1      63.275   7.991   5.375  1.00  0.00     0.107 A 
HETATM    3  C   UNL     1      62.633   8.867   3.392  1.00  0.00     0.009 A 
HETATM    4  N   UNL     1      62.960   9.309   5.554  1.00  0.00    -0.364 N 
HETATM    5  C   UNL     1      62.561   9.868   4.364  1.00  0.00     0.043 A 
HETATM    6  C   UNL     1      62.270   9.198   2.068  1.00  0.00     0.015 A 
HETATM    7  C   UNL     1      62.146  11.176   4.082  1.00  0.00     0.030 A 
HETATM    8  C   UNL     1      61.849  10.501   1.770  1.00  0.00     0.001 A 
HETATM    9  C   UNL     1      61.788  11.474   2.765  1.00  0.00     0.002 A 
HETATM   10  H   UNL     1      63.013   9.789   6.412  1.00  0.00     0.165 HD
ENDROOT
BRANCH   1  11
HETATM   11  C   UNL     1      63.313   6.366   3.447  1.00  0.00     0.211 C 
HETATM   12  O   UNL     1      62.563   5.402   3.516  1.00  0.00    -0.644 OA
HETATM   13  O   UNL     1      64.478   6.256   2.765  1.00  0.00    -0.644 OA
ENDBRANCH   1  11
TORSDOF 1
ENDMDL
MODEL 7
REMARK VINA RESULT:      -4.6      5.491      7.812
REMARK  1 active torsions:
REMARK  status: ('A' for Active; 'I' for Inactive)
REMARK    1  A    between atoms: C_1  and  C_5 
ROOT
HETATM    1  C   UNL     1      66.609   6.440   7.780  1.00  0.00     0.068 A 
HETATM    2  C   UNL     1      67.155   6.706   9.026  1.00  0.00     0.107 A 
HETATM    3  C   UNL     1      67.270   5.264   7.289  1.00  0.00     0.009 A 
HETATM    4  N   UNL     1      68.097   5.754   9.302  1.00  0.00    -0.364 N 
HETATM    5  C   UNL     1      68.192   4.864   8.260  1.00  0.00     0.043 A 
HETATM    6  C   UNL     1      67.176   4.498   6.106  1.00  0.00     0.015 A 
HETATM    7  C   UNL     1      69.021   3.745   8.109  1.00  0.00     0.030 A 
HETATM    8  C   UNL     1      68.000   3.377   5.938  1.00  0.00     0.001 A 
HETATM    9  C   UNL     1      68.910   3.010   6.927  1.00  0.00     0.002 A 
HETATM   10  H   UNL     1      68.629   5.712  10.130  1.00  0.00     0.165 HD
ENDROOT
BRANCH   1  11
HETATM   11  C   UNL     1      65.577   7.221   7.127  1.00  0.00     0.211 C 
HETATM   12  O   UNL     1      64.375   6.998   7.158  1.00  0.00    -0.644 OA
HETATM   13  O   UNL     1      66.040   8.285   6.428  1.00  0.00    -0.644 OA
ENDBRANCH   1  11
TORSDOF 1
ENDMDL
MODEL 8
REMARK VINA RESULT:      -4.6      6.777      8.260
REMARK  1 active torsions:
REMARK  status: ('A' for Active; 'I' for Inactive)
REMARK    1  A    between atoms: C_1  and  C_5 
ROOT
HETATM    1  C   UNL     1      68.484   4.617   8.873  1.00  0.00     0.068 A 
HETATM    2  C   UNL     1      68.191   5.912   9.273  1.00  0.00     0.107 A 
HETATM    3  C   UNL     1      68.121   4.528   7.487  1.00  0.00     0.009 A 
HETATM    4  N   UNL     1      67.680   6.594   8.203  1.00  0.00    -0.364 N 
HETATM    5  C   UNL     1      67.622   5.775   7.102  1.00  0.00     0.043 A 
HETATM    6  C   UNL     1      68.167   3.501   6.518  1.00  0.00     0.015 A 
HETATM    7  C   UNL     1      67.166   6.045   5.805  1.00  0.00     0.030 A 
HETATM    8  C   UNL     1      67.713   3.755   5.217  1.00  0.00     0.001 A 
HETATM    9  C   UNL     1      67.219   5.010   4.869  1.00  0.00     0.002 A 
HETATM   10  H   UNL     1      67.396   7.536   8.220  1.00  0.00     0.165 HD
ENDROOT
BRANCH   1  11
HETATM   11  C   UNL     1      69.042   3.580   9.718  1.00  0.00     0.211 C 
HETATM   12  O   UNL     1      70.165   3.571  10.202  1.00  0.00    -0.644 OA
HETATM   13  O   UNL     1      68.202   2.546   9.962  1.00  0.00    -0.644 OA
ENDBRANCH   1  11
TORSDOF 1
ENDMDL
MODEL 9
REMARK VINA RESULT:      -4.5      8.154      9.614
REMARK  1 active torsions:
REMARK  status: ('A' for Active; 'I' for Inactive)
REMARK    1  A    between atoms: C_1  and  C_5 
ROOT
HETATM    1  C   UNL     1      69.052   2.102   8.945  1.00  0.00     0.068 A 
HETATM    2  C   UNL     1      68.956   1.420   7.742  1.00  0.00     0.107 A 
HETATM    3  C   UNL     1      68.712   3.469   8.666  1.00  0.00     0.009 A 
HETATM    4  N   UNL     1      68.576   2.303   6.770  1.00  0.00    -0.364 N 
HETATM    5  C   UNL     1      68.424   3.560   7.302  1.00  0.00     0.043 A 
HETATM    6  C   UNL     1      68.624   4.644   9.445  1.00  0.00     0.015 A 
HETATM    7  C   UNL     1      68.056   4.760   6.680  1.00  0.00     0.030 A 
HETATM    8  C   UNL     1      68.260   5.853   8.837  1.00  0.00     0.001 A 
HETATM    9  C   UNL     1      67.982   5.907   7.473  1.00  0.00     0.002 A 
HETATM   10  H   UNL     1      68.432   2.070   5.824  1.00  0.00     0.165 HD
ENDROOT
BRANCH   1  11
HETATM   11  C   UNL     1      69.429   1.519  10.218  1.00  0.00     0.211 C 
HETATM   12  O   UNL     1      70.564   1.230  10.571  1.00  0.00    -0.644 OA
HETATM   13  O   UNL     1      68.391   1.289  11.056  1.00  0.00    -0.644 OA
ENDBRANCH   1  11
TORSDOF 1
ENDMDL
