MODEL 1
REMARK VINA RESULT:      -5.3      0.000      0.000
REMARK  3 active torsions:
REMARK  status: ('A' for Active; 'I' for Inactive)
REMARK    1  A    between atoms: C_1  and  C_3 
REMARK    2  A    between atoms: N_11  and  C_13 
REMARK    3  A    between atoms: C_12  and  C_13 
ROOT
HETATM    1  C   UNL     1      76.128   5.048  17.077  1.00  0.00    -0.019 A 
HETATM    2  C   UNL     1      74.878   4.659  16.573  1.00  0.00     0.013 A 
HETATM    3  C   UNL     1      76.895   4.081  17.744  1.00  0.00     0.013 A 
HETATM    4  C   UNL     1      74.399   3.354  16.747  1.00  0.00     0.010 A 
HETATM    5  C   UNL     1      76.422   2.775  17.914  1.00  0.00     0.010 A 
HETATM    6  C   UNL     1      75.163   2.399  17.428  1.00  0.00    -0.033 A 
ENDROOT
BRANCH   1   7
HETATM    7  C   UNL     1      76.610   6.430  16.887  1.00  0.00     0.015 A 
HETATM    8  S   UNL     1      76.989   7.026  15.317  1.00  0.00    -0.101 SA
HETATM    9  C   UNL     1      77.427   8.563  15.917  1.00  0.00     0.050 A 
HETATM   10  C   UNL     1      77.317   8.630  17.287  1.00  0.00     0.008 A 
HETATM   11  C   UNL     1      76.853   7.403  17.843  1.00  0.00     0.020 A 
ENDBRANCH   1   7
BRANCH   6  12
HETATM   12  C   UNL     1      74.644   0.995  17.631  1.00  0.00     0.270 C 
BRANCH  12  13
HETATM   13  N   UNL     1      75.099   0.440  18.907  1.00  0.00    -0.075 N 
HETATM   14  C   UNL     1      75.788  -0.827  18.715  1.00  0.00     0.267 C 
HETATM   15  H   UNL     1      74.290   0.291  19.512  1.00  0.00     0.277 HD
HETATM   16  H   UNL     1      75.749   1.099  19.333  1.00  0.00     0.277 HD
ENDBRANCH  12  13
ENDBRANCH   6  12
TORSDOF 3
ENDMDL
MODEL 2
REMARK VINA RESULT:      -5.2      6.700      9.313
REMARK  3 active torsions:
REMARK  status: ('A' for Active; 'I' for Inactive)
REMARK    1  A    between atoms: C_1  and  C_3 
REMARK    2  A    between atoms: N_11  and  C_13 
REMARK    3  A    between atoms: C_12  and  C_13 
ROOT
HETATM    1  C   UNL     1      79.261  11.966  21.544  1.00  0.00    -0.019 A 
HETATM    2  C   UNL     1      77.926  12.330  21.310  1.00  0.00     0.013 A 
HETATM    3  C   UNL     1      79.884  11.127  20.608  1.00  0.00     0.013 A 
HETATM    4  C   UNL     1      77.229  11.855  20.191  1.00  0.00     0.010 A 
HETATM    5  C   UNL     1      79.192  10.656  19.486  1.00  0.00     0.010 A 
HETATM    6  C   UNL     1      77.853  11.005  19.271  1.00  0.00    -0.033 A 
ENDROOT
BRANCH   1   7
HETATM    7  C   UNL     1      79.973  12.474  22.732  1.00  0.00     0.015 A 
HETATM    8  S   UNL     1      81.451  13.343  22.572  1.00  0.00    -0.101 SA
HETATM    9  C   UNL     1      81.602  13.557  24.259  1.00  0.00     0.050 A 
HETATM   10  C   UNL     1      80.569  12.962  24.947  1.00  0.00     0.008 A 
HETATM   11  C   UNL     1      79.638  12.336  24.069  1.00  0.00     0.020 A 
ENDBRANCH   1   7
BRANCH   6  12
HETATM   12  C   UNL     1      77.100  10.478  18.071  1.00  0.00     0.270 C 
BRANCH  12  13
HETATM   13  N   UNL     1      77.748   9.287  17.519  1.00  0.00    -0.075 N 
HETATM   14  C   UNL     1      77.013   8.080  17.865  1.00  0.00     0.267 C 
HETATM   15  H   UNL     1      78.695   9.219  17.894  1.00  0.00     0.277 HD
HETATM   16  H   UNL     1      77.769   9.372  16.503  1.00  0.00     0.277 HD
ENDBRANCH  12  13
ENDBRANCH   6  12
TORSDOF 3
ENDMDL
MODEL 3
REMARK VINA RESULT:      -5.1     12.348     13.544
REMARK  3 active torsions:
REMARK  status: ('A' for Active; 'I' for Inactive)
REMARK    1  A    between atoms: C_1  and  C_3 
REMARK    2  A    between atoms: N_11  and  C_13 
REMARK    3  A    between atoms: C_12  and  C_13 
ROOT
HETATM    1  C   UNL     1      66.937   6.175   7.234  1.00  0.00    -0.019 A 
HETATM    2  C   UNL     1      67.286   6.532   8.545  1.00  0.00     0.013 A 
HETATM    3  C   UNL     1      67.609   5.092   6.649  1.00  0.00     0.013 A 
HETATM    4  C   UNL     1      68.289   5.844   9.241  1.00  0.00     0.010 A 
HETATM    5  C   UNL     1      68.607   4.400   7.344  1.00  0.00     0.010 A 
HETATM    6  C   UNL     1      68.967   4.775   8.644  1.00  0.00    -0.033 A 
ENDROOT
BRANCH   1   7
HETATM    7  C   UNL     1      65.881   6.917   6.518  1.00  0.00     0.015 A 
HETATM    8  S   UNL     1      64.262   6.333   6.477  1.00  0.00    -0.101 SA
HETATM    9  C   UNL     1      63.723   7.653   5.539  1.00  0.00     0.050 A 
HETATM   10  C   UNL     1      64.748   8.518   5.232  1.00  0.00     0.008 A 
HETATM   11  C   UNL     1      65.988   8.091   5.790  1.00  0.00     0.020 A 
ENDBRANCH   1   7
BRANCH   6  12
HETATM   12  C   UNL     1      70.060   4.041   9.386  1.00  0.00     0.270 C 
BRANCH  12  13
HETATM   13  N   UNL     1      69.538   3.377  10.581  1.00  0.00    -0.075 N 
HETATM   14  C   UNL     1      69.351   1.952  10.353  1.00  0.00     0.267 C 
HETATM   15  H   UNL     1      68.640   3.795  10.828  1.00  0.00     0.277 HD
HETATM   16  H   UNL     1      70.210   3.498  11.338  1.00  0.00     0.277 HD
ENDBRANCH  12  13
ENDBRANCH   6  12
TORSDOF 3
ENDMDL
MODEL 4
REMARK VINA RESULT:      -5.1      8.713     11.171
REMARK  3 active torsions:
REMARK  status: ('A' for Active; 'I' for Inactive)
REMARK    1  A    between atoms: C_1  and  C_3 
REMARK    2  A    between atoms: N_11  and  C_13 
REMARK    3  A    between atoms: C_12  and  C_13 
ROOT
HETATM    1  C   UNL     1      78.777  12.422  21.752  1.00  0.00    -0.019 A 
HETATM    2  C   UNL     1      78.273  11.864  22.937  1.00  0.00     0.013 A 
HETATM    3  C   UNL     1      80.069  12.967  21.784  1.00  0.00     0.013 A 
HETATM    4  C   UNL     1      79.024  11.869  24.119  1.00  0.00     0.010 A 
HETATM    5  C   UNL     1      80.824  12.968  22.961  1.00  0.00     0.010 A 
HETATM    6  C   UNL     1      80.306  12.430  24.146  1.00  0.00    -0.033 A 
ENDROOT
BRANCH   1   7
HETATM    7  C   UNL     1      77.966  12.409  20.520  1.00  0.00     0.015 A 
HETATM    8  S   UNL     1      77.839  10.986  19.559  1.00  0.00    -0.101 SA
HETATM    9  C   UNL     1      76.811  11.745  18.426  1.00  0.00     0.050 A 
HETATM   10  C   UNL     1      76.580  13.063  18.744  1.00  0.00     0.008 A 
HETATM   11  C   UNL     1      77.248  13.445  19.944  1.00  0.00     0.020 A 
ENDBRANCH   1   7
BRANCH   6  12
HETATM   12  C   UNL     1      81.114  12.453  25.423  1.00  0.00     0.270 C 
BRANCH  12  13
HETATM   13  N   UNL     1      80.620  13.475  26.346  1.00  0.00    -0.075 N 
HETATM   14  C   UNL     1      81.491  14.641  26.357  1.00  0.00     0.267 C 
HETATM   15  H   UNL     1      80.578  13.083  27.288  1.00  0.00     0.277 HD
HETATM   16  H   UNL     1      79.693  13.768  26.039  1.00  0.00     0.277 HD
ENDBRANCH  12  13
ENDBRANCH   6  12
TORSDOF 3
ENDMDL
MODEL 5
REMARK VINA RESULT:      -5.1      8.444     10.659
REMARK  3 active torsions:
REMARK  status: ('A' for Active; 'I' for Inactive)
REMARK    1  A    between atoms: C_1  and  C_3 
REMARK    2  A    between atoms: N_11  and  C_13 
REMARK    3  A    between atoms: C_12  and  C_13 
ROOT
HETATM    1  C   UNL     1      78.617  12.301  21.624  1.00  0.00    -0.019 A 
HETATM    2  C   UNL     1      79.873  12.925  21.659  1.00  0.00     0.013 A 
HETATM    3  C   UNL     1      78.123  11.756  22.819  1.00  0.00     0.013 A 
HETATM    4  C   UNL     1      80.621  12.985  22.842  1.00  0.00     0.010 A 
HETATM    5  C   UNL     1      78.865  11.820  24.003  1.00  0.00     0.010 A 
HETATM    6  C   UNL     1      80.128  12.425  24.026  1.00  0.00    -0.033 A 
ENDROOT
BRANCH   1   7
HETATM    7  C   UNL     1      77.849  12.244  20.365  1.00  0.00     0.015 A 
HETATM    8  S   UNL     1      77.009  13.628  19.780  1.00  0.00    -0.101 SA
HETATM    9  C   UNL     1      76.437  12.799  18.402  1.00  0.00     0.050 A 
HETATM   10  C   UNL     1      76.847  11.485  18.386  1.00  0.00     0.008 A 
HETATM   11  C   UNL     1      77.654  11.167  19.516  1.00  0.00     0.020 A 
ENDBRANCH   1   7
BRANCH   6  12
HETATM   12  C   UNL     1      80.939  12.474  25.301  1.00  0.00     0.270 C 
BRANCH  12  13
HETATM   13  N   UNL     1      80.177  11.948  26.435  1.00  0.00    -0.075 N 
HETATM   14  C   UNL     1      80.924  10.915  27.138  1.00  0.00     0.267 C 
HETATM   15  H   UNL     1      79.302  11.551  26.093  1.00  0.00     0.277 HD
HETATM   16  H   UNL     1      79.994  12.712  27.084  1.00  0.00     0.277 HD
ENDBRANCH  12  13
ENDBRANCH   6  12
TORSDOF 3
ENDMDL
MODEL 6
REMARK VINA RESULT:      -4.9     13.405     15.034
REMARK  3 active torsions:
REMARK  status: ('A' for Active; 'I' for Inactive)
REMARK    1  A    between atoms: C_1  and  C_3 
REMARK    2  A    between atoms: N_11  and  C_13 
REMARK    3  A    between atoms: C_12  and  C_13 
ROOT
HETATM    1  C   UNL     1      67.301   5.943   7.297  1.00  0.00    -0.019 A 
HETATM    2  C   UNL     1      67.806   6.694   6.225  1.00  0.00     0.013 A 
HETATM    3  C   UNL     1      65.931   6.044   7.580  1.00  0.00     0.013 A 
HETATM    4  C   UNL     1      66.975   7.536   5.475  1.00  0.00     0.010 A 
HETATM    5  C   UNL     1      65.098   6.879   6.828  1.00  0.00     0.010 A 
HETATM    6  C   UNL     1      65.612   7.644   5.773  1.00  0.00    -0.033 A 
ENDROOT
BRANCH   1   7
HETATM    7  C   UNL     1      68.195   5.066   8.078  1.00  0.00     0.015 A 
HETATM    8  S   UNL     1      67.693   3.491   8.557  1.00  0.00    -0.101 SA
HETATM    9  C   UNL     1      69.173   3.169   9.343  1.00  0.00     0.050 A 
HETATM   10  C   UNL     1      70.035   4.239   9.274  1.00  0.00     0.008 A 
HETATM   11  C   UNL     1      69.470   5.330   8.552  1.00  0.00     0.020 A 
ENDBRANCH   1   7
BRANCH   6  12
HETATM   12  C   UNL     1      64.716   8.564   4.976  1.00  0.00     0.270 C 
BRANCH  12  13
HETATM   13  N   UNL     1      63.550   8.978   5.757  1.00  0.00    -0.075 N 
HETATM   14  C   UNL     1      62.992  10.223   5.251  1.00  0.00     0.267 C 
HETATM   15  H   UNL     1      63.831   9.111   6.730  1.00  0.00     0.277 HD
HETATM   16  H   UNL     1      62.838   8.252   5.686  1.00  0.00     0.277 HD
ENDBRANCH  12  13
ENDBRANCH   6  12
TORSDOF 3
ENDMDL
MODEL 7
REMARK VINA RESULT:      -4.8     15.410     16.585
REMARK  3 active torsions:
REMARK  status: ('A' for Active; 'I' for Inactive)
REMARK    1  A    between atoms: C_1  and  C_3 
REMARK    2  A    between atoms: N_11  and  C_13 
REMARK    3  A    between atoms: C_12  and  C_13 
ROOT
HETATM    1  C   UNL     1      64.669   8.026   5.348  1.00  0.00    -0.019 A 
HETATM    2  C   UNL     1      66.030   8.181   5.042  1.00  0.00     0.013 A 
HETATM    3  C   UNL     1      64.306   6.978   6.207  1.00  0.00     0.013 A 
HETATM    4  C   UNL     1      66.994   7.305   5.559  1.00  0.00     0.010 A 
HETATM    5  C   UNL     1      65.267   6.106   6.729  1.00  0.00     0.010 A 
HETATM    6  C   UNL     1      66.621   6.252   6.402  1.00  0.00    -0.033 A 
ENDROOT
BRANCH   1   7
HETATM    7  C   UNL     1      63.671   8.957   4.788  1.00  0.00     0.015 A 
HETATM    8  S   UNL     1      62.839   8.588   3.327  1.00  0.00    -0.101 SA
HETATM    9  C   UNL     1      61.945  10.041   3.372  1.00  0.00     0.050 A 
HETATM   10  C   UNL     1      62.280  10.816   4.459  1.00  0.00     0.008 A 
HETATM   11  C   UNL     1      63.275  10.195   5.268  1.00  0.00     0.020 A 
ENDBRANCH   1   7
BRANCH   6  12
HETATM   12  C   UNL     1      67.656   5.295   6.949  1.00  0.00     0.270 C 
BRANCH  12  13
HETATM   13  N   UNL     1      68.555   5.966   7.890  1.00  0.00    -0.075 N 
HETATM   14  C   UNL     1      68.011   5.952   9.239  1.00  0.00     0.267 C 
HETATM   15  H   UNL     1      68.685   6.934   7.593  1.00  0.00     0.277 HD
HETATM   16  H   UNL     1      69.446   5.470   7.896  1.00  0.00     0.277 HD
ENDBRANCH  12  13
ENDBRANCH   6  12
TORSDOF 3
ENDMDL
MODEL 8
REMARK VINA RESULT:      -4.8      8.577     10.252
REMARK  3 active torsions:
REMARK  status: ('A' for Active; 'I' for Inactive)
REMARK    1  A    between atoms: C_1  and  C_3 
REMARK    2  A    between atoms: N_11  and  C_13 
REMARK    3  A    between atoms: C_12  and  C_13 
ROOT
HETATM    1  C   UNL     1      78.385  12.475  21.182  1.00  0.00    -0.019 A 
HETATM    2  C   UNL     1      77.494  13.537  20.965  1.00  0.00     0.013 A 
HETATM    3  C   UNL     1      78.433  11.454  20.221  1.00  0.00     0.013 A 
HETATM    4  C   UNL     1      76.662  13.567  19.839  1.00  0.00     0.010 A 
HETATM    5  C   UNL     1      77.607  11.485  19.092  1.00  0.00     0.010 A 
HETATM    6  C   UNL     1      76.703  12.536  18.893  1.00  0.00    -0.033 A 
ENDROOT
BRANCH   1   7
HETATM    7  C   UNL     1      79.249  12.461  22.378  1.00  0.00     0.015 A 
HETATM    8  S   UNL     1      80.879  13.009  22.298  1.00  0.00    -0.101 SA
HETATM    9  C   UNL     1      81.151  12.695  23.954  1.00  0.00     0.050 A 
HETATM   10  C   UNL     1      80.041  12.159  24.565  1.00  0.00     0.008 A 
HETATM   11  C   UNL     1      78.951  12.021  23.658  1.00  0.00     0.020 A 
ENDBRANCH   1   7
BRANCH   6  12
HETATM   12  C   UNL     1      75.796  12.557  17.685  1.00  0.00     0.270 C 
BRANCH  12  13
HETATM   13  N   UNL     1      76.566  12.635  16.443  1.00  0.00    -0.075 N 
HETATM   14  C   UNL     1      76.768  14.017  16.034  1.00  0.00     0.267 C 
HETATM   15  H   UNL     1      76.062  12.141  15.707  1.00  0.00     0.277 HD
HETATM   16  H   UNL     1      77.479  12.209  16.601  1.00  0.00     0.277 HD
ENDBRANCH  12  13
ENDBRANCH   6  12
TORSDOF 3
ENDMDL
MODEL 9
REMARK VINA RESULT:      -4.7     11.293     12.386
REMARK  3 active torsions:
REMARK  status: ('A' for Active; 'I' for Inactive)
REMARK    1  A    between atoms: C_1  and  C_3 
REMARK    2  A    between atoms: N_11  and  C_13 
REMARK    3  A    between atoms: C_12  and  C_13 
ROOT
HETATM    1  C   UNL     1      67.838   5.113   7.807  1.00  0.00    -0.019 A 
HETATM    2  C   UNL     1      67.269   3.832   7.735  1.00  0.00     0.013 A 
HETATM    3  C   UNL     1      68.857   5.324   8.747  1.00  0.00     0.013 A 
HETATM    4  C   UNL     1      67.689   2.803   8.587  1.00  0.00     0.010 A 
HETATM    5  C   UNL     1      69.282   4.296   9.596  1.00  0.00     0.010 A 
HETATM    6  C   UNL     1      68.695   3.026   9.534  1.00  0.00    -0.033 A 
ENDROOT
BRANCH   1   7
HETATM    7  C   UNL     1      67.377   6.183   6.903  1.00  0.00     0.015 A 
HETATM    8  S   UNL     1      65.842   6.931   7.127  1.00  0.00    -0.101 SA
HETATM    9  C   UNL     1      66.061   7.968   5.789  1.00  0.00     0.050 A 
HETATM   10  C   UNL     1      67.262   7.745   5.157  1.00  0.00     0.008 A 
HETATM   11  C   UNL     1      68.015   6.716   5.794  1.00  0.00     0.020 A 
ENDBRANCH   1   7
BRANCH   6  12
HETATM   12  C   UNL     1      69.139   1.923  10.467  1.00  0.00     0.270 C 
BRANCH  12  13
HETATM   13  N   UNL     1      70.531   1.545  10.217  1.00  0.00    -0.075 N 
HETATM   14  C   UNL     1      70.624   0.189   9.696  1.00  0.00     0.267 C 
HETATM   15  H   UNL     1      71.054   1.601  11.092  1.00  0.00     0.277 HD
HETATM   16  H   UNL     1      70.921   2.184   9.525  1.00  0.00     0.277 HD
ENDBRANCH  12  13
ENDBRANCH   6  12
TORSDOF 3
ENDMDL
