MODEL 1
REMARK VINA RESULT:      -4.3      0.000      0.000
REMARK  2 active torsions:
REMARK  status: ('A' for Active; 'I' for Inactive)
REMARK    1  A    between atoms: C_6  and  C_8 
REMARK    2  A    between atoms: C_8  and  N_9 
ROOT
HETATM    1  N   UNL     1      77.283   7.498  15.815  1.00  0.00    -0.301 N 
ATOM      2  HN  UNL     1      77.419   7.095  14.888  1.00  0.00     0.187 HD
HETATM    3  N   UNL     1      77.497   8.772  16.205  1.00  0.00    -0.301 N 
HETATM    4  C   UNL     1      77.229   8.994  17.531  1.00  0.00     0.026 A 
HETATM    5  C   UNL     1      76.799   7.777  18.023  1.00  0.00     0.054 A 
HETATM    6  C   UNL     1      76.850   6.884  16.927  1.00  0.00     0.053 A 
HETATM    7  C   UNL     1      77.951   9.738  15.231  1.00  0.00     0.177 C 
HETATM    8  C   UNL     1      77.397  10.291  18.227  1.00  0.00     0.070 C 
ENDROOT
BRANCH   6   9
HETATM    9  C   UNL     1      76.483   5.435  16.921  1.00  0.00     0.287 C 
BRANCH   9  10
HETATM   10  N   UNL     1      77.170   4.746  18.016  1.00  0.00    -0.074 N 
HETATM   11  H   UNL     1      76.632   3.923  18.290  1.00  0.00     0.274 HD
HETATM   12  H   UNL     1      77.259   5.376  18.812  1.00  0.00     0.274 HD
HETATM   13  H   UNL     1      78.097   4.457  17.706  1.00  0.00     0.274 HD
ENDBRANCH   9  10
ENDBRANCH   6   9
TORSDOF 2
ENDMDL
MODEL 2
REMARK VINA RESULT:      -4.1      1.232      2.156
REMARK  2 active torsions:
REMARK  status: ('A' for Active; 'I' for Inactive)
REMARK    1  A    between atoms: C_6  and  C_8 
REMARK    2  A    between atoms: C_8  and  N_9 
ROOT
HETATM    1  N   UNL     1      76.920   7.260  17.496  1.00  0.00    -0.301 N 
ATOM      2  HN  UNL     1      76.853   7.288  18.514  1.00  0.00     0.187 HD
HETATM    3  N   UNL     1      77.297   8.253  16.663  1.00  0.00    -0.301 N 
HETATM    4  C   UNL     1      77.270   7.899  15.339  1.00  0.00     0.026 A 
HETATM    5  C   UNL     1      76.859   6.580  15.324  1.00  0.00     0.054 A 
HETATM    6  C   UNL     1      76.654   6.230  16.679  1.00  0.00     0.053 A 
HETATM    7  C   UNL     1      77.689   9.527  17.219  1.00  0.00     0.177 C 
HETATM    8  C   UNL     1      77.612   8.797  14.211  1.00  0.00     0.070 C 
ENDROOT
BRANCH   6   9
HETATM    9  C   UNL     1      76.208   4.908  17.216  1.00  0.00     0.287 C 
BRANCH   9  10
HETATM   10  N   UNL     1      77.186   4.414  18.189  1.00  0.00    -0.074 N 
HETATM   11  H   UNL     1      77.756   5.192  18.522  1.00  0.00     0.274 HD
HETATM   12  H   UNL     1      77.785   3.718  17.746  1.00  0.00     0.274 HD
HETATM   13  H   UNL     1      76.697   3.990  18.976  1.00  0.00     0.274 HD
ENDBRANCH   9  10
ENDBRANCH   6   9
TORSDOF 2
ENDMDL
MODEL 3
REMARK VINA RESULT:      -4.1      2.153      5.118
REMARK  2 active torsions:
REMARK  status: ('A' for Active; 'I' for Inactive)
REMARK    1  A    between atoms: C_6  and  C_8 
REMARK    2  A    between atoms: C_8  and  N_9 
ROOT
HETATM    1  N   UNL     1      77.318   4.732  17.794  1.00  0.00    -0.301 N 
ATOM      2  HN  UNL     1      78.206   4.932  18.255  1.00  0.00     0.187 HD
HETATM    3  N   UNL     1      76.649   3.561  17.755  1.00  0.00    -0.301 N 
HETATM    4  C   UNL     1      75.483   3.618  17.036  1.00  0.00     0.026 A 
HETATM    5  C   UNL     1      75.392   4.924  16.595  1.00  0.00     0.054 A 
HETATM    6  C   UNL     1      76.548   5.573  17.087  1.00  0.00     0.053 A 
HETATM    7  C   UNL     1      77.191   2.418  18.453  1.00  0.00     0.177 C 
HETATM    8  C   UNL     1      74.565   2.476  16.813  1.00  0.00     0.070 C 
ENDROOT
BRANCH   6   9
HETATM    9  C   UNL     1      76.934   7.005  16.896  1.00  0.00     0.287 C 
BRANCH   9  10
HETATM   10  N   UNL     1      76.639   7.764  18.114  1.00  0.00    -0.074 N 
HETATM   11  H   UNL     1      75.767   7.424  18.522  1.00  0.00     0.274 HD
HETATM   12  H   UNL     1      76.545   8.753  17.884  1.00  0.00     0.274 HD
HETATM   13  H   UNL     1      77.398   7.641  18.783  1.00  0.00     0.274 HD
ENDBRANCH   9  10
ENDBRANCH   6   9
TORSDOF 2
ENDMDL
MODEL 4
REMARK VINA RESULT:      -3.9      2.995      4.787
REMARK  2 active torsions:
REMARK  status: ('A' for Active; 'I' for Inactive)
REMARK    1  A    between atoms: C_6  and  C_8 
REMARK    2  A    between atoms: C_8  and  N_9 
ROOT
HETATM    1  N   UNL     1      77.359   4.027  18.200  1.00  0.00    -0.301 N 
ATOM      2  HN  UNL     1      78.215   4.338  18.660  1.00  0.00     0.187 HD
HETATM    3  N   UNL     1      76.423   4.783  17.590  1.00  0.00    -0.301 N 
HETATM    4  C   UNL     1      75.379   4.058  17.077  1.00  0.00     0.026 A 
HETATM    5  C   UNL     1      75.674   2.741  17.369  1.00  0.00     0.054 A 
HETATM    6  C   UNL     1      76.906   2.771  18.064  1.00  0.00     0.053 A 
HETATM    7  C   UNL     1      76.609   6.215  17.524  1.00  0.00     0.177 C 
HETATM    8  C   UNL     1      74.206   4.634  16.377  1.00  0.00     0.070 C 
ENDROOT
BRANCH   6   9
HETATM    9  C   UNL     1      77.672   1.606  18.603  1.00  0.00     0.287 C 
BRANCH   9  10
HETATM   10  N   UNL     1      78.354   1.993  19.840  1.00  0.00    -0.074 N 
HETATM   11  H   UNL     1      78.118   1.329  20.579  1.00  0.00     0.274 HD
HETATM   12  H   UNL     1      78.057   2.928  20.115  1.00  0.00     0.274 HD
HETATM   13  H   UNL     1      79.362   1.987  19.688  1.00  0.00     0.274 HD
ENDBRANCH   9  10
ENDBRANCH   6   9
TORSDOF 2
ENDMDL
MODEL 5
REMARK VINA RESULT:      -3.9     19.231     20.077
REMARK  2 active torsions:
REMARK  status: ('A' for Active; 'I' for Inactive)
REMARK    1  A    between atoms: C_6  and  C_8 
REMARK    2  A    between atoms: C_8  and  N_9 
ROOT
HETATM    1  N   UNL     1      63.171   9.186   4.400  1.00  0.00    -0.301 N 
ATOM      2  HN  UNL     1      63.694   8.809   5.191  1.00  0.00     0.187 HD
HETATM    3  N   UNL     1      62.934   8.601   3.208  1.00  0.00    -0.301 N 
HETATM    4  C   UNL     1      62.204   9.380   2.348  1.00  0.00     0.026 A 
HETATM    5  C   UNL     1      61.942  10.543   3.046  1.00  0.00     0.054 A 
HETATM    6  C   UNL     1      62.560  10.377   4.308  1.00  0.00     0.053 A 
HETATM    7  C   UNL     1      63.435   7.267   2.967  1.00  0.00     0.177 C 
HETATM    8  C   UNL     1      61.819   8.996   0.970  1.00  0.00     0.070 C 
ENDROOT
BRANCH   6   9
HETATM    9  C   UNL     1      62.574  11.348   5.445  1.00  0.00     0.287 C 
BRANCH   9  10
HETATM   10  N   UNL     1      63.842  11.239   6.173  1.00  0.00    -0.074 N 
HETATM   11  H   UNL     1      64.313  10.374   5.905  1.00  0.00     0.274 HD
HETATM   12  H   UNL     1      63.659  11.231   7.175  1.00  0.00     0.274 HD
HETATM   13  H   UNL     1      64.435  12.035   5.941  1.00  0.00     0.274 HD
ENDBRANCH   9  10
ENDBRANCH   6   9
TORSDOF 2
ENDMDL
MODEL 6
REMARK VINA RESULT:      -3.8     17.433     18.282
REMARK  2 active torsions:
REMARK  status: ('A' for Active; 'I' for Inactive)
REMARK    1  A    between atoms: C_6  and  C_8 
REMARK    2  A    between atoms: C_8  and  N_9 
ROOT
HETATM    1  N   UNL     1      64.588   9.053   5.632  1.00  0.00    -0.301 N 
ATOM      2  HN  UNL     1      65.081   9.437   6.438  1.00  0.00     0.187 HD
HETATM    3  N   UNL     1      64.861   7.917   4.957  1.00  0.00    -0.301 N 
HETATM    4  C   UNL     1      64.013   7.685   3.906  1.00  0.00     0.026 A 
HETATM    5  C   UNL     1      63.123   8.741   3.917  1.00  0.00     0.054 A 
HETATM    6  C   UNL     1      63.519   9.561   5.000  1.00  0.00     0.053 A 
HETATM    7  C   UNL     1      65.959   7.086   5.395  1.00  0.00     0.177 C 
HETATM    8  C   UNL     1      64.096   6.526   2.985  1.00  0.00     0.070 C 
ENDROOT
BRANCH   6   9
HETATM    9  C   UNL     1      62.882  10.836   5.452  1.00  0.00     0.287 C 
BRANCH   9  10
HETATM   10  N   UNL     1      63.786  11.544   6.362  1.00  0.00    -0.074 N 
HETATM   11  H   UNL     1      64.013  10.939   7.153  1.00  0.00     0.274 HD
HETATM   12  H   UNL     1      63.332  12.391   6.701  1.00  0.00     0.274 HD
HETATM   13  H   UNL     1      64.641  11.791   5.867  1.00  0.00     0.274 HD
ENDBRANCH   9  10
ENDBRANCH   6   9
TORSDOF 2
ENDMDL
MODEL 7
REMARK VINA RESULT:      -3.7      5.247      7.045
REMARK  2 active torsions:
REMARK  status: ('A' for Active; 'I' for Inactive)
REMARK    1  A    between atoms: C_6  and  C_8 
REMARK    2  A    between atoms: C_8  and  N_9 
ROOT
HETATM    1  N   UNL     1      77.312   1.540  17.676  1.00  0.00    -0.301 N 
ATOM      2  HN  UNL     1      78.243   1.360  18.052  1.00  0.00     0.187 HD
HETATM    3  N   UNL     1      76.592   0.765  16.838  1.00  0.00    -0.301 N 
HETATM    4  C   UNL     1      75.373   1.298  16.507  1.00  0.00     0.026 A 
HETATM    5  C   UNL     1      75.302   2.494  17.195  1.00  0.00     0.054 A 
HETATM    6  C   UNL     1      76.522   2.600  17.902  1.00  0.00     0.053 A 
HETATM    7  C   UNL     1      77.142  -0.498  16.402  1.00  0.00     0.177 C 
HETATM    8  C   UNL     1      74.391   0.671  15.591  1.00  0.00     0.070 C 
ENDROOT
BRANCH   6   9
HETATM    9  C   UNL     1      76.952   3.711  18.806  1.00  0.00     0.287 C 
BRANCH   9  10
HETATM   10  N   UNL     1      77.793   3.176  19.880  1.00  0.00    -0.074 N 
HETATM   11  H   UNL     1      78.411   2.458  19.501  1.00  0.00     0.274 HD
HETATM   12  H   UNL     1      77.202   2.770  20.605  1.00  0.00     0.274 HD
HETATM   13  H   UNL     1      78.352   3.929  20.280  1.00  0.00     0.274 HD
ENDBRANCH   9  10
ENDBRANCH   6   9
TORSDOF 2
ENDMDL
MODEL 8
REMARK VINA RESULT:      -3.6     12.256     13.418
REMARK  2 active torsions:
REMARK  status: ('A' for Active; 'I' for Inactive)
REMARK    1  A    between atoms: C_6  and  C_8 
REMARK    2  A    between atoms: C_8  and  N_9 
ROOT
HETATM    1  N   UNL     1      66.657   4.320   8.649  1.00  0.00    -0.301 N 
ATOM      2  HN  UNL     1      65.721   3.922   8.576  1.00  0.00     0.187 HD
HETATM    3  N   UNL     1      67.797   3.698   9.015  1.00  0.00    -0.301 N 
HETATM    4  C   UNL     1      68.894   4.521   9.025  1.00  0.00     0.026 A 
HETATM    5  C   UNL     1      68.425   5.756   8.622  1.00  0.00     0.054 A 
HETATM    6  C   UNL     1      67.038   5.583   8.402  1.00  0.00     0.053 A 
HETATM    7  C   UNL     1      67.759   2.289   9.333  1.00  0.00     0.177 C 
HETATM    8  C   UNL     1      70.265   4.107   9.407  1.00  0.00     0.070 C 
ENDROOT
BRANCH   6   9
HETATM    9  C   UNL     1      66.056   6.615   7.949  1.00  0.00     0.287 C 
BRANCH   9  10
HETATM   10  N   UNL     1      66.769   7.823   7.525  1.00  0.00    -0.074 N 
HETATM   11  H   UNL     1      67.704   7.570   7.203  1.00  0.00     0.274 HD
HETATM   12  H   UNL     1      66.844   8.468   8.311  1.00  0.00     0.274 HD
HETATM   13  H   UNL     1      66.258   8.271   6.766  1.00  0.00     0.274 HD
ENDBRANCH   9  10
ENDBRANCH   6   9
TORSDOF 2
ENDMDL
MODEL 9
REMARK VINA RESULT:      -3.5     12.157     13.275
REMARK  2 active torsions:
REMARK  status: ('A' for Active; 'I' for Inactive)
REMARK    1  A    between atoms: C_6  and  C_8 
REMARK    2  A    between atoms: C_8  and  N_9 
ROOT
HETATM    1  N   UNL     1      68.589   6.260   7.956  1.00  0.00    -0.301 N 
ATOM      2  HN  UNL     1      69.091   7.069   7.590  1.00  0.00     0.187 HD
HETATM    3  N   UNL     1      69.104   5.165   8.553  1.00  0.00    -0.301 N 
HETATM    4  C   UNL     1      68.159   4.244   8.923  1.00  0.00     0.026 A 
HETATM    5  C   UNL     1      66.949   4.795   8.547  1.00  0.00     0.054 A 
HETATM    6  C   UNL     1      67.265   6.039   7.954  1.00  0.00     0.053 A 
HETATM    7  C   UNL     1      70.533   5.079   8.751  1.00  0.00     0.177 C 
HETATM    8  C   UNL     1      68.446   2.945   9.577  1.00  0.00     0.070 C 
ENDROOT
BRANCH   6   9
HETATM    9  C   UNL     1      66.312   7.039   7.381  1.00  0.00     0.287 C 
BRANCH   9  10
HETATM   10  N   UNL     1      66.980   8.336   7.242  1.00  0.00    -0.074 N 
HETATM   11  H   UNL     1      67.627   8.301   6.453  1.00  0.00     0.274 HD
HETATM   12  H   UNL     1      67.495   8.547   8.095  1.00  0.00     0.274 HD
HETATM   13  H   UNL     1      66.283   9.060   7.077  1.00  0.00     0.274 HD
ENDBRANCH   9  10
ENDBRANCH   6   9
TORSDOF 2
ENDMDL
