MODEL 1
REMARK VINA RESULT:      -4.3      0.000      0.000
REMARK  2 active torsions:
REMARK  status: ('A' for Active; 'I' for Inactive)
REMARK    1  A    between atoms: C_4  and  C_7 
REMARK    2  A    between atoms: C_7  and  N_9 
ROOT
HETATM    1  N   UNL     1      77.928  11.250  19.715  1.00  0.00    -0.299 N 
HETATM    2  N   UNL     1      78.869  11.288  20.680  1.00  0.00    -0.303 N 
ATOM      3  HN  UNL     1      79.577  10.585  20.892  1.00  0.00     0.186 HD
HETATM    4  C   UNL     1      77.119  12.362  19.699  1.00  0.00     0.055 A 
HETATM    5  C   UNL     1      77.583  13.162  20.725  1.00  0.00     0.054 A 
HETATM    6  C   UNL     1      78.664  12.458  21.297  1.00  0.00     0.024 A 
HETATM    7  C   UNL     1      77.895  10.100  18.843  1.00  0.00     0.177 C 
HETATM    8  C   UNL     1      79.528  12.865  22.430  1.00  0.00     0.070 C 
ENDROOT
BRANCH   4   9
HETATM    9  C   UNL     1      75.990  12.568  18.763  1.00  0.00     0.288 C 
BRANCH   9  10
HETATM   10  N   UNL     1      76.474  13.074  17.487  1.00  0.00    -0.074 N 
HETATM   11  H   UNL     1      76.210  12.427  16.743  1.00  0.00     0.274 HD
HETATM   12  H   UNL     1      77.491  13.158  17.519  1.00  0.00     0.274 HD
HETATM   13  H   UNL     1      76.063  13.989  17.305  1.00  0.00     0.274 HD
ENDBRANCH   9  10
ENDBRANCH   4   9
TORSDOF 2
ENDMDL
MODEL 2
REMARK VINA RESULT:      -4.2      3.563      5.688
REMARK  2 active torsions:
REMARK  status: ('A' for Active; 'I' for Inactive)
REMARK    1  A    between atoms: C_4  and  C_7 
REMARK    2  A    between atoms: C_7  and  N_9 
ROOT
HETATM    1  N   UNL     1      77.499   8.821  16.213  1.00  0.00    -0.299 N 
HETATM    2  N   UNL     1      77.297   7.542  15.835  1.00  0.00    -0.303 N 
ATOM      3  HN  UNL     1      77.420   7.138  14.907  1.00  0.00     0.186 HD
HETATM    4  C   UNL     1      77.236   9.043  17.544  1.00  0.00     0.055 A 
HETATM    5  C   UNL     1      76.840   7.818  18.044  1.00  0.00     0.054 A 
HETATM    6  C   UNL     1      76.899   6.925  16.953  1.00  0.00     0.024 A 
HETATM    7  C   UNL     1      77.964   9.758  15.219  1.00  0.00     0.177 C 
HETATM    8  C   UNL     1      76.583   5.477  16.934  1.00  0.00     0.070 C 
ENDROOT
BRANCH   4   9
HETATM    9  C   UNL     1      77.349  10.358  18.217  1.00  0.00     0.288 C 
BRANCH   9  10
HETATM   10  N   UNL     1      77.850  10.193  19.572  1.00  0.00    -0.074 N 
HETATM   11  H   UNL     1      78.058  11.109  19.971  1.00  0.00     0.274 HD
HETATM   12  H   UNL     1      78.701   9.630  19.554  1.00  0.00     0.274 HD
HETATM   13  H   UNL     1      77.145   9.726  20.142  1.00  0.00     0.274 HD
ENDBRANCH   9  10
ENDBRANCH   4   9
TORSDOF 2
ENDMDL
MODEL 3
REMARK VINA RESULT:      -4.2      3.959      5.641
REMARK  2 active torsions:
REMARK  status: ('A' for Active; 'I' for Inactive)
REMARK    1  A    between atoms: C_4  and  C_7 
REMARK    2  A    between atoms: C_7  and  N_9 
ROOT
HETATM    1  N   UNL     1      77.375   8.523  15.886  1.00  0.00    -0.299 N 
HETATM    2  N   UNL     1      77.582   9.722  16.468  1.00  0.00    -0.303 N 
ATOM      3  HN  UNL     1      77.832  10.602  16.015  1.00  0.00     0.186 HD
HETATM    4  C   UNL     1      77.056   7.531  16.784  1.00  0.00     0.055 A 
HETATM    5  C   UNL     1      77.060   8.146  18.020  1.00  0.00     0.054 A 
HETATM    6  C   UNL     1      77.386   9.497  17.772  1.00  0.00     0.024 A 
HETATM    7  C   UNL     1      77.493   8.434  14.451  1.00  0.00     0.177 C 
HETATM    8  C   UNL     1      77.521  10.603  18.748  1.00  0.00     0.070 C 
ENDROOT
BRANCH   4   9
HETATM    9  C   UNL     1      76.805   6.117  16.422  1.00  0.00     0.288 C 
BRANCH   9  10
HETATM   10  N   UNL     1      77.222   5.235  17.501  1.00  0.00    -0.074 N 
HETATM   11  H   UNL     1      78.023   4.681  17.196  1.00  0.00     0.274 HD
HETATM   12  H   UNL     1      76.452   4.612  17.747  1.00  0.00     0.274 HD
HETATM   13  H   UNL     1      77.483   5.792  18.314  1.00  0.00     0.274 HD
ENDBRANCH   9  10
ENDBRANCH   4   9
TORSDOF 2
ENDMDL
MODEL 4
REMARK VINA RESULT:      -4.1     12.934     14.427
REMARK  2 active torsions:
REMARK  status: ('A' for Active; 'I' for Inactive)
REMARK    1  A    between atoms: C_4  and  C_7 
REMARK    2  A    between atoms: C_7  and  N_9 
ROOT
HETATM    1  N   UNL     1      72.291  22.964  14.388  1.00  0.00    -0.299 N 
HETATM    2  N   UNL     1      72.429  21.943  13.517  1.00  0.00    -0.303 N 
ATOM      3  HN  UNL     1      73.206  21.286  13.442  1.00  0.00     0.186 HD
HETATM    4  C   UNL     1      71.120  23.666  14.221  1.00  0.00     0.055 A 
HETATM    5  C   UNL     1      70.471  23.044  13.173  1.00  0.00     0.054 A 
HETATM    6  C   UNL     1      71.316  21.986  12.776  1.00  0.00     0.024 A 
HETATM    7  C   UNL     1      73.338  23.176  15.358  1.00  0.00     0.177 C 
HETATM    8  C   UNL     1      71.100  20.994  11.697  1.00  0.00     0.070 C 
ENDROOT
BRANCH   4   9
HETATM    9  C   UNL     1      70.727  24.848  15.022  1.00  0.00     0.288 C 
BRANCH   9  10
HETATM   10  N   UNL     1      69.320  25.157  14.814  1.00  0.00    -0.074 N 
HETATM   11  H   UNL     1      69.224  26.137  14.545  1.00  0.00     0.274 HD
HETATM   12  H   UNL     1      68.804  24.989  15.678  1.00  0.00     0.274 HD
HETATM   13  H   UNL     1      68.947  24.562  14.074  1.00  0.00     0.274 HD
ENDBRANCH   9  10
ENDBRANCH   4   9
TORSDOF 2
ENDMDL
MODEL 5
REMARK VINA RESULT:      -4.1      4.595      6.865
REMARK  2 active torsions:
REMARK  status: ('A' for Active; 'I' for Inactive)
REMARK    1  A    between atoms: C_4  and  C_7 
REMARK    2  A    between atoms: C_7  and  N_9 
ROOT
HETATM    1  N   UNL     1      77.220   8.251  17.059  1.00  0.00    -0.299 N 
HETATM    2  N   UNL     1      77.596   9.015  16.012  1.00  0.00    -0.303 N 
ATOM      3  HN  UNL     1      77.938   9.976  16.030  1.00  0.00     0.186 HD
HETATM    4  C   UNL     1      76.800   6.995  16.692  1.00  0.00     0.055 A 
HETATM    5  C   UNL     1      76.919   6.960  15.316  1.00  0.00     0.054 A 
HETATM    6  C   UNL     1      77.417   8.227  14.946  1.00  0.00     0.024 A 
HETATM    7  C   UNL     1      77.317   8.818  18.383  1.00  0.00     0.177 C 
HETATM    8  C   UNL     1      77.737   8.727  13.588  1.00  0.00     0.070 C 
ENDROOT
BRANCH   4   9
HETATM    9  C   UNL     1      76.309   5.963  17.634  1.00  0.00     0.288 C 
BRANCH   9  10
HETATM   10  N   UNL     1      77.303   4.913  17.801  1.00  0.00    -0.074 N 
HETATM   11  H   UNL     1      77.060   4.119  17.208  1.00  0.00     0.274 HD
HETATM   12  H   UNL     1      77.323   4.616  18.777  1.00  0.00     0.274 HD
HETATM   13  H   UNL     1      78.221   5.269  17.534  1.00  0.00     0.274 HD
ENDBRANCH   9  10
ENDBRANCH   4   9
TORSDOF 2
ENDMDL
MODEL 6
REMARK VINA RESULT:      -3.9      7.464      9.394
REMARK  2 active torsions:
REMARK  status: ('A' for Active; 'I' for Inactive)
REMARK    1  A    between atoms: C_4  and  C_7 
REMARK    2  A    between atoms: C_7  and  N_9 
ROOT
HETATM    1  N   UNL     1      75.582   3.256  17.240  1.00  0.00    -0.299 N 
HETATM    2  N   UNL     1      75.339   4.564  17.022  1.00  0.00    -0.303 N 
ATOM      3  HN  UNL     1      74.564   4.979  16.504  1.00  0.00     0.186 HD
HETATM    4  C   UNL     1      76.721   3.029  17.976  1.00  0.00     0.055 A 
HETATM    5  C   UNL     1      77.234   4.283  18.245  1.00  0.00     0.054 A 
HETATM    6  C   UNL     1      76.344   5.195  17.639  1.00  0.00     0.024 A 
HETATM    7  C   UNL     1      74.647   2.293  16.708  1.00  0.00     0.177 C 
HETATM    8  C   UNL     1      76.416   6.676  17.625  1.00  0.00     0.070 C 
ENDROOT
BRANCH   4   9
HETATM    9  C   UNL     1      77.237   1.688  18.337  1.00  0.00     0.288 C 
BRANCH   9  10
HETATM   10  N   UNL     1      78.427   1.809  19.165  1.00  0.00    -0.074 N 
HETATM   11  H   UNL     1      78.404   1.099  19.898  1.00  0.00     0.274 HD
HETATM   12  H   UNL     1      78.453   2.736  19.590  1.00  0.00     0.274 HD
HETATM   13  H   UNL     1      79.258   1.675  18.588  1.00  0.00     0.274 HD
ENDBRANCH   9  10
ENDBRANCH   4   9
TORSDOF 2
ENDMDL
MODEL 7
REMARK VINA RESULT:      -3.9      7.889      9.556
REMARK  2 active torsions:
REMARK  status: ('A' for Active; 'I' for Inactive)
REMARK    1  A    between atoms: C_4  and  C_7 
REMARK    2  A    between atoms: C_7  and  N_9 
ROOT
HETATM    1  N   UNL     1      76.673   2.924  17.825  1.00  0.00    -0.299 N 
HETATM    2  N   UNL     1      77.284   4.120  17.943  1.00  0.00    -0.303 N 
ATOM      3  HN  UNL     1      78.174   4.325  18.398  1.00  0.00     0.186 HD
HETATM    4  C   UNL     1      75.473   2.990  17.156  1.00  0.00     0.055 A 
HETATM    5  C   UNL     1      75.315   4.321  16.826  1.00  0.00     0.054 A 
HETATM    6  C   UNL     1      76.459   4.976  17.330  1.00  0.00     0.024 A 
HETATM    7  C   UNL     1      77.333   1.765  18.378  1.00  0.00     0.177 C 
HETATM    8  C   UNL     1      76.804   6.415  17.247  1.00  0.00     0.070 C 
ENDROOT
BRANCH   4   9
HETATM    9  C   UNL     1      74.583   1.832  16.908  1.00  0.00     0.288 C 
BRANCH   9  10
HETATM   10  N   UNL     1      74.949   1.167  15.667  1.00  0.00    -0.074 N 
HETATM   11  H   UNL     1      75.876   0.753  15.764  1.00  0.00     0.274 HD
HETATM   12  H   UNL     1      74.959   1.848  14.907  1.00  0.00     0.274 HD
HETATM   13  H   UNL     1      74.269   0.435  15.460  1.00  0.00     0.274 HD
ENDBRANCH   9  10
ENDBRANCH   4   9
TORSDOF 2
ENDMDL
MODEL 8
REMARK VINA RESULT:      -3.7     15.037     16.313
REMARK  2 active torsions:
REMARK  status: ('A' for Active; 'I' for Inactive)
REMARK    1  A    between atoms: C_4  and  C_7 
REMARK    2  A    between atoms: C_7  and  N_9 
ROOT
HETATM    1  N   UNL     1      69.790   4.896   8.892  1.00  0.00    -0.299 N 
HETATM    2  N   UNL     1      69.073   5.992   8.572  1.00  0.00    -0.303 N 
ATOM      3  HN  UNL     1      69.420   6.929   8.366  1.00  0.00     0.186 HD
HETATM    4  C   UNL     1      69.013   3.784   9.118  1.00  0.00     0.055 A 
HETATM    5  C   UNL     1      67.712   4.206   8.924  1.00  0.00     0.054 A 
HETATM    6  C   UNL     1      67.802   5.573   8.586  1.00  0.00     0.024 A 
HETATM    7  C   UNL     1      71.228   5.015   8.942  1.00  0.00     0.177 C 
HETATM    8  C   UNL     1      66.703   6.515   8.269  1.00  0.00     0.070 C 
ENDROOT
BRANCH   4   9
HETATM    9  C   UNL     1      69.538   2.456   9.510  1.00  0.00     0.288 C 
BRANCH   9  10
HETATM   10  N   UNL     1      69.719   2.388  10.952  1.00  0.00    -0.074 N 
HETATM   11  H   UNL     1      68.816   2.233  11.401  1.00  0.00     0.274 HD
HETATM   12  H   UNL     1      70.118   3.266  11.287  1.00  0.00     0.274 HD
HETATM   13  H   UNL     1      70.350   1.619  11.181  1.00  0.00     0.274 HD
ENDBRANCH   9  10
ENDBRANCH   4   9
TORSDOF 2
ENDMDL
MODEL 9
REMARK VINA RESULT:      -3.6     16.079     17.078
REMARK  2 active torsions:
REMARK  status: ('A' for Active; 'I' for Inactive)
REMARK    1  A    between atoms: C_4  and  C_7 
REMARK    2  A    between atoms: C_7  and  N_9 
ROOT
HETATM    1  N   UNL     1      67.788   5.130   6.938  1.00  0.00    -0.299 N 
HETATM    2  N   UNL     1      68.667   4.282   7.509  1.00  0.00    -0.303 N 
ATOM      3  HN  UNL     1      69.148   3.494   7.075  1.00  0.00     0.186 HD
HETATM    4  C   UNL     1      67.314   6.087   7.804  1.00  0.00     0.055 A 
HETATM    5  C   UNL     1      67.938   5.827   9.008  1.00  0.00     0.054 A 
HETATM    6  C   UNL     1      68.765   4.707   8.774  1.00  0.00     0.024 A 
HETATM    7  C   UNL     1      67.478   4.948   5.540  1.00  0.00     0.177 C 
HETATM    8  C   UNL     1      69.662   4.013   9.727  1.00  0.00     0.070 C 
ENDROOT
BRANCH   4   9
HETATM    9  C   UNL     1      66.320   7.126   7.448  1.00  0.00     0.288 C 
BRANCH   9  10
HETATM   10  N   UNL     1      66.986   8.389   7.168  1.00  0.00    -0.074 N 
HETATM   11  H   UNL     1      67.553   8.294   6.325  1.00  0.00     0.274 HD
HETATM   12  H   UNL     1      67.585   8.640   7.955  1.00  0.00     0.274 HD
HETATM   13  H   UNL     1      66.286   9.119   7.027  1.00  0.00     0.274 HD
ENDBRANCH   9  10
ENDBRANCH   4   9
TORSDOF 2
ENDMDL
