MODEL 1
REMARK VINA RESULT:      -4.4      0.000      0.000
REMARK  2 active torsions:
REMARK  status: ('A' for Active; 'I' for Inactive)
REMARK    1  A    between atoms: C_1  and  C_6 
REMARK    2  A    between atoms: C_6  and  N_9 
ROOT
HETATM    1  C   UNL     1      78.305  11.253  19.737  1.00  0.00     0.089 A 
HETATM    2  N   UNL     1      77.279  11.835  19.011  1.00  0.00    -0.293 N 
HETATM    3  N   UNL     1      76.814  11.052  18.012  1.00  0.00    -0.303 N 
ATOM      4  HN  UNL     1      76.073  11.269  17.347  1.00  0.00     0.186 HD
HETATM    5  C   UNL     1      78.469  10.007  19.133  1.00  0.00     0.060 A 
HETATM    6  C   UNL     1      77.534   9.938  18.088  1.00  0.00     0.024 A 
HETATM    7  C   UNL     1      76.677  13.144  19.096  1.00  0.00     0.178 C 
HETATM    8  C   UNL     1      77.291   8.827  17.137  1.00  0.00     0.070 C 
ENDROOT
BRANCH   1   9
HETATM    9  C   UNL     1      79.066  11.760  20.859  1.00  0.00     0.122 C 
HETATM   10  S   UNL     1      78.530  12.913  21.925  1.00  0.00    -0.059 SA
BRANCH   9  11
HETATM   11  N   UNL     1      80.288  11.185  21.078  1.00  0.00    -0.388 N 
HETATM   12  H   UNL     1      81.047  11.403  20.489  1.00  0.00     0.157 HD
HETATM   13  H   UNL     1      80.409  10.554  21.823  1.00  0.00     0.157 HD
ENDBRANCH   9  11
ENDBRANCH   1   9
TORSDOF 2
ENDMDL
MODEL 2
REMARK VINA RESULT:      -4.4      8.143      9.804
REMARK  2 active torsions:
REMARK  status: ('A' for Active; 'I' for Inactive)
REMARK    1  A    between atoms: C_1  and  C_6 
REMARK    2  A    between atoms: C_6  and  N_9 
ROOT
HETATM    1  C   UNL     1      75.689   2.456  17.337  1.00  0.00     0.089 A 
HETATM    2  N   UNL     1      76.868   2.556  18.057  1.00  0.00    -0.293 N 
HETATM    3  N   UNL     1      77.333   3.821  18.156  1.00  0.00    -0.303 N 
ATOM      4  HN  UNL     1      78.180   4.136  18.628  1.00  0.00     0.186 HD
HETATM    5  C   UNL     1      75.409   3.774  16.980  1.00  0.00     0.060 A 
HETATM    6  C   UNL     1      76.445   4.564  17.505  1.00  0.00     0.024 A 
HETATM    7  C   UNL     1      77.709   1.544  18.651  1.00  0.00     0.178 C 
HETATM    8  C   UNL     1      76.625   6.033  17.413  1.00  0.00     0.070 C 
ENDROOT
BRANCH   1   9
HETATM    9  C   UNL     1      74.890   1.297  17.001  1.00  0.00     0.122 C 
HETATM   10  S   UNL     1      74.721   0.671  15.474  1.00  0.00    -0.059 SA
BRANCH   9  11
HETATM   11  N   UNL     1      74.291   0.645  18.044  1.00  0.00    -0.388 N 
HETATM   12  H   UNL     1      73.379   0.891  18.321  1.00  0.00     0.157 HD
HETATM   13  H   UNL     1      74.772  -0.071  18.519  1.00  0.00     0.157 HD
ENDBRANCH   9  11
ENDBRANCH   1   9
TORSDOF 2
ENDMDL
MODEL 3
REMARK VINA RESULT:      -4.2      7.598      8.972
REMARK  2 active torsions:
REMARK  status: ('A' for Active; 'I' for Inactive)
REMARK    1  A    between atoms: C_1  and  C_6 
REMARK    2  A    between atoms: C_6  and  N_9 
ROOT
HETATM    1  C   UNL     1      76.634   2.843  17.868  1.00  0.00     0.089 A 
HETATM    2  N   UNL     1      75.483   3.153  17.165  1.00  0.00    -0.293 N 
HETATM    3  N   UNL     1      75.293   4.482  17.001  1.00  0.00    -0.303 N 
ATOM      4  HN  UNL     1      74.518   4.945  16.527  1.00  0.00     0.186 HD
HETATM    5  C   UNL     1      77.197   4.087  18.145  1.00  0.00     0.060 A 
HETATM    6  C   UNL     1      76.337   5.051  17.594  1.00  0.00     0.024 A 
HETATM    7  C   UNL     1      74.429   2.315  16.644  1.00  0.00     0.178 C 
HETATM    8  C   UNL     1      76.475   6.527  17.605  1.00  0.00     0.070 C 
ENDROOT
BRANCH   1   9
HETATM    9  C   UNL     1      77.179   1.559  18.255  1.00  0.00     0.122 C 
HETATM   10  S   UNL     1      77.179   0.201  17.301  1.00  0.00    -0.059 SA
BRANCH   9  11
HETATM   11  N   UNL     1      77.794   1.500  19.476  1.00  0.00    -0.388 N 
HETATM   12  H   UNL     1      77.412   1.984  20.244  1.00  0.00     0.157 HD
HETATM   13  H   UNL     1      78.618   0.973  19.588  1.00  0.00     0.157 HD
ENDBRANCH   9  11
ENDBRANCH   1   9
TORSDOF 2
ENDMDL
MODEL 4
REMARK VINA RESULT:      -4.1     14.704     15.757
REMARK  2 active torsions:
REMARK  status: ('A' for Active; 'I' for Inactive)
REMARK    1  A    between atoms: C_1  and  C_6 
REMARK    2  A    between atoms: C_6  and  N_9 
ROOT
HETATM    1  C   UNL     1      68.993   3.817   9.194  1.00  0.00     0.089 A 
HETATM    2  N   UNL     1      69.836   4.878   8.911  1.00  0.00    -0.293 N 
HETATM    3  N   UNL     1      69.189   5.972   8.451  1.00  0.00    -0.303 N 
ATOM      4  HN  UNL     1      69.597   6.864   8.172  1.00  0.00     0.186 HD
HETATM    5  C   UNL     1      67.726   4.313   8.891  1.00  0.00     0.060 A 
HETATM    6  C   UNL     1      67.905   5.631   8.442  1.00  0.00     0.024 A 
HETATM    7  C   UNL     1      71.275   4.991   8.957  1.00  0.00     0.178 C 
HETATM    8  C   UNL     1      66.878   6.604   7.998  1.00  0.00     0.070 C 
ENDROOT
BRANCH   1   9
HETATM    9  C   UNL     1      69.290   2.489   9.687  1.00  0.00     0.122 C 
HETATM   10  S   UNL     1      69.213   1.101   8.781  1.00  0.00    -0.059 SA
BRANCH   9  11
HETATM   11  N   UNL     1      69.729   2.401  10.980  1.00  0.00    -0.388 N 
HETATM   12  H   UNL     1      69.135   2.045  11.679  1.00  0.00     0.157 HD
HETATM   13  H   UNL     1      70.639   2.696  11.212  1.00  0.00     0.157 HD
ENDBRANCH   9  11
ENDBRANCH   1   9
TORSDOF 2
ENDMDL
MODEL 5
REMARK VINA RESULT:      -4.1     19.815     21.406
REMARK  2 active torsions:
REMARK  status: ('A' for Active; 'I' for Inactive)
REMARK    1  A    between atoms: C_1  and  C_6 
REMARK    2  A    between atoms: C_6  and  N_9 
ROOT
HETATM    1  C   UNL     1      63.450   8.721   4.471  1.00  0.00     0.089 A 
HETATM    2  N   UNL     1      62.840   9.962   4.537  1.00  0.00    -0.293 N 
HETATM    3  N   UNL     1      62.139  10.278   3.426  1.00  0.00    -0.303 N 
ATOM      4  HN  UNL     1      61.617  11.135   3.243  1.00  0.00     0.186 HD
HETATM    5  C   UNL     1      63.079   8.238   3.217  1.00  0.00     0.060 A 
HETATM    6  C   UNL     1      62.280   9.229   2.623  1.00  0.00     0.024 A 
HETATM    7  C   UNL     1      62.882  10.991   5.550  1.00  0.00     0.178 C 
HETATM    8  C   UNL     1      61.627   9.215   1.292  1.00  0.00     0.070 C 
ENDROOT
BRANCH   1   9
HETATM    9  C   UNL     1      64.284   8.033   5.433  1.00  0.00     0.122 C 
HETATM   10  S   UNL     1      65.937   7.917   5.346  1.00  0.00    -0.059 SA
BRANCH   9  11
HETATM   11  N   UNL     1      63.648   7.501   6.522  1.00  0.00    -0.388 N 
HETATM   12  H   UNL     1      64.114   7.451   7.389  1.00  0.00     0.157 HD
HETATM   13  H   UNL     1      62.726   7.168   6.440  1.00  0.00     0.157 HD
ENDBRANCH   9  11
ENDBRANCH   1   9
TORSDOF 2
ENDMDL
MODEL 6
REMARK VINA RESULT:      -4.1      2.479      3.801
REMARK  2 active torsions:
REMARK  status: ('A' for Active; 'I' for Inactive)
REMARK    1  A    between atoms: C_1  and  C_6 
REMARK    2  A    between atoms: C_6  and  N_9 
ROOT
HETATM    1  C   UNL     1      77.636  10.808  18.802  1.00  0.00     0.089 A 
HETATM    2  N   UNL     1      76.952  12.000  18.972  1.00  0.00    -0.293 N 
HETATM    3  N   UNL     1      77.410  12.742  20.005  1.00  0.00    -0.303 N 
ATOM      4  HN  UNL     1      77.061  13.646  20.323  1.00  0.00     0.186 HD
HETATM    5  C   UNL     1      78.599  10.835  19.810  1.00  0.00     0.060 A 
HETATM    6  C   UNL     1      78.415  12.037  20.513  1.00  0.00     0.024 A 
HETATM    7  C   UNL     1      75.803  12.545  18.287  1.00  0.00     0.178 C 
HETATM    8  C   UNL     1      79.177  12.555  21.674  1.00  0.00     0.070 C 
ENDROOT
BRANCH   1   9
HETATM    9  C   UNL     1      77.449   9.749  17.834  1.00  0.00     0.122 C 
HETATM   10  S   UNL     1      77.833   9.855  16.223  1.00  0.00    -0.059 SA
BRANCH   9  11
HETATM   11  N   UNL     1      76.980   8.557  18.316  1.00  0.00    -0.388 N 
HETATM   12  H   UNL     1      77.590   7.938  18.779  1.00  0.00     0.157 HD
HETATM   13  H   UNL     1      76.032   8.317  18.200  1.00  0.00     0.157 HD
ENDBRANCH   9  11
ENDBRANCH   1   9
TORSDOF 2
ENDMDL
MODEL 7
REMARK VINA RESULT:      -4.0      8.925     10.398
REMARK  2 active torsions:
REMARK  status: ('A' for Active; 'I' for Inactive)
REMARK    1  A    between atoms: C_1  and  C_6 
REMARK    2  A    between atoms: C_6  and  N_9 
ROOT
HETATM    1  C   UNL     1      77.008   1.328  17.783  1.00  0.00     0.089 A 
HETATM    2  N   UNL     1      77.784   1.807  18.824  1.00  0.00    -0.293 N 
HETATM    3  N   UNL     1      77.708   3.148  18.980  1.00  0.00    -0.303 N 
ATOM      4  HN  UNL     1      78.192   3.722  19.670  1.00  0.00     0.186 HD
HETATM    5  C   UNL     1      76.401   2.473  17.270  1.00  0.00     0.060 A 
HETATM    6  C   UNL     1      76.864   3.554  18.037  1.00  0.00     0.024 A 
HETATM    7  C   UNL     1      78.701   1.137  19.716  1.00  0.00     0.178 C 
HETATM    8  C   UNL     1      76.524   4.991  17.909  1.00  0.00     0.070 C 
ENDROOT
BRANCH   1   9
HETATM    9  C   UNL     1      76.827  -0.022  17.293  1.00  0.00     0.122 C 
HETATM   10  S   UNL     1      75.618  -1.052  17.774  1.00  0.00    -0.059 SA
BRANCH   9  11
HETATM   11  N   UNL     1      77.686  -0.437  16.312  1.00  0.00    -0.388 N 
HETATM   12  H   UNL     1      78.397  -1.085  16.522  1.00  0.00     0.157 HD
HETATM   13  H   UNL     1      77.595  -0.087  15.397  1.00  0.00     0.157 HD
ENDBRANCH   9  11
ENDBRANCH   1   9
TORSDOF 2
ENDMDL
MODEL 8
REMARK VINA RESULT:      -4.0     19.943     21.678
REMARK  2 active torsions:
REMARK  status: ('A' for Active; 'I' for Inactive)
REMARK    1  A    between atoms: C_1  and  C_6 
REMARK    2  A    between atoms: C_6  and  N_9 
ROOT
HETATM    1  C   UNL     1      62.901   8.939   3.860  1.00  0.00     0.089 A 
HETATM    2  N   UNL     1      63.298   9.789   4.879  1.00  0.00    -0.293 N 
HETATM    3  N   UNL     1      64.370   9.338   5.568  1.00  0.00    -0.303 N 
ATOM      4  HN  UNL     1      64.833   9.786   6.359  1.00  0.00     0.186 HD
HETATM    5  C   UNL     1      63.816   7.890   3.930  1.00  0.00     0.060 A 
HETATM    6  C   UNL     1      64.689   8.186   4.990  1.00  0.00     0.024 A 
HETATM    7  C   UNL     1      62.728  11.022   5.367  1.00  0.00     0.178 C 
HETATM    8  C   UNL     1      65.844   7.398   5.484  1.00  0.00     0.070 C 
ENDROOT
BRANCH   1   9
HETATM    9  C   UNL     1      61.809   9.053   2.916  1.00  0.00     0.122 C 
HETATM   10  S   UNL     1      61.985   9.363   1.296  1.00  0.00    -0.059 SA
BRANCH   9  11
HETATM   11  N   UNL     1      60.552   8.819   3.405  1.00  0.00    -0.388 N 
HETATM   12  H   UNL     1      59.823   8.574   2.791  1.00  0.00     0.157 HD
HETATM   13  H   UNL     1      60.377   8.896   4.370  1.00  0.00     0.157 HD
ENDBRANCH   9  11
ENDBRANCH   1   9
TORSDOF 2
ENDMDL
MODEL 9
REMARK VINA RESULT:      -4.0     15.905     17.105
REMARK  2 active torsions:
REMARK  status: ('A' for Active; 'I' for Inactive)
REMARK    1  A    between atoms: C_1  and  C_6 
REMARK    2  A    between atoms: C_6  and  N_9 
ROOT
HETATM    1  C   UNL     1      67.355   5.932   7.523  1.00  0.00     0.089 A 
HETATM    2  N   UNL     1      67.798   4.837   6.801  1.00  0.00    -0.293 N 
HETATM    3  N   UNL     1      68.671   4.061   7.481  1.00  0.00    -0.303 N 
ATOM      4  HN  UNL     1      69.133   3.212   7.154  1.00  0.00     0.186 HD
HETATM    5  C   UNL     1      68.007   5.803   8.749  1.00  0.00     0.060 A 
HETATM    6  C   UNL     1      68.796   4.645   8.667  1.00  0.00     0.024 A 
HETATM    7  C   UNL     1      67.542   4.427   5.440  1.00  0.00     0.178 C 
HETATM    8  C   UNL     1      69.683   4.055   9.699  1.00  0.00     0.070 C 
ENDROOT
BRANCH   1   9
HETATM    9  C   UNL     1      66.440   6.991   7.155  1.00  0.00     0.122 C 
HETATM   10  S   UNL     1      64.851   6.769   6.733  1.00  0.00    -0.059 SA
BRANCH   9  11
HETATM   11  N   UNL     1      66.924   8.270   7.231  1.00  0.00    -0.388 N 
HETATM   12  H   UNL     1      67.869   8.427   7.456  1.00  0.00     0.157 HD
HETATM   13  H   UNL     1      66.326   9.033   7.061  1.00  0.00     0.157 HD
ENDBRANCH   9  11
ENDBRANCH   1   9
TORSDOF 2
ENDMDL
