MODEL 1
REMARK VINA RESULT:      -5.8      0.000      0.000
REMARK  3 active torsions:
REMARK  status: ('A' for Active; 'I' for Inactive)
REMARK    1  A    between atoms: C_1  and  C_3 
REMARK    2  A    between atoms: C_11  and  C_13 
REMARK    3  A    between atoms: O_12  and  C_13 
ROOT
HETATM    1  C   UNL     1      76.383   5.745  16.744  1.00  0.00    -0.019 A 
HETATM    2  C   UNL     1      76.591   6.155  15.419  1.00  0.00     0.013 A 
HETATM    3  C   UNL     1      76.636   6.673  17.767  1.00  0.00     0.013 A 
HETATM    4  C   UNL     1      77.102   7.958  17.479  1.00  0.00     0.010 A 
HETATM    5  C   UNL     1      77.055   7.444  15.128  1.00  0.00     0.010 A 
HETATM    6  C   UNL     1      77.324   8.354  16.156  1.00  0.00    -0.035 A 
ENDROOT
BRANCH   1   7
HETATM    7  C   UNL     1      75.894   4.383  17.033  1.00  0.00     0.015 A 
HETATM    8  S   UNL     1      76.836   3.286  17.968  1.00  0.00    -0.101 SA
HETATM    9  C   UNL     1      75.656   2.058  17.867  1.00  0.00     0.050 A 
HETATM   10  C   UNL     1      74.575   2.445  17.110  1.00  0.00     0.008 A 
HETATM   11  C   UNL     1      74.716   3.778  16.624  1.00  0.00     0.020 A 
ENDBRANCH   1   7
BRANCH   6  12
HETATM   12  C   UNL     1      77.839   9.730  15.840  1.00  0.00     0.202 C 
BRANCH  12  13
HETATM   13  O   UNL     1      79.140   9.908  16.387  1.00  0.00    -0.396 OA
HETATM   14  H   UNL     1      79.219   9.396  17.207  1.00  0.00     0.209 HD
ENDBRANCH  12  13
ENDBRANCH   6  12
TORSDOF 3
ENDMDL
MODEL 2
REMARK VINA RESULT:      -5.3     19.284     19.935
REMARK  3 active torsions:
REMARK  status: ('A' for Active; 'I' for Inactive)
REMARK    1  A    between atoms: C_1  and  C_3 
REMARK    2  A    between atoms: C_11  and  C_13 
REMARK    3  A    between atoms: O_12  and  C_13 
ROOT
HETATM    1  C   UNL     1      62.590   8.737   2.788  1.00  0.00    -0.019 A 
HETATM    2  C   UNL     1      61.975   9.999   2.787  1.00  0.00     0.013 A 
HETATM    3  C   UNL     1      63.325   8.366   3.925  1.00  0.00     0.013 A 
HETATM    4  C   UNL     1      63.460   9.232   5.014  1.00  0.00     0.010 A 
HETATM    5  C   UNL     1      62.106  10.866   3.878  1.00  0.00     0.010 A 
HETATM    6  C   UNL     1      62.857  10.494   4.997  1.00  0.00    -0.035 A 
ENDROOT
BRANCH   1   7
HETATM    7  C   UNL     1      62.442   7.836   1.629  1.00  0.00     0.015 A 
HETATM    8  S   UNL     1      63.240   6.311   1.589  1.00  0.00    -0.101 SA
HETATM    9  C   UNL     1      62.588   5.919   0.062  1.00  0.00     0.050 A 
HETATM   10  C   UNL     1      61.805   6.932  -0.439  1.00  0.00     0.008 A 
HETATM   11  C   UNL     1      61.727   8.037   0.459  1.00  0.00     0.020 A 
ENDBRANCH   1   7
BRANCH   6  12
HETATM   12  C   UNL     1      63.011  11.436   6.160  1.00  0.00     0.202 C 
BRANCH  12  13
HETATM   13  O   UNL     1      64.385  11.587   6.495  1.00  0.00    -0.396 OA
HETATM   14  H   UNL     1      64.571  12.520   6.684  1.00  0.00     0.209 HD
ENDBRANCH  12  13
ENDBRANCH   6  12
TORSDOF 3
ENDMDL
MODEL 3
REMARK VINA RESULT:      -5.2     11.916     13.262
REMARK  3 active torsions:
REMARK  status: ('A' for Active; 'I' for Inactive)
REMARK    1  A    between atoms: C_1  and  C_3 
REMARK    2  A    between atoms: C_11  and  C_13 
REMARK    3  A    between atoms: O_12  and  C_13 
ROOT
HETATM    1  C   UNL     1      68.161   5.068   7.610  1.00  0.00    -0.019 A 
HETATM    2  C   UNL     1      68.319   3.795   7.041  1.00  0.00     0.013 A 
HETATM    3  C   UNL     1      68.595   5.254   8.932  1.00  0.00     0.013 A 
HETATM    4  C   UNL     1      69.148   4.203   9.668  1.00  0.00     0.010 A 
HETATM    5  C   UNL     1      68.876   2.741   7.774  1.00  0.00     0.010 A 
HETATM    6  C   UNL     1      69.287   2.933   9.097  1.00  0.00    -0.035 A 
ENDROOT
BRANCH   1   7
HETATM    7  C   UNL     1      67.571   6.168   6.823  1.00  0.00     0.015 A 
HETATM    8  S   UNL     1      66.133   6.956   7.346  1.00  0.00    -0.101 SA
HETATM    9  C   UNL     1      66.135   8.021   6.013  1.00  0.00     0.050 A 
HETATM   10  C   UNL     1      67.183   7.773   5.158  1.00  0.00     0.008 A 
HETATM   11  C   UNL     1      68.003   6.702   5.620  1.00  0.00     0.020 A 
ENDBRANCH   1   7
BRANCH   6  12
HETATM   12  C   UNL     1      69.868   1.793   9.888  1.00  0.00     0.202 C 
BRANCH  12  13
HETATM   13  O   UNL     1      69.822   2.084  11.280  1.00  0.00    -0.396 OA
HETATM   14  H   UNL     1      69.460   2.974  11.412  1.00  0.00     0.209 HD
ENDBRANCH  12  13
ENDBRANCH   6  12
TORSDOF 3
ENDMDL
MODEL 4
REMARK VINA RESULT:      -5.2      2.449      3.947
REMARK  3 active torsions:
REMARK  status: ('A' for Active; 'I' for Inactive)
REMARK    1  A    between atoms: C_1  and  C_3 
REMARK    2  A    between atoms: C_11  and  C_13 
REMARK    3  A    between atoms: O_12  and  C_13 
ROOT
HETATM    1  C   UNL     1      75.260   2.447  17.285  1.00  0.00    -0.019 A 
HETATM    2  C   UNL     1      76.460   2.687  17.972  1.00  0.00     0.013 A 
HETATM    3  C   UNL     1      74.664   3.523  16.609  1.00  0.00     0.013 A 
HETATM    4  C   UNL     1      75.233   4.799  16.635  1.00  0.00     0.010 A 
HETATM    5  C   UNL     1      77.033   3.964  17.996  1.00  0.00     0.010 A 
HETATM    6  C   UNL     1      76.420   5.034  17.336  1.00  0.00    -0.035 A 
ENDROOT
BRANCH   1   7
HETATM    7  C   UNL     1      74.670   1.095  17.270  1.00  0.00     0.015 A 
HETATM    8  S   UNL     1      74.324   0.299  15.783  1.00  0.00    -0.101 SA
HETATM    9  C   UNL     1      73.739  -1.096  16.571  1.00  0.00     0.050 A 
HETATM   10  C   UNL     1      73.766  -0.962  17.940  1.00  0.00     0.008 A 
HETATM   11  C   UNL     1      74.293   0.300  18.340  1.00  0.00     0.020 A 
ENDBRANCH   1   7
BRANCH   6  12
HETATM   12  C   UNL     1      77.029   6.408  17.380  1.00  0.00     0.202 C 
BRANCH  12  13
HETATM   13  O   UNL     1      76.321   7.233  18.297  1.00  0.00    -0.396 OA
HETATM   14  H   UNL     1      75.856   7.932  17.811  1.00  0.00     0.209 HD
ENDBRANCH  12  13
ENDBRANCH   6  12
TORSDOF 3
ENDMDL
MODEL 5
REMARK VINA RESULT:      -4.8     12.987     14.061
REMARK  3 active torsions:
REMARK  status: ('A' for Active; 'I' for Inactive)
REMARK    1  A    between atoms: C_1  and  C_3 
REMARK    2  A    between atoms: C_11  and  C_13 
REMARK    3  A    between atoms: O_12  and  C_13 
ROOT
HETATM    1  C   UNL     1      66.851   6.223   7.282  1.00  0.00    -0.019 A 
HETATM    2  C   UNL     1      67.533   5.131   6.723  1.00  0.00     0.013 A 
HETATM    3  C   UNL     1      67.151   6.576   8.607  1.00  0.00     0.013 A 
HETATM    4  C   UNL     1      68.083   5.852   9.355  1.00  0.00     0.010 A 
HETATM    5  C   UNL     1      68.469   4.407   7.470  1.00  0.00     0.010 A 
HETATM    6  C   UNL     1      68.745   4.755   8.796  1.00  0.00    -0.035 A 
ENDROOT
BRANCH   1   7
HETATM    7  C   UNL     1      65.867   6.975   6.480  1.00  0.00     0.015 A 
HETATM    8  S   UNL     1      64.227   6.460   6.384  1.00  0.00    -0.101 SA
HETATM    9  C   UNL     1      63.790   7.765   5.376  1.00  0.00     0.050 A 
HETATM   10  C   UNL     1      64.866   8.568   5.079  1.00  0.00     0.008 A 
HETATM   11  C   UNL     1      66.061   8.109   5.707  1.00  0.00     0.020 A 
ENDBRANCH   1   7
BRANCH   6  12
HETATM   12  C   UNL     1      69.738   3.963   9.600  1.00  0.00     0.202 C 
BRANCH  12  13
HETATM   13  O   UNL     1      71.057   4.446   9.371  1.00  0.00    -0.396 OA
HETATM   14  H   UNL     1      71.690   3.717   9.467  1.00  0.00     0.209 HD
ENDBRANCH  12  13
ENDBRANCH   6  12
TORSDOF 3
ENDMDL
MODEL 6
REMARK VINA RESULT:      -4.7      4.534      7.575
REMARK  3 active torsions:
REMARK  status: ('A' for Active; 'I' for Inactive)
REMARK    1  A    between atoms: C_1  and  C_3 
REMARK    2  A    between atoms: C_11  and  C_13 
REMARK    3  A    between atoms: O_12  and  C_13 
ROOT
HETATM    1  C   UNL     1      74.882   1.666  17.043  1.00  0.00    -0.019 A 
HETATM    2  C   UNL     1      74.554   0.926  18.189  1.00  0.00     0.013 A 
HETATM    3  C   UNL     1      74.618   1.089  15.791  1.00  0.00     0.013 A 
HETATM    4  C   UNL     1      74.068  -0.192  15.685  1.00  0.00     0.010 A 
HETATM    5  C   UNL     1      74.000  -0.356  18.086  1.00  0.00     0.010 A 
HETATM    6  C   UNL     1      73.760  -0.930  16.833  1.00  0.00    -0.035 A 
ENDROOT
BRANCH   1   7
HETATM    7  C   UNL     1      75.466   3.015  17.170  1.00  0.00     0.015 A 
HETATM    8  S   UNL     1      76.862   3.285  18.141  1.00  0.00    -0.101 SA
HETATM    9  C   UNL     1      76.902   4.948  17.766  1.00  0.00     0.050 A 
HETATM   10  C   UNL     1      75.859   5.316  16.948  1.00  0.00     0.008 A 
HETATM   11  C   UNL     1      75.030   4.206  16.612  1.00  0.00     0.020 A 
ENDBRANCH   1   7
BRANCH   6  12
HETATM   12  C   UNL     1      73.181  -2.313  16.727  1.00  0.00     0.202 C 
BRANCH  12  13
HETATM   13  O   UNL     1      71.782  -2.245  16.481  1.00  0.00    -0.396 OA
HETATM   14  H   UNL     1      71.342  -2.997  16.908  1.00  0.00     0.209 HD
ENDBRANCH  12  13
ENDBRANCH   6  12
TORSDOF 3
ENDMDL
MODEL 7
REMARK VINA RESULT:      -4.6     16.754     17.438
REMARK  3 active torsions:
REMARK  status: ('A' for Active; 'I' for Inactive)
REMARK    1  A    between atoms: C_1  and  C_3 
REMARK    2  A    between atoms: C_11  and  C_13 
REMARK    3  A    between atoms: O_12  and  C_13 
ROOT
HETATM    1  C   UNL     1      64.862   7.523   4.701  1.00  0.00    -0.019 A 
HETATM    2  C   UNL     1      64.281   7.033   3.522  1.00  0.00     0.013 A 
HETATM    3  C   UNL     1      64.348   8.712   5.242  1.00  0.00     0.013 A 
HETATM    4  C   UNL     1      63.305   9.400   4.616  1.00  0.00     0.010 A 
HETATM    5  C   UNL     1      63.234   7.718   2.895  1.00  0.00     0.010 A 
HETATM    6  C   UNL     1      62.742   8.913   3.431  1.00  0.00    -0.035 A 
ENDROOT
BRANCH   1   7
HETATM    7  C   UNL     1      65.966   6.788   5.348  1.00  0.00     0.015 A 
HETATM    8  S   UNL     1      66.677   7.366   6.806  1.00  0.00    -0.101 SA
HETATM    9  C   UNL     1      67.759   6.050   6.896  1.00  0.00     0.050 A 
HETATM   10  C   UNL     1      67.621   5.197   5.826  1.00  0.00     0.008 A 
HETATM   11  C   UNL     1      66.596   5.626   4.933  1.00  0.00     0.020 A 
ENDBRANCH   1   7
BRANCH   6  12
HETATM   12  C   UNL     1      61.629   9.656   2.746  1.00  0.00     0.202 C 
BRANCH  12  13
HETATM   13  O   UNL     1      61.326  10.853   3.452  1.00  0.00    -0.396 OA
HETATM   14  H   UNL     1      60.502  11.231   3.108  1.00  0.00     0.209 HD
ENDBRANCH  12  13
ENDBRANCH   6  12
TORSDOF 3
ENDMDL
MODEL 8
REMARK VINA RESULT:      -4.6     11.962     12.765
REMARK  3 active torsions:
REMARK  status: ('A' for Active; 'I' for Inactive)
REMARK    1  A    between atoms: C_1  and  C_3 
REMARK    2  A    between atoms: C_11  and  C_13 
REMARK    3  A    between atoms: O_12  and  C_13 
ROOT
HETATM    1  C   UNL     1      67.922   4.663   8.029  1.00  0.00    -0.019 A 
HETATM    2  C   UNL     1      67.960   4.574   6.630  1.00  0.00     0.013 A 
HETATM    3  C   UNL     1      67.426   5.847   8.599  1.00  0.00     0.013 A 
HETATM    4  C   UNL     1      67.005   6.913   7.800  1.00  0.00     0.010 A 
HETATM    5  C   UNL     1      67.536   5.640   5.827  1.00  0.00     0.010 A 
HETATM    6  C   UNL     1      67.063   6.822   6.405  1.00  0.00    -0.035 A 
ENDROOT
BRANCH   1   7
HETATM    7  C   UNL     1      68.374   3.530   8.860  1.00  0.00     0.015 A 
HETATM    8  S   UNL     1      67.669   1.969   8.683  1.00  0.00    -0.101 SA
HETATM    9  C   UNL     1      68.676   1.289   9.880  1.00  0.00     0.050 A 
HETATM   10  C   UNL     1      69.514   2.225  10.440  1.00  0.00     0.008 A 
HETATM   11  C   UNL     1      69.335   3.514   9.858  1.00  0.00     0.020 A 
ENDBRANCH   1   7
BRANCH   6  12
HETATM   12  C   UNL     1      66.625   7.971   5.540  1.00  0.00     0.202 C 
BRANCH  12  13
HETATM   13  O   UNL     1      65.924   8.935   6.318  1.00  0.00    -0.396 OA
HETATM   14  H   UNL     1      65.509   9.585   5.729  1.00  0.00     0.209 HD
ENDBRANCH  12  13
ENDBRANCH   6  12
TORSDOF 3
ENDMDL
MODEL 9
REMARK VINA RESULT:      -4.5     16.456     17.403
REMARK  3 active torsions:
REMARK  status: ('A' for Active; 'I' for Inactive)
REMARK    1  A    between atoms: C_1  and  C_3 
REMARK    2  A    between atoms: C_11  and  C_13 
REMARK    3  A    between atoms: O_12  and  C_13 
ROOT
HETATM    1  C   UNL     1      64.261   8.169   5.319  1.00  0.00    -0.019 A 
HETATM    2  C   UNL     1      63.763   7.054   6.010  1.00  0.00     0.013 A 
HETATM    3  C   UNL     1      65.621   8.480   5.467  1.00  0.00     0.013 A 
HETATM    4  C   UNL     1      66.452   7.719   6.293  1.00  0.00     0.010 A 
HETATM    5  C   UNL     1      64.595   6.287   6.836  1.00  0.00     0.010 A 
HETATM    6  C   UNL     1      65.945   6.618   6.992  1.00  0.00    -0.035 A 
ENDROOT
BRANCH   1   7
HETATM    7  C   UNL     1      63.370   8.966   4.454  1.00  0.00     0.015 A 
HETATM    8  S   UNL     1      62.789  10.505   4.964  1.00  0.00    -0.101 SA
HETATM    9  C   UNL     1      61.925  10.750   3.513  1.00  0.00     0.050 A 
HETATM   10  C   UNL     1      62.036   9.676   2.661  1.00  0.00     0.008 A 
HETATM   11  C   UNL     1      62.860   8.648   3.205  1.00  0.00     0.020 A 
ENDBRANCH   1   7
BRANCH   6  12
HETATM   12  C   UNL     1      66.830   5.803   7.893  1.00  0.00     0.202 C 
BRANCH  12  13
HETATM   13  O   UNL     1      66.053   4.879   8.645  1.00  0.00    -0.396 OA
HETATM   14  H   UNL     1      65.457   4.398   8.050  1.00  0.00     0.209 HD
ENDBRANCH  12  13
ENDBRANCH   6  12
TORSDOF 3
ENDMDL
