MODEL 1
REMARK VINA RESULT:      -5.2      0.000      0.000
REMARK  4 active torsions:
REMARK  status: ('A' for Active; 'I' for Inactive)
REMARK    1  A    between atoms: N_1  and  C_5 
REMARK    2  A    between atoms: C_4  and  C_10 
REMARK    3  A    between atoms: C_5  and  C_8 
REMARK    4  A    between atoms: N_9  and  C_10 
ROOT
HETATM    1  N   UNL     1      63.753   7.992   5.370  1.00  0.00    -0.063 N 
HETATM    2  O   UNL     1      65.960   6.297   6.353  1.00  0.00    -0.381 OA
HETATM    3  C   UNL     1      65.174   8.396   5.333  1.00  0.00     0.268 C 
HETATM    4  C   UNL     1      66.234   7.265   5.319  1.00  0.00     0.172 C 
HETATM    5  C   UNL     1      64.618   5.803   6.314  1.00  0.00     0.196 C 
HETATM    6  C   UNL     1      63.577   6.929   6.370  1.00  0.00     0.261 C 
HETATM    7  H   UNL     1      63.220   8.813   5.658  1.00  0.00     0.280 HD
ENDROOT
BRANCH   1   8
HETATM    8  C   UNL     1      63.141   7.691   4.071  1.00  0.00     0.273 C 
BRANCH   8   9
HETATM    9  C   UNL     1      62.563   8.927   3.401  1.00  0.00    -0.033 A 
HETATM   10  C   UNL     1      62.336   8.961   2.018  1.00  0.00     0.009 A 
HETATM   11  C   UNL     1      61.956  10.151   1.392  1.00  0.00     0.001 A 
HETATM   12  C   UNL     1      61.761  11.307   2.145  1.00  0.00     0.000 A 
HETATM   13  C   UNL     1      61.897  11.264   3.530  1.00  0.00     0.001 A 
HETATM   14  C   UNL     1      62.286  10.079   4.156  1.00  0.00     0.009 A 
ENDBRANCH   8   9
ENDBRANCH   1   8
BRANCH   4  15
HETATM   15  C   UNL     1      66.468   6.564   3.962  1.00  0.00     0.263 C 
BRANCH  15  16
HETATM   16  N   UNL     1      67.449   5.482   4.000  1.00  0.00    -0.077 N 
HETATM   17  H   UNL     1      67.384   4.995   4.894  1.00  0.00     0.274 HD
HETATM   18  H   UNL     1      68.387   5.867   3.891  1.00  0.00     0.274 HD
HETATM   19  H   UNL     1      67.261   4.826   3.242  1.00  0.00     0.274 HD
ENDBRANCH  15  16
ENDBRANCH   4  15
TORSDOF 4
ENDMDL
MODEL 2
REMARK VINA RESULT:      -5.0      1.932      2.697
REMARK  4 active torsions:
REMARK  status: ('A' for Active; 'I' for Inactive)
REMARK    1  A    between atoms: N_1  and  C_5 
REMARK    2  A    between atoms: C_4  and  C_10 
REMARK    3  A    between atoms: C_5  and  C_8 
REMARK    4  A    between atoms: N_9  and  C_10 
ROOT
HETATM    1  N   UNL     1      65.373   7.138   5.012  1.00  0.00    -0.063 N 
HETATM    2  O   UNL     1      67.747   5.819   6.167  1.00  0.00    -0.381 OA
HETATM    3  C   UNL     1      65.301   5.990   5.940  1.00  0.00     0.268 C 
HETATM    4  C   UNL     1      66.502   5.773   6.895  1.00  0.00     0.172 C 
HETATM    5  C   UNL     1      67.880   6.995   5.363  1.00  0.00     0.196 C 
HETATM    6  C   UNL     1      66.706   7.178   4.393  1.00  0.00     0.261 C 
HETATM    7  H   UNL     1      64.673   6.976   4.287  1.00  0.00     0.280 HD
ENDROOT
BRANCH   1   8
HETATM    8  C   UNL     1      64.932   8.427   5.556  1.00  0.00     0.273 C 
BRANCH   8   9
HETATM    9  C   UNL     1      63.780   9.027   4.767  1.00  0.00    -0.033 A 
HETATM   10  C   UNL     1      63.302   8.411   3.602  1.00  0.00     0.009 A 
HETATM   11  C   UNL     1      62.353   9.051   2.801  1.00  0.00     0.001 A 
HETATM   12  C   UNL     1      61.843  10.293   3.175  1.00  0.00     0.000 A 
HETATM   13  C   UNL     1      62.245  10.874   4.375  1.00  0.00     0.001 A 
HETATM   14  C   UNL     1      63.199  10.241   5.172  1.00  0.00     0.009 A 
ENDBRANCH   8   9
ENDBRANCH   1   8
BRANCH   4  15
HETATM   15  C   UNL     1      66.561   6.688   8.139  1.00  0.00     0.263 C 
BRANCH  15  16
HETATM   16  N   UNL     1      67.776   6.546   8.939  1.00  0.00    -0.077 N 
HETATM   17  H   UNL     1      67.970   7.424   9.421  1.00  0.00     0.274 HD
HETATM   18  H   UNL     1      68.560   6.314   8.329  1.00  0.00     0.274 HD
HETATM   19  H   UNL     1      67.647   5.803   9.624  1.00  0.00     0.274 HD
ENDBRANCH  15  16
ENDBRANCH   4  15
TORSDOF 4
ENDMDL
MODEL 3
REMARK VINA RESULT:      -4.9      3.743      7.416
REMARK  4 active torsions:
REMARK  status: ('A' for Active; 'I' for Inactive)
REMARK    1  A    between atoms: N_1  and  C_5 
REMARK    2  A    between atoms: C_4  and  C_10 
REMARK    3  A    between atoms: C_5  and  C_8 
REMARK    4  A    between atoms: N_9  and  C_10 
ROOT
HETATM    1  N   UNL     1      67.070   7.018   7.339  1.00  0.00    -0.063 N 
HETATM    2  O   UNL     1      64.442   7.789   6.238  1.00  0.00    -0.381 OA
HETATM    3  C   UNL     1      65.785   6.480   7.834  1.00  0.00     0.268 C 
HETATM    4  C   UNL     1      64.585   6.492   6.853  1.00  0.00     0.172 C 
HETATM    5  C   UNL     1      65.654   8.261   5.642  1.00  0.00     0.196 C 
HETATM    6  C   UNL     1      66.825   8.284   6.633  1.00  0.00     0.261 C 
HETATM    7  H   UNL     1      67.649   7.200   8.159  1.00  0.00     0.280 HD
ENDROOT
BRANCH   1   8
HETATM    8  C   UNL     1      67.911   6.076   6.594  1.00  0.00     0.273 C 
BRANCH   8   9
HETATM    9  C   UNL     1      68.482   4.980   7.479  1.00  0.00    -0.033 A 
HETATM   10  C   UNL     1      68.377   3.630   7.118  1.00  0.00     0.009 A 
HETATM   11  C   UNL     1      68.761   2.626   8.011  1.00  0.00     0.001 A 
HETATM   12  C   UNL     1      69.289   2.961   9.256  1.00  0.00     0.000 A 
HETATM   13  C   UNL     1      69.480   4.299   9.591  1.00  0.00     0.001 A 
HETATM   14  C   UNL     1      69.089   5.303   8.705  1.00  0.00     0.009 A 
ENDBRANCH   8   9
ENDBRANCH   1   8
BRANCH   4  15
HETATM   15  C   UNL     1      64.564   5.375   5.785  1.00  0.00     0.263 C 
BRANCH  15  16
HETATM   16  N   UNL     1      64.857   4.039   6.300  1.00  0.00    -0.077 N 
HETATM   17  H   UNL     1      65.715   3.691   5.873  1.00  0.00     0.274 HD
HETATM   18  H   UNL     1      64.086   3.410   6.073  1.00  0.00     0.274 HD
HETATM   19  H   UNL     1      64.973   4.082   7.311  1.00  0.00     0.274 HD
ENDBRANCH  15  16
ENDBRANCH   4  15
TORSDOF 4
ENDMDL
MODEL 4
REMARK VINA RESULT:      -4.9      1.745      2.596
REMARK  4 active torsions:
REMARK  status: ('A' for Active; 'I' for Inactive)
REMARK    1  A    between atoms: N_1  and  C_5 
REMARK    2  A    between atoms: C_4  and  C_10 
REMARK    3  A    between atoms: C_5  and  C_8 
REMARK    4  A    between atoms: N_9  and  C_10 
ROOT
HETATM    1  N   UNL     1      65.466   7.721   5.220  1.00  0.00    -0.063 N 
HETATM    2  O   UNL     1      67.148   5.931   6.857  1.00  0.00    -0.381 OA
HETATM    3  C   UNL     1      65.885   6.371   4.789  1.00  0.00     0.268 C 
HETATM    4  C   UNL     1      66.240   5.349   5.899  1.00  0.00     0.172 C 
HETATM    5  C   UNL     1      66.684   7.180   7.378  1.00  0.00     0.196 C 
HETATM    6  C   UNL     1      66.375   8.198   6.272  1.00  0.00     0.261 C 
HETATM    7  H   UNL     1      65.548   8.330   4.406  1.00  0.00     0.280 HD
ENDROOT
BRANCH   1   8
HETATM    8  C   UNL     1      64.045   7.872   5.552  1.00  0.00     0.273 C 
BRANCH   8   9
HETATM    9  C   UNL     1      63.367   8.954   4.727  1.00  0.00    -0.033 A 
HETATM   10  C   UNL     1      63.118  10.224   5.265  1.00  0.00     0.009 A 
HETATM   11  C   UNL     1      62.356  11.156   4.556  1.00  0.00     0.001 A 
HETATM   12  C   UNL     1      61.869  10.844   3.288  1.00  0.00     0.000 A 
HETATM   13  C   UNL     1      62.184   9.618   2.707  1.00  0.00     0.001 A 
HETATM   14  C   UNL     1      62.937   8.682   3.417  1.00  0.00     0.009 A 
ENDBRANCH   8   9
ENDBRANCH   1   8
BRANCH   4  15
HETATM   15  C   UNL     1      65.048   4.675   6.614  1.00  0.00     0.263 C 
BRANCH  15  16
HETATM   16  N   UNL     1      65.423   3.775   7.702  1.00  0.00    -0.077 N 
HETATM   17  H   UNL     1      65.647   4.322   8.534  1.00  0.00     0.274 HD
HETATM   18  H   UNL     1      66.239   3.229   7.427  1.00  0.00     0.274 HD
HETATM   19  H   UNL     1      64.647   3.147   7.907  1.00  0.00     0.274 HD
ENDBRANCH  15  16
ENDBRANCH   4  15
TORSDOF 4
ENDMDL
MODEL 5
REMARK VINA RESULT:      -4.9      1.471      2.209
REMARK  4 active torsions:
REMARK  status: ('A' for Active; 'I' for Inactive)
REMARK    1  A    between atoms: N_1  and  C_5 
REMARK    2  A    between atoms: C_4  and  C_10 
REMARK    3  A    between atoms: C_5  and  C_8 
REMARK    4  A    between atoms: N_9  and  C_10 
ROOT
HETATM    1  N   UNL     1      63.843   7.729   5.140  1.00  0.00    -0.063 N 
HETATM    2  O   UNL     1      65.943   7.477   7.198  1.00  0.00    -0.381 OA
HETATM    3  C   UNL     1      64.904   8.735   5.353  1.00  0.00     0.268 C 
HETATM    4  C   UNL     1      66.221   8.250   6.011  1.00  0.00     0.172 C 
HETATM    5  C   UNL     1      65.012   6.416   6.968  1.00  0.00     0.196 C 
HETATM    6  C   UNL     1      63.697   6.913   6.354  1.00  0.00     0.261 C 
HETATM    7  H   UNL     1      62.978   8.243   4.976  1.00  0.00     0.280 HD
ENDROOT
BRANCH   1   8
HETATM    8  C   UNL     1      63.950   6.942   3.906  1.00  0.00     0.273 C 
BRANCH   8   9
HETATM    9  C   UNL     1      63.198   7.575   2.746  1.00  0.00    -0.033 A 
HETATM   10  C   UNL     1      62.622   8.847   2.866  1.00  0.00     0.009 A 
HETATM   11  C   UNL     1      61.801   9.351   1.853  1.00  0.00     0.001 A 
HETATM   12  C   UNL     1      61.579   8.606   0.696  1.00  0.00     0.000 A 
HETATM   13  C   UNL     1      62.217   7.380   0.528  1.00  0.00     0.001 A 
HETATM   14  C   UNL     1      63.029   6.871   1.542  1.00  0.00     0.009 A 
ENDBRANCH   8   9
ENDBRANCH   1   8
BRANCH   4  15
HETATM   15  C   UNL     1      67.211   7.502   5.090  1.00  0.00     0.263 C 
BRANCH  15  16
HETATM   16  N   UNL     1      68.609   7.891   5.260  1.00  0.00    -0.077 N 
HETATM   17  H   UNL     1      68.662   8.725   5.845  1.00  0.00     0.274 HD
HETATM   18  H   UNL     1      69.021   8.090   4.349  1.00  0.00     0.274 HD
HETATM   19  H   UNL     1      69.121   7.130   5.706  1.00  0.00     0.274 HD
ENDBRANCH  15  16
ENDBRANCH   4  15
TORSDOF 4
ENDMDL
MODEL 6
REMARK VINA RESULT:      -4.8      3.663      7.584
REMARK  4 active torsions:
REMARK  status: ('A' for Active; 'I' for Inactive)
REMARK    1  A    between atoms: N_1  and  C_5 
REMARK    2  A    between atoms: C_4  and  C_10 
REMARK    3  A    between atoms: C_5  and  C_8 
REMARK    4  A    between atoms: N_9  and  C_10 
ROOT
HETATM    1  N   UNL     1      67.477   7.042   6.834  1.00  0.00    -0.063 N 
HETATM    2  O   UNL     1      65.767   6.941   4.431  1.00  0.00    -0.381 OA
HETATM    3  C   UNL     1      66.613   8.159   6.397  1.00  0.00     0.268 C 
HETATM    4  C   UNL     1      65.384   7.804   5.521  1.00  0.00     0.172 C 
HETATM    5  C   UNL     1      66.494   5.787   4.862  1.00  0.00     0.196 C 
HETATM    6  C   UNL     1      67.732   6.151   5.693  1.00  0.00     0.261 C 
HETATM    7  H   UNL     1      68.359   7.454   7.139  1.00  0.00     0.280 HD
ENDROOT
BRANCH   1   8
HETATM    8  C   UNL     1      67.049   6.342   8.050  1.00  0.00     0.273 C 
BRANCH   8   9
HETATM    9  C   UNL     1      67.993   5.216   8.435  1.00  0.00    -0.033 A 
HETATM   10  C   UNL     1      67.520   3.913   8.642  1.00  0.00     0.009 A 
HETATM   11  C   UNL     1      68.366   2.923   9.148  1.00  0.00     0.001 A 
HETATM   12  C   UNL     1      69.702   3.215   9.416  1.00  0.00     0.000 A 
HETATM   13  C   UNL     1      70.206   4.481   9.132  1.00  0.00     0.001 A 
HETATM   14  C   UNL     1      69.360   5.474   8.635  1.00  0.00     0.009 A 
ENDBRANCH   8   9
ENDBRANCH   1   8
BRANCH   4  15
HETATM   15  C   UNL     1      64.156   7.235   6.265  1.00  0.00     0.263 C 
BRANCH  15  16
HETATM   16  N   UNL     1      62.991   8.118   6.277  1.00  0.00    -0.077 N 
HETATM   17  H   UNL     1      63.129   8.872   5.605  1.00  0.00     0.274 HD
HETATM   18  H   UNL     1      62.873   8.513   7.210  1.00  0.00     0.274 HD
HETATM   19  H   UNL     1      62.159   7.586   6.026  1.00  0.00     0.274 HD
ENDBRANCH  15  16
ENDBRANCH   4  15
TORSDOF 4
ENDMDL
MODEL 7
REMARK VINA RESULT:      -4.8     18.016     19.342
REMARK  4 active torsions:
REMARK  status: ('A' for Active; 'I' for Inactive)
REMARK    1  A    between atoms: N_1  and  C_5 
REMARK    2  A    between atoms: C_4  and  C_10 
REMARK    3  A    between atoms: C_5  and  C_8 
REMARK    4  A    between atoms: N_9  and  C_10 
ROOT
HETATM    1  N   UNL     1      75.659   0.089  16.071  1.00  0.00    -0.063 N 
HETATM    2  O   UNL     1      74.674   1.260  18.595  1.00  0.00    -0.381 OA
HETATM    3  C   UNL     1      75.242   1.500  16.210  1.00  0.00     0.268 C 
HETATM    4  C   UNL     1      75.309   2.123  17.628  1.00  0.00     0.172 C 
HETATM    5  C   UNL     1      75.168  -0.082  18.553  1.00  0.00     0.196 C 
HETATM    6  C   UNL     1      75.059  -0.704  17.154  1.00  0.00     0.261 C 
HETATM    7  H   UNL     1      75.295  -0.239  15.176  1.00  0.00     0.280 HD
ENDROOT
BRANCH   1   8
HETATM    8  C   UNL     1      77.098  -0.137  15.898  1.00  0.00     0.273 C 
BRANCH   8   9
HETATM    9  C   UNL     1      77.451  -0.583  14.488  1.00  0.00    -0.033 A 
HETATM   10  C   UNL     1      78.620  -1.313  14.232  1.00  0.00     0.009 A 
HETATM   11  C   UNL     1      79.014  -1.579  12.918  1.00  0.00     0.001 A 
HETATM   12  C   UNL     1      78.227  -1.153  11.851  1.00  0.00     0.000 A 
HETATM   13  C   UNL     1      77.020  -0.504  12.095  1.00  0.00     0.001 A 
HETATM   14  C   UNL     1      76.628  -0.229  13.406  1.00  0.00     0.009 A 
ENDBRANCH   8   9
ENDBRANCH   1   8
BRANCH   4  15
HETATM   15  C   UNL     1      76.707   2.559  18.119  1.00  0.00     0.263 C 
BRANCH  15  16
HETATM   16  N   UNL     1      76.691   3.557  19.186  1.00  0.00    -0.077 N 
HETATM   17  H   UNL     1      77.549   4.108  19.149  1.00  0.00     0.274 HD
HETATM   18  H   UNL     1      76.628   3.088  20.090  1.00  0.00     0.274 HD
HETATM   19  H   UNL     1      75.887   4.172  19.065  1.00  0.00     0.274 HD
ENDBRANCH  15  16
ENDBRANCH   4  15
TORSDOF 4
ENDMDL
MODEL 8
REMARK VINA RESULT:      -4.6      4.150      7.963
REMARK  4 active torsions:
REMARK  status: ('A' for Active; 'I' for Inactive)
REMARK    1  A    between atoms: N_1  and  C_5 
REMARK    2  A    between atoms: C_4  and  C_10 
REMARK    3  A    between atoms: C_5  and  C_8 
REMARK    4  A    between atoms: N_9  and  C_10 
ROOT
HETATM    1  N   UNL     1      66.594   4.710   6.536  1.00  0.00    -0.063 N 
HETATM    2  O   UNL     1      65.271   7.310   6.979  1.00  0.00    -0.381 OA
HETATM    3  C   UNL     1      66.061   5.553   5.445  1.00  0.00     0.268 C 
HETATM    4  C   UNL     1      65.935   7.073   5.720  1.00  0.00     0.172 C 
HETATM    5  C   UNL     1      65.864   6.595   8.066  1.00  0.00     0.196 C 
HETATM    6  C   UNL     1      65.946   5.086   7.801  1.00  0.00     0.261 C 
HETATM    7  H   UNL     1      66.349   3.746   6.309  1.00  0.00     0.280 HD
ENDROOT
BRANCH   1   8
HETATM    8  C   UNL     1      68.056   4.625   6.620  1.00  0.00     0.273 C 
BRANCH   8   9
HETATM    9  C   UNL     1      68.523   3.826   7.826  1.00  0.00    -0.033 A 
HETATM   10  C   UNL     1      69.112   4.459   8.930  1.00  0.00     0.009 A 
HETATM   11  C   UNL     1      69.680   3.705   9.959  1.00  0.00     0.001 A 
HETATM   12  C   UNL     1      69.630   2.313   9.917  1.00  0.00     0.000 A 
HETATM   13  C   UNL     1      68.970   1.674   8.870  1.00  0.00     0.001 A 
HETATM   14  C   UNL     1      68.410   2.425   7.836  1.00  0.00     0.009 A 
ENDBRANCH   8   9
ENDBRANCH   1   8
BRANCH   4  15
HETATM   15  C   UNL     1      67.240   7.896   5.626  1.00  0.00     0.263 C 
BRANCH  15  16
HETATM   16  N   UNL     1      67.997   7.693   4.393  1.00  0.00    -0.077 N 
HETATM   17  H   UNL     1      68.978   7.533   4.619  1.00  0.00     0.274 HD
HETATM   18  H   UNL     1      67.915   8.521   3.803  1.00  0.00     0.274 HD
HETATM   19  H   UNL     1      67.626   6.883   3.896  1.00  0.00     0.274 HD
ENDBRANCH  15  16
ENDBRANCH   4  15
TORSDOF 4
ENDMDL
MODEL 9
REMARK VINA RESULT:      -4.5      2.867      6.494
REMARK  4 active torsions:
REMARK  status: ('A' for Active; 'I' for Inactive)
REMARK    1  A    between atoms: N_1  and  C_5 
REMARK    2  A    between atoms: C_4  and  C_10 
REMARK    3  A    between atoms: C_5  and  C_8 
REMARK    4  A    between atoms: N_9  and  C_10 
ROOT
HETATM    1  N   UNL     1      65.882   7.082   5.239  1.00  0.00    -0.063 N 
HETATM    2  O   UNL     1      63.824   7.736   3.228  1.00  0.00    -0.381 OA
HETATM    3  C   UNL     1      65.157   8.369   5.200  1.00  0.00     0.268 C 
HETATM    4  C   UNL     1      63.764   8.378   4.519  1.00  0.00     0.172 C 
HETATM    5  C   UNL     1      64.410   6.433   3.279  1.00  0.00     0.196 C 
HETATM    6  C   UNL     1      65.805   6.442   3.918  1.00  0.00     0.261 C 
HETATM    7  H   UNL     1      66.857   7.300   5.448  1.00  0.00     0.280 HD
ENDROOT
BRANCH   1   8
HETATM    8  C   UNL     1      65.540   6.190   6.351  1.00  0.00     0.273 C 
BRANCH   8   9
HETATM    9  C   UNL     1      66.744   5.850   7.215  1.00  0.00    -0.033 A 
HETATM   10  C   UNL     1      67.675   4.883   6.811  1.00  0.00     0.009 A 
HETATM   11  C   UNL     1      68.686   4.466   7.680  1.00  0.00     0.001 A 
HETATM   12  C   UNL     1      68.801   5.037   8.946  1.00  0.00     0.000 A 
HETATM   13  C   UNL     1      67.937   6.060   9.326  1.00  0.00     0.001 A 
HETATM   14  C   UNL     1      66.921   6.472   8.463  1.00  0.00     0.009 A 
ENDBRANCH   8   9
ENDBRANCH   1   8
BRANCH   4  15
HETATM   15  C   UNL     1      62.591   7.819   5.354  1.00  0.00     0.263 C 
BRANCH  15  16
HETATM   16  N   UNL     1      62.635   8.167   6.772  1.00  0.00    -0.077 N 
HETATM   17  H   UNL     1      61.688   8.335   7.111  1.00  0.00     0.274 HD
HETATM   18  H   UNL     1      63.195   9.011   6.898  1.00  0.00     0.274 HD
HETATM   19  H   UNL     1      63.054   7.400   7.297  1.00  0.00     0.274 HD
ENDBRANCH  15  16
ENDBRANCH   4  15
TORSDOF 4
ENDMDL
