MODEL 1
REMARK VINA RESULT:      -6.5      0.000      0.000
REMARK  1 active torsions:
REMARK  status: ('A' for Active; 'I' for Inactive)
REMARK    1  A    between atoms: CA_1  and  C_4 
ROOT
HETATM    1  CA  UNL     1      71.638  21.836  11.631  1.00  0.00     0.111 A 
HETATM    2  N   UNL     1      72.685  22.629  12.045  1.00  0.00    -0.350 N 
HETATM    3  C   UNL     1      70.549  22.184  12.412  1.00  0.00     0.050 A 
HETATM    4  C   UNL     1      72.302  23.452  13.077  1.00  0.00     0.043 A 
HETATM    5  C   UNL     1      70.956  23.191  13.327  1.00  0.00    -0.007 A 
HETATM    6  C   UNL     1      73.036  24.396  13.806  1.00  0.00     0.030 A 
HETATM    7  C   UNL     1      70.304  23.904  14.352  1.00  0.00     0.014 A 
HETATM    8  C   UNL     1      72.370  25.087  14.822  1.00  0.00     0.002 A 
HETATM    9  C   UNL     1      71.024  24.846  15.094  1.00  0.00     0.001 A 
HETATM   10  H   UNL     1      73.588  22.609  11.652  1.00  0.00     0.166 HD
ENDROOT
BRANCH   1  11
HETATM   11  C   UNL     1      71.718  20.851  10.594  1.00  0.00     0.226 C 
HETATM   12  O   UNL     1      70.850  20.081  10.216  1.00  0.00    -0.643 OA
HETATM   13  OXT UNL     1      72.942  20.843  10.026  1.00  0.00    -0.643 OA
ENDBRANCH   1  11
TORSDOF 1
ENDMDL
MODEL 2
REMARK VINA RESULT:      -6.4     15.389     15.863
REMARK  1 active torsions:
REMARK  status: ('A' for Active; 'I' for Inactive)
REMARK    1  A    between atoms: CA_1  and  C_4 
ROOT
HETATM    1  CA  UNL     1      79.885  12.479  22.180  1.00  0.00     0.111 A 
HETATM    2  N   UNL     1      79.727  11.548  21.177  1.00  0.00    -0.350 N 
HETATM    3  C   UNL     1      78.772  13.300  22.132  1.00  0.00     0.050 A 
HETATM    4  C   UNL     1      78.562  11.767  20.480  1.00  0.00     0.043 A 
HETATM    5  C   UNL     1      77.939  12.868  21.066  1.00  0.00    -0.007 A 
HETATM    6  C   UNL     1      78.017  11.086  19.385  1.00  0.00     0.030 A 
HETATM    7  C   UNL     1      76.713  13.315  20.538  1.00  0.00     0.014 A 
HETATM    8  C   UNL     1      76.802  11.551  18.874  1.00  0.00     0.002 A 
HETATM    9  C   UNL     1      76.157  12.650  19.440  1.00  0.00     0.001 A 
HETATM   10  H   UNL     1      80.364  10.823  20.985  1.00  0.00     0.166 HD
ENDROOT
BRANCH   1  11
HETATM   11  C   UNL     1      81.008  12.543  23.067  1.00  0.00     0.226 C 
HETATM   12  O   UNL     1      81.073  12.178  24.229  1.00  0.00    -0.643 OA
HETATM   13  OXT UNL     1      82.077  13.094  22.455  1.00  0.00    -0.643 OA
ENDBRANCH   1  11
TORSDOF 1
ENDMDL
MODEL 3
REMARK VINA RESULT:      -6.2     15.884     17.114
REMARK  1 active torsions:
REMARK  status: ('A' for Active; 'I' for Inactive)
REMARK    1  A    between atoms: CA_1  and  C_4 
ROOT
HETATM    1  CA  UNL     1      76.826   6.197  17.028  1.00  0.00     0.111 A 
HETATM    2  N   UNL     1      76.901   6.332  15.659  1.00  0.00    -0.350 N 
HETATM    3  C   UNL     1      77.081   7.449  17.560  1.00  0.00     0.050 A 
HETATM    4  C   UNL     1      77.219   7.622  15.308  1.00  0.00     0.043 A 
HETATM    5  C   UNL     1      77.337   8.348  16.491  1.00  0.00    -0.007 A 
HETATM    6  C   UNL     1      77.414   8.198  14.046  1.00  0.00     0.030 A 
HETATM    7  C   UNL     1      77.664   9.716  16.420  1.00  0.00     0.014 A 
HETATM    8  C   UNL     1      77.744   9.556  14.000  1.00  0.00     0.002 A 
HETATM    9  C   UNL     1      77.868  10.306  15.168  1.00  0.00     0.001 A 
HETATM   10  H   UNL     1      76.747   5.600  15.018  1.00  0.00     0.166 HD
ENDROOT
BRANCH   1  11
HETATM   11  C   UNL     1      76.542   4.973  17.715  1.00  0.00     0.226 C 
HETATM   12  O   UNL     1      76.977   4.592  18.789  1.00  0.00    -0.643 OA
HETATM   13  OXT UNL     1      75.683   4.208  17.008  1.00  0.00    -0.643 OA
ENDBRANCH   1  11
TORSDOF 1
ENDMDL
MODEL 4
REMARK VINA RESULT:      -5.9      1.041      1.899
REMARK  1 active torsions:
REMARK  status: ('A' for Active; 'I' for Inactive)
REMARK    1  A    between atoms: CA_1  and  C_4 
ROOT
HETATM    1  CA  UNL     1      71.404  21.785  12.120  1.00  0.00     0.111 A 
HETATM    2  N   UNL     1      70.366  22.328  12.845  1.00  0.00    -0.350 N 
HETATM    3  C   UNL     1      72.538  22.500  12.465  1.00  0.00     0.050 A 
HETATM    4  C   UNL     1      70.801  23.377  13.618  1.00  0.00     0.043 A 
HETATM    5  C   UNL     1      72.171  23.505  13.397  1.00  0.00    -0.007 A 
HETATM    6  C   UNL     1      70.094  24.219  14.486  1.00  0.00     0.030 A 
HETATM    7  C   UNL     1      72.876  24.519  14.073  1.00  0.00     0.014 A 
HETATM    8  C   UNL     1      70.814  25.222  15.142  1.00  0.00     0.002 A 
HETATM    9  C   UNL     1      72.185  25.374  14.940  1.00  0.00     0.001 A 
HETATM   10  H   UNL     1      69.436  22.006  12.812  1.00  0.00     0.166 HD
ENDROOT
BRANCH   1  11
HETATM   11  C   UNL     1      71.277  20.698  11.197  1.00  0.00     0.226 C 
HETATM   12  O   UNL     1      71.031  20.746  10.003  1.00  0.00    -0.643 OA
HETATM   13  OXT UNL     1      71.463  19.512  11.815  1.00  0.00    -0.643 OA
ENDBRANCH   1  11
TORSDOF 1
ENDMDL
MODEL 5
REMARK VINA RESULT:      -5.8     15.192     15.671
REMARK  1 active torsions:
REMARK  status: ('A' for Active; 'I' for Inactive)
REMARK    1  A    between atoms: CA_1  and  C_4 
ROOT
HETATM    1  CA  UNL     1      79.839  12.487  21.927  1.00  0.00     0.111 A 
HETATM    2  N   UNL     1      78.761  13.341  21.861  1.00  0.00    -0.350 N 
HETATM    3  C   UNL     1      79.653  11.543  20.932  1.00  0.00     0.050 A 
HETATM    4  C   UNL     1      77.886  12.956  20.874  1.00  0.00     0.043 A 
HETATM    5  C   UNL     1      78.428  11.823  20.270  1.00  0.00    -0.007 A 
HETATM    6  C   UNL     1      76.666  13.514  20.473  1.00  0.00     0.030 A 
HETATM    7  C   UNL     1      77.724  11.213  19.214  1.00  0.00     0.014 A 
HETATM    8  C   UNL     1      75.982  12.888  19.426  1.00  0.00     0.002 A 
HETATM    9  C   UNL     1      76.500  11.754  18.804  1.00  0.00     0.001 A 
HETATM   10  H   UNL     1      78.634  14.124  22.445  1.00  0.00     0.166 HD
ENDROOT
BRANCH   1  11
HETATM   11  C   UNL     1      80.914  12.596  22.868  1.00  0.00     0.226 C 
HETATM   12  O   UNL     1      80.950  12.199  24.021  1.00  0.00    -0.643 OA
HETATM   13  OXT UNL     1      81.971  13.237  22.325  1.00  0.00    -0.643 OA
ENDBRANCH   1  11
TORSDOF 1
ENDMDL
MODEL 6
REMARK VINA RESULT:      -5.8     18.651     20.051
REMARK  1 active torsions:
REMARK  status: ('A' for Active; 'I' for Inactive)
REMARK    1  A    between atoms: CA_1  and  C_4 
ROOT
HETATM    1  CA  UNL     1      76.516   5.686  17.396  1.00  0.00     0.111 A 
HETATM    2  N   UNL     1      77.244   4.696  18.018  1.00  0.00    -0.350 N 
HETATM    3  C   UNL     1      75.443   5.060  16.787  1.00  0.00     0.050 A 
HETATM    4  C   UNL     1      76.680   3.462  17.804  1.00  0.00     0.043 A 
HETATM    5  C   UNL     1      75.539   3.664  17.029  1.00  0.00    -0.007 A 
HETATM    6  C   UNL     1      77.089   2.191  18.228  1.00  0.00     0.030 A 
HETATM    7  C   UNL     1      74.764   2.550  16.657  1.00  0.00     0.014 A 
HETATM    8  C   UNL     1      76.306   1.099  17.842  1.00  0.00     0.002 A 
HETATM    9  C   UNL     1      75.160   1.272  17.067  1.00  0.00     0.001 A 
HETATM   10  H   UNL     1      78.060   4.854  18.547  1.00  0.00     0.166 HD
ENDROOT
BRANCH   1  11
HETATM   11  C   UNL     1      76.855   7.078  17.402  1.00  0.00     0.226 C 
HETATM   12  O   UNL     1      76.940   7.829  18.360  1.00  0.00    -0.643 OA
HETATM   13  OXT UNL     1      77.086   7.527  16.151  1.00  0.00    -0.643 OA
ENDBRANCH   1  11
TORSDOF 1
ENDMDL
MODEL 7
REMARK VINA RESULT:      -5.4     17.616     18.823
REMARK  1 active torsions:
REMARK  status: ('A' for Active; 'I' for Inactive)
REMARK    1  A    between atoms: CA_1  and  C_4 
ROOT
HETATM    1  CA  UNL     1      63.339   7.844   5.357  1.00  0.00     0.111 A 
HETATM    2  N   UNL     1      63.011   9.167   5.559  1.00  0.00    -0.350 N 
HETATM    3  C   UNL     1      63.155   7.596   4.008  1.00  0.00     0.050 A 
HETATM    4  C   UNL     1      62.603   9.758   4.388  1.00  0.00     0.043 A 
HETATM    5  C   UNL     1      62.686   8.787   3.392  1.00  0.00    -0.007 A 
HETATM    6  C   UNL     1      62.167  11.064   4.134  1.00  0.00     0.030 A 
HETATM    7  C   UNL     1      62.318   9.129   2.076  1.00  0.00     0.014 A 
HETATM    8  C   UNL     1      61.801  11.380   2.822  1.00  0.00     0.002 A 
HETATM    9  C   UNL     1      61.874  10.428   1.806  1.00  0.00     0.001 A 
HETATM   10  H   UNL     1      63.063   9.626   6.428  1.00  0.00     0.166 HD
ENDROOT
BRANCH   1  11
HETATM   11  C   UNL     1      63.773   6.943   6.382  1.00  0.00     0.226 C 
HETATM   12  O   UNL     1      64.539   7.163   7.306  1.00  0.00    -0.643 OA
HETATM   13  OXT UNL     1      63.220   5.722   6.221  1.00  0.00    -0.643 OA
ENDBRANCH   1  11
TORSDOF 1
ENDMDL
MODEL 8
REMARK VINA RESULT:      -5.2     17.018     18.644
REMARK  1 active torsions:
REMARK  status: ('A' for Active; 'I' for Inactive)
REMARK    1  A    between atoms: CA_1  and  C_4 
ROOT
HETATM    1  CA  UNL     1      67.372   6.842   6.559  1.00  0.00     0.111 A 
HETATM    2  N   UNL     1      67.785   6.737   7.869  1.00  0.00    -0.350 N 
HETATM    3  C   UNL     1      67.536   5.590   5.994  1.00  0.00     0.050 A 
HETATM    4  C   UNL     1      68.227   5.465   8.145  1.00  0.00     0.043 A 
HETATM    5  C   UNL     1      68.078   4.720   6.977  1.00  0.00    -0.007 A 
HETATM    6  C   UNL     1      68.746   4.921   9.326  1.00  0.00     0.030 A 
HETATM    7  C   UNL     1      68.463   3.366   6.980  1.00  0.00     0.014 A 
HETATM    8  C   UNL     1      69.127   3.575   9.305  1.00  0.00     0.002 A 
HETATM    9  C   UNL     1      68.989   2.807   8.150  1.00  0.00     0.001 A 
HETATM   10  H   UNL     1      67.766   7.475   8.520  1.00  0.00     0.166 HD
ENDROOT
BRANCH   1  11
HETATM   11  C   UNL     1      66.884   8.043   5.950  1.00  0.00     0.226 C 
HETATM   12  O   UNL     1      66.034   8.811   6.369  1.00  0.00    -0.643 OA
HETATM   13  OXT UNL     1      67.494   8.269   4.767  1.00  0.00    -0.643 OA
ENDBRANCH   1  11
TORSDOF 1
ENDMDL
MODEL 9
REMARK VINA RESULT:      -5.1     16.190     16.410
REMARK  1 active torsions:
REMARK  status: ('A' for Active; 'I' for Inactive)
REMARK    1  A    between atoms: CA_1  and  C_4 
ROOT
HETATM    1  CA  UNL     1      78.117  12.253  21.522  1.00  0.00     0.111 A 
HETATM    2  N   UNL     1      77.887  11.540  22.678  1.00  0.00    -0.350 N 
HETATM    3  C   UNL     1      79.253  13.010  21.748  1.00  0.00     0.050 A 
HETATM    4  C   UNL     1      78.826  11.839  23.636  1.00  0.00     0.043 A 
HETATM    5  C   UNL     1      79.702  12.765  23.072  1.00  0.00    -0.007 A 
HETATM    6  C   UNL     1      78.966  11.369  24.948  1.00  0.00     0.030 A 
HETATM    7  C   UNL     1      80.772  13.249  23.849  1.00  0.00     0.014 A 
HETATM    8  C   UNL     1      80.032  11.868  25.703  1.00  0.00     0.002 A 
HETATM    9  C   UNL     1      80.923  12.795  25.164  1.00  0.00     0.001 A 
HETATM   10  H   UNL     1      77.147  10.902  22.801  1.00  0.00     0.166 HD
ENDROOT
BRANCH   1  11
HETATM   11  C   UNL     1      77.301  12.191  20.347  1.00  0.00     0.226 C 
HETATM   12  O   UNL     1      76.132  12.519  20.221  1.00  0.00    -0.643 OA
HETATM   13  OXT UNL     1      77.993  11.689  19.302  1.00  0.00    -0.643 OA
ENDBRANCH   1  11
TORSDOF 1
ENDMDL
