MODEL 1
REMARK VINA RESULT:      -3.7      0.000      0.000
REMARK  2 active torsions:
REMARK  status: ('A' for Active; 'I' for Inactive)
REMARK    1  A    between atoms: C_1  and  C_6 
REMARK    2  A    between atoms: C_6  and  O_7 
ROOT
HETATM    1  C   UNL     1      77.953  11.211  19.386  1.00  0.00    -0.028 A 
HETATM    2  S   UNL     1      76.821  13.220  20.550  1.00  0.00    -0.113 SA
HETATM    3  C   UNL     1      78.048  12.032  20.495  1.00  0.00     0.058 A 
HETATM    4  C   UNL     1      76.833  11.590  18.573  1.00  0.00     0.017 A 
HETATM    5  C   UNL     1      76.137  12.660  19.088  1.00  0.00     0.050 A 
ENDROOT
BRANCH   1   6
HETATM    6  C   UNL     1      78.883  10.086  19.067  1.00  0.00     0.203 C 
BRANCH   6   7
HETATM    7  O   UNL     1      80.142  10.254  19.707  1.00  0.00    -0.396 OA
HETATM    8  H   UNL     1      80.004  10.563  20.616  1.00  0.00     0.209 HD
ENDBRANCH   6   7
ENDBRANCH   1   6
TORSDOF 2
ENDMDL
MODEL 2
REMARK VINA RESULT:      -3.7     20.314     21.116
REMARK  2 active torsions:
REMARK  status: ('A' for Active; 'I' for Inactive)
REMARK    1  A    between atoms: C_1  and  C_6 
REMARK    2  A    between atoms: C_6  and  O_7 
ROOT
HETATM    1  C   UNL     1      62.973  10.349   5.022  1.00  0.00    -0.028 A 
HETATM    2  S   UNL     1      62.133   9.101   2.922  1.00  0.00    -0.113 SA
HETATM    3  C   UNL     1      62.055  10.433   3.990  1.00  0.00     0.058 A 
HETATM    4  C   UNL     1      63.751   9.148   4.909  1.00  0.00     0.017 A 
HETATM    5  C   UNL     1      63.398   8.385   3.819  1.00  0.00     0.050 A 
ENDROOT
BRANCH   1   6
HETATM    6  C   UNL     1      63.142  11.363   6.107  1.00  0.00     0.203 C 
BRANCH   6   7
HETATM    7  O   UNL     1      64.505  11.486   6.496  1.00  0.00    -0.396 OA
HETATM    8  H   UNL     1      65.075  11.347   5.724  1.00  0.00     0.209 HD
ENDBRANCH   6   7
ENDBRANCH   1   6
TORSDOF 2
ENDMDL
MODEL 3
REMARK VINA RESULT:      -3.4      4.558      5.158
REMARK  2 active torsions:
REMARK  status: ('A' for Active; 'I' for Inactive)
REMARK    1  A    between atoms: C_1  and  C_6 
REMARK    2  A    between atoms: C_6  and  O_7 
ROOT
HETATM    1  C   UNL     1      76.984   7.320  16.935  1.00  0.00    -0.028 A 
HETATM    2  S   UNL     1      77.744   9.609  16.009  1.00  0.00    -0.113 SA
HETATM    3  C   UNL     1      77.355   7.962  15.768  1.00  0.00     0.058 A 
HETATM    4  C   UNL     1      77.025   8.229  18.045  1.00  0.00     0.017 A 
HETATM    5  C   UNL     1      77.420   9.497  17.682  1.00  0.00     0.050 A 
ENDROOT
BRANCH   1   6
HETATM    6  C   UNL     1      76.588   5.883  17.038  1.00  0.00     0.203 C 
BRANCH   6   7
HETATM    7  O   UNL     1      76.494   5.465  18.395  1.00  0.00    -0.396 OA
HETATM    8  H   UNL     1      77.364   5.539  18.817  1.00  0.00     0.209 HD
ENDBRANCH   6   7
ENDBRANCH   1   6
TORSDOF 2
ENDMDL
MODEL 4
REMARK VINA RESULT:      -3.3      8.546      9.158
REMARK  2 active torsions:
REMARK  status: ('A' for Active; 'I' for Inactive)
REMARK    1  A    between atoms: C_1  and  C_6 
REMARK    2  A    between atoms: C_6  and  O_7 
ROOT
HETATM    1  C   UNL     1      75.761   2.693  17.545  1.00  0.00    -0.028 A 
HETATM    2  S   UNL     1      76.793   5.061  17.569  1.00  0.00    -0.113 SA
HETATM    3  C   UNL     1      76.819   3.423  18.057  1.00  0.00     0.058 A 
HETATM    4  C   UNL     1      74.921   3.524  16.731  1.00  0.00     0.017 A 
HETATM    5  C   UNL     1      75.365   4.825  16.660  1.00  0.00     0.050 A 
ENDROOT
BRANCH   1   6
HETATM    6  C   UNL     1      75.520   1.239  17.796  1.00  0.00     0.203 C 
BRANCH   6   7
HETATM    7  O   UNL     1      74.458   1.040  18.722  1.00  0.00    -0.396 OA
HETATM    8  H   UNL     1      74.644   1.531  19.537  1.00  0.00     0.209 HD
ENDBRANCH   6   7
ENDBRANCH   1   6
TORSDOF 2
ENDMDL
MODEL 5
REMARK VINA RESULT:      -3.3      9.281     10.038
REMARK  2 active torsions:
REMARK  status: ('A' for Active; 'I' for Inactive)
REMARK    1  A    between atoms: C_1  and  C_6 
REMARK    2  A    between atoms: C_6  and  O_7 
ROOT
HETATM    1  C   UNL     1      76.198   2.665  17.583  1.00  0.00    -0.028 A 
HETATM    2  S   UNL     1      75.832   0.236  16.782  1.00  0.00    -0.113 SA
HETATM    3  C   UNL     1      76.816   1.429  17.510  1.00  0.00     0.058 A 
HETATM    4  C   UNL     1      74.879   2.603  17.020  1.00  0.00     0.017 A 
HETATM    5  C   UNL     1      74.557   1.349  16.552  1.00  0.00     0.050 A 
ENDROOT
BRANCH   1   6
HETATM    6  C   UNL     1      76.807   3.898  18.167  1.00  0.00     0.203 C 
BRANCH   6   7
HETATM    7  O   UNL     1      76.898   3.811  19.584  1.00  0.00    -0.396 OA
HETATM    8  H   UNL     1      77.831   3.813  19.848  1.00  0.00     0.209 HD
ENDBRANCH   6   7
ENDBRANCH   1   6
TORSDOF 2
ENDMDL
MODEL 6
REMARK VINA RESULT:      -3.3     22.213     22.979
REMARK  2 active torsions:
REMARK  status: ('A' for Active; 'I' for Inactive)
REMARK    1  A    between atoms: C_1  and  C_6 
REMARK    2  A    between atoms: C_6  and  O_7 
ROOT
HETATM    1  C   UNL     1      62.315   9.994   3.451  1.00  0.00    -0.028 A 
HETATM    2  S   UNL     1      62.469   7.936   1.897  1.00  0.00    -0.113 SA
HETATM    3  C   UNL     1      62.664   8.656   3.435  1.00  0.00     0.058 A 
HETATM    4  C   UNL     1      61.876  10.416   2.151  1.00  0.00     0.017 A 
HETATM    5  C   UNL     1      61.911   9.402   1.221  1.00  0.00     0.050 A 
ENDROOT
BRANCH   1   6
HETATM    6  C   UNL     1      62.378  10.885   4.649  1.00  0.00     0.203 C 
BRANCH   6   7
HETATM    7  O   UNL     1      62.077  12.234   4.311  1.00  0.00    -0.396 OA
HETATM    8  H   UNL     1      62.196  12.362   3.357  1.00  0.00     0.209 HD
ENDBRANCH   6   7
ENDBRANCH   1   6
TORSDOF 2
ENDMDL
MODEL 7
REMARK VINA RESULT:      -3.3      7.348      8.224
REMARK  2 active torsions:
REMARK  status: ('A' for Active; 'I' for Inactive)
REMARK    1  A    between atoms: C_1  and  C_6 
REMARK    2  A    between atoms: C_6  and  O_7 
ROOT
HETATM    1  C   UNL     1      76.419   4.728  17.366  1.00  0.00    -0.028 A 
HETATM    2  S   UNL     1      74.771   2.792  16.909  1.00  0.00    -0.113 SA
HETATM    3  C   UNL     1      75.253   4.418  16.691  1.00  0.00     0.058 A 
HETATM    4  C   UNL     1      76.914   3.581  18.073  1.00  0.00     0.017 A 
HETATM    5  C   UNL     1      76.118   2.470  17.910  1.00  0.00     0.050 A 
ENDROOT
BRANCH   1   6
HETATM    6  C   UNL     1      77.084   6.067  17.362  1.00  0.00     0.203 C 
BRANCH   6   7
HETATM    7  O   UNL     1      76.436   6.972  18.247  1.00  0.00    -0.396 OA
HETATM    8  H   UNL     1      75.921   7.613  17.734  1.00  0.00     0.209 HD
ENDBRANCH   6   7
ENDBRANCH   1   6
TORSDOF 2
ENDMDL
MODEL 8
REMARK VINA RESULT:      -3.2      4.753      5.347
REMARK  2 active torsions:
REMARK  status: ('A' for Active; 'I' for Inactive)
REMARK    1  A    between atoms: C_1  and  C_6 
REMARK    2  A    between atoms: C_6  and  O_7 
ROOT
HETATM    1  C   UNL     1      77.303   8.172  16.316  1.00  0.00    -0.028 A 
HETATM    2  S   UNL     1      77.693   8.775  13.834  1.00  0.00    -0.113 SA
HETATM    3  C   UNL     1      77.202   7.661  15.035  1.00  0.00     0.058 A 
HETATM    4  C   UNL     1      77.798   9.519  16.284  1.00  0.00     0.017 A 
HETATM    5  C   UNL     1      78.048   9.965  15.007  1.00  0.00     0.050 A 
ENDROOT
BRANCH   1   6
HETATM    6  C   UNL     1      76.945   7.435  17.566  1.00  0.00     0.203 C 
BRANCH   6   7
HETATM    7  O   UNL     1      77.007   8.284  18.706  1.00  0.00    -0.396 OA
HETATM    8  H   UNL     1      77.799   8.072  19.224  1.00  0.00     0.209 HD
ENDBRANCH   6   7
ENDBRANCH   1   6
TORSDOF 2
ENDMDL
MODEL 9
REMARK VINA RESULT:      -3.2     15.282     15.903
REMARK  2 active torsions:
REMARK  status: ('A' for Active; 'I' for Inactive)
REMARK    1  A    between atoms: C_1  and  C_6 
REMARK    2  A    between atoms: C_6  and  O_7 
ROOT
HETATM    1  C   UNL     1      68.731   3.125   9.494  1.00  0.00    -0.028 A 
HETATM    2  S   UNL     1      67.899   4.875   7.785  1.00  0.00    -0.113 SA
HETATM    3  C   UNL     1      67.703   3.389   8.607  1.00  0.00     0.058 A 
HETATM    4  C   UNL     1      69.693   4.190   9.483  1.00  0.00     0.017 A 
HETATM    5  C   UNL     1      69.364   5.197   8.604  1.00  0.00     0.050 A 
ENDROOT
BRANCH   1   6
HETATM    6  C   UNL     1      68.833   1.907  10.354  1.00  0.00     0.203 C 
BRANCH   6   7
HETATM    7  O   UNL     1      69.852   2.048  11.337  1.00  0.00    -0.396 OA
HETATM    8  H   UNL     1      70.712   1.834  10.944  1.00  0.00     0.209 HD
ENDBRANCH   6   7
ENDBRANCH   1   6
TORSDOF 2
ENDMDL
