MODEL 1
REMARK VINA RESULT:      -5.0      0.000      0.000
REMARK  3 active torsions:
REMARK  status: ('A' for Active; 'I' for Inactive)
REMARK    1  A    between atoms: C_1  and  C_6 
REMARK    2  A    between atoms: C_5  and  C_11 
REMARK    3  A    between atoms: C_11  and  O_13 
ROOT
HETATM    1  C   UNK     1      76.787   2.684  17.827  1.00  0.00     0.086 A 
HETATM    2  N   UNK     1      77.261   3.915  17.723  1.00  0.00    -0.351 N 
ATOM      3  HN  UNK     1      78.194   4.204  18.014  1.00  0.00     0.166 HD
HETATM    4  S   UNK     1      75.198   2.475  17.184  1.00  0.00    -0.081 SA
HETATM    5  C   UNK     1      76.306   4.759  17.161  1.00  0.00     0.040 A 
HETATM    6  C   UNK     1      75.132   4.136  16.792  1.00  0.00     0.079 A 
ENDROOT
BRANCH   1   7
HETATM    7  C   UNK     1      77.530   1.549  18.392  1.00  0.00     0.013 A 
HETATM    8  C   UNK     1      77.506   0.269  17.839  1.00  0.00     0.101 A 
HETATM    9  N   UNK     1      78.185  -0.800  18.329  1.00  0.00    -0.374 N 
HETATM   10  C   UNK     1      78.927  -0.591  19.437  1.00  0.00     0.087 A 
ATOM     11  HN  UNK     1      78.136  -1.716  17.882  1.00  0.00     0.164 HD
HETATM   12  C   UNK     1      79.013   0.634  20.077  1.00  0.00     0.018 A 
HETATM   13  C   UNK     1      78.301   1.710  19.549  1.00  0.00     0.017 A 
ENDBRANCH   1   7
BRANCH   5  14
HETATM   14  C   UNK     1      76.630   6.208  16.999  1.00  0.00     0.221 C 
BRANCH  14  15
HETATM   15  O   UNK     1      76.717   6.868  18.257  1.00  0.00    -0.395 OA
HETATM   16  H   UNK     1      76.677   6.212  18.971  1.00  0.00     0.209 HD
ENDBRANCH  14  15
ENDBRANCH   5  14
TORSDOF 3
ENDMDL
MODEL 2
REMARK VINA RESULT:      -5.0     17.489     20.190
REMARK  3 active torsions:
REMARK  status: ('A' for Active; 'I' for Inactive)
REMARK    1  A    between atoms: C_1  and  C_6 
REMARK    2  A    between atoms: C_5  and  C_11 
REMARK    3  A    between atoms: C_11  and  O_13 
ROOT
HETATM    1  C   UNK     1      63.747   8.185   5.413  1.00  0.00     0.086 A 
HETATM    2  N   UNK     1      64.914   8.276   6.030  1.00  0.00    -0.351 N 
ATOM      3  HN  UNK     1      65.478   9.123   6.083  1.00  0.00     0.166 HD
HETATM    4  S   UNK     1      62.986   6.641   5.553  1.00  0.00    -0.081 SA
HETATM    5  C   UNK     1      65.263   7.053   6.597  1.00  0.00     0.040 A 
HETATM    6  C   UNK     1      64.319   6.058   6.447  1.00  0.00     0.079 A 
ENDROOT
BRANCH   1   7
HETATM    7  C   UNK     1      63.093   9.289   4.697  1.00  0.00     0.013 A 
HETATM    8  C   UNK     1      62.910  10.556   5.249  1.00  0.00     0.101 A 
HETATM    9  N   UNK     1      62.317  11.600   4.614  1.00  0.00    -0.374 N 
HETATM   10  C   UNK     1      61.873  11.373   3.360  1.00  0.00     0.087 A 
ATOM     11  HN  UNK     1      62.213  12.510   5.063  1.00  0.00     0.164 HD
HETATM   12  C   UNK     1      61.989  10.151   2.719  1.00  0.00     0.018 A 
HETATM   13  C   UNK     1      62.600   9.100   3.401  1.00  0.00     0.017 A 
ENDBRANCH   1   7
BRANCH   5  14
HETATM   14  C   UNK     1      66.574   6.932   7.303  1.00  0.00     0.221 C 
BRANCH  14  15
HETATM   15  O   UNK     1      67.236   8.189   7.394  1.00  0.00    -0.395 OA
HETATM   16  H   UNK     1      67.293   8.590   6.512  1.00  0.00     0.209 HD
ENDBRANCH  14  15
ENDBRANCH   5  14
TORSDOF 3
ENDMDL
MODEL 3
REMARK VINA RESULT:      -4.9     12.048     13.865
REMARK  3 active torsions:
REMARK  status: ('A' for Active; 'I' for Inactive)
REMARK    1  A    between atoms: C_1  and  C_6 
REMARK    2  A    between atoms: C_5  and  C_11 
REMARK    3  A    between atoms: C_11  and  O_13 
ROOT
HETATM    1  C   UNK     1      67.696   5.341   8.118  1.00  0.00     0.086 A 
HETATM    2  N   UNK     1      68.156   5.735   6.943  1.00  0.00    -0.351 N 
ATOM      3  HN  UNK     1      68.910   5.277   6.431  1.00  0.00     0.166 HD
HETATM    4  S   UNK     1      66.364   6.267   8.709  1.00  0.00    -0.081 SA
HETATM    5  C   UNK     1      67.468   6.862   6.502  1.00  0.00     0.040 A 
HETATM    6  C   UNK     1      66.447   7.275   7.333  1.00  0.00     0.079 A 
ENDROOT
BRANCH   1   7
HETATM    7  C   UNK     1      68.210   4.190   8.873  1.00  0.00     0.013 A 
HETATM    8  C   UNK     1      69.247   4.285   9.800  1.00  0.00     0.101 A 
HETATM    9  N   UNK     1      69.742   3.245  10.521  1.00  0.00    -0.374 N 
HETATM   10  C   UNK     1      69.180   2.038  10.305  1.00  0.00     0.087 A 
ATOM     11  HN  UNK     1      70.500   3.371  11.191  1.00  0.00     0.164 HD
HETATM   12  C   UNK     1      68.154   1.824   9.400  1.00  0.00     0.018 A 
HETATM   13  C   UNK     1      67.672   2.913   8.674  1.00  0.00     0.017 A 
ENDBRANCH   1   7
BRANCH   5  14
HETATM   14  C   UNK     1      67.870   7.494   5.209  1.00  0.00     0.221 C 
BRANCH  14  15
HETATM   15  O   UNK     1      69.148   8.113   5.304  1.00  0.00    -0.395 OA
HETATM   16  H   UNK     1      69.398   8.474   4.439  1.00  0.00     0.209 HD
ENDBRANCH  14  15
ENDBRANCH   5  14
TORSDOF 3
ENDMDL
MODEL 4
REMARK VINA RESULT:      -4.8     12.509     15.133
REMARK  3 active torsions:
REMARK  status: ('A' for Active; 'I' for Inactive)
REMARK    1  A    between atoms: C_1  and  C_6 
REMARK    2  A    between atoms: C_5  and  C_11 
REMARK    3  A    between atoms: C_11  and  O_13 
ROOT
HETATM    1  C   UNK     1      67.862   4.924   8.292  1.00  0.00     0.086 A 
HETATM    2  N   UNK     1      67.347   3.788   8.733  1.00  0.00    -0.351 N 
ATOM      3  HN  UNK     1      66.396   3.471   8.546  1.00  0.00     0.166 HD
HETATM    4  S   UNK     1      69.522   5.160   8.705  1.00  0.00    -0.081 SA
HETATM    5  C   UNK     1      68.284   3.086   9.487  1.00  0.00     0.040 A 
HETATM    6  C   UNK     1      69.527   3.681   9.559  1.00  0.00     0.079 A 
ENDROOT
BRANCH   1   7
HETATM    7  C   UNK     1      67.138   5.909   7.478  1.00  0.00     0.013 A 
HETATM    8  C   UNK     1      65.845   6.342   7.771  1.00  0.00     0.101 A 
HETATM    9  N   UNK     1      65.150   7.256   7.045  1.00  0.00    -0.374 N 
HETATM   10  C   UNK     1      65.770   7.766   5.961  1.00  0.00     0.087 A 
ATOM     11  HN  UNK     1      64.206   7.541   7.307  1.00  0.00     0.164 HD
HETATM   12  C   UNK     1      67.046   7.399   5.568  1.00  0.00     0.018 A 
HETATM   13  C   UNK     1      67.730   6.456   6.334  1.00  0.00     0.017 A 
ENDBRANCH   1   7
BRANCH   5  14
HETATM   14  C   UNK     1      67.882   1.793  10.116  1.00  0.00     0.221 C 
BRANCH  14  15
HETATM   15  O   UNK     1      68.576   1.567  11.338  1.00  0.00    -0.395 OA
HETATM   16  H   UNK     1      69.354   1.012  11.171  1.00  0.00     0.209 HD
ENDBRANCH  14  15
ENDBRANCH   5  14
TORSDOF 3
ENDMDL
MODEL 5
REMARK VINA RESULT:      -4.8     17.243     18.773
REMARK  3 active torsions:
REMARK  status: ('A' for Active; 'I' for Inactive)
REMARK    1  A    between atoms: C_1  and  C_6 
REMARK    2  A    between atoms: C_5  and  C_11 
REMARK    3  A    between atoms: C_11  and  O_13 
ROOT
HETATM    1  C   UNK     1      64.377   8.057   4.797  1.00  0.00     0.086 A 
HETATM    2  N   UNK     1      64.356   9.170   5.511  1.00  0.00    -0.351 N 
ATOM      3  HN  UNK     1      65.018   9.397   6.253  1.00  0.00     0.166 HD
HETATM    4  S   UNK     1      63.176   7.983   3.559  1.00  0.00    -0.081 SA
HETATM    5  C   UNK     1      63.305   9.990   5.108  1.00  0.00     0.040 A 
HETATM    6  C   UNK     1      62.572   9.504   4.045  1.00  0.00     0.079 A 
ENDROOT
BRANCH   1   7
HETATM    7  C   UNK     1      65.350   6.970   4.974  1.00  0.00     0.013 A 
HETATM    8  C   UNK     1      64.982   5.637   5.152  1.00  0.00     0.101 A 
HETATM    9  N   UNK     1      65.853   4.606   5.310  1.00  0.00    -0.374 N 
HETATM   10  C   UNK     1      67.166   4.916   5.298  1.00  0.00     0.087 A 
ATOM     11  HN  UNK     1      65.530   3.646   5.432  1.00  0.00     0.164 HD
HETATM   12  C   UNK     1      67.644   6.206   5.142  1.00  0.00     0.018 A 
HETATM   13  C   UNK     1      66.723   7.241   4.985  1.00  0.00     0.017 A 
ENDBRANCH   1   7
BRANCH   5  14
HETATM   14  C   UNK     1      63.079  11.280   5.825  1.00  0.00     0.221 C 
BRANCH  14  15
HETATM   15  O   UNK     1      64.242  11.696   6.532  1.00  0.00    -0.395 OA
HETATM   16  H   UNK     1      64.674  10.923   6.928  1.00  0.00     0.209 HD
ENDBRANCH  14  15
ENDBRANCH   5  14
TORSDOF 3
ENDMDL
MODEL 6
REMARK VINA RESULT:      -4.7     15.017     17.039
REMARK  3 active torsions:
REMARK  status: ('A' for Active; 'I' for Inactive)
REMARK    1  A    between atoms: C_1  and  C_6 
REMARK    2  A    between atoms: C_5  and  C_11 
REMARK    3  A    between atoms: C_11  and  O_13 
ROOT
HETATM    1  C   UNK     1      65.626   7.350   5.999  1.00  0.00     0.086 A 
HETATM    2  N   UNK     1      65.014   8.514   6.139  1.00  0.00    -0.351 N 
ATOM      3  HN  UNK     1      65.133   9.141   6.934  1.00  0.00     0.166 HD
HETATM    4  S   UNK     1      65.286   6.541   4.512  1.00  0.00    -0.081 SA
HETATM    5  C   UNK     1      64.185   8.764   5.048  1.00  0.00     0.040 A 
HETATM    6  C   UNK     1      64.226   7.801   4.061  1.00  0.00     0.079 A 
ENDROOT
BRANCH   1   7
HETATM    7  C   UNK     1      66.561   6.775   6.976  1.00  0.00     0.013 A 
HETATM    8  C   UNK     1      67.845   6.345   6.644  1.00  0.00     0.101 A 
HETATM    9  N   UNK     1      68.737   5.816   7.522  1.00  0.00    -0.374 N 
HETATM   10  C   UNK     1      68.330   5.701   8.803  1.00  0.00     0.087 A 
ATOM     11  HN  UNK     1      69.668   5.521   7.226  1.00  0.00     0.164 HD
HETATM   12  C   UNK     1      67.073   6.082   9.242  1.00  0.00     0.018 A 
HETATM   13  C   UNK     1      66.181   6.619   8.314  1.00  0.00     0.017 A 
ENDBRANCH   1   7
BRANCH   5  14
HETATM   14  C   UNK     1      63.365  10.013   5.036  1.00  0.00     0.221 C 
BRANCH  14  15
HETATM   15  O   UNK     1      63.949  11.030   5.843  1.00  0.00    -0.395 OA
HETATM   16  H   UNK     1      64.369  10.626   6.619  1.00  0.00     0.209 HD
ENDBRANCH  14  15
ENDBRANCH   5  14
TORSDOF 3
ENDMDL
MODEL 7
REMARK VINA RESULT:      -4.7     16.411     19.076
REMARK  3 active torsions:
REMARK  status: ('A' for Active; 'I' for Inactive)
REMARK    1  A    between atoms: C_1  and  C_6 
REMARK    2  A    between atoms: C_5  and  C_11 
REMARK    3  A    between atoms: C_11  and  O_13 
ROOT
HETATM    1  C   UNK     1      65.317   7.880   5.514  1.00  0.00     0.086 A 
HETATM    2  N   UNK     1      65.307   7.565   6.798  1.00  0.00    -0.351 N 
ATOM      3  HN  UNK     1      64.512   7.697   7.422  1.00  0.00     0.166 HD
HETATM    4  S   UNK     1      66.781   7.474   4.693  1.00  0.00    -0.081 SA
HETATM    5  C   UNK     1      66.535   7.029   7.180  1.00  0.00     0.040 A 
HETATM    6  C   UNK     1      67.446   6.892   6.153  1.00  0.00     0.079 A 
ENDROOT
BRANCH   1   7
HETATM    7  C   UNK     1      64.187   8.481   4.792  1.00  0.00     0.013 A 
HETATM    8  C   UNK     1      63.552   9.652   5.205  1.00  0.00     0.101 A 
HETATM    9  N   UNK     1      62.511  10.238   4.559  1.00  0.00    -0.374 N 
HETATM   10  C   UNK     1      62.070   9.626   3.441  1.00  0.00     0.087 A 
ATOM     11  HN  UNK     1      62.085  11.099   4.902  1.00  0.00     0.164 HD
HETATM   12  C   UNK     1      62.616   8.453   2.947  1.00  0.00     0.018 A 
HETATM   13  C   UNK     1      63.681   7.876   3.636  1.00  0.00     0.017 A 
ENDBRANCH   1   7
BRANCH   5  14
HETATM   14  C   UNK     1      66.744   6.650   8.609  1.00  0.00     0.221 C 
BRANCH  14  15
HETATM   15  O   UNK     1      68.125   6.477   8.908  1.00  0.00    -0.395 OA
HETATM   16  H   UNK     1      68.306   6.804   9.803  1.00  0.00     0.209 HD
ENDBRANCH  14  15
ENDBRANCH   5  14
TORSDOF 3
ENDMDL
MODEL 8
REMARK VINA RESULT:      -4.7      3.532      5.629
REMARK  3 active torsions:
REMARK  status: ('A' for Active; 'I' for Inactive)
REMARK    1  A    between atoms: C_1  and  C_6 
REMARK    2  A    between atoms: C_5  and  C_11 
REMARK    3  A    between atoms: C_11  and  O_13 
ROOT
HETATM    1  C   UNK     1      75.520   1.252  17.804  1.00  0.00     0.086 A 
HETATM    2  N   UNK     1      74.551   0.783  18.572  1.00  0.00    -0.351 N 
ATOM      3  HN  UNK     1      73.901   1.360  19.105  1.00  0.00     0.166 HD
HETATM    4  S   UNK     1      76.416   0.036  16.966  1.00  0.00    -0.081 SA
HETATM    5  C   UNK     1      74.543  -0.610  18.553  1.00  0.00     0.040 A 
HETATM    6  C   UNK     1      75.480  -1.179  17.716  1.00  0.00     0.079 A 
ENDROOT
BRANCH   1   7
HETATM    7  C   UNK     1      75.817   2.678  17.612  1.00  0.00     0.013 A 
HETATM    8  C   UNK     1      76.888   3.326  18.225  1.00  0.00     0.101 A 
HETATM    9  N   UNK     1      77.196   4.638  18.064  1.00  0.00    -0.374 N 
HETATM   10  C   UNK     1      76.391   5.353  17.251  1.00  0.00     0.087 A 
ATOM     11  HN  UNK     1      77.996   5.063  18.535  1.00  0.00     0.164 HD
HETATM   12  C   UNK     1      75.293   4.818  16.601  1.00  0.00     0.018 A 
HETATM   13  C   UNK     1      75.003   3.467  16.791  1.00  0.00     0.017 A 
ENDBRANCH   1   7
BRANCH   5  14
HETATM   14  C   UNK     1      73.547  -1.338  19.396  1.00  0.00     0.221 C 
BRANCH  14  15
HETATM   15  O   UNK     1      72.339  -1.584  18.685  1.00  0.00    -0.395 OA
HETATM   16  H   UNK     1      72.548  -1.898  17.791  1.00  0.00     0.209 HD
ENDBRANCH  14  15
ENDBRANCH   5  14
TORSDOF 3
ENDMDL
MODEL 9
REMARK VINA RESULT:      -4.7     16.995     19.096
REMARK  3 active torsions:
REMARK  status: ('A' for Active; 'I' for Inactive)
REMARK    1  A    between atoms: C_1  and  C_6 
REMARK    2  A    between atoms: C_5  and  C_11 
REMARK    3  A    between atoms: C_11  and  O_13 
ROOT
HETATM    1  C   UNK     1      64.137   8.204   4.862  1.00  0.00     0.086 A 
HETATM    2  N   UNK     1      63.543   9.385   4.901  1.00  0.00    -0.351 N 
ATOM      3  HN  UNK     1      63.685  10.083   5.631  1.00  0.00     0.166 HD
HETATM    4  S   UNK     1      63.758   7.262   3.465  1.00  0.00    -0.081 SA
HETATM    5  C   UNK     1      62.697   9.543   3.806  1.00  0.00     0.040 A 
HETATM    6  C   UNK     1      62.706   8.490   2.915  1.00  0.00     0.079 A 
ENDROOT
BRANCH   1   7
HETATM    7  C   UNK     1      65.083   7.711   5.873  1.00  0.00     0.013 A 
HETATM    8  C   UNK     1      66.339   8.276   6.085  1.00  0.00     0.101 A 
HETATM    9  N   UNK     1      67.234   7.851   7.014  1.00  0.00    -0.374 N 
HETATM   10  C   UNK     1      66.864   6.800   7.774  1.00  0.00     0.087 A 
ATOM     11  HN  UNK     1      68.141   8.304   7.130  1.00  0.00     0.164 HD
HETATM   12  C   UNK     1      65.647   6.153   7.642  1.00  0.00     0.018 A 
HETATM   13  C   UNK     1      64.753   6.613   6.676  1.00  0.00     0.017 A 
ENDBRANCH   1   7
BRANCH   5  14
HETATM   14  C   UNK     1      61.894  10.797   3.689  1.00  0.00     0.221 C 
BRANCH  14  15
HETATM   15  O   UNK     1      62.251  11.742   4.691  1.00  0.00    -0.395 OA
HETATM   16  H   UNK     1      62.643  11.279   5.448  1.00  0.00     0.209 HD
ENDBRANCH  14  15
ENDBRANCH   5  14
TORSDOF 3
ENDMDL
