MODEL 1
REMARK VINA RESULT:      -4.2      0.000      0.000
REMARK  2 active torsions:
REMARK  status: ('A' for Active; 'I' for Inactive)
REMARK    1  A    between atoms: C_1  and  C_7 
REMARK    2  A    between atoms: C_7  and  N_10 
ROOT
HETATM    1  C   UNL     1      77.599  11.523  19.387  1.00  0.00     0.015 A 
HETATM    2  N   UNL     1      79.594  10.601  20.023  1.00  0.00    -0.303 N 
ATOM      3  HN  UNL     1      80.415   9.999  20.086  1.00  0.00     0.186 HD
HETATM    4  N   UNL     1      79.277  11.645  20.805  1.00  0.00    -0.300 N 
HETATM    5  C   UNL     1      78.096  12.250  20.461  1.00  0.00     0.034 A 
HETATM    6  C   UNL     1      78.589  10.529  19.143  1.00  0.00     0.032 A 
HETATM    7  C   UNL     1      80.183  11.986  21.878  1.00  0.00     0.177 C 
HETATM    8  C   UNL     1      77.556  13.441  21.164  1.00  0.00     0.070 C 
HETATM    9  C   UNL     1      78.633   9.493  18.082  1.00  0.00     0.070 C 
ENDROOT
BRANCH   1  10
HETATM   10  C   UNL     1      76.322  11.729  18.651  1.00  0.00     0.272 C 
BRANCH  10  11
HETATM   11  N   UNL     1      76.463  12.901  17.798  1.00  0.00    -0.075 N 
HETATM   12  H   UNL     1      76.117  13.723  18.291  1.00  0.00     0.274 HD
HETATM   13  H   UNL     1      75.925  12.765  16.943  1.00  0.00     0.274 HD
HETATM   14  H   UNL     1      77.447  13.033  17.564  1.00  0.00     0.274 HD
ENDBRANCH  10  11
ENDBRANCH   1  10
TORSDOF 2
ENDMDL
MODEL 2
REMARK VINA RESULT:      -4.0      1.059      2.923
REMARK  2 active torsions:
REMARK  status: ('A' for Active; 'I' for Inactive)
REMARK    1  A    between atoms: C_1  and  C_7 
REMARK    2  A    between atoms: C_7  and  N_10 
ROOT
HETATM    1  C   UNL     1      77.944  12.328  20.384  1.00  0.00     0.015 A 
HETATM    2  N   UNL     1      79.799  11.000  20.556  1.00  0.00    -0.303 N 
ATOM      3  HN  UNL     1      80.689  10.600  20.855  1.00  0.00     0.186 HD
HETATM    4  N   UNL     1      79.022  10.606  19.536  1.00  0.00    -0.300 N 
HETATM    5  C   UNL     1      77.883  11.357  19.392  1.00  0.00     0.034 A 
HETATM    6  C   UNL     1      79.144  12.035  21.093  1.00  0.00     0.032 A 
HETATM    7  C   UNL     1      79.467   9.485  18.740  1.00  0.00     0.177 C 
HETATM    8  C   UNL     1      76.858  11.090  18.352  1.00  0.00     0.070 C 
HETATM    9  C   UNL     1      79.708  12.703  22.291  1.00  0.00     0.070 C 
ENDROOT
BRANCH   1  10
HETATM   10  C   UNL     1      76.978  13.428  20.652  1.00  0.00     0.272 C 
BRANCH  10  11
HETATM   11  N   UNL     1      76.939  14.304  19.489  1.00  0.00    -0.075 N 
HETATM   12  H   UNL     1      75.969  14.504  19.247  1.00  0.00     0.274 HD
HETATM   13  H   UNL     1      77.399  13.846  18.703  1.00  0.00     0.274 HD
HETATM   14  H   UNL     1      77.423  15.176  19.705  1.00  0.00     0.274 HD
ENDBRANCH  10  11
ENDBRANCH   1  10
TORSDOF 2
ENDMDL
MODEL 3
REMARK VINA RESULT:      -4.0     20.896     22.775
REMARK  2 active torsions:
REMARK  status: ('A' for Active; 'I' for Inactive)
REMARK    1  A    between atoms: C_1  and  C_7 
REMARK    2  A    between atoms: C_7  and  N_10 
ROOT
HETATM    1  C   UNL     1      62.415  10.271   4.265  1.00  0.00     0.015 A 
HETATM    2  N   UNL     1      62.539   8.271   3.162  1.00  0.00    -0.303 N 
ATOM      3  HN  UNL     1      62.671   7.283   2.944  1.00  0.00     0.186 HD
HETATM    4  N   UNL     1      62.231   9.266   2.316  1.00  0.00    -0.300 N 
HETATM    5  C   UNL     1      62.126  10.491   2.924  1.00  0.00     0.034 A 
HETATM    6  C   UNL     1      62.634   8.867   4.355  1.00  0.00     0.032 A 
HETATM    7  C   UNL     1      62.060   8.938   0.919  1.00  0.00     0.177 C 
HETATM    8  C   UNL     1      61.766  11.733   2.196  1.00  0.00     0.070 C 
HETATM    9  C   UNL     1      62.929   8.042   5.553  1.00  0.00     0.070 C 
ENDROOT
BRANCH   1  10
HETATM   10  C   UNL     1      62.481  11.271   5.366  1.00  0.00     0.272 C 
BRANCH  10  11
HETATM   11  N   UNL     1      63.807  11.212   5.966  1.00  0.00    -0.075 N 
HETATM   12  H   UNL     1      63.739  11.434   6.960  1.00  0.00     0.274 HD
HETATM   13  H   UNL     1      64.418  11.886   5.507  1.00  0.00     0.274 HD
HETATM   14  H   UNL     1      64.189  10.273   5.853  1.00  0.00     0.274 HD
ENDBRANCH  10  11
ENDBRANCH   1  10
TORSDOF 2
ENDMDL
MODEL 4
REMARK VINA RESULT:      -4.0      8.710     10.487
REMARK  2 active torsions:
REMARK  status: ('A' for Active; 'I' for Inactive)
REMARK    1  A    between atoms: C_1  and  C_7 
REMARK    2  A    between atoms: C_7  and  N_10 
ROOT
HETATM    1  C   UNL     1      76.353   1.075  18.152  1.00  0.00     0.015 A 
HETATM    2  N   UNL     1      77.815   2.764  18.651  1.00  0.00    -0.303 N 
ATOM      3  HN  UNL     1      78.607   3.293  19.015  1.00  0.00     0.186 HD
HETATM    4  N   UNL     1      76.768   3.227  17.950  1.00  0.00    -0.300 N 
HETATM    5  C   UNL     1      75.863   2.256  17.608  1.00  0.00     0.034 A 
HETATM    6  C   UNL     1      77.584   1.451  18.763  1.00  0.00     0.032 A 
HETATM    7  C   UNL     1      76.721   4.642  17.660  1.00  0.00     0.177 C 
HETATM    8  C   UNL     1      74.642   2.526  16.808  1.00  0.00     0.070 C 
HETATM    9  C   UNL     1      78.580   0.600  19.458  1.00  0.00     0.070 C 
ENDROOT
BRANCH   1  10
HETATM   10  C   UNL     1      75.739  -0.279  18.111  1.00  0.00     0.272 C 
BRANCH  10  11
HETATM   11  N   UNL     1      74.926  -0.456  19.306  1.00  0.00    -0.075 N 
HETATM   12  H   UNL     1      74.495  -1.381  19.290  1.00  0.00     0.274 HD
HETATM   13  H   UNL     1      74.199   0.258  19.331  1.00  0.00     0.274 HD
HETATM   14  H   UNL     1      75.516  -0.371  20.134  1.00  0.00     0.274 HD
ENDBRANCH  10  11
ENDBRANCH   1  10
TORSDOF 2
ENDMDL
MODEL 5
REMARK VINA RESULT:      -3.9     20.806     23.236
REMARK  2 active torsions:
REMARK  status: ('A' for Active; 'I' for Inactive)
REMARK    1  A    between atoms: C_1  and  C_7 
REMARK    2  A    between atoms: C_7  and  N_10 
ROOT
HETATM    1  C   UNL     1      63.040   8.994   3.827  1.00  0.00     0.015 A 
HETATM    2  N   UNL     1      61.396  10.088   2.670  1.00  0.00    -0.303 N 
ATOM      3  HN  UNL     1      60.701  10.774   2.377  1.00  0.00     0.186 HD
HETATM    4  N   UNL     1      61.679   8.907   2.099  1.00  0.00    -0.300 N 
HETATM    5  C   UNL     1      62.671   8.211   2.741  1.00  0.00     0.034 A 
HETATM    6  C   UNL     1      62.232  10.161   3.712  1.00  0.00     0.032 A 
HETATM    7  C   UNL     1      60.927   8.526   0.926  1.00  0.00     0.177 C 
HETATM    8  C   UNL     1      63.174   6.894   2.274  1.00  0.00     0.070 C 
HETATM    9  C   UNL     1      62.222  11.378   4.561  1.00  0.00     0.070 C 
ENDROOT
BRANCH   1  10
HETATM   10  C   UNL     1      64.050   8.690   4.877  1.00  0.00     0.272 C 
BRANCH  10  11
HETATM   11  N   UNL     1      63.355   8.211   6.064  1.00  0.00    -0.075 N 
HETATM   12  H   UNL     1      62.531   7.679   5.783  1.00  0.00     0.274 HD
HETATM   13  H   UNL     1      63.069   9.006   6.634  1.00  0.00     0.274 HD
HETATM   14  H   UNL     1      63.979   7.611   6.604  1.00  0.00     0.274 HD
ENDBRANCH  10  11
ENDBRANCH   1  10
TORSDOF 2
ENDMDL
MODEL 6
REMARK VINA RESULT:      -3.9      3.135      5.041
REMARK  2 active torsions:
REMARK  status: ('A' for Active; 'I' for Inactive)
REMARK    1  A    between atoms: C_1  and  C_7 
REMARK    2  A    between atoms: C_7  and  N_10 
ROOT
HETATM    1  C   UNL     1      79.846  12.276  23.063  1.00  0.00     0.015 A 
HETATM    2  N   UNL     1      81.103  12.769  24.911  1.00  0.00    -0.303 N 
ATOM      3  HN  UNL     1      81.841  13.111  25.526  1.00  0.00     0.186 HD
HETATM    4  N   UNL     1      80.013  12.061  25.247  1.00  0.00    -0.300 N 
HETATM    5  C   UNL     1      79.211  11.749  24.180  1.00  0.00     0.034 A 
HETATM    6  C   UNL     1      81.002  12.923  23.586  1.00  0.00     0.032 A 
HETATM    7  C   UNL     1      79.830  11.722  26.640  1.00  0.00     0.177 C 
HETATM    8  C   UNL     1      77.937  10.998  24.313  1.00  0.00     0.070 C 
HETATM    9  C   UNL     1      82.038  13.708  22.870  1.00  0.00     0.070 C 
ENDROOT
BRANCH   1  10
HETATM   10  C   UNL     1      79.422  12.189  21.639  1.00  0.00     0.272 C 
BRANCH  10  11
HETATM   11  N   UNL     1      80.165  11.112  20.999  1.00  0.00    -0.075 N 
HETATM   12  H   UNL     1      80.718  11.491  20.231  1.00  0.00     0.274 HD
HETATM   13  H   UNL     1      79.513  10.416  20.639  1.00  0.00     0.274 HD
HETATM   14  H   UNL     1      80.786  10.676  21.682  1.00  0.00     0.274 HD
ENDBRANCH  10  11
ENDBRANCH   1  10
TORSDOF 2
ENDMDL
MODEL 7
REMARK VINA RESULT:      -3.8      4.100      6.108
REMARK  2 active torsions:
REMARK  status: ('A' for Active; 'I' for Inactive)
REMARK    1  A    between atoms: C_1  and  C_7 
REMARK    2  A    between atoms: C_7  and  N_10 
ROOT
HETATM    1  C   UNL     1      79.943  12.334  24.949  1.00  0.00     0.015 A 
HETATM    2  N   UNL     1      78.416  11.179  23.696  1.00  0.00    -0.303 N 
ATOM      3  HN  UNL     1      77.842  10.844  22.922  1.00  0.00     0.186 HD
HETATM    4  N   UNL     1      78.372  10.793  24.981  1.00  0.00    -0.300 N 
HETATM    5  C   UNL     1      79.278  11.441  25.780  1.00  0.00     0.034 A 
HETATM    6  C   UNL     1      79.382  12.103  23.660  1.00  0.00     0.032 A 
HETATM    7  C   UNL     1      77.406   9.784  25.351  1.00  0.00     0.177 C 
HETATM    8  C   UNL     1      79.434  11.158  27.229  1.00  0.00     0.070 C 
HETATM    9  C   UNL     1      79.736  12.728  22.362  1.00  0.00     0.070 C 
ENDROOT
BRANCH   1  10
HETATM   10  C   UNL     1      81.002  13.314  25.314  1.00  0.00     0.272 C 
BRANCH  10  11
HETATM   11  N   UNL     1      80.370  14.594  25.600  1.00  0.00    -0.075 N 
HETATM   12  H   UNL     1      80.710  14.949  26.493  1.00  0.00     0.274 HD
HETATM   13  H   UNL     1      79.359  14.472  25.644  1.00  0.00     0.274 HD
HETATM   14  H   UNL     1      80.601  15.259  24.860  1.00  0.00     0.274 HD
ENDBRANCH  10  11
ENDBRANCH   1  10
TORSDOF 2
ENDMDL
MODEL 8
REMARK VINA RESULT:      -3.8     21.760     23.677
REMARK  2 active torsions:
REMARK  status: ('A' for Active; 'I' for Inactive)
REMARK    1  A    between atoms: C_1  and  C_7 
REMARK    2  A    between atoms: C_7  and  N_10 
ROOT
HETATM    1  C   UNL     1      61.693   9.061   2.287  1.00  0.00     0.015 A 
HETATM    2  N   UNL     1      62.371   8.878   4.465  1.00  0.00    -0.303 N 
ATOM      3  HN  UNL     1      62.632   8.505   5.378  1.00  0.00     0.186 HD
HETATM    4  N   UNL     1      62.295  10.165   4.093  1.00  0.00    -0.300 N 
HETATM    5  C   UNL     1      61.908  10.338   2.789  1.00  0.00     0.034 A 
HETATM    6  C   UNL     1      62.026   8.195   3.368  1.00  0.00     0.032 A 
HETATM    7  C   UNL     1      62.612  11.173   5.078  1.00  0.00     0.177 C 
HETATM    8  C   UNL     1      61.783  11.671   2.147  1.00  0.00     0.070 C 
HETATM    9  C   UNL     1      62.040   6.712   3.407  1.00  0.00     0.070 C 
ENDROOT
BRANCH   1  10
HETATM   10  C   UNL     1      61.222   8.676   0.929  1.00  0.00     0.272 C 
BRANCH  10  11
HETATM   11  N   UNL     1      59.769   8.576   0.953  1.00  0.00    -0.075 N 
HETATM   12  H   UNL     1      59.488   7.640   0.661  1.00  0.00     0.274 HD
HETATM   13  H   UNL     1      59.371   9.265   0.317  1.00  0.00     0.274 HD
HETATM   14  H   UNL     1      59.433   8.752   1.900  1.00  0.00     0.274 HD
ENDBRANCH  10  11
ENDBRANCH   1  10
TORSDOF 2
ENDMDL
MODEL 9
REMARK VINA RESULT:      -3.8     19.829     21.793
REMARK  2 active torsions:
REMARK  status: ('A' for Active; 'I' for Inactive)
REMARK    1  A    between atoms: C_1  and  C_7 
REMARK    2  A    between atoms: C_7  and  N_10 
ROOT
HETATM    1  C   UNL     1      62.921   9.070   3.823  1.00  0.00     0.015 A 
HETATM    2  N   UNL     1      64.360   9.231   5.595  1.00  0.00    -0.303 N 
ATOM      3  HN  UNL     1      64.857   9.564   6.421  1.00  0.00     0.186 HD
HETATM    4  N   UNL     1      64.584   8.108   4.896  1.00  0.00    -0.300 N 
HETATM    5  C   UNL     1      63.739   7.948   3.828  1.00  0.00     0.034 A 
HETATM    6  C   UNL     1      63.336   9.816   4.963  1.00  0.00     0.032 A 
HETATM    7  C   UNL     1      65.653   7.241   5.336  1.00  0.00     0.177 C 
HETATM    8  C   UNL     1      63.780   6.767   2.929  1.00  0.00     0.070 C 
HETATM    9  C   UNL     1      62.787  11.086   5.500  1.00  0.00     0.070 C 
ENDROOT
BRANCH   1  10
HETATM   10  C   UNL     1      61.850   9.421   2.851  1.00  0.00     0.272 C 
BRANCH  10  11
HETATM   11  N   UNL     1      60.578   8.935   3.368  1.00  0.00    -0.075 N 
HETATM   12  H   UNL     1      60.672   7.954   3.633  1.00  0.00     0.274 HD
HETATM   13  H   UNL     1      59.862   9.026   2.648  1.00  0.00     0.274 HD
HETATM   14  H   UNL     1      60.312   9.484   4.185  1.00  0.00     0.274 HD
ENDBRANCH  10  11
ENDBRANCH   1  10
TORSDOF 2
ENDMDL
