MODEL 1
REMARK VINA RESULT:      -5.3      0.000      0.000
REMARK  3 active torsions:
REMARK  status: ('A' for Active; 'I' for Inactive)
REMARK    1  A    between atoms: C_1  and  C_6 
REMARK    2  A    between atoms: C_3  and  C_7 
REMARK    3  A    between atoms: C_7  and  O_9 
ROOT
HETATM    1  C   UNL     1      64.760   8.276   5.318  1.00  0.00     0.086 A 
HETATM    2  O   UNL     1      66.031   8.472   4.859  1.00  0.00    -0.314 OA
HETATM    3  C   UNL     1      66.163   7.071   6.619  1.00  0.00    -0.003 A 
HETATM    4  C   UNL     1      64.797   7.406   6.389  1.00  0.00     0.050 A 
HETATM    5  C   UNL     1      66.875   7.753   5.650  1.00  0.00     0.058 A 
HETATM    6  C   UNL     1      68.310   7.865   5.322  1.00  0.00     0.077 C 
ENDROOT
BRANCH   1   7
HETATM    7  C   UNL     1      63.701   9.013   4.633  1.00  0.00    -0.002 A 
HETATM    8  C   UNL     1      63.138   8.538   3.439  1.00  0.00     0.014 A 
HETATM    9  C   UNL     1      62.155   9.270   2.765  1.00  0.00     0.001 A 
HETATM   10  C   UNL     1      61.718  10.487   3.280  1.00  0.00     0.000 A 
HETATM   11  C   UNL     1      62.256  10.970   4.470  1.00  0.00     0.001 A 
HETATM   12  C   UNL     1      63.240  10.237   5.141  1.00  0.00     0.014 A 
ENDBRANCH   1   7
BRANCH   3  13
HETATM   13  C   UNL     1      66.698   6.195   7.689  1.00  0.00     0.205 C 
BRANCH  13  14
HETATM   14  O   UNL     1      67.477   6.925   8.630  1.00  0.00    -0.396 OA
HETATM   15  H   UNL     1      67.231   6.660   9.529  1.00  0.00     0.209 HD
ENDBRANCH  13  14
ENDBRANCH   3  13
TORSDOF 3
ENDMDL
MODEL 2
REMARK VINA RESULT:      -5.2      2.382      4.350
REMARK  3 active torsions:
REMARK  status: ('A' for Active; 'I' for Inactive)
REMARK    1  A    between atoms: C_1  and  C_6 
REMARK    2  A    between atoms: C_3  and  C_7 
REMARK    3  A    between atoms: C_7  and  O_9 
ROOT
HETATM    1  C   UNL     1      62.430   8.865   3.191  1.00  0.00     0.086 A 
HETATM    2  O   UNL     1      63.536   8.274   3.732  1.00  0.00    -0.314 OA
HETATM    3  C   UNL     1      63.061  10.082   4.990  1.00  0.00    -0.003 A 
HETATM    4  C   UNL     1      62.095   9.971   3.948  1.00  0.00     0.050 A 
HETATM    5  C   UNL     1      63.919   9.013   4.809  1.00  0.00     0.058 A 
HETATM    6  C   UNL     1      65.129   8.540   5.512  1.00  0.00     0.077 C 
ENDROOT
BRANCH   1   7
HETATM    7  C   UNL     1      61.892   8.251   1.980  1.00  0.00    -0.002 A 
HETATM    8  C   UNL     1      62.689   7.440   1.159  1.00  0.00     0.014 A 
HETATM    9  C   UNL     1      62.179   6.889  -0.021  1.00  0.00     0.001 A 
HETATM   10  C   UNL     1      60.862   7.140  -0.394  1.00  0.00     0.000 A 
HETATM   11  C   UNL     1      60.051   7.933   0.413  1.00  0.00     0.001 A 
HETATM   12  C   UNL     1      60.563   8.483   1.593  1.00  0.00     0.014 A 
ENDBRANCH   1   7
BRANCH   3  13
HETATM   13  C   UNL     1      63.133  11.137   6.030  1.00  0.00     0.205 C 
BRANCH  13  14
HETATM   14  O   UNL     1      64.478  11.457   6.364  1.00  0.00    -0.396 OA
HETATM   15  H   UNL     1      64.693  11.087   7.234  1.00  0.00     0.209 HD
ENDBRANCH  13  14
ENDBRANCH   3  13
TORSDOF 3
ENDMDL
MODEL 3
REMARK VINA RESULT:      -5.1      1.841      5.654
REMARK  3 active torsions:
REMARK  status: ('A' for Active; 'I' for Inactive)
REMARK    1  A    between atoms: C_1  and  C_6 
REMARK    2  A    between atoms: C_3  and  C_7 
REMARK    3  A    between atoms: C_7  and  O_9 
ROOT
HETATM    1  C   UNL     1      64.572   8.394   5.039  1.00  0.00     0.086 A 
HETATM    2  O   UNL     1      64.210   9.572   5.627  1.00  0.00    -0.314 OA
HETATM    3  C   UNL     1      62.825   9.244   3.882  1.00  0.00    -0.003 A 
HETATM    4  C   UNL     1      63.731   8.147   3.972  1.00  0.00     0.050 A 
HETATM    5  C   UNL     1      63.165  10.086   4.923  1.00  0.00     0.058 A 
HETATM    6  C   UNL     1      62.652  11.387   5.398  1.00  0.00     0.077 C 
ENDROOT
BRANCH   1   7
HETATM    7  C   UNL     1      65.724   7.706   5.616  1.00  0.00    -0.002 A 
HETATM    8  C   UNL     1      66.954   7.655   4.944  1.00  0.00     0.014 A 
HETATM    9  C   UNL     1      68.041   6.959   5.482  1.00  0.00     0.001 A 
HETATM   10  C   UNL     1      67.913   6.306   6.705  1.00  0.00     0.000 A 
HETATM   11  C   UNL     1      66.704   6.355   7.393  1.00  0.00     0.001 A 
HETATM   12  C   UNL     1      65.618   7.051   6.853  1.00  0.00     0.014 A 
ENDBRANCH   1   7
BRANCH   3  13
HETATM   13  C   UNL     1      61.761   9.439   2.867  1.00  0.00     0.205 C 
BRANCH  13  14
HETATM   14  O   UNL     1      60.474   9.122   3.384  1.00  0.00    -0.396 OA
HETATM   15  H   UNL     1      60.080   8.408   2.860  1.00  0.00     0.209 HD
ENDBRANCH  13  14
ENDBRANCH   3  13
TORSDOF 3
ENDMDL
MODEL 4
REMARK VINA RESULT:      -5.1      1.925      5.619
REMARK  3 active torsions:
REMARK  status: ('A' for Active; 'I' for Inactive)
REMARK    1  A    between atoms: C_1  and  C_6 
REMARK    2  A    between atoms: C_3  and  C_7 
REMARK    3  A    between atoms: C_7  and  O_9 
ROOT
HETATM    1  C   UNL     1      64.412   8.305   4.816  1.00  0.00     0.086 A 
HETATM    2  O   UNL     1      63.935   7.718   3.679  1.00  0.00    -0.314 OA
HETATM    3  C   UNL     1      62.782   9.631   3.978  1.00  0.00    -0.003 A 
HETATM    4  C   UNL     1      63.740   9.493   5.025  1.00  0.00     0.050 A 
HETATM    5  C   UNL     1      62.949   8.513   3.181  1.00  0.00     0.058 A 
HETATM    6  C   UNL     1      62.287   8.021   1.956  1.00  0.00     0.077 C 
ENDROOT
BRANCH   1   7
HETATM    7  C   UNL     1      65.448   7.573   5.540  1.00  0.00    -0.002 A 
HETATM    8  C   UNL     1      65.154   6.869   6.718  1.00  0.00     0.014 A 
HETATM    9  C   UNL     1      66.159   6.205   7.429  1.00  0.00     0.001 A 
HETATM   10  C   UNL     1      67.472   6.233   6.969  1.00  0.00     0.000 A 
HETATM   11  C   UNL     1      67.782   6.916   5.796  1.00  0.00     0.001 A 
HETATM   12  C   UNL     1      66.776   7.580   5.087  1.00  0.00     0.014 A 
ENDBRANCH   1   7
BRANCH   3  13
HETATM   13  C   UNL     1      61.805  10.732   3.804  1.00  0.00     0.205 C 
BRANCH  13  14
HETATM   14  O   UNL     1      62.225  11.920   4.464  1.00  0.00    -0.396 OA
HETATM   15  H   UNL     1      63.174  11.865   4.657  1.00  0.00     0.209 HD
ENDBRANCH  13  14
ENDBRANCH   3  13
TORSDOF 3
ENDMDL
MODEL 5
REMARK VINA RESULT:      -5.0      1.212      1.842
REMARK  3 active torsions:
REMARK  status: ('A' for Active; 'I' for Inactive)
REMARK    1  A    between atoms: C_1  and  C_6 
REMARK    2  A    between atoms: C_3  and  C_7 
REMARK    3  A    between atoms: C_7  and  O_9 
ROOT
HETATM    1  C   UNL     1      64.210   8.124   5.306  1.00  0.00     0.086 A 
HETATM    2  O   UNL     1      63.689   6.892   5.583  1.00  0.00    -0.314 OA
HETATM    3  C   UNL     1      65.777   6.942   6.429  1.00  0.00    -0.003 A 
HETATM    4  C   UNL     1      65.487   8.200   5.826  1.00  0.00     0.050 A 
HETATM    5  C   UNL     1      64.637   6.180   6.251  1.00  0.00     0.058 A 
HETATM    6  C   UNL     1      64.262   4.798   6.612  1.00  0.00     0.077 C 
ENDROOT
BRANCH   1   7
HETATM    7  C   UNL     1      63.362   9.030   4.535  1.00  0.00    -0.002 A 
HETATM    8  C   UNL     1      62.918   8.693   3.247  1.00  0.00     0.014 A 
HETATM    9  C   UNL     1      62.141   9.583   2.498  1.00  0.00     0.001 A 
HETATM   10  C   UNL     1      61.794  10.821   3.029  1.00  0.00     0.000 A 
HETATM   11  C   UNL     1      62.215  11.169   4.310  1.00  0.00     0.001 A 
HETATM   12  C   UNL     1      62.992  10.279   5.058  1.00  0.00     0.014 A 
ENDBRANCH   1   7
BRANCH   3  13
HETATM   13  C   UNL     1      67.044   6.540   7.086  1.00  0.00     0.205 C 
BRANCH  13  14
HETATM   14  O   UNL     1      67.350   7.373   8.198  1.00  0.00    -0.396 OA
HETATM   15  H   UNL     1      68.187   7.088   8.595  1.00  0.00     0.209 HD
ENDBRANCH  13  14
ENDBRANCH   3  13
TORSDOF 3
ENDMDL
MODEL 6
REMARK VINA RESULT:      -5.0      1.493      1.799
REMARK  3 active torsions:
REMARK  status: ('A' for Active; 'I' for Inactive)
REMARK    1  A    between atoms: C_1  and  C_6 
REMARK    2  A    between atoms: C_3  and  C_7 
REMARK    3  A    between atoms: C_7  and  O_9 
ROOT
HETATM    1  C   UNL     1      64.915   8.003   5.063  1.00  0.00     0.086 A 
HETATM    2  O   UNL     1      65.238   8.066   6.388  1.00  0.00    -0.314 OA
HETATM    3  C   UNL     1      66.519   6.460   5.462  1.00  0.00    -0.003 A 
HETATM    4  C   UNL     1      65.694   7.039   4.454  1.00  0.00     0.050 A 
HETATM    5  C   UNL     1      66.198   7.130   6.628  1.00  0.00     0.058 A 
HETATM    6  C   UNL     1      66.657   7.029   8.028  1.00  0.00     0.077 C 
ENDROOT
BRANCH   1   7
HETATM    7  C   UNL     1      63.851   8.897   4.611  1.00  0.00    -0.002 A 
HETATM    8  C   UNL     1      63.127   8.632   3.439  1.00  0.00     0.014 A 
HETATM    9  C   UNL     1      62.140   9.514   2.988  1.00  0.00     0.001 A 
HETATM   10  C   UNL     1      61.860  10.672   3.708  1.00  0.00     0.000 A 
HETATM   11  C   UNL     1      62.560  10.947   4.880  1.00  0.00     0.001 A 
HETATM   12  C   UNL     1      63.548  10.064   5.328  1.00  0.00     0.014 A 
ENDBRANCH   1   7
BRANCH   3  13
HETATM   13  C   UNL     1      67.496   5.358   5.289  1.00  0.00     0.205 C 
BRANCH  13  14
HETATM   14  O   UNL     1      67.067   4.166   5.938  1.00  0.00    -0.396 OA
HETATM   15  H   UNL     1      66.324   3.780   5.448  1.00  0.00     0.209 HD
ENDBRANCH  13  14
ENDBRANCH   3  13
TORSDOF 3
ENDMDL
MODEL 7
REMARK VINA RESULT:      -4.8      2.035      6.127
REMARK  3 active torsions:
REMARK  status: ('A' for Active; 'I' for Inactive)
REMARK    1  A    between atoms: C_1  and  C_6 
REMARK    2  A    between atoms: C_3  and  C_7 
REMARK    3  A    between atoms: C_7  and  O_9 
ROOT
HETATM    1  C   UNL     1      65.605   6.876   6.630  1.00  0.00     0.086 A 
HETATM    2  O   UNL     1      64.370   6.312   6.774  1.00  0.00    -0.314 OA
HETATM    3  C   UNL     1      64.108   8.200   5.573  1.00  0.00    -0.003 A 
HETATM    4  C   UNL     1      65.489   8.030   5.881  1.00  0.00     0.050 A 
HETATM    5  C   UNL     1      63.469   7.115   6.145  1.00  0.00     0.058 A 
HETATM    6  C   UNL     1      62.061   6.677   6.219  1.00  0.00     0.077 C 
ENDROOT
BRANCH   1   7
HETATM    7  C   UNL     1      66.714   6.190   7.290  1.00  0.00    -0.002 A 
HETATM    8  C   UNL     1      67.401   5.142   6.660  1.00  0.00     0.014 A 
HETATM    9  C   UNL     1      68.432   4.462   7.313  1.00  0.00     0.001 A 
HETATM   10  C   UNL     1      68.796   4.824   8.607  1.00  0.00     0.000 A 
HETATM   11  C   UNL     1      68.134   5.870   9.245  1.00  0.00     0.001 A 
HETATM   12  C   UNL     1      67.101   6.549   8.591  1.00  0.00     0.014 A 
ENDBRANCH   1   7
BRANCH   3  13
HETATM   13  C   UNL     1      63.494   9.318   4.817  1.00  0.00     0.205 C 
BRANCH  13  14
HETATM   14  O   UNL     1      63.335  10.478   5.627  1.00  0.00    -0.396 OA
HETATM   15  H   UNL     1      63.500  10.250   6.554  1.00  0.00     0.209 HD
ENDBRANCH  13  14
ENDBRANCH   3  13
TORSDOF 3
ENDMDL
MODEL 8
REMARK VINA RESULT:      -4.7      1.728      2.192
REMARK  3 active torsions:
REMARK  status: ('A' for Active; 'I' for Inactive)
REMARK    1  A    between atoms: C_1  and  C_6 
REMARK    2  A    between atoms: C_3  and  C_7 
REMARK    3  A    between atoms: C_7  and  O_9 
ROOT
HETATM    1  C   UNL     1      64.228   7.703   4.054  1.00  0.00     0.086 A 
HETATM    2  O   UNL     1      64.895   6.538   3.802  1.00  0.00    -0.314 OA
HETATM    3  C   UNL     1      65.745   7.398   5.703  1.00  0.00    -0.003 A 
HETATM    4  C   UNL     1      64.710   8.253   5.226  1.00  0.00     0.050 A 
HETATM    5  C   UNL     1      65.813   6.361   4.790  1.00  0.00     0.058 A 
HETATM    6  C   UNL     1      66.659   5.157   4.670  1.00  0.00     0.077 C 
ENDROOT
BRANCH   1   7
HETATM    7  C   UNL     1      63.228   8.106   3.068  1.00  0.00    -0.002 A 
HETATM    8  C   UNL     1      62.921   7.292   1.968  1.00  0.00     0.014 A 
HETATM    9  C   UNL     1      61.994   7.703   1.005  1.00  0.00     0.001 A 
HETATM   10  C   UNL     1      61.357   8.934   1.132  1.00  0.00     0.000 A 
HETATM   11  C   UNL     1      61.640   9.751   2.224  1.00  0.00     0.001 A 
HETATM   12  C   UNL     1      62.568   9.339   3.185  1.00  0.00     0.014 A 
ENDBRANCH   1   7
BRANCH   3  13
HETATM   13  C   UNL     1      66.580   7.599   6.912  1.00  0.00     0.205 C 
BRANCH  13  14
HETATM   14  O   UNL     1      66.924   8.968   7.094  1.00  0.00    -0.396 OA
HETATM   15  H   UNL     1      66.691   9.469   6.298  1.00  0.00     0.209 HD
ENDBRANCH  13  14
ENDBRANCH   3  13
TORSDOF 3
ENDMDL
MODEL 9
REMARK VINA RESULT:      -4.5      4.045      6.376
REMARK  3 active torsions:
REMARK  status: ('A' for Active; 'I' for Inactive)
REMARK    1  A    between atoms: C_1  and  C_6 
REMARK    2  A    between atoms: C_3  and  C_7 
REMARK    3  A    between atoms: C_7  and  O_9 
ROOT
HETATM    1  C   UNL     1      62.086   8.540   1.922  1.00  0.00     0.086 A 
HETATM    2  O   UNL     1      60.759   8.316   1.694  1.00  0.00    -0.314 OA
HETATM    3  C   UNL     1      61.898   7.361   0.001  1.00  0.00    -0.003 A 
HETATM    4  C   UNL     1      62.822   7.953   0.912  1.00  0.00     0.050 A 
HETATM    5  C   UNL     1      60.647   7.614   0.534  1.00  0.00     0.058 A 
HETATM    6  C   UNL     1      59.269   7.301   0.104  1.00  0.00     0.077 C 
ENDROOT
BRANCH   1   7
HETATM    7  C   UNL     1      62.418   9.335   3.102  1.00  0.00    -0.002 A 
HETATM    8  C   UNL     1      63.232   8.820   4.122  1.00  0.00     0.014 A 
HETATM    9  C   UNL     1      63.511   9.570   5.268  1.00  0.00     0.001 A 
HETATM   10  C   UNL     1      62.983  10.850   5.408  1.00  0.00     0.000 A 
HETATM   11  C   UNL     1      62.183  11.384   4.402  1.00  0.00     0.001 A 
HETATM   12  C   UNL     1      61.904  10.632   3.256  1.00  0.00     0.014 A 
ENDBRANCH   1   7
BRANCH   3  13
HETATM   13  C   UNL     1      62.221   6.648  -1.258  1.00  0.00     0.205 C 
BRANCH  13  14
HETATM   14  O   UNL     1      63.626   6.563  -1.471  1.00  0.00    -0.396 OA
HETATM   15  H   UNL     1      64.078   6.481  -0.617  1.00  0.00     0.209 HD
ENDBRANCH  13  14
ENDBRANCH   3  13
TORSDOF 3
ENDMDL
