MODEL 1
REMARK VINA RESULT:      -5.1      0.000      0.000
REMARK  3 active torsions:
REMARK  status: ('A' for Active; 'I' for Inactive)
REMARK    1  A    between atoms: N_1  and  C_2 
REMARK    2  A    between atoms: N_8  and  C_14 
REMARK    3  A    between atoms: C_9  and  C_14 
ROOT
HETATM    1  C   UNL     1      67.851   5.121   6.937  1.00  0.00     0.030 A 
HETATM    2  C   UNL     1      68.095   3.791   6.566  1.00  0.00     0.030 A 
HETATM    3  C   UNL     1      68.331   5.520   8.193  1.00  0.00     0.030 A 
HETATM    4  C   UNL     1      68.748   2.889   7.418  1.00  0.00     0.011 A 
HETATM    5  C   UNL     1      69.001   4.632   9.043  1.00  0.00     0.011 A 
HETATM    6  C   UNL     1      69.204   3.299   8.674  1.00  0.00    -0.033 A 
ENDROOT
BRANCH   1   7
HETATM    7  N   UNL     1      67.118   5.957   6.115  1.00  0.00    -0.377 N 
HETATM    8  C   UNL     1      65.679   5.759   5.877  1.00  0.00     0.149 C 
HETATM    9  C   UNL     1      64.859   6.837   6.595  1.00  0.00     0.187 C 
HETATM   10  O   UNL     1      65.276   8.153   6.196  1.00  0.00    -0.388 OA
HETATM   11  C   UNL     1      66.661   8.356   6.527  1.00  0.00     0.187 C 
HETATM   12  C   UNL     1      67.583   7.329   5.842  1.00  0.00     0.149 C 
ENDBRANCH   1   7
BRANCH   6  13
HETATM   13  C   UNL     1      69.844   2.326   9.640  1.00  0.00     0.270 C 
BRANCH  13  14
HETATM   14  N   UNL     1      69.055   2.155  10.860  1.00  0.00    -0.075 N 
HETATM   15  C   UNL     1      67.821   1.434  10.580  1.00  0.00     0.267 C 
HETATM   16  H   UNL     1      68.827   3.072  11.243  1.00  0.00     0.277 HD
HETATM   17  H   UNL     1      69.603   1.615  11.531  1.00  0.00     0.277 HD
ENDBRANCH  13  14
ENDBRANCH   6  13
TORSDOF 3
ENDMDL
MODEL 2
REMARK VINA RESULT:      -5.0      1.395      2.398
REMARK  3 active torsions:
REMARK  status: ('A' for Active; 'I' for Inactive)
REMARK    1  A    between atoms: N_1  and  C_2 
REMARK    2  A    between atoms: N_8  and  C_14 
REMARK    3  A    between atoms: C_9  and  C_14 
ROOT
HETATM    1  C   UNL     1      66.772   6.184   7.538  1.00  0.00     0.030 A 
HETATM    2  C   UNL     1      67.194   6.454   8.847  1.00  0.00     0.030 A 
HETATM    3  C   UNL     1      67.430   5.142   6.869  1.00  0.00     0.030 A 
HETATM    4  C   UNL     1      68.247   5.750   9.449  1.00  0.00     0.011 A 
HETATM    5  C   UNL     1      68.469   4.419   7.468  1.00  0.00     0.011 A 
HETATM    6  C   UNL     1      68.903   4.725   8.761  1.00  0.00    -0.033 A 
ENDROOT
BRANCH   1   7
HETATM    7  N   UNL     1      65.799   6.963   6.938  1.00  0.00    -0.377 N 
HETATM    8  C   UNL     1      66.132   8.103   6.068  1.00  0.00     0.149 C 
HETATM    9  C   UNL     1      65.831   7.770   4.602  1.00  0.00     0.187 C 
HETATM   10  O   UNL     1      64.461   7.371   4.435  1.00  0.00    -0.388 OA
HETATM   11  C   UNL     1      64.187   6.197   5.221  1.00  0.00     0.187 C 
HETATM   12  C   UNL     1      64.444   6.426   6.723  1.00  0.00     0.149 C 
ENDBRANCH   1   7
BRANCH   6  13
HETATM   13  C   UNL     1      70.088   4.002   9.361  1.00  0.00     0.270 C 
BRANCH  13  14
HETATM   14  N   UNL     1      69.750   3.325  10.614  1.00  0.00    -0.075 N 
HETATM   15  C   UNL     1      69.152   2.024  10.353  1.00  0.00     0.267 C 
HETATM   16  H   UNL     1      69.088   3.898  11.136  1.00  0.00     0.277 HD
HETATM   17  H   UNL     1      70.606   3.189  11.153  1.00  0.00     0.277 HD
ENDBRANCH  13  14
ENDBRANCH   6  13
TORSDOF 3
ENDMDL
MODEL 3
REMARK VINA RESULT:      -4.9      0.893      1.495
REMARK  3 active torsions:
REMARK  status: ('A' for Active; 'I' for Inactive)
REMARK    1  A    between atoms: N_1  and  C_2 
REMARK    2  A    between atoms: N_8  and  C_14 
REMARK    3  A    between atoms: C_9  and  C_14 
ROOT
HETATM    1  C   UNL     1      67.999   5.650   7.427  1.00  0.00     0.030 A 
HETATM    2  C   UNL     1      68.196   4.409   6.807  1.00  0.00     0.030 A 
HETATM    3  C   UNL     1      68.420   5.759   8.760  1.00  0.00     0.030 A 
HETATM    4  C   UNL     1      68.747   3.316   7.489  1.00  0.00     0.011 A 
HETATM    5  C   UNL     1      68.990   4.678   9.445  1.00  0.00     0.011 A 
HETATM    6  C   UNL     1      69.146   3.436   8.823  1.00  0.00    -0.033 A 
ENDROOT
BRANCH   1   7
HETATM    7  N   UNL     1      67.361   6.678   6.757  1.00  0.00    -0.377 N 
HETATM    8  C   UNL     1      67.859   7.208   5.477  1.00  0.00     0.149 C 
HETATM    9  C   UNL     1      66.945   6.778   4.323  1.00  0.00     0.187 C 
HETATM   10  O   UNL     1      65.588   7.184   4.562  1.00  0.00    -0.388 OA
HETATM   11  C   UNL     1      65.093   6.576   5.768  1.00  0.00     0.187 C 
HETATM   12  C   UNL     1      65.935   6.955   7.002  1.00  0.00     0.149 C 
ENDBRANCH   1   7
BRANCH   6  13
HETATM   13  C   UNL     1      69.675   2.252   9.602  1.00  0.00     0.270 C 
BRANCH  13  14
HETATM   14  N   UNL     1      68.921   2.015  10.833  1.00  0.00    -0.075 N 
HETATM   15  C   UNL     1      67.665   1.337  10.548  1.00  0.00     0.267 C 
HETATM   16  H   UNL     1      68.723   2.910  11.282  1.00  0.00     0.277 HD
HETATM   17  H   UNL     1      69.478   1.424  11.450  1.00  0.00     0.277 HD
ENDBRANCH  13  14
ENDBRANCH   6  13
TORSDOF 3
ENDMDL
MODEL 4
REMARK VINA RESULT:      -4.9      3.915      7.964
REMARK  3 active torsions:
REMARK  status: ('A' for Active; 'I' for Inactive)
REMARK    1  A    between atoms: N_1  and  C_2 
REMARK    2  A    between atoms: N_8  and  C_14 
REMARK    3  A    between atoms: C_9  and  C_14 
ROOT
HETATM    1  C   UNL     1      65.000   7.403   4.874  1.00  0.00     0.030 A 
HETATM    2  C   UNL     1      64.482   8.639   5.285  1.00  0.00     0.030 A 
HETATM    3  C   UNL     1      64.444   6.845   3.715  1.00  0.00     0.030 A 
HETATM    4  C   UNL     1      63.434   9.271   4.601  1.00  0.00     0.011 A 
HETATM    5  C   UNL     1      63.410   7.477   3.013  1.00  0.00     0.011 A 
HETATM    6  C   UNL     1      62.880   8.692   3.457  1.00  0.00    -0.033 A 
ENDROOT
BRANCH   1   7
HETATM    7  N   UNL     1      65.965   6.759   5.627  1.00  0.00    -0.377 N 
HETATM    8  C   UNL     1      66.519   7.345   6.859  1.00  0.00     0.149 C 
HETATM    9  C   UNL     1      66.003   6.594   8.092  1.00  0.00     0.187 C 
HETATM   10  O   UNL     1      66.299   5.191   8.003  1.00  0.00    -0.388 OA
HETATM   11  C   UNL     1      65.666   4.623   6.843  1.00  0.00     0.187 C 
HETATM   12  C   UNL     1      66.128   5.297   5.537  1.00  0.00     0.149 C 
ENDBRANCH   1   7
BRANCH   6  13
HETATM   13  C   UNL     1      61.700   9.317   2.745  1.00  0.00     0.270 C 
BRANCH  13  14
HETATM   14  N   UNL     1      61.491  10.712   3.135  1.00  0.00    -0.075 N 
HETATM   15  C   UNL     1      61.828  11.610   2.040  1.00  0.00     0.267 C 
HETATM   16  H   UNL     1      62.083  10.927   3.938  1.00  0.00     0.277 HD
HETATM   17  H   UNL     1      60.508  10.841   3.373  1.00  0.00     0.277 HD
ENDBRANCH  13  14
ENDBRANCH   6  13
TORSDOF 3
ENDMDL
MODEL 5
REMARK VINA RESULT:      -4.6      3.733      7.456
REMARK  3 active torsions:
REMARK  status: ('A' for Active; 'I' for Inactive)
REMARK    1  A    between atoms: N_1  and  C_2 
REMARK    2  A    between atoms: N_8  and  C_14 
REMARK    3  A    between atoms: C_9  and  C_14 
ROOT
HETATM    1  C   UNL     1      65.217   7.758   4.724  1.00  0.00     0.030 A 
HETATM    2  C   UNL     1      64.780   6.885   3.718  1.00  0.00     0.030 A 
HETATM    3  C   UNL     1      64.382   8.846   5.015  1.00  0.00     0.030 A 
HETATM    4  C   UNL     1      63.593   7.104   3.007  1.00  0.00     0.011 A 
HETATM    5  C   UNL     1      63.183   9.063   4.324  1.00  0.00     0.011 A 
HETATM    6  C   UNL     1      62.781   8.203   3.298  1.00  0.00    -0.033 A 
ENDROOT
BRANCH   1   7
HETATM    7  N   UNL     1      66.442   7.568   5.338  1.00  0.00    -0.377 N 
HETATM    8  C   UNL     1      66.730   8.079   6.688  1.00  0.00     0.149 C 
HETATM    9  C   UNL     1      66.791   6.928   7.699  1.00  0.00     0.187 C 
HETATM   10  O   UNL     1      67.756   5.942   7.299  1.00  0.00    -0.388 OA
HETATM   11  C   UNL     1      67.398   5.389   6.020  1.00  0.00     0.187 C 
HETATM   12  C   UNL     1      67.322   6.464   4.919  1.00  0.00     0.149 C 
ENDBRANCH   1   7
BRANCH   6  13
HETATM   13  C   UNL     1      61.534   8.502   2.495  1.00  0.00     0.270 C 
BRANCH  13  14
HETATM   14  N   UNL     1      60.344   8.619   3.339  1.00  0.00    -0.075 N 
HETATM   15  C   UNL     1      59.875   7.305   3.756  1.00  0.00     0.267 C 
HETATM   16  H   UNL     1      59.606   9.086   2.814  1.00  0.00     0.277 HD
HETATM   17  H   UNL     1      60.586   9.158   4.171  1.00  0.00     0.277 HD
ENDBRANCH  13  14
ENDBRANCH   6  13
TORSDOF 3
ENDMDL
MODEL 6
REMARK VINA RESULT:      -4.6      2.897      6.225
REMARK  3 active torsions:
REMARK  status: ('A' for Active; 'I' for Inactive)
REMARK    1  A    between atoms: N_1  and  C_2 
REMARK    2  A    between atoms: N_8  and  C_14 
REMARK    3  A    between atoms: C_9  and  C_14 
ROOT
HETATM    1  C   UNL     1      68.721   3.082   9.058  1.00  0.00     0.030 A 
HETATM    2  C   UNL     1      68.828   4.402   9.517  1.00  0.00     0.030 A 
HETATM    3  C   UNL     1      68.402   2.915   7.702  1.00  0.00     0.030 A 
HETATM    4  C   UNL     1      68.589   5.503   8.682  1.00  0.00     0.011 A 
HETATM    5  C   UNL     1      68.181   4.007   6.855  1.00  0.00     0.011 A 
HETATM    6  C   UNL     1      68.255   5.317   7.338  1.00  0.00    -0.033 A 
ENDROOT
BRANCH   1   7
HETATM    7  N   UNL     1      68.865   2.019   9.930  1.00  0.00    -0.377 N 
HETATM    8  C   UNL     1      67.709   1.356  10.556  1.00  0.00     0.149 C 
HETATM    9  C   UNL     1      67.488  -0.033   9.947  1.00  0.00     0.187 C 
HETATM   10  O   UNL     1      68.674  -0.838  10.057  1.00  0.00    -0.388 OA
HETATM   11  C   UNL     1      69.763  -0.215   9.355  1.00  0.00     0.187 C 
HETATM   12  C   UNL     1      70.083   1.190   9.900  1.00  0.00     0.149 C 
ENDBRANCH   1   7
BRANCH   6  13
HETATM   13  C   UNL     1      67.921   6.485   6.436  1.00  0.00     0.270 C 
BRANCH  13  14
HETATM   14  N   UNL     1      67.050   7.461   7.092  1.00  0.00    -0.075 N 
HETATM   15  C   UNL     1      65.665   7.275   6.684  1.00  0.00     0.267 C 
HETATM   16  H   UNL     1      67.350   8.402   6.838  1.00  0.00     0.277 HD
HETATM   17  H   UNL     1      67.113   7.329   8.102  1.00  0.00     0.277 HD
ENDBRANCH  13  14
ENDBRANCH   6  13
TORSDOF 3
ENDMDL
MODEL 7
REMARK VINA RESULT:      -4.6     11.696     13.252
REMARK  3 active torsions:
REMARK  status: ('A' for Active; 'I' for Inactive)
REMARK    1  A    between atoms: N_1  and  C_2 
REMARK    2  A    between atoms: N_8  and  C_14 
REMARK    3  A    between atoms: C_9  and  C_14 
ROOT
HETATM    1  C   UNL     1      75.790   0.081  15.057  1.00  0.00     0.030 A 
HETATM    2  C   UNL     1      75.576   0.145  13.673  1.00  0.00     0.030 A 
HETATM    3  C   UNL     1      77.042  -0.390  15.476  1.00  0.00     0.030 A 
HETATM    4  C   UNL     1      76.543  -0.277  12.751  1.00  0.00     0.011 A 
HETATM    5  C   UNL     1      78.023  -0.796  14.563  1.00  0.00     0.011 A 
HETATM    6  C   UNL     1      77.779  -0.760  13.187  1.00  0.00    -0.033 A 
ENDROOT
BRANCH   1   7
HETATM    7  N   UNL     1      74.779   0.411  15.942  1.00  0.00    -0.377 N 
HETATM    8  C   UNL     1      74.158  -0.585  16.830  1.00  0.00     0.149 C 
HETATM    9  C   UNL     1      74.598  -0.363  18.282  1.00  0.00     0.187 C 
HETATM   10  O   UNL     1      74.300   0.976  18.712  1.00  0.00    -0.388 OA
HETATM   11  C   UNL     1      74.996   1.927  17.888  1.00  0.00     0.187 C 
HETATM   12  C   UNL     1      74.615   1.802  16.400  1.00  0.00     0.149 C 
ENDBRANCH   1   7
BRANCH   6  13
HETATM   13  C   UNL     1      78.810  -1.290  12.214  1.00  0.00     0.270 C 
BRANCH  13  14
HETATM   14  N   UNL     1      80.133  -1.424  12.824  1.00  0.00    -0.075 N 
HETATM   15  C   UNL     1      81.122  -0.649  12.087  1.00  0.00     0.267 C 
HETATM   16  H   UNL     1      80.407  -2.406  12.819  1.00  0.00     0.277 HD
HETATM   17  H   UNL     1      80.089  -1.071  13.780  1.00  0.00     0.277 HD
ENDBRANCH  13  14
ENDBRANCH   6  13
TORSDOF 3
ENDMDL
MODEL 8
REMARK VINA RESULT:      -4.4     12.056     13.518
REMARK  3 active torsions:
REMARK  status: ('A' for Active; 'I' for Inactive)
REMARK    1  A    between atoms: N_1  and  C_2 
REMARK    2  A    between atoms: N_8  and  C_14 
REMARK    3  A    between atoms: C_9  and  C_14 
ROOT
HETATM    1  C   UNL     1      76.693  -0.220  15.513  1.00  0.00     0.030 A 
HETATM    2  C   UNL     1      77.878  -0.877  15.153  1.00  0.00     0.030 A 
HETATM    3  C   UNL     1      75.853   0.178  14.463  1.00  0.00     0.030 A 
HETATM    4  C   UNL     1      78.232  -1.092  13.814  1.00  0.00     0.011 A 
HETATM    5  C   UNL     1      76.187  -0.050  13.122  1.00  0.00     0.011 A 
HETATM    6  C   UNL     1      77.391  -0.674  12.779  1.00  0.00    -0.033 A 
ENDROOT
BRANCH   1   7
HETATM    7  N   UNL     1      76.421   0.065  16.838  1.00  0.00    -0.377 N 
HETATM    8  C   UNL     1      76.738   1.371  17.441  1.00  0.00     0.149 C 
HETATM    9  C   UNL     1      75.457   2.173  17.694  1.00  0.00     0.187 C 
HETATM   10  O   UNL     1      74.537   1.432  18.512  1.00  0.00    -0.388 OA
HETATM   11  C   UNL     1      74.168   0.206  17.857  1.00  0.00     0.187 C 
HETATM   12  C   UNL     1      75.387  -0.691  17.566  1.00  0.00     0.149 C 
ENDBRANCH   1   7
BRANCH   6  13
HETATM   13  C   UNL     1      77.785  -0.828  11.327  1.00  0.00     0.270 C 
BRANCH  13  14
HETATM   14  N   UNL     1      78.928  -1.726  11.154  1.00  0.00    -0.075 N 
HETATM   15  C   UNL     1      80.023  -1.043  10.479  1.00  0.00     0.267 C 
HETATM   16  H   UNL     1      78.641  -2.530  10.596  1.00  0.00     0.277 HD
HETATM   17  H   UNL     1      79.249  -2.027  12.074  1.00  0.00     0.277 HD
ENDBRANCH  13  14
ENDBRANCH   6  13
TORSDOF 3
ENDMDL
MODEL 9
REMARK VINA RESULT:      -4.3      3.484      7.378
REMARK  3 active torsions:
REMARK  status: ('A' for Active; 'I' for Inactive)
REMARK    1  A    between atoms: N_1  and  C_2 
REMARK    2  A    between atoms: N_8  and  C_14 
REMARK    3  A    between atoms: C_9  and  C_14 
ROOT
HETATM    1  C   UNL     1      64.548   6.958   6.286  1.00  0.00     0.030 A 
HETATM    2  C   UNL     1      63.169   6.772   6.113  1.00  0.00     0.030 A 
HETATM    3  C   UNL     1      65.113   8.076   5.656  1.00  0.00     0.030 A 
HETATM    4  C   UNL     1      62.397   7.632   5.320  1.00  0.00     0.011 A 
HETATM    5  C   UNL     1      64.347   8.952   4.878  1.00  0.00     0.011 A 
HETATM    6  C   UNL     1      62.980   8.732   4.685  1.00  0.00    -0.033 A 
ENDROOT
BRANCH   1   7
HETATM    7  N   UNL     1      65.299   6.037   6.992  1.00  0.00    -0.377 N 
HETATM    8  C   UNL     1      65.489   4.654   6.523  1.00  0.00     0.149 C 
HETATM    9  C   UNL     1      66.923   4.447   6.021  1.00  0.00     0.187 C 
HETATM   10  O   UNL     1      67.879   4.788   7.038  1.00  0.00    -0.388 OA
HETATM   11  C   UNL     1      67.736   6.170   7.410  1.00  0.00     0.187 C 
HETATM   12  C   UNL     1      66.327   6.488   7.946  1.00  0.00     0.149 C 
ENDBRANCH   1   7
BRANCH   6  13
HETATM   13  C   UNL     1      62.183   9.630   3.766  1.00  0.00     0.270 C 
BRANCH  13  14
HETATM   14  N   UNL     1      60.956   8.990   3.290  1.00  0.00    -0.075 N 
HETATM   15  C   UNL     1      61.094   8.579   1.899  1.00  0.00     0.267 C 
HETATM   16  H   UNL     1      60.182   9.648   3.369  1.00  0.00     0.277 HD
HETATM   17  H   UNL     1      60.778   8.161   3.858  1.00  0.00     0.277 HD
ENDBRANCH  13  14
ENDBRANCH   6  13
TORSDOF 3
ENDMDL
