MODEL 1
REMARK VINA RESULT:      -5.5      0.000      0.000
REMARK  2 active torsions:
REMARK  status: ('A' for Active; 'I' for Inactive)
REMARK    1  A    between atoms: N_1  and  C_4 
REMARK    2  A    between atoms: C_10  and  N_11 
ROOT
HETATM    1  C   UNL     1      76.912   6.788  16.368  1.00  0.00     0.056 A 
HETATM    2  C   UNL     1      76.977   6.989  14.983  1.00  0.00     0.034 A 
HETATM    3  C   UNL     1      77.157   7.866  17.227  1.00  0.00     0.034 A 
HETATM    4  C   UNL     1      77.561   9.324  15.324  1.00  0.00     0.025 A 
HETATM    5  C   UNL     1      77.272   8.258  14.471  1.00  0.00     0.031 A 
HETATM    6  C   UNL     1      77.461   9.127  16.701  1.00  0.00     0.031 A 
ENDROOT
BRANCH   1   7
HETATM    7  N   UNL     1      76.579   5.504  16.881  1.00  0.00    -0.268 N 
HETATM    8  N   UNL     1      77.366   4.888  17.805  1.00  0.00    -0.305 N 
HETATM    9  C   UNL     1      76.745   3.738  18.064  1.00  0.00     0.109 A 
ATOM     10  HN  UNL     1      78.237   5.232  18.209  1.00  0.00     0.186 HD
HETATM   11  C   UNL     1      75.572   3.576  17.317  1.00  0.00     0.038 A 
HETATM   12  C   UNL     1      75.491   4.718  16.558  1.00  0.00     0.118 A 
ENDBRANCH   1   7
BRANCH   4  13
HETATM   13  N   UNL     1      77.714  10.618  14.811  1.00  0.00    -0.399 N 
HETATM   14  H   UNL     1      77.912  11.368  15.418  1.00  0.00     0.156 HD
HETATM   15  H   UNL     1      77.623  10.779  13.844  1.00  0.00     0.156 HD
ENDBRANCH   4  13
TORSDOF 2
ENDMDL
MODEL 2
REMARK VINA RESULT:      -5.3     15.969     17.531
REMARK  2 active torsions:
REMARK  status: ('A' for Active; 'I' for Inactive)
REMARK    1  A    between atoms: N_1  and  C_4 
REMARK    2  A    between atoms: C_10  and  N_11 
ROOT
HETATM    1  C   UNL     1      71.545  22.797  12.853  1.00  0.00     0.056 A 
HETATM    2  C   UNL     1      72.673  23.519  13.265  1.00  0.00     0.034 A 
HETATM    3  C   UNL     1      70.306  23.068  13.448  1.00  0.00     0.034 A 
HETATM    4  C   UNL     1      71.331  24.748  14.877  1.00  0.00     0.025 A 
HETATM    5  C   UNL     1      72.554  24.506  14.250  1.00  0.00     0.031 A 
HETATM    6  C   UNL     1      70.205  24.051  14.439  1.00  0.00     0.031 A 
ENDROOT
BRANCH   1   7
HETATM    7  N   UNL     1      71.667  21.819  11.828  1.00  0.00    -0.268 N 
HETATM    8  N   UNL     1      72.642  21.907  10.883  1.00  0.00    -0.305 N 
HETATM    9  C   UNL     1      72.468  20.830  10.117  1.00  0.00     0.109 A 
ATOM     10  HN  UNL     1      73.348  22.636  10.782  1.00  0.00     0.186 HD
HETATM   11  C   UNL     1      71.388  20.041  10.531  1.00  0.00     0.038 A 
HETATM   12  C   UNL     1      70.884  20.700  11.626  1.00  0.00     0.118 A 
ENDBRANCH   1   7
BRANCH   4  13
HETATM   13  N   UNL     1      71.188  25.828  15.755  1.00  0.00    -0.399 N 
HETATM   14  H   UNL     1      70.578  26.568  15.530  1.00  0.00     0.156 HD
HETATM   15  H   UNL     1      71.698  25.850  16.597  1.00  0.00     0.156 HD
ENDBRANCH   4  13
TORSDOF 2
ENDMDL
MODEL 3
REMARK VINA RESULT:      -5.3      1.217      2.165
REMARK  2 active torsions:
REMARK  status: ('A' for Active; 'I' for Inactive)
REMARK    1  A    between atoms: N_1  and  C_4 
REMARK    2  A    between atoms: C_10  and  N_11 
ROOT
HETATM    1  C   UNL     1      76.460   5.812  16.835  1.00  0.00     0.056 A 
HETATM    2  C   UNL     1      76.670   6.726  17.875  1.00  0.00     0.034 A 
HETATM    3  C   UNL     1      76.690   6.216  15.514  1.00  0.00     0.034 A 
HETATM    4  C   UNL     1      77.302   8.443  16.275  1.00  0.00     0.025 A 
HETATM    5  C   UNL     1      77.116   8.023  17.592  1.00  0.00     0.031 A 
HETATM    6  C   UNL     1      77.126   7.519  15.245  1.00  0.00     0.031 A 
ENDROOT
BRANCH   1   7
HETATM    7  N   UNL     1      76.040   4.486  17.132  1.00  0.00    -0.268 N 
HETATM    8  N   UNL     1      74.807   4.039  16.767  1.00  0.00    -0.305 N 
HETATM    9  C   UNL     1      74.771   2.773  17.181  1.00  0.00     0.109 A 
ATOM     10  HN  UNL     1      74.075   4.559  16.284  1.00  0.00     0.186 HD
HETATM   11  C   UNL     1      75.951   2.382  17.827  1.00  0.00     0.038 A 
HETATM   12  C   UNL     1      76.746   3.500  17.791  1.00  0.00     0.118 A 
ENDBRANCH   1   7
BRANCH   4  13
HETATM   13  N   UNL     1      77.882   9.689  16.006  1.00  0.00    -0.399 N 
HETATM   14  H   UNL     1      78.014  10.338  16.734  1.00  0.00     0.156 HD
HETATM   15  H   UNL     1      78.157   9.916  15.088  1.00  0.00     0.156 HD
ENDBRANCH   4  13
TORSDOF 2
ENDMDL
MODEL 4
REMARK VINA RESULT:      -5.0     19.341     20.370
REMARK  2 active torsions:
REMARK  status: ('A' for Active; 'I' for Inactive)
REMARK    1  A    between atoms: N_1  and  C_4 
REMARK    2  A    between atoms: C_10  and  N_11 
ROOT
HETATM    1  C   UNL     1      62.065   9.422   3.099  1.00  0.00     0.056 A 
HETATM    2  C   UNL     1      62.887   8.749   4.011  1.00  0.00     0.034 A 
HETATM    3  C   UNL     1      61.759  10.771   3.321  1.00  0.00     0.034 A 
HETATM    4  C   UNL     1      63.065  10.756   5.372  1.00  0.00     0.025 A 
HETATM    5  C   UNL     1      63.404   9.425   5.123  1.00  0.00     0.031 A 
HETATM    6  C   UNL     1      62.275  11.431   4.442  1.00  0.00     0.031 A 
ENDROOT
BRANCH   1   7
HETATM    7  N   UNL     1      61.572   8.738   1.954  1.00  0.00    -0.268 N 
HETATM    8  N   UNL     1      60.236   8.644   1.710  1.00  0.00    -0.305 N 
HETATM    9  C   UNL     1      60.148   7.969   0.565  1.00  0.00     0.109 A 
ATOM     10  HN  UNL     1      59.472   9.009   2.279  1.00  0.00     0.186 HD
HETATM   11  C   UNL     1      61.401   7.603   0.056  1.00  0.00     0.038 A 
HETATM   12  C   UNL     1      62.298   8.100   0.968  1.00  0.00     0.118 A 
ENDBRANCH   1   7
BRANCH   4  13
HETATM   13  N   UNL     1      63.695  11.465   6.402  1.00  0.00    -0.399 N 
HETATM   14  H   UNL     1      63.773  12.445   6.348  1.00  0.00     0.156 HD
HETATM   15  H   UNL     1      64.060  10.984   7.180  1.00  0.00     0.156 HD
ENDBRANCH   4  13
TORSDOF 2
ENDMDL
MODEL 5
REMARK VINA RESULT:      -5.0     11.585     13.031
REMARK  2 active torsions:
REMARK  status: ('A' for Active; 'I' for Inactive)
REMARK    1  A    between atoms: N_1  and  C_4 
REMARK    2  A    between atoms: C_10  and  N_11 
ROOT
HETATM    1  C   UNL     1      68.237   5.194   8.014  1.00  0.00     0.056 A 
HETATM    2  C   UNL     1      69.544   5.315   8.504  1.00  0.00     0.034 A 
HETATM    3  C   UNL     1      67.457   4.100   8.412  1.00  0.00     0.034 A 
HETATM    4  C   UNL     1      69.297   3.243   9.751  1.00  0.00     0.025 A 
HETATM    5  C   UNL     1      70.054   4.358   9.389  1.00  0.00     0.031 A 
HETATM    6  C   UNL     1      67.985   3.145   9.289  1.00  0.00     0.031 A 
ENDROOT
BRANCH   1   7
HETATM    7  N   UNL     1      67.713   6.188   7.143  1.00  0.00    -0.268 N 
HETATM    8  N   UNL     1      67.144   7.324   7.631  1.00  0.00    -0.305 N 
HETATM    9  C   UNL     1      66.795   8.018   6.549  1.00  0.00     0.109 A 
ATOM     10  HN  UNL     1      67.014   7.585   8.608  1.00  0.00     0.186 HD
HETATM   11  C   UNL     1      67.109   7.355   5.356  1.00  0.00     0.038 A 
HETATM   12  C   UNL     1      67.690   6.179   5.762  1.00  0.00     0.118 A 
ENDBRANCH   1   7
BRANCH   4  13
HETATM   13  N   UNL     1      69.757   2.368  10.742  1.00  0.00    -0.399 N 
HETATM   14  H   UNL     1      70.138   1.495  10.490  1.00  0.00     0.156 HD
HETATM   15  H   UNL     1      69.699   2.624  11.691  1.00  0.00     0.156 HD
ENDBRANCH   4  13
TORSDOF 2
ENDMDL
MODEL 6
REMARK VINA RESULT:      -4.8     11.968     13.340
REMARK  2 active torsions:
REMARK  status: ('A' for Active; 'I' for Inactive)
REMARK    1  A    between atoms: N_1  and  C_4 
REMARK    2  A    between atoms: C_10  and  N_11 
ROOT
HETATM    1  C   UNL     1      68.289   4.972   7.441  1.00  0.00     0.056 A 
HETATM    2  C   UNL     1      68.494   3.597   7.270  1.00  0.00     0.034 A 
HETATM    3  C   UNL     1      68.518   5.545   8.699  1.00  0.00     0.034 A 
HETATM    4  C   UNL     1      69.118   3.371   9.609  1.00  0.00     0.025 A 
HETATM    5  C   UNL     1      68.933   2.812   8.343  1.00  0.00     0.031 A 
HETATM    6  C   UNL     1      68.947   4.746   9.765  1.00  0.00     0.031 A 
ENDROOT
BRANCH   1   7
HETATM    7  N   UNL     1      67.875   5.768   6.338  1.00  0.00    -0.268 N 
HETATM    8  N   UNL     1      68.020   7.121   6.352  1.00  0.00    -0.305 N 
HETATM    9  C   UNL     1      67.555   7.523   5.169  1.00  0.00     0.109 A 
ATOM     10  HN  UNL     1      68.401   7.699   7.101  1.00  0.00     0.186 HD
HETATM   11  C   UNL     1      67.092   6.461   4.382  1.00  0.00     0.038 A 
HETATM   12  C   UNL     1      67.299   5.346   5.157  1.00  0.00     0.118 A 
ENDBRANCH   1   7
BRANCH   4  13
HETATM   13  N   UNL     1      69.692   2.615  10.638  1.00  0.00    -0.399 N 
HETATM   14  H   UNL     1      69.385   1.694  10.802  1.00  0.00     0.156 HD
HETATM   15  H   UNL     1      70.401   3.005  11.199  1.00  0.00     0.156 HD
ENDBRANCH   4  13
TORSDOF 2
ENDMDL
MODEL 7
REMARK VINA RESULT:      -4.8     17.414     18.219
REMARK  2 active torsions:
REMARK  status: ('A' for Active; 'I' for Inactive)
REMARK    1  A    between atoms: N_1  and  C_4 
REMARK    2  A    between atoms: C_10  and  N_11 
ROOT
HETATM    1  C   UNL     1      63.218   8.662   4.654  1.00  0.00     0.056 A 
HETATM    2  C   UNL     1      62.940   9.931   5.179  1.00  0.00     0.034 A 
HETATM    3  C   UNL     1      62.880   8.384   3.324  1.00  0.00     0.034 A 
HETATM    4  C   UNL     1      61.964  10.621   3.062  1.00  0.00     0.025 A 
HETATM    5  C   UNL     1      62.344  10.909   4.374  1.00  0.00     0.031 A 
HETATM    6  C   UNL     1      62.274   9.368   2.534  1.00  0.00     0.031 A 
ENDROOT
BRANCH   1   7
HETATM    7  N   UNL     1      63.855   7.685   5.468  1.00  0.00    -0.268 N 
HETATM    8  N   UNL     1      64.959   7.991   6.203  1.00  0.00    -0.305 N 
HETATM    9  C   UNL     1      65.262   6.862   6.843  1.00  0.00     0.109 A 
ATOM     10  HN  UNL     1      65.445   8.885   6.252  1.00  0.00     0.186 HD
HETATM   11  C   UNL     1      64.388   5.813   6.531  1.00  0.00     0.038 A 
HETATM   12  C   UNL     1      63.499   6.362   5.641  1.00  0.00     0.118 A 
ENDBRANCH   1   7
BRANCH   4  13
HETATM   13  N   UNL     1      61.501  11.640   2.222  1.00  0.00    -0.399 N 
HETATM   14  H   UNL     1      61.121  11.417   1.341  1.00  0.00     0.156 HD
HETATM   15  H   UNL     1      61.555  12.580   2.510  1.00  0.00     0.156 HD
ENDBRANCH   4  13
TORSDOF 2
ENDMDL
MODEL 8
REMARK VINA RESULT:      -4.7     16.726     17.538
REMARK  2 active torsions:
REMARK  status: ('A' for Active; 'I' for Inactive)
REMARK    1  A    between atoms: N_1  and  C_4 
REMARK    2  A    between atoms: C_10  and  N_11 
ROOT
HETATM    1  C   UNL     1      63.987   8.522   4.953  1.00  0.00     0.056 A 
HETATM    2  C   UNL     1      63.706   7.888   3.736  1.00  0.00     0.034 A 
HETATM    3  C   UNL     1      63.359   9.737   5.251  1.00  0.00     0.034 A 
HETATM    4  C   UNL     1      62.204   9.695   3.112  1.00  0.00     0.025 A 
HETATM    5  C   UNL     1      62.797   8.461   2.838  1.00  0.00     0.031 A 
HETATM    6  C   UNL     1      62.460  10.304   4.340  1.00  0.00     0.031 A 
ENDROOT
BRANCH   1   7
HETATM    7  N   UNL     1      64.885   7.916   5.874  1.00  0.00    -0.268 N 
HETATM    8  N   UNL     1      64.447   7.021   6.801  1.00  0.00    -0.305 N 
HETATM    9  C   UNL     1      65.545   6.653   7.461  1.00  0.00     0.109 A 
ATOM     10  HN  UNL     1      63.491   6.702   6.955  1.00  0.00     0.186 HD
HETATM   11  C   UNL     1      66.697   7.301   6.997  1.00  0.00     0.038 A 
HETATM   12  C   UNL     1      66.247   8.113   5.985  1.00  0.00     0.118 A 
ENDBRANCH   1   7
BRANCH   4  13
HETATM   13  N   UNL     1      61.193  10.192   2.281  1.00  0.00    -0.399 N 
HETATM   14  H   UNL     1      60.390  10.605   2.675  1.00  0.00     0.156 HD
HETATM   15  H   UNL     1      61.283  10.129   1.302  1.00  0.00     0.156 HD
ENDBRANCH   4  13
TORSDOF 2
ENDMDL
MODEL 9
REMARK VINA RESULT:      -4.6     11.579     12.282
REMARK  2 active torsions:
REMARK  status: ('A' for Active; 'I' for Inactive)
REMARK    1  A    between atoms: N_1  and  C_4 
REMARK    2  A    between atoms: C_10  and  N_11 
ROOT
HETATM    1  C   UNL     1      67.824   4.884   8.571  1.00  0.00     0.056 A 
HETATM    2  C   UNL     1      67.903   4.966   7.175  1.00  0.00     0.034 A 
HETATM    3  C   UNL     1      67.270   5.952   9.288  1.00  0.00     0.034 A 
HETATM    4  C   UNL     1      66.912   7.185   7.223  1.00  0.00     0.025 A 
HETATM    5  C   UNL     1      67.423   6.100   6.509  1.00  0.00     0.031 A 
HETATM    6  C   UNL     1      66.803   7.084   8.610  1.00  0.00     0.031 A 
ENDROOT
BRANCH   1   7
HETATM    7  N   UNL     1      68.283   3.714   9.238  1.00  0.00    -0.268 N 
HETATM    8  N   UNL     1      67.476   2.630   9.395  1.00  0.00    -0.305 N 
HETATM    9  C   UNL     1      68.232   1.735  10.030  1.00  0.00     0.109 A 
ATOM     10  HN  UNL     1      66.507   2.526   9.094  1.00  0.00     0.186 HD
HETATM   11  C   UNL     1      69.518   2.215  10.308  1.00  0.00     0.038 A 
HETATM   12  C   UNL     1      69.525   3.490   9.798  1.00  0.00     0.118 A 
ENDBRANCH   1   7
BRANCH   4  13
HETATM   13  N   UNL     1      66.305   8.251   6.549  1.00  0.00    -0.399 N 
HETATM   14  H   UNL     1      65.338   8.410   6.648  1.00  0.00     0.156 HD
HETATM   15  H   UNL     1      66.844   8.843   5.975  1.00  0.00     0.156 HD
ENDBRANCH   4  13
TORSDOF 2
ENDMDL
