MODEL 1
REMARK VINA RESULT:      -5.9      0.000      0.000
REMARK  3 active torsions:
REMARK  status: ('A' for Active; 'I' for Inactive)
REMARK    1  A    between atoms: N_1  and  C_5 
REMARK    2  A    between atoms: C_12  and  C_14 
REMARK    3  A    between atoms: O_13  and  C_14 
ROOT
HETATM    1  C   UNL     1      76.788   6.604  16.415  1.00  0.00     0.039 A 
HETATM    2  C   UNL     1      76.875   6.776  15.028  1.00  0.00     0.030 A 
HETATM    3  C   UNL     1      77.085   7.686  17.256  1.00  0.00     0.030 A 
HETATM    4  C   UNL     1      77.459   8.920  16.717  1.00  0.00     0.011 A 
HETATM    5  C   UNL     1      77.241   8.016  14.493  1.00  0.00     0.011 A 
HETATM    6  C   UNL     1      77.537   9.097  15.333  1.00  0.00    -0.035 A 
ENDROOT
BRANCH   1   7
HETATM    7  N   UNL     1      76.378   5.357  16.965  1.00  0.00    -0.317 N 
HETATM    8  C   UNL     1      76.971   4.662  17.999  1.00  0.00     0.188 A 
HETATM    9  N   UNL     1      76.384   3.510  18.240  1.00  0.00    -0.360 N 
HETATM   10  C   UNL     1      75.356   3.444  17.344  1.00  0.00     0.106 A 
ATOM     11  HN  UNL     1      76.640   2.818  18.943  1.00  0.00     0.166 HD
HETATM   12  C   UNL     1      75.316   4.575  16.565  1.00  0.00     0.115 A 
ENDBRANCH   1   7
BRANCH   6  13
HETATM   13  C   UNL     1      77.922  10.428  14.749  1.00  0.00     0.202 C 
BRANCH  13  14
HETATM   14  O   UNL     1      77.244  11.478  15.424  1.00  0.00    -0.396 OA
HETATM   15  H   UNL     1      77.627  11.595  16.308  1.00  0.00     0.209 HD
ENDBRANCH  13  14
ENDBRANCH   6  13
TORSDOF 3
ENDMDL
MODEL 2
REMARK VINA RESULT:      -5.3     11.841     13.234
REMARK  3 active torsions:
REMARK  status: ('A' for Active; 'I' for Inactive)
REMARK    1  A    between atoms: N_1  and  C_5 
REMARK    2  A    between atoms: C_12  and  C_14 
REMARK    3  A    between atoms: O_13  and  C_14 
ROOT
HETATM    1  C   UNL     1      68.171   5.231   7.734  1.00  0.00     0.039 A 
HETATM    2  C   UNL     1      68.544   5.339   9.080  1.00  0.00     0.030 A 
HETATM    3  C   UNL     1      68.354   4.008   7.072  1.00  0.00     0.030 A 
HETATM    4  C   UNL     1      68.896   2.912   7.747  1.00  0.00     0.011 A 
HETATM    5  C   UNL     1      69.077   4.235   9.754  1.00  0.00     0.011 A 
HETATM    6  C   UNL     1      69.258   3.013   9.093  1.00  0.00    -0.035 A 
ENDROOT
BRANCH   1   7
HETATM    7  N   UNL     1      67.591   6.338   7.053  1.00  0.00    -0.317 N 
HETATM    8  C   UNL     1      66.708   7.267   7.565  1.00  0.00     0.188 A 
HETATM    9  N   UNL     1      66.312   8.141   6.666  1.00  0.00    -0.360 N 
HETATM   10  C   UNL     1      66.964   7.789   5.520  1.00  0.00     0.106 A 
ATOM     11  HN  UNL     1      65.659   8.914   6.796  1.00  0.00     0.166 HD
HETATM   12  C   UNL     1      67.773   6.699   5.736  1.00  0.00     0.115 A 
ENDBRANCH   1   7
BRANCH   6  13
HETATM   13  C   UNL     1      69.826   1.831   9.828  1.00  0.00     0.202 C 
BRANCH  13  14
HETATM   14  O   UNL     1      69.801   2.064  11.230  1.00  0.00    -0.396 OA
HETATM   15  H   UNL     1      70.646   1.788  11.619  1.00  0.00     0.209 HD
ENDBRANCH  13  14
ENDBRANCH   6  13
TORSDOF 3
ENDMDL
MODEL 3
REMARK VINA RESULT:      -5.1      3.586      6.188
REMARK  3 active torsions:
REMARK  status: ('A' for Active; 'I' for Inactive)
REMARK    1  A    between atoms: N_1  and  C_5 
REMARK    2  A    between atoms: C_12  and  C_14 
REMARK    3  A    between atoms: O_13  and  C_14 
ROOT
HETATM    1  C   UNL     1      76.057   4.810  17.020  1.00  0.00     0.039 A 
HETATM    2  C   UNL     1      76.799   3.870  17.746  1.00  0.00     0.030 A 
HETATM    3  C   UNL     1      74.802   4.443  16.513  1.00  0.00     0.030 A 
HETATM    4  C   UNL     1      74.297   3.158  16.733  1.00  0.00     0.011 A 
HETATM    5  C   UNL     1      76.285   2.588  17.972  1.00  0.00     0.011 A 
HETATM    6  C   UNL     1      75.031   2.222  17.466  1.00  0.00    -0.035 A 
ENDROOT
BRANCH   1   7
HETATM    7  N   UNL     1      76.555   6.128  16.822  1.00  0.00    -0.317 N 
HETATM    8  C   UNL     1      76.779   7.093  17.784  1.00  0.00     0.188 A 
HETATM    9  N   UNL     1      77.195   8.231  17.274  1.00  0.00    -0.360 N 
HETATM   10  C   UNL     1      77.264   8.011  15.929  1.00  0.00     0.106 A 
ATOM     11  HN  UNL     1      77.418   9.091  17.775  1.00  0.00     0.166 HD
HETATM   12  C   UNL     1      76.899   6.721  15.627  1.00  0.00     0.115 A 
ENDBRANCH   1   7
BRANCH   6  13
HETATM   13  C   UNL     1      74.485   0.844  17.719  1.00  0.00     0.202 C 
BRANCH  13  14
HETATM   14  O   UNL     1      74.461   0.572  19.114  1.00  0.00    -0.396 OA
HETATM   15  H   UNL     1      75.352   0.686  19.481  1.00  0.00     0.209 HD
ENDBRANCH  13  14
ENDBRANCH   6  13
TORSDOF 3
ENDMDL
MODEL 4
REMARK VINA RESULT:      -5.1     11.620     12.342
REMARK  3 active torsions:
REMARK  status: ('A' for Active; 'I' for Inactive)
REMARK    1  A    between atoms: N_1  and  C_5 
REMARK    2  A    between atoms: C_12  and  C_14 
REMARK    3  A    between atoms: O_13  and  C_14 
ROOT
HETATM    1  C   UNL     1      68.030   4.737   8.387  1.00  0.00     0.039 A 
HETATM    2  C   UNL     1      68.081   4.552   6.999  1.00  0.00     0.030 A 
HETATM    3  C   UNL     1      67.509   5.935   8.896  1.00  0.00     0.030 A 
HETATM    4  C   UNL     1      67.043   6.929   8.031  1.00  0.00     0.011 A 
HETATM    5  C   UNL     1      67.605   5.547   6.138  1.00  0.00     0.011 A 
HETATM    6  C   UNL     1      67.083   6.743   6.646  1.00  0.00    -0.035 A 
ENDROOT
BRANCH   1   7
HETATM    7  N   UNL     1      68.475   3.713   9.269  1.00  0.00    -0.317 N 
HETATM    8  C   UNL     1      69.572   3.748  10.107  1.00  0.00     0.188 A 
HETATM    9  N   UNL     1      69.748   2.621  10.760  1.00  0.00    -0.360 N 
HETATM   10  C   UNL     1      68.726   1.813  10.353  1.00  0.00     0.106 A 
ATOM     11  HN  UNL     1      70.488   2.398  11.426  1.00  0.00     0.166 HD
HETATM   12  C   UNL     1      67.917   2.467   9.456  1.00  0.00     0.115 A 
ENDBRANCH   1   7
BRANCH   6  13
HETATM   13  C   UNL     1      66.568   7.803   5.713  1.00  0.00     0.202 C 
BRANCH  13  14
HETATM   14  O   UNL     1      66.092   8.920   6.451  1.00  0.00    -0.396 OA
HETATM   15  H   UNL     1      66.156   8.732   7.401  1.00  0.00     0.209 HD
ENDBRANCH  13  14
ENDBRANCH   6  13
TORSDOF 3
ENDMDL
MODEL 5
REMARK VINA RESULT:      -4.7     16.706     17.460
REMARK  3 active torsions:
REMARK  status: ('A' for Active; 'I' for Inactive)
REMARK    1  A    between atoms: N_1  and  C_5 
REMARK    2  A    between atoms: C_12  and  C_14 
REMARK    3  A    between atoms: O_13  and  C_14 
ROOT
HETATM    1  C   UNL     1      64.367   8.081   5.024  1.00  0.00     0.039 A 
HETATM    2  C   UNL     1      64.186   7.296   3.879  1.00  0.00     0.030 A 
HETATM    3  C   UNL     1      63.636   9.271   5.158  1.00  0.00     0.030 A 
HETATM    4  C   UNL     1      62.737   9.664   4.163  1.00  0.00     0.011 A 
HETATM    5  C   UNL     1      63.278   7.690   2.890  1.00  0.00     0.011 A 
HETATM    6  C   UNL     1      62.547   8.878   3.023  1.00  0.00    -0.035 A 
ENDROOT
BRANCH   1   7
HETATM    7  N   UNL     1      65.259   7.666   6.052  1.00  0.00    -0.317 N 
HETATM    8  C   UNL     1      66.514   8.172   6.327  1.00  0.00     0.188 A 
HETATM    9  N   UNL     1      67.112   7.539   7.312  1.00  0.00    -0.360 N 
HETATM   10  C   UNL     1      66.220   6.589   7.715  1.00  0.00     0.106 A 
ATOM     11  HN  UNL     1      68.042   7.718   7.692  1.00  0.00     0.166 HD
HETATM   12  C   UNL     1      65.065   6.660   6.974  1.00  0.00     0.115 A 
ENDBRANCH   1   7
BRANCH   6  13
HETATM   13  C   UNL     1      61.569   9.289   1.959  1.00  0.00     0.202 C 
BRANCH  13  14
HETATM   14  O   UNL     1      61.364  10.695   1.995  1.00  0.00    -0.396 OA
HETATM   15  H   UNL     1      60.874  10.931   2.798  1.00  0.00     0.209 HD
ENDBRANCH  13  14
ENDBRANCH   6  13
TORSDOF 3
ENDMDL
MODEL 6
REMARK VINA RESULT:      -4.7     17.250     17.960
REMARK  3 active torsions:
REMARK  status: ('A' for Active; 'I' for Inactive)
REMARK    1  A    between atoms: N_1  and  C_5 
REMARK    2  A    between atoms: C_12  and  C_14 
REMARK    3  A    between atoms: O_13  and  C_14 
ROOT
HETATM    1  C   UNL     1      63.723   8.408   4.772  1.00  0.00     0.039 A 
HETATM    2  C   UNL     1      63.405   7.983   3.476  1.00  0.00     0.030 A 
HETATM    3  C   UNL     1      63.286   9.670   5.202  1.00  0.00     0.030 A 
HETATM    4  C   UNL     1      62.539  10.488   4.350  1.00  0.00     0.011 A 
HETATM    5  C   UNL     1      62.648   8.803   2.631  1.00  0.00     0.011 A 
HETATM    6  C   UNL     1      62.211  10.062   3.060  1.00  0.00    -0.035 A 
ENDROOT
BRANCH   1   7
HETATM    7  N   UNL     1      64.457   7.563   5.651  1.00  0.00    -0.317 N 
HETATM    8  C   UNL     1      64.022   6.398   6.250  1.00  0.00     0.188 A 
HETATM    9  N   UNL     1      64.922   5.874   7.052  1.00  0.00    -0.360 N 
HETATM   10  C   UNL     1      65.996   6.711   6.974  1.00  0.00     0.106 A 
ATOM     11  HN  UNL     1      64.836   5.025   7.612  1.00  0.00     0.166 HD
HETATM   12  C   UNL     1      65.746   7.744   6.103  1.00  0.00     0.115 A 
ENDBRANCH   1   7
BRANCH   6  13
HETATM   13  C   UNL     1      61.394  10.932   2.147  1.00  0.00     0.202 C 
BRANCH  13  14
HETATM   14  O   UNL     1      62.099  12.128   1.845  1.00  0.00    -0.396 OA
HETATM   15  H   UNL     1      63.046  11.995   2.006  1.00  0.00     0.209 HD
ENDBRANCH  13  14
ENDBRANCH   6  13
TORSDOF 3
ENDMDL
MODEL 7
REMARK VINA RESULT:      -4.5     12.820     13.587
REMARK  3 active torsions:
REMARK  status: ('A' for Active; 'I' for Inactive)
REMARK    1  A    between atoms: N_1  and  C_5 
REMARK    2  A    between atoms: C_12  and  C_14 
REMARK    3  A    between atoms: O_13  and  C_14 
ROOT
HETATM    1  C   UNL     1      67.240   5.788   7.429  1.00  0.00     0.039 A 
HETATM    2  C   UNL     1      65.869   5.915   7.681  1.00  0.00     0.030 A 
HETATM    3  C   UNL     1      67.814   6.532   6.388  1.00  0.00     0.030 A 
HETATM    4  C   UNL     1      67.028   7.392   5.616  1.00  0.00     0.011 A 
HETATM    5  C   UNL     1      65.088   6.785   6.911  1.00  0.00     0.011 A 
HETATM    6  C   UNL     1      65.661   7.529   5.872  1.00  0.00    -0.035 A 
ENDROOT
BRANCH   1   7
HETATM    7  N   UNL     1      68.048   4.936   8.233  1.00  0.00    -0.317 N 
HETATM    8  C   UNL     1      67.677   3.746   8.827  1.00  0.00     0.188 A 
HETATM    9  N   UNL     1      68.638   3.220   9.553  1.00  0.00    -0.360 N 
HETATM   10  C   UNL     1      69.688   4.082   9.428  1.00  0.00     0.106 A 
ATOM     11  HN  UNL     1      68.606   2.355  10.093  1.00  0.00     0.166 HD
HETATM   12  C   UNL     1      69.360   5.132   8.604  1.00  0.00     0.115 A 
ENDBRANCH   1   7
BRANCH   6  13
HETATM   13  C   UNL     1      64.816   8.466   5.055  1.00  0.00     0.202 C 
BRANCH  13  14
HETATM   14  O   UNL     1      64.678   9.714   5.721  1.00  0.00    -0.396 OA
HETATM   15  H   UNL     1      64.681   9.571   6.681  1.00  0.00     0.209 HD
ENDBRANCH  13  14
ENDBRANCH   6  13
TORSDOF 3
ENDMDL
MODEL 8
REMARK VINA RESULT:      -4.4     16.769     17.775
REMARK  3 active torsions:
REMARK  status: ('A' for Active; 'I' for Inactive)
REMARK    1  A    between atoms: N_1  and  C_5 
REMARK    2  A    between atoms: C_12  and  C_14 
REMARK    3  A    between atoms: O_13  and  C_14 
ROOT
HETATM    1  C   UNL     1      63.715   8.342   4.889  1.00  0.00     0.039 A 
HETATM    2  C   UNL     1      63.183   7.283   5.635  1.00  0.00     0.030 A 
HETATM    3  C   UNL     1      65.056   8.705   5.081  1.00  0.00     0.030 A 
HETATM    4  C   UNL     1      65.851   8.015   5.999  1.00  0.00     0.011 A 
HETATM    5  C   UNL     1      63.986   6.589   6.547  1.00  0.00     0.011 A 
HETATM    6  C   UNL     1      65.326   6.950   6.737  1.00  0.00    -0.035 A 
ENDROOT
BRANCH   1   7
HETATM    7  N   UNL     1      62.915   9.026   3.931  1.00  0.00    -0.317 N 
HETATM    8  C   UNL     1      62.230  10.212   4.104  1.00  0.00     0.188 A 
HETATM    9  N   UNL     1      61.537  10.558   3.042  1.00  0.00    -0.360 N 
HETATM   10  C   UNL     1      61.779   9.575   2.126  1.00  0.00     0.106 A 
ATOM     11  HN  UNL     1      60.946  11.381   2.927  1.00  0.00     0.166 HD
HETATM   12  C   UNL     1      62.640   8.635   2.638  1.00  0.00     0.115 A 
ENDBRANCH   1   7
BRANCH   6  13
HETATM   13  C   UNL     1      66.183   6.195   7.714  1.00  0.00     0.202 C 
BRANCH  13  14
HETATM   14  O   UNL     1      67.460   6.809   7.827  1.00  0.00    -0.396 OA
HETATM   15  H   UNL     1      67.350   7.766   7.944  1.00  0.00     0.209 HD
ENDBRANCH  13  14
ENDBRANCH   6  13
TORSDOF 3
ENDMDL
MODEL 9
REMARK VINA RESULT:      -4.3     17.989     18.904
REMARK  3 active torsions:
REMARK  status: ('A' for Active; 'I' for Inactive)
REMARK    1  A    between atoms: N_1  and  C_5 
REMARK    2  A    between atoms: C_12  and  C_14 
REMARK    3  A    between atoms: O_13  and  C_14 
ROOT
HETATM    1  C   UNL     1      63.221   8.093   3.421  1.00  0.00     0.039 A 
HETATM    2  C   UNL     1      63.464   9.040   4.425  1.00  0.00     0.030 A 
HETATM    3  C   UNL     1      64.103   7.013   3.274  1.00  0.00     0.030 A 
HETATM    4  C   UNL     1      65.207   6.881   4.121  1.00  0.00     0.011 A 
HETATM    5  C   UNL     1      64.566   8.897   5.276  1.00  0.00     0.011 A 
HETATM    6  C   UNL     1      65.447   7.818   5.130  1.00  0.00    -0.035 A 
ENDROOT
BRANCH   1   7
HETATM    7  N   UNL     1      62.080   8.210   2.578  1.00  0.00    -0.317 N 
HETATM    8  C   UNL     1      60.753   8.132   2.950  1.00  0.00     0.188 A 
HETATM    9  N   UNL     1      59.933   8.228   1.926  1.00  0.00    -0.360 N 
HETATM   10  C   UNL     1      60.743   8.388   0.839  1.00  0.00     0.106 A 
ATOM     11  HN  UNL     1      58.914   8.190   1.941  1.00  0.00     0.166 HD
HETATM   12  C   UNL     1      62.064   8.404   1.214  1.00  0.00     0.115 A 
ENDBRANCH   1   7
BRANCH   6  13
HETATM   13  C   UNL     1      66.624   7.670   6.053  1.00  0.00     0.202 C 
BRANCH  13  14
HETATM   14  O   UNL     1      66.773   8.836   6.852  1.00  0.00    -0.396 OA
HETATM   15  H   UNL     1      66.868   9.612   6.278  1.00  0.00     0.209 HD
ENDBRANCH  13  14
ENDBRANCH   6  13
TORSDOF 3
ENDMDL
