MODEL 1
REMARK VINA RESULT:      -5.2      0.000      0.000
REMARK  2 active torsions:
REMARK  status: ('A' for Active; 'I' for Inactive)
REMARK    1  A    between atoms: C_3  and  C_7 
REMARK    2  A    between atoms: C_9  and  N_10 
ROOT
HETATM    1  C   UNL     1      76.511   2.664  17.857  1.00  0.00    -0.007 A 
HETATM    2  C   UNL     1      77.055   3.956  17.920  1.00  0.00     0.042 A 
HETATM    3  C   UNL     1      76.384   5.053  17.369  1.00  0.00     0.026 A 
HETATM    4  C   UNL     1      75.279   2.479  17.214  1.00  0.00     0.014 A 
HETATM    5  C   UNL     1      74.625   3.559  16.621  1.00  0.00     0.003 A 
HETATM    6  C   UNL     1      75.190   4.833  16.679  1.00  0.00     0.029 A 
ENDROOT
BRANCH   1   7
HETATM    7  C   UNL     1      77.239   1.543  18.443  1.00  0.00     0.049 A 
HETATM    8  N   UNL     1      77.941   1.675  19.633  1.00  0.00    -0.353 N 
HETATM    9  C   UNL     1      78.506   0.531  19.954  1.00  0.00     0.047 A 
ATOM     10  HN  UNL     1      78.009   2.534  20.179  1.00  0.00     0.166 HD
HETATM   11  S   UNL     1      78.258  -0.755  18.841  1.00  0.00    -0.087 SA
HETATM   12  C   UNL     1      79.316   0.300  21.179  1.00  0.00     0.076 C 
HETATM   13  C   UNL     1      77.317   0.290  17.864  1.00  0.00     0.081 A 
ENDBRANCH   1   7
BRANCH   3  14
HETATM   14  N   UNL     1      77.013   6.303  17.297  1.00  0.00    -0.399 N 
HETATM   15  H   UNL     1      77.751   6.518  17.912  1.00  0.00     0.156 HD
HETATM   16  H   UNL     1      76.718   6.966  16.631  1.00  0.00     0.156 HD
ENDBRANCH   3  14
TORSDOF 2
ENDMDL
MODEL 2
REMARK VINA RESULT:      -5.1     16.790     18.962
REMARK  2 active torsions:
REMARK  status: ('A' for Active; 'I' for Inactive)
REMARK    1  A    between atoms: C_3  and  C_7 
REMARK    2  A    between atoms: C_9  and  N_10 
ROOT
HETATM    1  C   UNL     1      64.164   8.458   4.810  1.00  0.00    -0.007 A 
HETATM    2  C   UNL     1      63.707   9.717   5.228  1.00  0.00     0.042 A 
HETATM    3  C   UNL     1      62.683  10.381   4.543  1.00  0.00     0.026 A 
HETATM    4  C   UNL     1      63.588   7.871   3.676  1.00  0.00     0.014 A 
HETATM    5  C   UNL     1      62.598   8.545   2.960  1.00  0.00     0.003 A 
HETATM    6  C   UNL     1      62.169   9.804   3.380  1.00  0.00     0.029 A 
ENDROOT
BRANCH   1   7
HETATM    7  C   UNL     1      65.234   7.796   5.549  1.00  0.00     0.049 A 
HETATM    8  N   UNL     1      65.078   7.424   6.877  1.00  0.00    -0.353 N 
HETATM    9  C   UNL     1      66.175   6.844   7.316  1.00  0.00     0.047 A 
ATOM     10  HN  UNL     1      64.235   7.577   7.432  1.00  0.00     0.166 HD
HETATM   11  S   UNL     1      67.462   6.740   6.183  1.00  0.00    -0.087 SA
HETATM   12  C   UNL     1      66.353   6.296   8.687  1.00  0.00     0.076 C 
HETATM   13  C   UNL     1      66.477   7.515   5.015  1.00  0.00     0.081 A 
ENDBRANCH   1   7
BRANCH   3  14
HETATM   14  N   UNL     1      62.351  11.702   4.874  1.00  0.00    -0.399 N 
HETATM   15  H   UNL     1      61.460  11.908   5.238  1.00  0.00     0.156 HD
HETATM   16  H   UNL     1      63.009  12.422   4.744  1.00  0.00     0.156 HD
ENDBRANCH   3  14
TORSDOF 2
ENDMDL
MODEL 3
REMARK VINA RESULT:      -5.1     17.780     19.988
REMARK  2 active torsions:
REMARK  status: ('A' for Active; 'I' for Inactive)
REMARK    1  A    between atoms: C_3  and  C_7 
REMARK    2  A    between atoms: C_9  and  N_10 
ROOT
HETATM    1  C   UNL     1      63.271   8.979   4.655  1.00  0.00    -0.007 A 
HETATM    2  C   UNL     1      62.854   8.727   3.339  1.00  0.00     0.042 A 
HETATM    3  C   UNL     1      62.194   9.705   2.587  1.00  0.00     0.026 A 
HETATM    4  C   UNL     1      63.001  10.233   5.221  1.00  0.00     0.014 A 
HETATM    5  C   UNL     1      62.303  11.198   4.496  1.00  0.00     0.003 A 
HETATM    6  C   UNL     1      61.881  10.923   3.196  1.00  0.00     0.029 A 
ENDROOT
BRANCH   1   7
HETATM    7  C   UNL     1      63.957   7.936   5.409  1.00  0.00     0.049 A 
HETATM    8  N   UNL     1      65.132   8.192   6.101  1.00  0.00    -0.353 N 
HETATM    9  C   UNL     1      65.553   7.098   6.700  1.00  0.00     0.047 A 
ATOM     10  HN  UNL     1      65.602   9.097   6.140  1.00  0.00     0.166 HD
HETATM   11  S   UNL     1      64.589   5.698   6.445  1.00  0.00    -0.087 SA
HETATM   12  C   UNL     1      66.768   7.012   7.552  1.00  0.00     0.076 C 
HETATM   13  C   UNL     1      63.526   6.624   5.473  1.00  0.00     0.081 A 
ENDBRANCH   1   7
BRANCH   3  14
HETATM   14  N   UNL     1      61.643   9.385   1.339  1.00  0.00    -0.399 N 
HETATM   15  H   UNL     1      61.617   8.448   1.038  1.00  0.00     0.156 HD
HETATM   16  H   UNL     1      61.280  10.098   0.763  1.00  0.00     0.156 HD
ENDBRANCH   3  14
TORSDOF 2
ENDMDL
MODEL 4
REMARK VINA RESULT:      -4.9     17.768     19.970
REMARK  2 active torsions:
REMARK  status: ('A' for Active; 'I' for Inactive)
REMARK    1  A    between atoms: C_3  and  C_7 
REMARK    2  A    between atoms: C_9  and  N_10 
ROOT
HETATM    1  C   UNL     1      63.582   8.567   4.011  1.00  0.00    -0.007 A 
HETATM    2  C   UNL     1      63.885   9.385   5.111  1.00  0.00     0.042 A 
HETATM    3  C   UNL     1      63.183  10.572   5.346  1.00  0.00     0.026 A 
HETATM    4  C   UNL     1      62.566   8.965   3.132  1.00  0.00     0.014 A 
HETATM    5  C   UNL     1      61.892  10.169   3.332  1.00  0.00     0.003 A 
HETATM    6  C   UNL     1      62.218  10.978   4.421  1.00  0.00     0.029 A 
ENDROOT
BRANCH   1   7
HETATM    7  C   UNL     1      64.335   7.336   3.797  1.00  0.00     0.049 A 
HETATM    8  N   UNL     1      65.525   7.086   4.467  1.00  0.00    -0.353 N 
HETATM    9  C   UNL     1      66.008   5.915   4.108  1.00  0.00     0.047 A 
ATOM     10  HN  UNL     1      65.960   7.717   5.140  1.00  0.00     0.166 HD
HETATM   11  S   UNL     1      65.090   5.065   2.931  1.00  0.00    -0.087 SA
HETATM   12  C   UNL     1      67.257   5.313   4.646  1.00  0.00     0.076 C 
HETATM   13  C   UNL     1      63.957   6.349   2.907  1.00  0.00     0.081 A 
ENDBRANCH   1   7
BRANCH   3  14
HETATM   14  N   UNL     1      63.603  11.455   6.351  1.00  0.00    -0.399 N 
HETATM   15  H   UNL     1      63.094  11.523   7.190  1.00  0.00     0.156 HD
HETATM   16  H   UNL     1      64.408  12.006   6.217  1.00  0.00     0.156 HD
ENDBRANCH   3  14
TORSDOF 2
ENDMDL
MODEL 5
REMARK VINA RESULT:      -4.8     12.485     15.079
REMARK  2 active torsions:
REMARK  status: ('A' for Active; 'I' for Inactive)
REMARK    1  A    between atoms: C_3  and  C_7 
REMARK    2  A    between atoms: C_9  and  N_10 
ROOT
HETATM    1  C   UNL     1      68.274   4.886   8.215  1.00  0.00    -0.007 A 
HETATM    2  C   UNL     1      67.566   3.794   8.741  1.00  0.00     0.042 A 
HETATM    3  C   UNL     1      68.165   2.907   9.641  1.00  0.00     0.026 A 
HETATM    4  C   UNL     1      69.611   5.071   8.595  1.00  0.00     0.014 A 
HETATM    5  C   UNL     1      70.230   4.166   9.456  1.00  0.00     0.003 A 
HETATM    6  C   UNL     1      69.516   3.076   9.954  1.00  0.00     0.029 A 
ENDROOT
BRANCH   1   7
HETATM    7  C   UNL     1      67.617   5.792   7.279  1.00  0.00     0.049 A 
HETATM    8  N   UNL     1      67.647   5.569   5.909  1.00  0.00    -0.353 N 
HETATM    9  C   UNL     1      66.983   6.517   5.282  1.00  0.00     0.047 A 
ATOM     10  HN  UNL     1      68.115   4.784   5.455  1.00  0.00     0.166 HD
HETATM   11  S   UNL     1      66.315   7.741   6.286  1.00  0.00    -0.087 SA
HETATM   12  C   UNL     1      66.788   6.582   3.809  1.00  0.00     0.076 C 
HETATM   13  C   UNL     1      66.949   6.940   7.661  1.00  0.00     0.081 A 
ENDBRANCH   1   7
BRANCH   3  14
HETATM   14  N   UNL     1      67.499   1.736  10.028  1.00  0.00    -0.399 N 
HETATM   15  H   UNL     1      67.417   1.510  10.983  1.00  0.00     0.156 HD
HETATM   16  H   UNL     1      67.113   1.140   9.345  1.00  0.00     0.156 HD
ENDBRANCH   3  14
TORSDOF 2
ENDMDL
MODEL 6
REMARK VINA RESULT:      -4.7     18.238     20.426
REMARK  2 active torsions:
REMARK  status: ('A' for Active; 'I' for Inactive)
REMARK    1  A    between atoms: C_3  and  C_7 
REMARK    2  A    between atoms: C_9  and  N_10 
ROOT
HETATM    1  C   UNL     1      63.256   8.215   3.534  1.00  0.00    -0.007 A 
HETATM    2  C   UNL     1      62.730   9.510   3.656  1.00  0.00     0.042 A 
HETATM    3  C   UNL     1      61.953  10.076   2.640  1.00  0.00     0.026 A 
HETATM    4  C   UNL     1      63.003   7.490   2.361  1.00  0.00     0.014 A 
HETATM    5  C   UNL     1      62.267   8.063   1.324  1.00  0.00     0.003 A 
HETATM    6  C   UNL     1      61.768   9.359   1.456  1.00  0.00     0.029 A 
ENDROOT
BRANCH   1   7
HETATM    7  C   UNL     1      64.062   7.657   4.614  1.00  0.00     0.049 A 
HETATM    8  N   UNL     1      65.449   7.631   4.547  1.00  0.00    -0.353 N 
HETATM    9  C   UNL     1      65.944   7.085   5.638  1.00  0.00     0.047 A 
ATOM     10  HN  UNL     1      66.003   7.983   3.767  1.00  0.00     0.166 HD
HETATM   11  S   UNL     1      64.785   6.546   6.787  1.00  0.00    -0.087 SA
HETATM   12  C   UNL     1      67.394   6.917   5.919  1.00  0.00     0.076 C 
HETATM   13  C   UNL     1      63.530   7.091   5.757  1.00  0.00     0.081 A 
ENDBRANCH   1   7
BRANCH   3  14
HETATM   14  N   UNL     1      61.574  11.424   2.707  1.00  0.00    -0.399 N 
HETATM   15  H   UNL     1      60.769  11.684   3.210  1.00  0.00     0.156 HD
HETATM   16  H   UNL     1      62.114  12.111   2.251  1.00  0.00     0.156 HD
ENDBRANCH   3  14
TORSDOF 2
ENDMDL
MODEL 7
REMARK VINA RESULT:      -4.7     13.192     15.280
REMARK  2 active torsions:
REMARK  status: ('A' for Active; 'I' for Inactive)
REMARK    1  A    between atoms: C_3  and  C_7 
REMARK    2  A    between atoms: C_9  and  N_10 
ROOT
HETATM    1  C   UNL     1      67.041   6.383   6.770  1.00  0.00    -0.007 A 
HETATM    2  C   UNL     1      65.666   6.512   7.023  1.00  0.00     0.042 A 
HETATM    3  C   UNL     1      64.842   7.268   6.182  1.00  0.00     0.026 A 
HETATM    4  C   UNL     1      67.589   7.041   5.661  1.00  0.00     0.014 A 
HETATM    5  C   UNL     1      66.784   7.834   4.843  1.00  0.00     0.003 A 
HETATM    6  C   UNL     1      65.423   7.964   5.120  1.00  0.00     0.029 A 
ENDROOT
BRANCH   1   7
HETATM    7  C   UNL     1      67.869   5.587   7.669  1.00  0.00     0.049 A 
HETATM    8  N   UNL     1      69.228   5.830   7.812  1.00  0.00    -0.353 N 
HETATM    9  C   UNL     1      69.750   4.987   8.677  1.00  0.00     0.047 A 
ATOM     10  HN  UNL     1      69.747   6.557   7.319  1.00  0.00     0.166 HD
HETATM   11  S   UNL     1      68.658   3.839   9.343  1.00  0.00    -0.087 SA
HETATM   12  C   UNL     1      71.178   4.974   9.093  1.00  0.00     0.076 C 
HETATM   13  C   UNL     1      67.392   4.526   8.416  1.00  0.00     0.081 A 
ENDBRANCH   1   7
BRANCH   3  14
HETATM   14  N   UNL     1      63.509   7.519   6.537  1.00  0.00    -0.399 N 
HETATM   15  H   UNL     1      63.165   7.208   7.405  1.00  0.00     0.156 HD
HETATM   16  H   UNL     1      62.919   8.007   5.918  1.00  0.00     0.156 HD
ENDBRANCH   3  14
TORSDOF 2
ENDMDL
MODEL 8
REMARK VINA RESULT:      -4.6     21.386     22.929
REMARK  2 active torsions:
REMARK  status: ('A' for Active; 'I' for Inactive)
REMARK    1  A    between atoms: C_3  and  C_7 
REMARK    2  A    between atoms: C_9  and  N_10 
ROOT
HETATM    1  C   UNL     1      62.420   8.978   2.154  1.00  0.00    -0.007 A 
HETATM    2  C   UNL     1      62.745   8.864   3.514  1.00  0.00     0.042 A 
HETATM    3  C   UNL     1      62.545   9.930   4.399  1.00  0.00     0.026 A 
HETATM    4  C   UNL     1      61.901  10.191   1.681  1.00  0.00     0.014 A 
HETATM    5  C   UNL     1      61.742  11.274   2.546  1.00  0.00     0.003 A 
HETATM    6  C   UNL     1      62.087  11.148   3.891  1.00  0.00     0.029 A 
ENDROOT
BRANCH   1   7
HETATM    7  C   UNL     1      62.641   7.846   1.261  1.00  0.00     0.049 A 
HETATM    8  N   UNL     1      62.438   7.949  -0.109  1.00  0.00    -0.353 N 
HETATM    9  C   UNL     1      62.707   6.801  -0.694  1.00  0.00     0.047 A 
ATOM     10  HN  UNL     1      62.127   8.792  -0.591  1.00  0.00     0.166 HD
HETATM   11  S   UNL     1      63.184   5.528   0.358  1.00  0.00    -0.087 SA
HETATM   12  C   UNL     1      62.623   6.556  -2.158  1.00  0.00     0.076 C 
HETATM   13  C   UNL     1      63.032   6.592   1.692  1.00  0.00     0.081 A 
ENDBRANCH   1   7
BRANCH   3  14
HETATM   14  N   UNL     1      63.024   9.856   5.714  1.00  0.00    -0.399 N 
HETATM   15  H   UNL     1      63.980   9.690   5.881  1.00  0.00     0.156 HD
HETATM   16  H   UNL     1      62.404   9.972   6.471  1.00  0.00     0.156 HD
ENDBRANCH   3  14
TORSDOF 2
ENDMDL
MODEL 9
REMARK VINA RESULT:      -4.6     12.574     14.573
REMARK  2 active torsions:
REMARK  status: ('A' for Active; 'I' for Inactive)
REMARK    1  A    between atoms: C_3  and  C_7 
REMARK    2  A    between atoms: C_9  and  N_10 
ROOT
HETATM    1  C   UNL     1      67.178   5.681   7.482  1.00  0.00    -0.007 A 
HETATM    2  C   UNL     1      67.867   6.339   6.452  1.00  0.00     0.042 A 
HETATM    3  C   UNL     1      67.216   7.242   5.605  1.00  0.00     0.026 A 
HETATM    4  C   UNL     1      65.808   5.930   7.646  1.00  0.00     0.014 A 
HETATM    5  C   UNL     1      65.141   6.794   6.778  1.00  0.00     0.003 A 
HETATM    6  C   UNL     1      65.839   7.425   5.749  1.00  0.00     0.029 A 
ENDROOT
BRANCH   1   7
HETATM    7  C   UNL     1      67.890   4.745   8.346  1.00  0.00     0.049 A 
HETATM    8  N   UNL     1      67.290   3.582   8.809  1.00  0.00    -0.353 N 
HETATM    9  C   UNL     1      68.132   2.907   9.562  1.00  0.00     0.047 A 
ATOM     10  HN  UNL     1      66.335   3.293   8.596  1.00  0.00     0.166 HD
HETATM   11  S   UNL     1      69.672   3.636   9.786  1.00  0.00    -0.087 SA
HETATM   12  C   UNL     1      67.834   1.600  10.205  1.00  0.00     0.076 C 
HETATM   13  C   UNL     1      69.182   4.944   8.794  1.00  0.00     0.081 A 
ENDBRANCH   1   7
BRANCH   3  14
HETATM   14  N   UNL     1      67.878   7.764   4.485  1.00  0.00    -0.399 N 
HETATM   15  H   UNL     1      67.626   8.649   4.134  1.00  0.00     0.156 HD
HETATM   16  H   UNL     1      68.594   7.247   4.050  1.00  0.00     0.156 HD
ENDBRANCH   3  14
TORSDOF 2
ENDMDL
