MODEL 1
REMARK VINA RESULT:      -6.9      0.000      0.000
REMARK  3 active torsions:
REMARK  status: ('A' for Active; 'I' for Inactive)
REMARK    1  A    between atoms: C_3  and  C_9 
REMARK    2  A    between atoms: C_6  and  C_10 
REMARK    3  A    between atoms: C_10  and  O_11 
ROOT
HETATM    1  N   UNL     1      77.032  10.945  18.392  1.00  0.00    -0.345 N 
ATOM      2  HN  UNL     1      76.164  11.035  17.863  1.00  0.00     0.167 HD
HETATM    3  C   UNL     1      77.950  10.017  18.062  1.00  0.00     0.115 A 
HETATM    4  N   UNL     1      79.114   9.851  18.713  1.00  0.00    -0.351 N 
ATOM      5  HN  UNL     1      79.790   9.140  18.434  1.00  0.00     0.166 HD
HETATM    6  C   UNL     1      78.464  11.662  20.175  1.00  0.00     0.003 A 
HETATM    7  C   UNL     1      77.291  11.757  19.443  1.00  0.00     0.016 A 
HETATM    8  C   UNL     1      79.338  10.676  19.754  1.00  0.00     0.101 A 
HETATM    9  C   UNL     1      76.204  12.747  19.741  1.00  0.00     0.069 C 
ENDROOT
BRANCH   3  10
HETATM   10  C   UNL     1      77.651   9.130  16.919  1.00  0.00     0.008 A 
HETATM   11  C   UNL     1      77.816   9.569  15.590  1.00  0.00     0.015 A 
HETATM   12  C   UNL     1      77.536   8.738  14.501  1.00  0.00     0.001 A 
HETATM   13  C   UNL     1      77.081   7.441  14.716  1.00  0.00     0.000 A 
HETATM   14  C   UNL     1      76.906   6.978  16.016  1.00  0.00     0.001 A 
HETATM   15  C   UNL     1      77.187   7.814  17.103  1.00  0.00     0.015 A 
ENDBRANCH   3  10
BRANCH   6  16
HETATM   16  C   UNL     1      78.797  12.519  21.354  1.00  0.00     0.206 C 
BRANCH  16  17
HETATM   17  O   UNL     1      78.833  11.757  22.552  1.00  0.00    -0.396 OA
HETATM   18  H   UNL     1      77.967  11.795  22.987  1.00  0.00     0.209 HD
ENDBRANCH  16  17
ENDBRANCH   6  16
TORSDOF 3
ENDMDL
MODEL 2
REMARK VINA RESULT:      -6.8      5.231      7.722
REMARK  3 active torsions:
REMARK  status: ('A' for Active; 'I' for Inactive)
REMARK    1  A    between atoms: C_3  and  C_9 
REMARK    2  A    between atoms: C_6  and  C_10 
REMARK    3  A    between atoms: C_10  and  O_11 
ROOT
HETATM    1  N   UNL     1      77.147   3.956  17.796  1.00  0.00    -0.345 N 
ATOM      2  HN  UNL     1      78.043   4.334  18.101  1.00  0.00     0.167 HD
HETATM    3  C   UNL     1      76.267   4.721  17.122  1.00  0.00     0.115 A 
HETATM    4  N   UNL     1      75.073   4.282  16.687  1.00  0.00    -0.351 N 
ATOM      5  HN  UNL     1      74.431   4.887  16.175  1.00  0.00     0.166 HD
HETATM    6  C   UNL     1      75.602   2.130  17.650  1.00  0.00     0.003 A 
HETATM    7  C   UNL     1      76.810   2.671  18.058  1.00  0.00     0.016 A 
HETATM    8  C   UNL     1      74.772   2.999  16.965  1.00  0.00     0.101 A 
HETATM    9  C   UNL     1      77.847   1.906  18.825  1.00  0.00     0.069 C 
ENDROOT
BRANCH   3  10
HETATM   10  C   UNL     1      76.642   6.124  16.852  1.00  0.00     0.008 A 
HETATM   11  C   UNL     1      76.765   7.062  17.897  1.00  0.00     0.015 A 
HETATM   12  C   UNL     1      77.119   8.392  17.652  1.00  0.00     0.001 A 
HETATM   13  C   UNL     1      77.361   8.819  16.350  1.00  0.00     0.000 A 
HETATM   14  C   UNL     1      77.247   7.917  15.296  1.00  0.00     0.001 A 
HETATM   15  C   UNL     1      76.891   6.587  15.546  1.00  0.00     0.015 A 
ENDBRANCH   3  10
BRANCH   6  16
HETATM   16  C   UNL     1      75.170   0.725  17.923  1.00  0.00     0.206 C 
BRANCH  16  17
HETATM   17  O   UNL     1      74.293   0.663  19.040  1.00  0.00    -0.396 OA
HETATM   18  H   UNL     1      74.653   1.199  19.764  1.00  0.00     0.209 HD
ENDBRANCH  16  17
ENDBRANCH   6  16
TORSDOF 3
ENDMDL
MODEL 3
REMARK VINA RESULT:      -5.8     16.443     18.658
REMARK  3 active torsions:
REMARK  status: ('A' for Active; 'I' for Inactive)
REMARK    1  A    between atoms: C_3  and  C_9 
REMARK    2  A    between atoms: C_6  and  C_10 
REMARK    3  A    between atoms: C_10  and  O_11 
ROOT
HETATM    1  N   UNL     1      65.927   8.240   5.078  1.00  0.00    -0.345 N 
ATOM      2  HN  UNL     1      66.213   8.827   4.294  1.00  0.00     0.167 HD
HETATM    3  C   UNL     1      64.634   8.166   5.449  1.00  0.00     0.115 A 
HETATM    4  N   UNL     1      64.191   7.409   6.468  1.00  0.00    -0.351 N 
ATOM      5  HN  UNL     1      63.204   7.372   6.720  1.00  0.00     0.166 HD
HETATM    6  C   UNL     1      66.474   6.708   6.838  1.00  0.00     0.003 A 
HETATM    7  C   UNL     1      66.836   7.517   5.772  1.00  0.00     0.016 A 
HETATM    8  C   UNL     1      65.124   6.703   7.136  1.00  0.00     0.101 A 
HETATM    9  C   UNL     1      68.249   7.678   5.294  1.00  0.00     0.069 C 
ENDROOT
BRANCH   3  10
HETATM   10  C   UNL     1      63.654   8.968   4.690  1.00  0.00     0.008 A 
HETATM   11  C   UNL     1      63.196  10.211   5.172  1.00  0.00     0.015 A 
HETATM   12  C   UNL     1      62.268  10.978   4.461  1.00  0.00     0.001 A 
HETATM   13  C   UNL     1      61.773  10.519   3.245  1.00  0.00     0.000 A 
HETATM   14  C   UNL     1      62.204   9.296   2.743  1.00  0.00     0.001 A 
HETATM   15  C   UNL     1      63.132   8.530   3.458  1.00  0.00     0.015 A 
ENDBRANCH   3  10
BRANCH   6  16
HETATM   16  C   UNL     1      67.435   5.900   7.650  1.00  0.00     0.206 C 
BRANCH  16  17
HETATM   17  O   UNL     1      67.915   6.638   8.765  1.00  0.00    -0.396 OA
HETATM   18  H   UNL     1      67.729   6.149   9.582  1.00  0.00     0.209 HD
ENDBRANCH  16  17
ENDBRANCH   6  16
TORSDOF 3
ENDMDL
MODEL 4
REMARK VINA RESULT:      -5.7     14.148     16.192
REMARK  3 active torsions:
REMARK  status: ('A' for Active; 'I' for Inactive)
REMARK    1  A    between atoms: C_3  and  C_9 
REMARK    2  A    between atoms: C_6  and  C_10 
REMARK    3  A    between atoms: C_10  and  O_11 
ROOT
HETATM    1  N   UNL     1      67.955   6.503   6.552  1.00  0.00    -0.345 N 
ATOM      2  HN  UNL     1      68.956   6.395   6.387  1.00  0.00     0.167 HD
HETATM    3  C   UNL     1      67.335   5.801   7.520  1.00  0.00     0.115 A 
HETATM    4  N   UNL     1      66.022   5.900   7.792  1.00  0.00    -0.351 N 
ATOM      5  HN  UNL     1      65.584   5.357   8.536  1.00  0.00     0.166 HD
HETATM    6  C   UNL     1      65.856   7.523   6.009  1.00  0.00     0.003 A 
HETATM    7  C   UNL     1      67.216   7.353   5.803  1.00  0.00     0.016 A 
HETATM    8  C   UNL     1      65.318   6.757   7.027  1.00  0.00     0.101 A 
HETATM    9  C   UNL     1      67.992   8.076   4.742  1.00  0.00     0.069 C 
ENDROOT
BRANCH   3  10
HETATM   10  C   UNL     1      68.151   4.868   8.323  1.00  0.00     0.008 A 
HETATM   11  C   UNL     1      69.500   5.146   8.620  1.00  0.00     0.015 A 
HETATM   12  C   UNL     1      70.282   4.270   9.379  1.00  0.00     0.001 A 
HETATM   13  C   UNL     1      69.729   3.088   9.863  1.00  0.00     0.000 A 
HETATM   14  C   UNL     1      68.400   2.784   9.586  1.00  0.00     0.001 A 
HETATM   15  C   UNL     1      67.622   3.664   8.824  1.00  0.00     0.015 A 
ENDBRANCH   3  10
BRANCH   6  16
HETATM   16  C   UNL     1      64.986   8.436   5.204  1.00  0.00     0.206 C 
BRANCH  16  17
HETATM   17  O   UNL     1      64.881   9.716   5.813  1.00  0.00    -0.396 OA
HETATM   18  H   UNL     1      65.281  10.383   5.233  1.00  0.00     0.209 HD
ENDBRANCH  16  17
ENDBRANCH   6  16
TORSDOF 3
ENDMDL
MODEL 5
REMARK VINA RESULT:      -5.6      7.163      9.394
REMARK  3 active torsions:
REMARK  status: ('A' for Active; 'I' for Inactive)
REMARK    1  A    between atoms: C_3  and  C_9 
REMARK    2  A    between atoms: C_6  and  C_10 
REMARK    3  A    between atoms: C_10  and  O_11 
ROOT
HETATM    1  N   UNL     1      77.224   0.626  17.914  1.00  0.00    -0.345 N 
ATOM      2  HN  UNL     1      76.624   0.408  17.118  1.00  0.00     0.167 HD
HETATM    3  C   UNL     1      77.278   1.874  18.418  1.00  0.00     0.115 A 
HETATM    4  N   UNL     1      78.043   2.225  19.466  1.00  0.00    -0.351 N 
ATOM      5  HN  UNL     1      78.058   3.179  19.826  1.00  0.00     0.166 HD
HETATM    6  C   UNL     1      78.807  -0.066  19.575  1.00  0.00     0.003 A 
HETATM    7  C   UNL     1      77.986  -0.332  18.490  1.00  0.00     0.016 A 
HETATM    8  C   UNL     1      78.788   1.245  20.014  1.00  0.00     0.101 A 
HETATM    9  C   UNL     1      77.869  -1.683  17.849  1.00  0.00     0.069 C 
ENDROOT
BRANCH   3  10
HETATM   10  C   UNL     1      76.449   2.912  17.773  1.00  0.00     0.008 A 
HETATM   11  C   UNL     1      76.881   4.252  17.702  1.00  0.00     0.015 A 
HETATM   12  C   UNL     1      76.103   5.243  17.093  1.00  0.00     0.001 A 
HETATM   13  C   UNL     1      74.870   4.916  16.540  1.00  0.00     0.000 A 
HETATM   14  C   UNL     1      74.415   3.603  16.596  1.00  0.00     0.001 A 
HETATM   15  C   UNL     1      75.196   2.614  17.206  1.00  0.00     0.015 A 
ENDBRANCH   3  10
BRANCH   6  16
HETATM   16  C   UNL     1      79.681  -1.078  20.242  1.00  0.00     0.206 C 
BRANCH  16  17
HETATM   17  O   UNL     1      80.283  -0.547  21.414  1.00  0.00    -0.396 OA
HETATM   18  H   UNL     1      80.369  -1.247  22.080  1.00  0.00     0.209 HD
ENDBRANCH  16  17
ENDBRANCH   6  16
TORSDOF 3
ENDMDL
MODEL 6
REMARK VINA RESULT:      -5.6     14.173     16.473
REMARK  3 active torsions:
REMARK  status: ('A' for Active; 'I' for Inactive)
REMARK    1  A    between atoms: C_3  and  C_9 
REMARK    2  A    between atoms: C_6  and  C_10 
REMARK    3  A    between atoms: C_10  and  O_11 
ROOT
HETATM    1  N   UNL     1      65.938   5.521   7.116  1.00  0.00    -0.345 N 
ATOM      2  HN  UNL     1      65.604   4.606   7.418  1.00  0.00     0.167 HD
HETATM    3  C   UNL     1      67.186   5.933   7.410  1.00  0.00     0.115 A 
HETATM    4  N   UNL     1      67.688   7.123   7.038  1.00  0.00    -0.351 N 
ATOM      5  HN  UNL     1      68.640   7.403   7.273  1.00  0.00     0.166 HD
HETATM    6  C   UNL     1      65.567   7.600   5.982  1.00  0.00     0.003 A 
HETATM    7  C   UNL     1      65.138   6.353   6.410  1.00  0.00     0.016 A 
HETATM    8  C   UNL     1      66.864   7.925   6.336  1.00  0.00     0.101 A 
HETATM    9  C   UNL     1      63.764   5.812   6.145  1.00  0.00     0.069 C 
ENDROOT
BRANCH   3  10
HETATM   10  C   UNL     1      68.045   5.020   8.191  1.00  0.00     0.008 A 
HETATM   11  C   UNL     1      67.544   3.810   8.710  1.00  0.00     0.015 A 
HETATM   12  C   UNL     1      68.349   2.938   9.450  1.00  0.00     0.001 A 
HETATM   13  C   UNL     1      69.682   3.258   9.690  1.00  0.00     0.000 A 
HETATM   14  C   UNL     1      70.206   4.447   9.192  1.00  0.00     0.001 A 
HETATM   15  C   UNL     1      69.396   5.316   8.453  1.00  0.00     0.015 A 
ENDBRANCH   3  10
BRANCH   6  16
HETATM   16  C   UNL     1      64.724   8.566   5.213  1.00  0.00     0.206 C 
BRANCH  16  17
HETATM   17  O   UNL     1      64.738   9.854   5.814  1.00  0.00    -0.396 OA
HETATM   18  H   UNL     1      64.774   9.760   6.779  1.00  0.00     0.209 HD
ENDBRANCH  16  17
ENDBRANCH   6  16
TORSDOF 3
ENDMDL
MODEL 7
REMARK VINA RESULT:      -5.4     16.948     19.168
REMARK  3 active torsions:
REMARK  status: ('A' for Active; 'I' for Inactive)
REMARK    1  A    between atoms: C_3  and  C_9 
REMARK    2  A    between atoms: C_6  and  C_10 
REMARK    3  A    between atoms: C_10  and  O_11 
ROOT
HETATM    1  N   UNL     1      63.763   6.771   5.605  1.00  0.00    -0.345 N 
ATOM      2  HN  UNL     1      62.861   6.513   5.206  1.00  0.00     0.167 HD
HETATM    3  C   UNL     1      64.246   8.021   5.468  1.00  0.00     0.115 A 
HETATM    4  N   UNL     1      65.424   8.427   5.973  1.00  0.00    -0.351 N 
ATOM      5  HN  UNL     1      65.759   9.383   5.856  1.00  0.00     0.166 HD
HETATM    6  C   UNL     1      65.732   6.193   6.842  1.00  0.00     0.003 A 
HETATM    7  C   UNL     1      64.506   5.867   6.285  1.00  0.00     0.016 A 
HETATM    8  C   UNL     1      66.136   7.501   6.644  1.00  0.00     0.101 A 
HETATM    9  C   UNL     1      63.891   4.502   6.370  1.00  0.00     0.069 C 
ENDROOT
BRANCH   3  10
HETATM   10  C   UNL     1      63.431   8.995   4.715  1.00  0.00     0.008 A 
HETATM   11  C   UNL     1      63.110  10.255   5.258  1.00  0.00     0.015 A 
HETATM   12  C   UNL     1      62.338  11.185   4.553  1.00  0.00     0.001 A 
HETATM   13  C   UNL     1      61.868  10.875   3.282  1.00  0.00     0.000 A 
HETATM   14  C   UNL     1      62.166   9.638   2.718  1.00  0.00     0.001 A 
HETATM   15  C   UNL     1      62.938   8.711   3.428  1.00  0.00     0.015 A 
ENDBRANCH   3  10
BRANCH   6  16
HETATM   16  C   UNL     1      66.603   5.234   7.589  1.00  0.00     0.206 C 
BRANCH  16  17
HETATM   17  O   UNL     1      66.204   5.129   8.949  1.00  0.00    -0.396 OA
HETATM   18  H   UNL     1      65.507   4.460   9.031  1.00  0.00     0.209 HD
ENDBRANCH  16  17
ENDBRANCH   6  16
TORSDOF 3
ENDMDL
MODEL 8
REMARK VINA RESULT:      -5.2     17.053     19.354
REMARK  3 active torsions:
REMARK  status: ('A' for Active; 'I' for Inactive)
REMARK    1  A    between atoms: C_3  and  C_9 
REMARK    2  A    between atoms: C_6  and  C_10 
REMARK    3  A    between atoms: C_10  and  O_11 
ROOT
HETATM    1  N   UNL     1      64.144   7.599   3.904  1.00  0.00    -0.345 N 
ATOM      2  HN  UNL     1      64.424   6.729   3.452  1.00  0.00     0.167 HD
HETATM    3  C   UNL     1      64.725   8.001   5.051  1.00  0.00     0.115 A 
HETATM    4  N   UNL     1      64.406   9.137   5.693  1.00  0.00    -0.351 N 
ATOM      5  HN  UNL     1      64.869   9.415   6.558  1.00  0.00     0.166 HD
HETATM    6  C   UNL     1      62.781   9.570   3.957  1.00  0.00     0.003 A 
HETATM    7  C   UNL     1      63.178   8.380   3.367  1.00  0.00     0.016 A 
HETATM    8  C   UNL     1      63.441   9.890   5.130  1.00  0.00     0.101 A 
HETATM    9  C   UNL     1      62.582   7.841   2.100  1.00  0.00     0.069 C 
ENDROOT
BRANCH   3  10
HETATM   10  C   UNL     1      65.771   7.134   5.632  1.00  0.00     0.008 A 
HETATM   11  C   UNL     1      66.554   6.289   4.820  1.00  0.00     0.015 A 
HETATM   12  C   UNL     1      67.546   5.464   5.360  1.00  0.00     0.001 A 
HETATM   13  C   UNL     1      67.780   5.465   6.732  1.00  0.00     0.000 A 
HETATM   14  C   UNL     1      67.022   6.287   7.560  1.00  0.00     0.001 A 
HETATM   15  C   UNL     1      66.030   7.110   7.015  1.00  0.00     0.015 A 
ENDBRANCH   3  10
BRANCH   6  16
HETATM   16  C   UNL     1      61.711  10.464   3.419  1.00  0.00     0.206 C 
BRANCH  16  17
HETATM   17  O   UNL     1      61.950  11.821   3.769  1.00  0.00    -0.396 OA
HETATM   18  H   UNL     1      62.275  12.303   2.992  1.00  0.00     0.209 HD
ENDBRANCH  16  17
ENDBRANCH   6  16
TORSDOF 3
ENDMDL
MODEL 9
REMARK VINA RESULT:      -5.1      7.476      9.726
REMARK  3 active torsions:
REMARK  status: ('A' for Active; 'I' for Inactive)
REMARK    1  A    between atoms: C_3  and  C_9 
REMARK    2  A    between atoms: C_6  and  C_10 
REMARK    3  A    between atoms: C_10  and  O_11 
ROOT
HETATM    1  N   UNL     1      77.659   1.616  19.167  1.00  0.00    -0.345 N 
ATOM      2  HN  UNL     1      77.656   2.476  19.714  1.00  0.00     0.167 HD
HETATM    3  C   UNL     1      76.988   1.536  18.002  1.00  0.00     0.115 A 
HETATM    4  N   UNL     1      76.956   0.435  17.231  1.00  0.00    -0.351 N 
ATOM      5  HN  UNL     1      76.441   0.408  16.351  1.00  0.00     0.166 HD
HETATM    6  C   UNL     1      78.363  -0.655  18.866  1.00  0.00     0.003 A 
HETATM    7  C   UNL     1      78.338   0.525  19.592  1.00  0.00     0.016 A 
HETATM    8  C   UNL     1      77.642  -0.632  17.686  1.00  0.00     0.101 A 
HETATM    9  C   UNL     1      79.040   0.708  20.905  1.00  0.00     0.069 C 
ENDROOT
BRANCH   3  10
HETATM   10  C   UNL     1      76.243   2.730  17.554  1.00  0.00     0.008 A 
HETATM   11  C   UNL     1      74.941   2.623  17.023  1.00  0.00     0.015 A 
HETATM   12  C   UNL     1      74.227   3.747  16.596  1.00  0.00     0.001 A 
HETATM   13  C   UNL     1      74.800   5.011  16.691  1.00  0.00     0.000 A 
HETATM   14  C   UNL     1      76.083   5.150  17.209  1.00  0.00     0.001 A 
HETATM   15  C   UNL     1      76.795   4.022  17.634  1.00  0.00     0.015 A 
ENDBRANCH   3  10
BRANCH   6  16
HETATM   16  C   UNL     1      79.082  -1.895  19.293  1.00  0.00     0.206 C 
BRANCH  16  17
HETATM   17  O   UNL     1      80.425  -1.897  18.830  1.00  0.00    -0.396 OA
HETATM   18  H   UNL     1      80.530  -1.227  18.136  1.00  0.00     0.209 HD
ENDBRANCH  16  17
ENDBRANCH   6  16
TORSDOF 3
ENDMDL
