MODEL 1
REMARK VINA RESULT:      -6.0      0.000      0.000
REMARK  3 active torsions:
REMARK  status: ('A' for Active; 'I' for Inactive)
REMARK    1  A    between atoms: C_1  and  C_8 
REMARK    2  A    between atoms: C_2  and  C_7 
REMARK    3  A    between atoms: C_8  and  O_9 
ROOT
HETATM    1  C   UNL     1      76.050   3.490  17.614  1.00  0.00     0.026 A 
HETATM    2  C   UNL     1      75.688   4.680  17.005  1.00  0.00     0.119 A 
HETATM    3  O   UNL     1      74.425   4.547  16.505  1.00  0.00    -0.236 OA
HETATM    4  N   UNL     1      73.944   3.281  16.762  1.00  0.00    -0.265 N 
ATOM      5  HN  UNL     1      73.032   2.905  16.502  1.00  0.00     0.194 HD
HETATM    6  C   UNL     1      74.919   2.647  17.421  1.00  0.00     0.040 A 
HETATM    7  C   UNL     1      74.725   1.234  17.826  1.00  0.00     0.071 C 
ENDROOT
BRANCH   2   8
HETATM    8  C   UNL     1      76.325   5.973  16.770  1.00  0.00     0.000 A 
HETATM    9  C   UNL     1      76.583   6.845  17.841  1.00  0.00     0.014 A 
HETATM   10  C   UNL     1      77.141   8.107  17.622  1.00  0.00     0.001 A 
HETATM   11  C   UNL     1      77.456   8.517  16.329  1.00  0.00     0.000 A 
HETATM   12  C   UNL     1      77.228   7.659  15.258  1.00  0.00     0.001 A 
HETATM   13  C   UNL     1      76.672   6.395  15.478  1.00  0.00     0.014 A 
ENDBRANCH   2   8
BRANCH   1  14
HETATM   14  C   UNL     1      77.323   3.144  18.285  1.00  0.00     0.207 C 
BRANCH  14  15
HETATM   15  O   UNL     1      77.399   3.708  19.590  1.00  0.00    -0.396 OA
HETATM   16  H   UNL     1      77.129   4.639  19.555  1.00  0.00     0.209 HD
ENDBRANCH  14  15
ENDBRANCH   1  14
TORSDOF 3
ENDMDL
MODEL 2
REMARK VINA RESULT:      -5.7     16.555     17.661
REMARK  3 active torsions:
REMARK  status: ('A' for Active; 'I' for Inactive)
REMARK    1  A    between atoms: C_1  and  C_8 
REMARK    2  A    between atoms: C_2  and  C_7 
REMARK    3  A    between atoms: C_8  and  O_9 
ROOT
HETATM    1  C   UNL     1      64.363   7.098   6.187  1.00  0.00     0.026 A 
HETATM    2  C   UNL     1      64.399   8.347   5.589  1.00  0.00     0.119 A 
HETATM    3  O   UNL     1      65.591   8.939   5.890  1.00  0.00    -0.236 OA
HETATM    4  N   UNL     1      66.346   8.108   6.691  1.00  0.00    -0.265 N 
ATOM      5  HN  UNL     1      67.275   8.294   7.066  1.00  0.00     0.194 HD
HETATM    6  C   UNL     1      65.607   7.008   6.873  1.00  0.00     0.040 A 
HETATM    7  C   UNL     1      66.131   5.913   7.723  1.00  0.00     0.071 C 
ENDROOT
BRANCH   2   8
HETATM    8  C   UNL     1      63.491   9.142   4.767  1.00  0.00     0.000 A 
HETATM    9  C   UNL     1      63.078   8.677   3.507  1.00  0.00     0.014 A 
HETATM   10  C   UNL     1      62.254   9.453   2.689  1.00  0.00     0.001 A 
HETATM   11  C   UNL     1      61.823  10.705   3.118  1.00  0.00     0.000 A 
HETATM   12  C   UNL     1      62.204  11.174   4.371  1.00  0.00     0.001 A 
HETATM   13  C   UNL     1      63.026  10.395   5.191  1.00  0.00     0.014 A 
ENDBRANCH   2   8
BRANCH   1  14
HETATM   14  C   UNL     1      63.278   6.091   6.161  1.00  0.00     0.207 C 
BRANCH  14  15
HETATM   15  O   UNL     1      62.063   6.615   6.687  1.00  0.00    -0.396 OA
HETATM   16  H   UNL     1      61.856   6.171   7.524  1.00  0.00     0.209 HD
ENDBRANCH  14  15
ENDBRANCH   1  14
TORSDOF 3
ENDMDL
MODEL 3
REMARK VINA RESULT:      -5.3     16.016     17.160
REMARK  3 active torsions:
REMARK  status: ('A' for Active; 'I' for Inactive)
REMARK    1  A    between atoms: C_1  and  C_8 
REMARK    2  A    between atoms: C_2  and  C_7 
REMARK    3  A    between atoms: C_8  and  O_9 
ROOT
HETATM    1  C   UNL     1      66.087   7.358   5.432  1.00  0.00     0.026 A 
HETATM    2  C   UNL     1      64.799   7.849   5.566  1.00  0.00     0.119 A 
HETATM    3  O   UNL     1      64.350   7.559   6.822  1.00  0.00    -0.236 OA
HETATM    4  N   UNL     1      65.316   6.869   7.524  1.00  0.00    -0.265 N 
ATOM      5  HN  UNL     1      65.252   6.525   8.481  1.00  0.00     0.194 HD
HETATM    6  C   UNL     1      66.353   6.745   6.689  1.00  0.00     0.040 A 
HETATM    7  C   UNL     1      67.564   6.017   7.138  1.00  0.00     0.071 C 
ENDROOT
BRANCH   2   8
HETATM    8  C   UNL     1      63.852   8.556   4.707  1.00  0.00     0.000 A 
HETATM    9  C   UNL     1      63.286   9.772   5.120  1.00  0.00     0.014 A 
HETATM   10  C   UNL     1      62.337  10.429   4.331  1.00  0.00     0.001 A 
HETATM   11  C   UNL     1      61.944   9.882   3.113  1.00  0.00     0.000 A 
HETATM   12  C   UNL     1      62.509   8.689   2.677  1.00  0.00     0.001 A 
HETATM   13  C   UNL     1      63.460   8.034   3.465  1.00  0.00     0.014 A 
ENDBRANCH   2   8
BRANCH   1  14
HETATM   14  C   UNL     1      66.981   7.415   4.254  1.00  0.00     0.207 C 
BRANCH  14  15
HETATM   15  O   UNL     1      68.072   8.305   4.467  1.00  0.00    -0.396 OA
HETATM   16  H   UNL     1      67.731   9.187   4.687  1.00  0.00     0.209 HD
ENDBRANCH  14  15
ENDBRANCH   1  14
TORSDOF 3
ENDMDL
MODEL 4
REMARK VINA RESULT:      -5.3     13.024     14.458
REMARK  3 active torsions:
REMARK  status: ('A' for Active; 'I' for Inactive)
REMARK    1  A    between atoms: C_1  and  C_8 
REMARK    2  A    between atoms: C_2  and  C_7 
REMARK    3  A    between atoms: C_8  and  O_9 
ROOT
HETATM    1  C   UNL     1      66.466   7.291   5.781  1.00  0.00     0.026 A 
HETATM    2  C   UNL     1      66.523   6.385   6.827  1.00  0.00     0.119 A 
HETATM    3  O   UNL     1      65.304   6.350   7.440  1.00  0.00    -0.236 OA
HETATM    4  N   UNL     1      64.437   7.228   6.824  1.00  0.00    -0.265 N 
ATOM      5  HN  UNL     1      63.465   7.408   7.072  1.00  0.00     0.194 HD
HETATM    6  C   UNL     1      65.136   7.795   5.834  1.00  0.00     0.040 A 
HETATM    7  C   UNL     1      64.489   8.823   4.984  1.00  0.00     0.071 C 
ENDROOT
BRANCH   2   8
HETATM    8  C   UNL     1      67.544   5.518   7.408  1.00  0.00     0.000 A 
HETATM    9  C   UNL     1      67.980   4.373   6.722  1.00  0.00     0.014 A 
HETATM   10  C   UNL     1      68.917   3.505   7.291  1.00  0.00     0.001 A 
HETATM   11  C   UNL     1      69.436   3.772   8.555  1.00  0.00     0.000 A 
HETATM   12  C   UNL     1      69.033   4.912   9.241  1.00  0.00     0.001 A 
HETATM   13  C   UNL     1      68.099   5.781   8.669  1.00  0.00     0.014 A 
ENDBRANCH   2   8
BRANCH   1  14
HETATM   14  C   UNL     1      67.537   7.683   4.837  1.00  0.00     0.207 C 
BRANCH  14  15
HETATM   15  O   UNL     1      68.716   8.092   5.522  1.00  0.00    -0.396 OA
HETATM   16  H   UNL     1      68.727   9.059   5.597  1.00  0.00     0.209 HD
ENDBRANCH  14  15
ENDBRANCH   1  14
TORSDOF 3
ENDMDL
MODEL 5
REMARK VINA RESULT:      -5.0     16.020     17.416
REMARK  3 active torsions:
REMARK  status: ('A' for Active; 'I' for Inactive)
REMARK    1  A    between atoms: C_1  and  C_8 
REMARK    2  A    between atoms: C_2  and  C_7 
REMARK    3  A    between atoms: C_8  and  O_9 
ROOT
HETATM    1  C   UNL     1      63.533   8.857   4.319  1.00  0.00     0.026 A 
HETATM    2  C   UNL     1      64.568   8.808   5.237  1.00  0.00     0.119 A 
HETATM    3  O   UNL     1      64.589   9.982   5.934  1.00  0.00    -0.236 OA
HETATM    4  N   UNL     1      63.588  10.818   5.484  1.00  0.00    -0.265 N 
ATOM      5  HN  UNL     1      63.372  11.755   5.823  1.00  0.00     0.194 HD
HETATM    6  C   UNL     1      62.960  10.146   4.514  1.00  0.00     0.040 A 
HETATM    7  C   UNL     1      61.834  10.788   3.796  1.00  0.00     0.071 C 
ENDROOT
BRANCH   2   8
HETATM    8  C   UNL     1      65.604   7.844   5.599  1.00  0.00     0.000 A 
HETATM    9  C   UNL     1      65.393   6.931   6.645  1.00  0.00     0.014 A 
HETATM   10  C   UNL     1      66.397   6.041   7.036  1.00  0.00     0.001 A 
HETATM   11  C   UNL     1      67.626   6.045   6.384  1.00  0.00     0.000 A 
HETATM   12  C   UNL     1      67.847   6.927   5.332  1.00  0.00     0.001 A 
HETATM   13  C   UNL     1      66.841   7.815   4.939  1.00  0.00     0.014 A 
ENDBRANCH   2   8
BRANCH   1  14
HETATM   14  C   UNL     1      63.123   7.833   3.331  1.00  0.00     0.207 C 
BRANCH  14  15
HETATM   15  O   UNL     1      62.279   6.848   3.918  1.00  0.00    -0.396 OA
HETATM   16  H   UNL     1      62.476   5.981   3.531  1.00  0.00     0.209 HD
ENDBRANCH  14  15
ENDBRANCH   1  14
TORSDOF 3
ENDMDL
MODEL 6
REMARK VINA RESULT:      -4.8     13.828     14.979
REMARK  3 active torsions:
REMARK  status: ('A' for Active; 'I' for Inactive)
REMARK    1  A    between atoms: C_1  and  C_8 
REMARK    2  A    between atoms: C_2  and  C_7 
REMARK    3  A    between atoms: C_8  and  O_9 
ROOT
HETATM    1  C   UNL     1      67.493   5.597   6.882  1.00  0.00     0.026 A 
HETATM    2  C   UNL     1      66.558   6.585   7.143  1.00  0.00     0.119 A 
HETATM    3  O   UNL     1      66.821   7.119   8.371  1.00  0.00    -0.236 OA
HETATM    4  N   UNL     1      67.911   6.494   8.938  1.00  0.00    -0.265 N 
ATOM      5  HN  UNL     1      68.327   6.688   9.848  1.00  0.00     0.194 HD
HETATM    6  C   UNL     1      68.309   5.578   8.048  1.00  0.00     0.040 A 
HETATM    7  C   UNL     1      69.462   4.704   8.370  1.00  0.00     0.071 C 
ENDROOT
BRANCH   2   8
HETATM    8  C   UNL     1      65.402   7.144   6.447  1.00  0.00     0.000 A 
HETATM    9  C   UNL     1      65.550   8.247   5.591  1.00  0.00     0.014 A 
HETATM   10  C   UNL     1      64.443   8.824   4.963  1.00  0.00     0.001 A 
HETATM   11  C   UNL     1      63.170   8.305   5.177  1.00  0.00     0.000 A 
HETATM   12  C   UNL     1      63.005   7.199   6.005  1.00  0.00     0.001 A 
HETATM   13  C   UNL     1      64.113   6.620   6.630  1.00  0.00     0.014 A 
ENDBRANCH   2   8
BRANCH   1  14
HETATM   14  C   UNL     1      67.612   4.727   5.690  1.00  0.00     0.207 C 
BRANCH  14  15
HETATM   15  O   UNL     1      67.698   5.491   4.491  1.00  0.00    -0.396 OA
HETATM   16  H   UNL     1      68.617   5.769   4.349  1.00  0.00     0.209 HD
ENDBRANCH  14  15
ENDBRANCH   1  14
TORSDOF 3
ENDMDL
MODEL 7
REMARK VINA RESULT:      -4.8     14.194     15.488
REMARK  3 active torsions:
REMARK  status: ('A' for Active; 'I' for Inactive)
REMARK    1  A    between atoms: C_1  and  C_8 
REMARK    2  A    between atoms: C_2  and  C_7 
REMARK    3  A    between atoms: C_8  and  O_9 
ROOT
HETATM    1  C   UNL     1      64.302   6.944   6.038  1.00  0.00     0.026 A 
HETATM    2  C   UNL     1      65.557   7.258   6.532  1.00  0.00     0.119 A 
HETATM    3  O   UNL     1      65.823   8.566   6.246  1.00  0.00    -0.236 OA
HETATM    4  N   UNL     1      64.767   9.126   5.558  1.00  0.00    -0.265 N 
ATOM      5  HN  UNL     1      64.694  10.084   5.217  1.00  0.00     0.194 HD
HETATM    6  C   UNL     1      63.860   8.152   5.429  1.00  0.00     0.040 A 
HETATM    7  C   UNL     1      62.598   8.426   4.701  1.00  0.00     0.071 C 
ENDROOT
BRANCH   2   8
HETATM    8  C   UNL     1      66.616   6.541   7.237  1.00  0.00     0.000 A 
HETATM    9  C   UNL     1      67.352   5.537   6.586  1.00  0.00     0.014 A 
HETATM   10  C   UNL     1      68.330   4.806   7.266  1.00  0.00     0.001 A 
HETATM   11  C   UNL     1      68.592   5.070   8.607  1.00  0.00     0.000 A 
HETATM   12  C   UNL     1      67.888   6.074   9.264  1.00  0.00     0.001 A 
HETATM   13  C   UNL     1      66.913   6.808   8.582  1.00  0.00     0.014 A 
ENDBRANCH   2   8
BRANCH   1  14
HETATM   14  C   UNL     1      63.585   5.650   6.091  1.00  0.00     0.207 C 
BRANCH  14  15
HETATM   15  O   UNL     1      64.016   4.769   5.059  1.00  0.00    -0.396 OA
HETATM   16  H   UNL     1      63.245   4.335   4.661  1.00  0.00     0.209 HD
ENDBRANCH  14  15
ENDBRANCH   1  14
TORSDOF 3
ENDMDL
MODEL 8
REMARK VINA RESULT:      -4.7     21.171     22.309
REMARK  3 active torsions:
REMARK  status: ('A' for Active; 'I' for Inactive)
REMARK    1  A    between atoms: C_1  and  C_8 
REMARK    2  A    between atoms: C_2  and  C_7 
REMARK    3  A    between atoms: C_8  and  O_9 
ROOT
HETATM    1  C   UNL     1      60.511   7.400   0.234  1.00  0.00     0.026 A 
HETATM    2  C   UNL     1      61.586   8.133   0.709  1.00  0.00     0.119 A 
HETATM    3  O   UNL     1      62.683   7.839  -0.049  1.00  0.00    -0.236 OA
HETATM    4  N   UNL     1      62.357   6.912  -1.017  1.00  0.00    -0.265 N 
ATOM      5  HN  UNL     1      62.978   6.512  -1.719  1.00  0.00     0.194 HD
HETATM    6  C   UNL     1      61.058   6.646  -0.843  1.00  0.00     0.040 A 
HETATM    7  C   UNL     1      60.396   5.652  -1.721  1.00  0.00     0.071 C 
ENDROOT
BRANCH   2   8
HETATM    8  C   UNL     1      61.808   9.085   1.794  1.00  0.00     0.000 A 
HETATM    9  C   UNL     1      62.110   8.632   3.088  1.00  0.00     0.014 A 
HETATM   10  C   UNL     1      62.270   9.531   4.146  1.00  0.00     0.001 A 
HETATM   11  C   UNL     1      62.135  10.899   3.926  1.00  0.00     0.000 A 
HETATM   12  C   UNL     1      61.856  11.368   2.646  1.00  0.00     0.001 A 
HETATM   13  C   UNL     1      61.700  10.468   1.588  1.00  0.00     0.014 A 
ENDBRANCH   2   8
BRANCH   1  14
HETATM   14  C   UNL     1      59.119   7.368   0.735  1.00  0.00     0.207 C 
BRANCH  14  15
HETATM   15  O   UNL     1      58.619   8.679   0.978  1.00  0.00    -0.396 OA
HETATM   16  H   UNL     1      58.037   8.943   0.249  1.00  0.00     0.209 HD
ENDBRANCH  14  15
ENDBRANCH   1  14
TORSDOF 3
ENDMDL
MODEL 9
REMARK VINA RESULT:      -4.7     20.346     21.631
REMARK  3 active torsions:
REMARK  status: ('A' for Active; 'I' for Inactive)
REMARK    1  A    between atoms: C_1  and  C_8 
REMARK    2  A    between atoms: C_2  and  C_7 
REMARK    3  A    between atoms: C_8  and  O_9 
ROOT
HETATM    1  C   UNL     1      62.219   9.333   3.410  1.00  0.00     0.026 A 
HETATM    2  C   UNL     1      61.719   9.389   2.120  1.00  0.00     0.119 A 
HETATM    3  O   UNL     1      61.446  10.691   1.815  1.00  0.00    -0.236 OA
HETATM    4  N   UNL     1      61.745  11.503   2.889  1.00  0.00    -0.265 N 
ATOM      5  HN  UNL     1      61.640  12.516   2.942  1.00  0.00     0.194 HD
HETATM    6  C   UNL     1      62.203  10.688   3.845  1.00  0.00     0.040 A 
HETATM    7  C   UNL     1      62.594  11.255   5.158  1.00  0.00     0.071 C 
ENDROOT
BRANCH   2   8
HETATM    8  C   UNL     1      61.415   8.420   1.071  1.00  0.00     0.000 A 
HETATM    9  C   UNL     1      62.448   7.835   0.320  1.00  0.00     0.014 A 
HETATM   10  C   UNL     1      62.166   6.948  -0.723  1.00  0.00     0.001 A 
HETATM   11  C   UNL     1      60.846   6.628  -1.028  1.00  0.00     0.000 A 
HETATM   12  C   UNL     1      59.810   7.180  -0.283  1.00  0.00     0.001 A 
HETATM   13  C   UNL     1      60.093   8.064   0.762  1.00  0.00     0.014 A 
ENDBRANCH   2   8
BRANCH   1  14
HETATM   14  C   UNL     1      62.645   8.147   4.187  1.00  0.00     0.207 C 
BRANCH  14  15
HETATM   15  O   UNL     1      64.063   8.059   4.276  1.00  0.00    -0.396 OA
HETATM   16  H   UNL     1      64.355   7.195   3.944  1.00  0.00     0.209 HD
ENDBRANCH  14  15
ENDBRANCH   1  14
TORSDOF 3
ENDMDL
