MODEL 1
REMARK VINA RESULT:      -6.9      0.000      0.000
REMARK  2 active torsions:
REMARK  status: ('A' for Active; 'I' for Inactive)
REMARK    1  A    between atoms: C_1  and  C_4 
REMARK    2  A    between atoms: C_5  and  C_10 
ROOT
HETATM    1  C   UNL     1      75.684   2.920  17.411  1.00  0.00     0.056 A 
HETATM    2  N   UNL     1      77.222   4.750  17.794  1.00  0.00    -0.364 N 
ATOM      3  HN  UNL     1      78.088   5.099  18.207  1.00  0.00     0.165 HD
HETATM    4  C   UNL     1      76.412   5.567  17.069  1.00  0.00     0.042 A 
HETATM    5  C   UNL     1      76.842   3.457  17.952  1.00  0.00     0.106 A 
HETATM    6  C   UNL     1      74.873   3.756  16.650  1.00  0.00     0.022 A 
HETATM    7  C   UNL     1      75.242   5.089  16.475  1.00  0.00     0.031 A 
ENDROOT
BRANCH   4   8
HETATM    8  C   UNL     1      76.836   6.979  16.959  1.00  0.00    -0.009 A 
HETATM    9  C   UNL     1      77.185   7.539  15.717  1.00  0.00     0.013 A 
HETATM   10  C   UNL     1      77.575   8.877  15.607  1.00  0.00     0.001 A 
HETATM   11  C   UNL     1      77.626   9.685  16.740  1.00  0.00     0.000 A 
HETATM   12  C   UNL     1      77.298   9.153  17.983  1.00  0.00     0.001 A 
HETATM   13  C   UNL     1      76.914   7.815  18.089  1.00  0.00     0.013 A 
ENDBRANCH   4   8
BRANCH   1  14
HETATM   14  C   UNL     1      75.363   1.507  17.667  1.00  0.00     0.210 C 
HETATM   15  O   UNL     1      75.733   0.562  16.996  1.00  0.00    -0.644 OA
HETATM   16  O   UNL     1      74.593   1.339  18.756  1.00  0.00    -0.644 OA
ENDBRANCH   1  14
TORSDOF 2
ENDMDL
MODEL 2
REMARK VINA RESULT:      -6.0      2.985      6.619
REMARK  2 active torsions:
REMARK  status: ('A' for Active; 'I' for Inactive)
REMARK    1  A    between atoms: C_1  and  C_4 
REMARK    2  A    between atoms: C_5  and  C_10 
ROOT
HETATM    1  C   UNL     1      76.320   5.410  17.367  1.00  0.00     0.056 A 
HETATM    2  N   UNL     1      74.667   3.799  16.637  1.00  0.00    -0.364 N 
ATOM      3  HN  UNL     1      73.801   3.593  16.139  1.00  0.00     0.165 HD
HETATM    4  C   UNL     1      75.378   2.812  17.246  1.00  0.00     0.042 A 
HETATM    5  C   UNL     1      75.147   5.066  16.714  1.00  0.00     0.106 A 
HETATM    6  C   UNL     1      77.055   4.391  17.967  1.00  0.00     0.022 A 
HETATM    7  C   UNL     1      76.581   3.082  17.902  1.00  0.00     0.031 A 
ENDROOT
BRANCH   4   8
HETATM    8  C   UNL     1      74.799   1.454  17.181  1.00  0.00    -0.009 A 
HETATM    9  C   UNL     1      74.503   0.848  15.947  1.00  0.00     0.013 A 
HETATM   10  C   UNL     1      73.966  -0.442  15.880  1.00  0.00     0.001 A 
HETATM   11  C   UNL     1      73.712  -1.153  17.050  1.00  0.00     0.000 A 
HETATM   12  C   UNL     1      73.984  -0.573  18.284  1.00  0.00     0.001 A 
HETATM   13  C   UNL     1      74.516   0.716  18.347  1.00  0.00     0.013 A 
ENDBRANCH   4   8
BRANCH   1  14
HETATM   14  C   UNL     1      76.731   6.823  17.403  1.00  0.00     0.210 C 
HETATM   15  O   UNL     1      76.787   7.522  18.397  1.00  0.00    -0.644 OA
HETATM   16  O   UNL     1      77.059   7.298  16.189  1.00  0.00    -0.644 OA
ENDBRANCH   1  14
TORSDOF 2
ENDMDL
MODEL 3
REMARK VINA RESULT:      -5.8     13.292     14.652
REMARK  2 active torsions:
REMARK  status: ('A' for Active; 'I' for Inactive)
REMARK    1  A    between atoms: C_1  and  C_4 
REMARK    2  A    between atoms: C_5  and  C_10 
ROOT
HETATM    1  C   UNL     1      65.493   7.635   6.067  1.00  0.00     0.056 A 
HETATM    2  N   UNL     1      67.632   7.076   7.054  1.00  0.00    -0.364 N 
ATOM      3  HN  UNL     1      68.607   7.318   7.234  1.00  0.00     0.165 HD
HETATM    4  C   UNL     1      67.098   5.918   7.526  1.00  0.00     0.042 A 
HETATM    5  C   UNL     1      66.827   7.901   6.338  1.00  0.00     0.106 A 
HETATM    6  C   UNL     1      64.947   6.459   6.574  1.00  0.00     0.022 A 
HETATM    7  C   UNL     1      65.756   5.597   7.312  1.00  0.00     0.031 A 
ENDROOT
BRANCH   4   8
HETATM    8  C   UNL     1      68.018   5.025   8.261  1.00  0.00    -0.009 A 
HETATM    9  C   UNL     1      67.577   3.797   8.784  1.00  0.00     0.013 A 
HETATM   10  C   UNL     1      68.447   2.944   9.470  1.00  0.00     0.001 A 
HETATM   11  C   UNL     1      69.780   3.304   9.649  1.00  0.00     0.000 A 
HETATM   12  C   UNL     1      70.240   4.519   9.153  1.00  0.00     0.001 A 
HETATM   13  C   UNL     1      69.367   5.370   8.473  1.00  0.00     0.013 A 
ENDBRANCH   4   8
BRANCH   1  14
HETATM   14  C   UNL     1      64.722   8.594   5.260  1.00  0.00     0.210 C 
HETATM   15  O   UNL     1      64.127   8.339   4.230  1.00  0.00    -0.644 OA
HETATM   16  O   UNL     1      64.728   9.833   5.781  1.00  0.00    -0.644 OA
ENDBRANCH   1  14
TORSDOF 2
ENDMDL
MODEL 4
REMARK VINA RESULT:      -5.8     16.131     17.040
REMARK  2 active torsions:
REMARK  status: ('A' for Active; 'I' for Inactive)
REMARK    1  A    between atoms: C_1  and  C_4 
REMARK    2  A    between atoms: C_5  and  C_10 
ROOT
HETATM    1  C   UNL     1      65.834   6.489   7.126  1.00  0.00     0.056 A 
HETATM    2  N   UNL     1      65.466   8.549   5.908  1.00  0.00    -0.364 N 
ATOM      3  HN  UNL     1      65.801   9.465   5.612  1.00  0.00     0.165 HD
HETATM    4  C   UNL     1      64.243   8.091   5.528  1.00  0.00     0.042 A 
HETATM    5  C   UNL     1      66.227   7.747   6.696  1.00  0.00     0.106 A 
HETATM    6  C   UNL     1      64.591   6.017   6.712  1.00  0.00     0.022 A 
HETATM    7  C   UNL     1      63.792   6.824   5.903  1.00  0.00     0.031 A 
ENDROOT
BRANCH   4   8
HETATM    8  C   UNL     1      63.426   9.012   4.710  1.00  0.00    -0.009 A 
HETATM    9  C   UNL     1      62.996   8.652   3.420  1.00  0.00     0.013 A 
HETATM   10  C   UNL     1      62.212   9.516   2.648  1.00  0.00     0.001 A 
HETATM   11  C   UNL     1      61.845  10.761   3.150  1.00  0.00     0.000 A 
HETATM   12  C   UNL     1      62.267  11.147   4.417  1.00  0.00     0.001 A 
HETATM   13  C   UNL     1      63.052  10.284   5.183  1.00  0.00     0.013 A 
ENDBRANCH   4   8
BRANCH   1  14
HETATM   14  C   UNL     1      66.734   5.717   7.996  1.00  0.00     0.210 C 
HETATM   15  O   UNL     1      67.929   5.905   8.130  1.00  0.00    -0.644 OA
HETATM   16  O   UNL     1      66.097   4.741   8.667  1.00  0.00    -0.644 OA
ENDBRANCH   1  14
TORSDOF 2
ENDMDL
MODEL 5
REMARK VINA RESULT:      -5.8     11.693     12.806
REMARK  2 active torsions:
REMARK  status: ('A' for Active; 'I' for Inactive)
REMARK    1  A    between atoms: C_1  and  C_4 
REMARK    2  A    between atoms: C_5  and  C_10 
ROOT
HETATM    1  C   UNL     1      68.841   2.978   9.567  1.00  0.00     0.056 A 
HETATM    2  N   UNL     1      67.218   3.825   7.983  1.00  0.00    -0.364 N 
ATOM      3  HN  UNL     1      66.342   3.705   7.474  1.00  0.00     0.165 HD
HETATM    4  C   UNL     1      67.975   4.943   7.823  1.00  0.00     0.042 A 
HETATM    5  C   UNL     1      67.666   2.873   8.840  1.00  0.00     0.106 A 
HETATM    6  C   UNL     1      69.598   4.136   9.417  1.00  0.00     0.022 A 
HETATM    7  C   UNL     1      69.159   5.128   8.541  1.00  0.00     0.031 A 
ENDROOT
BRANCH   4   8
HETATM    8  C   UNL     1      67.479   5.935   6.846  1.00  0.00    -0.009 A 
HETATM    9  C   UNL     1      66.890   7.140   7.269  1.00  0.00     0.013 A 
HETATM   10  C   UNL     1      66.430   8.087   6.348  1.00  0.00     0.001 A 
HETATM   11  C   UNL     1      66.548   7.846   4.982  1.00  0.00     0.000 A 
HETATM   12  C   UNL     1      67.115   6.657   4.537  1.00  0.00     0.001 A 
HETATM   13  C   UNL     1      67.569   5.712   5.459  1.00  0.00     0.013 A 
ENDBRANCH   4   8
BRANCH   1  14
HETATM   14  C   UNL     1      69.237   1.871  10.452  1.00  0.00     0.210 C 
HETATM   15  O   UNL     1      70.228   1.844  11.157  1.00  0.00    -0.644 OA
HETATM   16  O   UNL     1      68.370   0.843  10.416  1.00  0.00    -0.644 OA
ENDBRANCH   1  14
TORSDOF 2
ENDMDL
MODEL 6
REMARK VINA RESULT:      -5.5     12.993     14.150
REMARK  2 active torsions:
REMARK  status: ('A' for Active; 'I' for Inactive)
REMARK    1  A    between atoms: C_1  and  C_4 
REMARK    2  A    between atoms: C_5  and  C_10 
ROOT
HETATM    1  C   UNL     1      68.795   5.074   8.660  1.00  0.00     0.056 A 
HETATM    2  N   UNL     1      67.393   5.341   6.705  1.00  0.00    -0.364 N 
ATOM      3  HN  UNL     1      67.161   5.076   5.747  1.00  0.00     0.165 HD
HETATM    4  C   UNL     1      66.669   6.282   7.368  1.00  0.00     0.042 A 
HETATM    5  C   UNL     1      68.434   4.765   7.358  1.00  0.00     0.106 A 
HETATM    6  C   UNL     1      68.035   6.020   9.340  1.00  0.00     0.022 A 
HETATM    7  C   UNL     1      66.961   6.625   8.689  1.00  0.00     0.031 A 
ENDROOT
BRANCH   4   8
HETATM    8  C   UNL     1      65.573   6.919   6.607  1.00  0.00    -0.009 A 
HETATM    9  C   UNL     1      64.264   6.408   6.652  1.00  0.00     0.013 A 
HETATM   10  C   UNL     1      63.222   7.014   5.944  1.00  0.00     0.001 A 
HETATM   11  C   UNL     1      63.469   8.147   5.173  1.00  0.00     0.000 A 
HETATM   12  C   UNL     1      64.757   8.666   5.101  1.00  0.00     0.001 A 
HETATM   13  C   UNL     1      65.795   8.055   5.806  1.00  0.00     0.013 A 
ENDBRANCH   4   8
BRANCH   1  14
HETATM   14  C   UNL     1      69.958   4.399   9.259  1.00  0.00     0.210 C 
HETATM   15  O   UNL     1      69.916   3.451  10.020  1.00  0.00    -0.644 OA
HETATM   16  O   UNL     1      71.127   4.941   8.874  1.00  0.00    -0.644 OA
ENDBRANCH   1  14
TORSDOF 2
ENDMDL
MODEL 7
REMARK VINA RESULT:      -5.4     16.691     17.866
REMARK  2 active torsions:
REMARK  status: ('A' for Active; 'I' for Inactive)
REMARK    1  A    between atoms: C_1  and  C_4 
REMARK    2  A    between atoms: C_5  and  C_10 
ROOT
HETATM    1  C   UNL     1      62.966   9.248   3.932  1.00  0.00     0.056 A 
HETATM    2  N   UNL     1      64.514   8.822   5.744  1.00  0.00    -0.364 N 
ATOM      3  HN  UNL     1      64.936   9.113   6.626  1.00  0.00     0.165 HD
HETATM    4  C   UNL     1      64.867   7.650   5.151  1.00  0.00     0.042 A 
HETATM    5  C   UNL     1      63.583   9.591   5.125  1.00  0.00     0.106 A 
HETATM    6  C   UNL     1      63.315   8.035   3.344  1.00  0.00     0.022 A 
HETATM    7  C   UNL     1      64.270   7.229   3.961  1.00  0.00     0.031 A 
ENDROOT
BRANCH   4   8
HETATM    8  C   UNL     1      65.918   6.863   5.831  1.00  0.00    -0.009 A 
HETATM    9  C   UNL     1      66.275   7.128   7.165  1.00  0.00     0.013 A 
HETATM   10  C   UNL     1      67.260   6.378   7.816  1.00  0.00     0.001 A 
HETATM   11  C   UNL     1      67.911   5.348   7.144  1.00  0.00     0.000 A 
HETATM   12  C   UNL     1      67.586   5.073   5.820  1.00  0.00     0.001 A 
HETATM   13  C   UNL     1      66.605   5.826   5.172  1.00  0.00     0.013 A 
ENDBRANCH   4   8
BRANCH   1  14
HETATM   14  C   UNL     1      61.985  10.172   3.342  1.00  0.00     0.210 C 
HETATM   15  O   UNL     1      61.568  11.191   3.860  1.00  0.00    -0.644 OA
HETATM   16  O   UNL     1      61.570   9.780   2.125  1.00  0.00    -0.644 OA
ENDBRANCH   1  14
TORSDOF 2
ENDMDL
MODEL 8
REMARK VINA RESULT:      -5.3     17.737     19.576
REMARK  2 active torsions:
REMARK  status: ('A' for Active; 'I' for Inactive)
REMARK    1  A    between atoms: C_1  and  C_4 
REMARK    2  A    between atoms: C_5  and  C_10 
ROOT
HETATM    1  C   UNL     1      71.788  21.739  11.517  1.00  0.00     0.056 A 
HETATM    2  N   UNL     1      69.759  22.465  12.621  1.00  0.00    -0.364 N 
ATOM      3  HN  UNL     1      68.747  22.397  12.732  1.00  0.00     0.165 HD
HETATM    4  C   UNL     1      70.493  23.322  13.380  1.00  0.00     0.042 A 
HETATM    5  C   UNL     1      70.416  21.701  11.711  1.00  0.00     0.106 A 
HETATM    6  C   UNL     1      72.535  22.601  12.314  1.00  0.00     0.022 A 
HETATM    7  C   UNL     1      71.882  23.396  13.255  1.00  0.00     0.031 A 
ENDROOT
BRANCH   4   8
HETATM    8  C   UNL     1      69.737  24.170  14.325  1.00  0.00    -0.009 A 
HETATM    9  C   UNL     1      68.331  24.142  14.363  1.00  0.00     0.013 A 
HETATM   10  C   UNL     1      67.612  24.933  15.265  1.00  0.00     0.001 A 
HETATM   11  C   UNL     1      68.286  25.772  16.148  1.00  0.00     0.000 A 
HETATM   12  C   UNL     1      69.675  25.828  16.124  1.00  0.00     0.001 A 
HETATM   13  C   UNL     1      70.390  25.040  15.219  1.00  0.00     0.013 A 
ENDBRANCH   4   8
BRANCH   1  14
HETATM   14  C   UNL     1      72.388  20.879  10.485  1.00  0.00     0.210 C 
HETATM   15  O   UNL     1      73.483  21.036   9.978  1.00  0.00    -0.644 OA
HETATM   16  O   UNL     1      71.590  19.855  10.134  1.00  0.00    -0.644 OA
ENDBRANCH   1  14
TORSDOF 2
ENDMDL
MODEL 9
REMARK VINA RESULT:      -4.9     32.662     33.694
REMARK  2 active torsions:
REMARK  status: ('A' for Active; 'I' for Inactive)
REMARK    1  A    between atoms: C_1  and  C_4 
REMARK    2  A    between atoms: C_5  and  C_10 
ROOT
HETATM    1  C   UNL     1      49.206  19.358   1.568  1.00  0.00     0.056 A 
HETATM    2  N   UNL     1      48.175  18.033   3.312  1.00  0.00    -0.364 N 
ATOM      3  HN  UNL     1      47.492  17.950   4.065  1.00  0.00     0.165 HD
HETATM    4  C   UNL     1      48.988  16.992   2.985  1.00  0.00     0.042 A 
HETATM    5  C   UNL     1      48.304  19.184   2.606  1.00  0.00     0.106 A 
HETATM    6  C   UNL     1      50.017  18.280   1.223  1.00  0.00     0.022 A 
HETATM    7  C   UNL     1      49.904  17.088   1.935  1.00  0.00     0.031 A 
ENDROOT
BRANCH   4   8
HETATM    8  C   UNL     1      48.851  15.772   3.808  1.00  0.00    -0.009 A 
HETATM    9  C   UNL     1      49.485  15.663   5.058  1.00  0.00     0.013 A 
HETATM   10  C   UNL     1      49.349  14.515   5.845  1.00  0.00     0.001 A 
HETATM   11  C   UNL     1      48.574  13.449   5.395  1.00  0.00     0.000 A 
HETATM   12  C   UNL     1      47.946  13.525   4.157  1.00  0.00     0.001 A 
HETATM   13  C   UNL     1      48.089  14.671   3.372  1.00  0.00     0.013 A 
ENDBRANCH   4   8
BRANCH   1  14
HETATM   14  C   UNL     1      49.271  20.660   0.886  1.00  0.00     0.210 C 
HETATM   15  O   UNL     1      48.740  20.935  -0.173  1.00  0.00    -0.644 OA
HETATM   16  O   UNL     1      49.998  21.565   1.565  1.00  0.00    -0.644 OA
ENDBRANCH   1  14
TORSDOF 2
ENDMDL
