MODEL 1
REMARK VINA RESULT:      -4.9      0.000      0.000
REMARK  2 active torsions:
REMARK  status: ('A' for Active; 'I' for Inactive)
REMARK    1  A    between atoms: C_5  and  C_11 
REMARK    2  A    between atoms: C_11  and  O_13 
ROOT
HETATM    1  N   UNL     1      75.685   2.660  17.536  1.00  0.00    -0.308 N 
HETATM    2  N   UNL     1      77.747   2.633  18.410  1.00  0.00    -0.344 N 
ATOM      3  HN  UNL     1      78.674   2.920  18.726  1.00  0.00     0.167 HD
HETATM    4  C   UNL     1      76.839   3.385  17.828  1.00  0.00     0.112 A 
HETATM    5  C   UNL     1      75.906   1.371  17.981  1.00  0.00     0.063 A 
HETATM    6  C   UNL     1      77.188   1.384  18.506  1.00  0.00     0.032 A 
HETATM    7  C   UNL     1      74.568   3.230  16.919  1.00  0.00     0.099 A 
HETATM    8  C   UNL     1      76.857   4.762  17.463  1.00  0.00     0.049 A 
HETATM    9  C   UNL     1      74.590   4.530  16.581  1.00  0.00     0.018 A 
HETATM   10  C   UNL     1      75.782   5.313  16.866  1.00  0.00     0.005 A 
HETATM   11  C   UNL     1      77.955   0.265  19.104  1.00  0.00     0.070 C 
ENDROOT
BRANCH   5  12
HETATM   12  C   UNL     1      74.937   0.264  17.843  1.00  0.00     0.223 C 
BRANCH  12  13
HETATM   13  O   UNL     1      74.204   0.178  19.054  1.00  0.00    -0.395 OA
HETATM   14  H   UNL     1      73.912   1.064  19.319  1.00  0.00     0.209 HD
ENDBRANCH  12  13
ENDBRANCH   5  12
TORSDOF 2
ENDMDL
MODEL 2
REMARK VINA RESULT:      -4.7     18.632     20.491
REMARK  2 active torsions:
REMARK  status: ('A' for Active; 'I' for Inactive)
REMARK    1  A    between atoms: C_5  and  C_11 
REMARK    2  A    between atoms: C_11  and  O_13 
ROOT
HETATM    1  N   UNL     1      62.685   9.651   3.620  1.00  0.00    -0.308 N 
HETATM    2  N   UNL     1      63.526   7.588   3.859  1.00  0.00    -0.344 N 
ATOM      3  HN  UNL     1      63.813   6.627   3.674  1.00  0.00     0.167 HD
HETATM    4  C   UNL     1      62.926   8.412   3.028  1.00  0.00     0.112 A 
HETATM    5  C   UNL     1      63.181   9.576   4.907  1.00  0.00     0.063 A 
HETATM    6  C   UNL     1      63.684   8.291   5.028  1.00  0.00     0.032 A 
HETATM    7  C   UNL     1      62.063  10.704   2.945  1.00  0.00     0.099 A 
HETATM    8  C   UNL     1      62.503   8.237   1.680  1.00  0.00     0.049 A 
HETATM    9  C   UNL     1      61.669  10.535   1.672  1.00  0.00     0.018 A 
HETATM   10  C   UNL     1      61.900   9.251   1.027  1.00  0.00     0.005 A 
HETATM   11  C   UNL     1      64.317   7.651   6.206  1.00  0.00     0.070 C 
ENDROOT
BRANCH   5  12
HETATM   12  C   UNL     1      63.106  10.673   5.894  1.00  0.00     0.223 C 
BRANCH  12  13
HETATM   13  O   UNL     1      64.430  11.113   6.152  1.00  0.00    -0.395 OA
HETATM   14  H   UNL     1      64.674  11.797   5.510  1.00  0.00     0.209 HD
ENDBRANCH  12  13
ENDBRANCH   5  12
TORSDOF 2
ENDMDL
MODEL 3
REMARK VINA RESULT:      -4.6     18.909     20.839
REMARK  2 active torsions:
REMARK  status: ('A' for Active; 'I' for Inactive)
REMARK    1  A    between atoms: C_5  and  C_11 
REMARK    2  A    between atoms: C_11  and  O_13 
ROOT
HETATM    1  N   UNL     1      62.815   8.622   3.296  1.00  0.00    -0.308 N 
HETATM    2  N   UNL     1      62.120  10.738   3.539  1.00  0.00    -0.344 N 
ATOM      3  HN  UNL     1      61.709  11.653   3.358  1.00  0.00     0.167 HD
HETATM    4  C   UNL     1      62.185   9.718   2.710  1.00  0.00     0.112 A 
HETATM    5  C   UNL     1      63.154   9.001   4.580  1.00  0.00     0.063 A 
HETATM    6  C   UNL     1      62.721  10.312   4.697  1.00  0.00     0.032 A 
HETATM    7  C   UNL     1      63.006   7.411   2.625  1.00  0.00     0.099 A 
HETATM    8  C   UNL     1      61.733   9.574   1.368  1.00  0.00     0.049 A 
HETATM    9  C   UNL     1      62.574   7.279   1.360  1.00  0.00     0.018 A 
HETATM   10  C   UNL     1      61.917   8.407   0.718  1.00  0.00     0.005 A 
HETATM   11  C   UNL     1      62.845  11.228   5.856  1.00  0.00     0.070 C 
ENDROOT
BRANCH   5  12
HETATM   12  C   UNL     1      63.868   8.138   5.544  1.00  0.00     0.223 C 
BRANCH  12  13
HETATM   13  O   UNL     1      62.970   7.834   6.599  1.00  0.00    -0.395 OA
HETATM   14  H   UNL     1      63.444   7.364   7.302  1.00  0.00     0.209 HD
ENDBRANCH  12  13
ENDBRANCH   5  12
TORSDOF 2
ENDMDL
MODEL 4
REMARK VINA RESULT:      -4.4     18.657     20.465
REMARK  2 active torsions:
REMARK  status: ('A' for Active; 'I' for Inactive)
REMARK    1  A    between atoms: C_5  and  C_11 
REMARK    2  A    between atoms: C_11  and  O_13 
ROOT
HETATM    1  N   UNL     1      62.924   9.182   3.706  1.00  0.00    -0.308 N 
HETATM    2  N   UNL     1      63.050   7.665   2.063  1.00  0.00    -0.344 N 
ATOM      3  HN  UNL     1      62.956   7.197   1.162  1.00  0.00     0.167 HD
HETATM    4  C   UNL     1      62.617   8.864   2.385  1.00  0.00     0.112 A 
HETATM    5  C   UNL     1      63.601   8.096   4.226  1.00  0.00     0.063 A 
HETATM    6  C   UNL     1      63.655   7.175   3.193  1.00  0.00     0.032 A 
HETATM    7  C   UNL     1      62.577  10.402   4.292  1.00  0.00     0.099 A 
HETATM    8  C   UNL     1      61.911   9.839   1.624  1.00  0.00     0.049 A 
HETATM    9  C   UNL     1      61.914  11.319   3.569  1.00  0.00     0.018 A 
HETATM   10  C   UNL     1      61.572  11.016   2.187  1.00  0.00     0.005 A 
HETATM   11  C   UNL     1      64.247   5.816   3.195  1.00  0.00     0.070 C 
ENDROOT
BRANCH   5  12
HETATM   12  C   UNL     1      64.090   8.006   5.618  1.00  0.00     0.223 C 
BRANCH  12  13
HETATM   13  O   UNL     1      65.231   8.842   5.729  1.00  0.00    -0.395 OA
HETATM   14  H   UNL     1      65.088   9.655   5.219  1.00  0.00     0.209 HD
ENDBRANCH  12  13
ENDBRANCH   5  12
TORSDOF 2
ENDMDL
MODEL 5
REMARK VINA RESULT:      -4.4     18.469     20.227
REMARK  2 active torsions:
REMARK  status: ('A' for Active; 'I' for Inactive)
REMARK    1  A    between atoms: C_5  and  C_11 
REMARK    2  A    between atoms: C_11  and  O_13 
ROOT
HETATM    1  N   UNL     1      62.683   8.818   3.439  1.00  0.00    -0.308 N 
HETATM    2  N   UNL     1      63.026   9.219   5.616  1.00  0.00    -0.344 N 
ATOM      3  HN  UNL     1      63.080   9.682   6.523  1.00  0.00     0.167 HD
HETATM    4  C   UNL     1      62.630   9.745   4.477  1.00  0.00     0.112 A 
HETATM    5  C   UNL     1      63.141   7.636   3.988  1.00  0.00     0.063 A 
HETATM    6  C   UNL     1      63.352   7.917   5.328  1.00  0.00     0.032 A 
HETATM    7  C   UNL     1      62.311   9.127   2.128  1.00  0.00     0.099 A 
HETATM    8  C   UNL     1      62.180  11.059   4.160  1.00  0.00     0.049 A 
HETATM    9  C   UNL     1      61.884  10.366   1.835  1.00  0.00     0.018 A 
HETATM   10  C   UNL     1      61.822  11.360   2.896  1.00  0.00     0.005 A 
HETATM   11  C   UNL     1      63.863   7.021   6.393  1.00  0.00     0.070 C 
ENDROOT
BRANCH   5  12
HETATM   12  C   UNL     1      63.370   6.393   3.222  1.00  0.00     0.223 C 
BRANCH  12  13
HETATM   13  O   UNL     1      64.754   6.321   2.921  1.00  0.00    -0.395 OA
HETATM   14  H   UNL     1      65.118   7.218   2.850  1.00  0.00     0.209 HD
ENDBRANCH  12  13
ENDBRANCH   5  12
TORSDOF 2
ENDMDL
MODEL 6
REMARK VINA RESULT:      -4.3     12.813     14.697
REMARK  2 active torsions:
REMARK  status: ('A' for Active; 'I' for Inactive)
REMARK    1  A    between atoms: C_5  and  C_11 
REMARK    2  A    between atoms: C_11  and  O_13 
ROOT
HETATM    1  N   UNL     1      67.746   5.193   6.967  1.00  0.00    -0.308 N 
HETATM    2  N   UNL     1      67.118   7.188   7.770  1.00  0.00    -0.344 N 
ATOM      3  HN  UNL     1      66.985   7.991   8.384  1.00  0.00     0.167 HD
HETATM    4  C   UNL     1      67.762   6.074   8.046  1.00  0.00     0.112 A 
HETATM    5  C   UNL     1      67.045   5.820   5.956  1.00  0.00     0.063 A 
HETATM    6  C   UNL     1      66.663   7.042   6.484  1.00  0.00     0.032 A 
HETATM    7  C   UNL     1      68.365   3.940   7.003  1.00  0.00     0.099 A 
HETATM    8  C   UNL     1      68.438   5.652   9.226  1.00  0.00     0.049 A 
HETATM    9  C   UNL     1      69.004   3.549   8.118  1.00  0.00     0.018 A 
HETATM   10  C   UNL     1      69.033   4.444   9.265  1.00  0.00     0.005 A 
HETATM   11  C   UNL     1      65.866   8.118   5.847  1.00  0.00     0.070 C 
ENDROOT
BRANCH   5  12
HETATM   12  C   UNL     1      66.769   5.218   4.635  1.00  0.00     0.223 C 
BRANCH  12  13
HETATM   13  O   UNL     1      67.528   5.928   3.670  1.00  0.00    -0.395 OA
HETATM   14  H   UNL     1      68.344   5.441   3.478  1.00  0.00     0.209 HD
ENDBRANCH  12  13
ENDBRANCH   5  12
TORSDOF 2
ENDMDL
MODEL 7
REMARK VINA RESULT:      -4.3     18.724     20.537
REMARK  2 active torsions:
REMARK  status: ('A' for Active; 'I' for Inactive)
REMARK    1  A    between atoms: C_5  and  C_11 
REMARK    2  A    between atoms: C_11  and  O_13 
ROOT
HETATM    1  N   UNL     1      62.601   8.768   4.783  1.00  0.00    -0.308 N 
HETATM    2  N   UNL     1      61.918   9.098   2.675  1.00  0.00    -0.344 N 
ATOM      3  HN  UNL     1      61.614   8.939   1.715  1.00  0.00     0.167 HD
HETATM    4  C   UNL     1      62.232   8.188   3.571  1.00  0.00     0.112 A 
HETATM    5  C   UNL     1      62.498  10.135   4.613  1.00  0.00     0.063 A 
HETATM    6  C   UNL     1      62.084  10.308   3.303  1.00  0.00     0.032 A 
HETATM    7  C   UNL     1      62.977   8.016   5.899  1.00  0.00     0.099 A 
HETATM    8  C   UNL     1      62.255   6.766   3.491  1.00  0.00     0.049 A 
HETATM    9  C   UNL     1      62.993   6.676   5.819  1.00  0.00     0.018 A 
HETATM   10  C   UNL     1      62.619   6.039   4.566  1.00  0.00     0.005 A 
HETATM   11  C   UNL     1      61.832  11.572   2.570  1.00  0.00     0.070 C 
ENDROOT
BRANCH   5  12
HETATM   12  C   UNL     1      62.824  11.132   5.655  1.00  0.00     0.223 C 
BRANCH  12  13
HETATM   13  O   UNL     1      64.217  11.047   5.911  1.00  0.00    -0.395 OA
HETATM   14  H   UNL     1      64.581  11.940   6.016  1.00  0.00     0.209 HD
ENDBRANCH  12  13
ENDBRANCH   5  12
TORSDOF 2
ENDMDL
MODEL 8
REMARK VINA RESULT:      -4.2     10.519     12.024
REMARK  2 active torsions:
REMARK  status: ('A' for Active; 'I' for Inactive)
REMARK    1  A    between atoms: C_5  and  C_11 
REMARK    2  A    between atoms: C_11  and  O_13 
ROOT
HETATM    1  N   UNL     1      68.655   3.317   8.925  1.00  0.00    -0.308 N 
HETATM    2  N   UNL     1      66.698   2.373   8.380  1.00  0.00    -0.344 N 
ATOM      3  HN  UNL     1      65.757   2.226   8.015  1.00  0.00     0.167 HD
HETATM    4  C   UNL     1      67.407   3.480   8.327  1.00  0.00     0.112 A 
HETATM    5  C   UNL     1      68.712   2.011   9.370  1.00  0.00     0.063 A 
HETATM    6  C   UNL     1      67.488   1.458   9.028  1.00  0.00     0.032 A 
HETATM    7  C   UNL     1      69.600   4.344   8.997  1.00  0.00     0.099 A 
HETATM    8  C   UNL     1      67.104   4.759   7.780  1.00  0.00     0.049 A 
HETATM    9  C   UNL     1      69.310   5.548   8.476  1.00  0.00     0.018 A 
HETATM   10  C   UNL     1      68.013   5.752   7.850  1.00  0.00     0.005 A 
HETATM   11  C   UNL     1      66.989   0.085   9.283  1.00  0.00     0.070 C 
ENDROOT
BRANCH   5  12
HETATM   12  C   UNL     1      69.861   1.425  10.091  1.00  0.00     0.223 C 
BRANCH  12  13
HETATM   13  O   UNL     1      69.888   1.991  11.392  1.00  0.00    -0.395 OA
HETATM   14  H   UNL     1      70.056   2.944  11.327  1.00  0.00     0.209 HD
ENDBRANCH  12  13
ENDBRANCH   5  12
TORSDOF 2
ENDMDL
MODEL 9
REMARK VINA RESULT:      -4.1     12.820     14.723
REMARK  2 active torsions:
REMARK  status: ('A' for Active; 'I' for Inactive)
REMARK    1  A    between atoms: C_5  and  C_11 
REMARK    2  A    between atoms: C_11  and  O_13 
ROOT
HETATM    1  N   UNL     1      67.678   5.523   7.325  1.00  0.00    -0.308 N 
HETATM    2  N   UNL     1      67.617   4.401   5.387  1.00  0.00    -0.344 N 
ATOM      3  HN  UNL     1      67.757   3.689   4.670  1.00  0.00     0.167 HD
HETATM    4  C   UNL     1      68.063   4.382   6.624  1.00  0.00     0.112 A 
HETATM    5  C   UNL     1      66.936   6.291   6.450  1.00  0.00     0.063 A 
HETATM    6  C   UNL     1      66.924   5.579   5.262  1.00  0.00     0.032 A 
HETATM    7  C   UNL     1      68.022   5.742   8.661  1.00  0.00     0.099 A 
HETATM    8  C   UNL     1      68.847   3.418   7.321  1.00  0.00     0.049 A 
HETATM    9  C   UNL     1      68.758   4.828   9.315  1.00  0.00     0.018 A 
HETATM   10  C   UNL     1      69.182   3.629   8.609  1.00  0.00     0.005 A 
HETATM   11  C   UNL     1      66.293   5.942   3.970  1.00  0.00     0.070 C 
ENDROOT
BRANCH   5  12
HETATM   12  C   UNL     1      66.353   7.608   6.784  1.00  0.00     0.223 C 
BRANCH  12  13
HETATM   13  O   UNL     1      67.341   8.594   6.531  1.00  0.00    -0.395 OA
HETATM   14  H   UNL     1      68.191   8.162   6.352  1.00  0.00     0.209 HD
ENDBRANCH  12  13
ENDBRANCH   5  12
TORSDOF 2
ENDMDL
