MODEL 1
REMARK VINA RESULT:      -5.6      0.000      0.000
REMARK  2 active torsions:
REMARK  status: ('A' for Active; 'I' for Inactive)
REMARK    1  A    between atoms: N_1  and  C_2 
REMARK    2  A    between atoms: C_8  and  N_9 
ROOT
HETATM    1  C   UNL     1      77.285  11.228  18.900  1.00  0.00     0.040 A 
HETATM    2  C   UNL     1      78.164  11.358  19.989  1.00  0.00     0.058 A 
HETATM    3  C   UNL     1      78.180  12.518  20.773  1.00  0.00     0.027 A 
HETATM    4  C   UNL     1      76.375  12.262  18.643  1.00  0.00     0.030 A 
HETATM    5  C   UNL     1      76.333  13.386  19.471  1.00  0.00     0.004 A 
HETATM    6  C   UNL     1      77.219  13.501  20.541  1.00  0.00     0.029 A 
ENDROOT
BRANCH   1   7
HETATM    7  N   UNL     1      77.316  10.061  18.073  1.00  0.00    -0.333 N 
HETATM    8  C   UNL     1      77.580  10.014  16.714  1.00  0.00     0.096 A 
HETATM    9  C   UNL     1      77.503   8.711  16.276  1.00  0.00     0.019 A 
HETATM   10  C   UNL     1      77.181   7.915  17.390  1.00  0.00     0.019 A 
HETATM   11  C   UNL     1      77.074   8.757  18.474  1.00  0.00     0.096 A 
ENDBRANCH   1   7
BRANCH   3  12
HETATM   12  N   UNL     1      78.996  12.588  21.911  1.00  0.00    -0.399 N 
HETATM   13  H   UNL     1      79.629  13.335  22.017  1.00  0.00     0.156 HD
HETATM   14  H   UNL     1      78.938  11.891  22.602  1.00  0.00     0.156 HD
ENDBRANCH   3  12
TORSDOF 2
ENDMDL
MODEL 2
REMARK VINA RESULT:      -5.5      1.943      5.148
REMARK  2 active torsions:
REMARK  status: ('A' for Active; 'I' for Inactive)
REMARK    1  A    between atoms: N_1  and  C_2 
REMARK    2  A    between atoms: C_8  and  N_9 
ROOT
HETATM    1  C   UNL     1      78.308  12.439  20.968  1.00  0.00     0.040 A 
HETATM    2  C   UNL     1      78.297  11.382  20.042  1.00  0.00     0.058 A 
HETATM    3  C   UNL     1      77.310  11.297  19.052  1.00  0.00     0.027 A 
HETATM    4  C   UNL     1      77.342  13.448  20.850  1.00  0.00     0.030 A 
HETATM    5  C   UNL     1      76.405  13.408  19.815  1.00  0.00     0.004 A 
HETATM    6  C   UNL     1      76.403  12.347  18.911  1.00  0.00     0.029 A 
ENDROOT
BRANCH   1   7
HETATM    7  N   UNL     1      79.288  12.487  22.009  1.00  0.00    -0.333 N 
HETATM    8  C   UNL     1      79.104  12.149  23.339  1.00  0.00     0.096 A 
HETATM    9  C   UNL     1      80.280  12.342  24.030  1.00  0.00     0.019 A 
HETATM   10  C   UNL     1      81.232  12.816  23.108  1.00  0.00     0.019 A 
HETATM   11  C   UNL     1      80.607  12.894  21.884  1.00  0.00     0.096 A 
ENDBRANCH   1   7
BRANCH   3  12
HETATM   12  N   UNL     1      77.372  10.287  18.081  1.00  0.00    -0.399 N 
HETATM   13  H   UNL     1      77.158   9.358  18.324  1.00  0.00     0.156 HD
HETATM   14  H   UNL     1      77.630  10.509  17.158  1.00  0.00     0.156 HD
ENDBRANCH   3  12
TORSDOF 2
ENDMDL
MODEL 3
REMARK VINA RESULT:      -5.2      3.629      5.716
REMARK  2 active torsions:
REMARK  status: ('A' for Active; 'I' for Inactive)
REMARK    1  A    between atoms: N_1  and  C_2 
REMARK    2  A    between atoms: C_8  and  N_9 
ROOT
HETATM    1  C   UNL     1      76.651   6.321  16.696  1.00  0.00     0.040 A 
HETATM    2  C   UNL     1      76.883   7.223  17.749  1.00  0.00     0.058 A 
HETATM    3  C   UNL     1      77.373   8.512  17.503  1.00  0.00     0.027 A 
HETATM    4  C   UNL     1      76.866   6.753  15.380  1.00  0.00     0.030 A 
HETATM    5  C   UNL     1      77.279   8.063  15.127  1.00  0.00     0.004 A 
HETATM    6  C   UNL     1      77.512   8.941  16.184  1.00  0.00     0.029 A 
ENDROOT
BRANCH   1   7
HETATM    7  N   UNL     1      76.202   4.989  16.962  1.00  0.00    -0.333 N 
HETATM    8  C   UNL     1      76.868   4.018  17.690  1.00  0.00     0.096 A 
HETATM    9  C   UNL     1      76.118   2.863  17.711  1.00  0.00     0.019 A 
HETATM   10  C   UNL     1      74.946   3.114  16.974  1.00  0.00     0.019 A 
HETATM   11  C   UNL     1      75.017   4.415  16.530  1.00  0.00     0.096 A 
ENDBRANCH   1   7
BRANCH   3  12
HETATM   12  N   UNL     1      77.506   9.427  18.557  1.00  0.00    -0.399 N 
HETATM   13  H   UNL     1      77.307  10.379  18.410  1.00  0.00     0.156 HD
HETATM   14  H   UNL     1      77.799   9.117  19.444  1.00  0.00     0.156 HD
ENDBRANCH   3  12
TORSDOF 2
ENDMDL
MODEL 4
REMARK VINA RESULT:      -5.2      3.950      7.172
REMARK  2 active torsions:
REMARK  status: ('A' for Active; 'I' for Inactive)
REMARK    1  A    between atoms: N_1  and  C_2 
REMARK    2  A    between atoms: C_8  and  N_9 
ROOT
HETATM    1  C   UNL     1      76.407   5.450  17.238  1.00  0.00     0.040 A 
HETATM    2  C   UNL     1      77.152   4.607  18.079  1.00  0.00     0.058 A 
HETATM    3  C   UNL     1      76.767   3.278  18.297  1.00  0.00     0.027 A 
HETATM    4  C   UNL     1      75.295   4.922  16.568  1.00  0.00     0.030 A 
HETATM    5  C   UNL     1      74.955   3.576  16.720  1.00  0.00     0.004 A 
HETATM    6  C   UNL     1      75.701   2.756  17.566  1.00  0.00     0.029 A 
ENDROOT
BRANCH   1   7
HETATM    7  N   UNL     1      76.778   6.821  17.065  1.00  0.00    -0.333 N 
HETATM    8  C   UNL     1      76.819   7.799  18.044  1.00  0.00     0.096 A 
HETATM    9  C   UNL     1      77.211   8.995  17.484  1.00  0.00     0.019 A 
HETATM   10  C   UNL     1      77.422   8.763  16.113  1.00  0.00     0.019 A 
HETATM   11  C   UNL     1      77.154   7.433  15.880  1.00  0.00     0.096 A 
ENDBRANCH   1   7
BRANCH   3  12
HETATM   12  N   UNL     1      77.577   2.427  19.063  1.00  0.00    -0.399 N 
HETATM   13  H   UNL     1      78.542   2.369  18.878  1.00  0.00     0.156 HD
HETATM   14  H   UNL     1      77.180   1.889  19.785  1.00  0.00     0.156 HD
ENDBRANCH   3  12
TORSDOF 2
ENDMDL
MODEL 5
REMARK VINA RESULT:      -5.1      2.685      4.657
REMARK  2 active torsions:
REMARK  status: ('A' for Active; 'I' for Inactive)
REMARK    1  A    between atoms: N_1  and  C_2 
REMARK    2  A    between atoms: C_8  and  N_9 
ROOT
HETATM    1  C   UNL     1      79.267  12.576  22.057  1.00  0.00     0.040 A 
HETATM    2  C   UNL     1      78.987  12.133  23.361  1.00  0.00     0.058 A 
HETATM    3  C   UNL     1      79.967  12.159  24.361  1.00  0.00     0.027 A 
HETATM    4  C   UNL     1      80.536  13.103  21.783  1.00  0.00     0.030 A 
HETATM    5  C   UNL     1      81.491  13.204  22.797  1.00  0.00     0.004 A 
HETATM    6  C   UNL     1      81.198  12.751  24.083  1.00  0.00     0.029 A 
ENDROOT
BRANCH   1   7
HETATM    7  N   UNL     1      78.274  12.495  21.030  1.00  0.00    -0.333 N 
HETATM    8  C   UNL     1      78.204  11.555  20.016  1.00  0.00     0.096 A 
HETATM    9  C   UNL     1      77.113  11.818  19.219  1.00  0.00     0.019 A 
HETATM   10  C   UNL     1      76.477  12.957  19.746  1.00  0.00     0.019 A 
HETATM   11  C   UNL     1      77.199  13.351  20.849  1.00  0.00     0.096 A 
ENDBRANCH   1   7
BRANCH   3  12
HETATM   12  N   UNL     1      79.640  11.802  25.677  1.00  0.00    -0.399 N 
HETATM   13  H   UNL     1      78.925  12.281  26.153  1.00  0.00     0.156 HD
HETATM   14  H   UNL     1      80.126  11.072  26.124  1.00  0.00     0.156 HD
ENDBRANCH   3  12
TORSDOF 2
ENDMDL
MODEL 6
REMARK VINA RESULT:      -4.7      6.616      8.927
REMARK  2 active torsions:
REMARK  status: ('A' for Active; 'I' for Inactive)
REMARK    1  A    between atoms: N_1  and  C_2 
REMARK    2  A    between atoms: C_8  and  N_9 
ROOT
HETATM    1  C   UNL     1      76.647   2.636  17.897  1.00  0.00     0.040 A 
HETATM    2  C   UNL     1      77.055   3.979  17.968  1.00  0.00     0.058 A 
HETATM    3  C   UNL     1      76.320   4.993  17.342  1.00  0.00     0.027 A 
HETATM    4  C   UNL     1      75.452   2.330  17.232  1.00  0.00     0.030 A 
HETATM    5  C   UNL     1      74.675   3.348  16.675  1.00  0.00     0.004 A 
HETATM    6  C   UNL     1      75.100   4.673  16.748  1.00  0.00     0.029 A 
ENDROOT
BRANCH   1   7
HETATM    7  N   UNL     1      77.434   1.601  18.494  1.00  0.00    -0.333 N 
HETATM    8  C   UNL     1      77.395   0.250  18.194  1.00  0.00     0.096 A 
HETATM    9  C   UNL     1      78.292  -0.425  18.992  1.00  0.00     0.019 A 
HETATM   10  C   UNL     1      78.914   0.529  19.819  1.00  0.00     0.019 A 
HETATM   11  C   UNL     1      78.378   1.756  19.497  1.00  0.00     0.096 A 
ENDBRANCH   1   7
BRANCH   3  12
HETATM   12  N   UNL     1      76.692   6.335  17.505  1.00  0.00    -0.399 N 
HETATM   13  H   UNL     1      76.022   7.048  17.395  1.00  0.00     0.156 HD
HETATM   14  H   UNL     1      77.622   6.564  17.730  1.00  0.00     0.156 HD
ENDBRANCH   3  12
TORSDOF 2
ENDMDL
MODEL 7
REMARK VINA RESULT:      -4.6     18.621     20.446
REMARK  2 active torsions:
REMARK  status: ('A' for Active; 'I' for Inactive)
REMARK    1  A    between atoms: N_1  and  C_2 
REMARK    2  A    between atoms: C_8  and  N_9 
ROOT
HETATM    1  C   UNL     1      63.393   9.070   4.696  1.00  0.00     0.040 A 
HETATM    2  C   UNL     1      62.975   8.747   3.393  1.00  0.00     0.058 A 
HETATM    3  C   UNL     1      62.159   9.615   2.658  1.00  0.00     0.027 A 
HETATM    4  C   UNL     1      63.026  10.312   5.232  1.00  0.00     0.030 A 
HETATM    5  C   UNL     1      62.279  11.214   4.471  1.00  0.00     0.004 A 
HETATM    6  C   UNL     1      61.866  10.873   3.185  1.00  0.00     0.029 A 
ENDROOT
BRANCH   1   7
HETATM    7  N   UNL     1      64.182   8.152   5.458  1.00  0.00    -0.333 N 
HETATM    8  C   UNL     1      63.720   7.072   6.192  1.00  0.00     0.096 A 
HETATM    9  C   UNL     1      64.783   6.438   6.796  1.00  0.00     0.019 A 
HETATM   10  C   UNL     1      65.947   7.139   6.433  1.00  0.00     0.019 A 
HETATM   11  C   UNL     1      65.558   8.177   5.616  1.00  0.00     0.096 A 
ENDBRANCH   1   7
BRANCH   3  12
HETATM   12  N   UNL     1      61.832   9.317   1.328  1.00  0.00    -0.399 N 
HETATM   13  H   UNL     1      61.169   9.865   0.849  1.00  0.00     0.156 HD
HETATM   14  H   UNL     1      62.266   8.560   0.873  1.00  0.00     0.156 HD
ENDBRANCH   3  12
TORSDOF 2
ENDMDL
MODEL 8
REMARK VINA RESULT:      -4.6     14.450     16.068
REMARK  2 active torsions:
REMARK  status: ('A' for Active; 'I' for Inactive)
REMARK    1  A    between atoms: N_1  and  C_2 
REMARK    2  A    between atoms: C_8  and  N_9 
ROOT
HETATM    1  C   UNL     1      68.252   5.126   8.090  1.00  0.00     0.040 A 
HETATM    2  C   UNL     1      67.516   4.008   8.518  1.00  0.00     0.058 A 
HETATM    3  C   UNL     1      68.109   3.005   9.295  1.00  0.00     0.027 A 
HETATM    4  C   UNL     1      69.584   5.255   8.504  1.00  0.00     0.030 A 
HETATM    5  C   UNL     1      70.155   4.297   9.344  1.00  0.00     0.004 A 
HETATM    6  C   UNL     1      69.414   3.190   9.752  1.00  0.00     0.029 A 
ENDROOT
BRANCH   1   7
HETATM    7  N   UNL     1      67.650   6.117   7.251  1.00  0.00    -0.333 N 
HETATM    8  C   UNL     1      67.833   6.272   5.887  1.00  0.00     0.096 A 
HETATM    9  C   UNL     1      67.094   7.346   5.443  1.00  0.00     0.019 A 
HETATM   10  C   UNL     1      66.429   7.884   6.559  1.00  0.00     0.019 A 
HETATM   11  C   UNL     1      66.779   7.119   7.648  1.00  0.00     0.096 A 
ENDBRANCH   1   7
BRANCH   3  12
HETATM   12  N   UNL     1      67.334   1.948   9.791  1.00  0.00    -0.399 N 
HETATM   13  H   UNL     1      66.803   2.069  10.611  1.00  0.00     0.156 HD
HETATM   14  H   UNL     1      67.321   1.084   9.319  1.00  0.00     0.156 HD
ENDBRANCH   3  12
TORSDOF 2
ENDMDL
MODEL 9
REMARK VINA RESULT:      -4.6     14.790     16.385
REMARK  2 active torsions:
REMARK  status: ('A' for Active; 'I' for Inactive)
REMARK    1  A    between atoms: N_1  and  C_2 
REMARK    2  A    between atoms: C_8  and  N_9 
ROOT
HETATM    1  C   UNL     1      68.140   4.884   7.354  1.00  0.00     0.040 A 
HETATM    2  C   UNL     1      68.649   4.826   8.663  1.00  0.00     0.058 A 
HETATM    3  C   UNL     1      69.083   3.616   9.218  1.00  0.00     0.027 A 
HETATM    4  C   UNL     1      68.128   3.713   6.584  1.00  0.00     0.030 A 
HETATM    5  C   UNL     1      68.634   2.521   7.107  1.00  0.00     0.004 A 
HETATM    6  C   UNL     1      69.126   2.480   8.411  1.00  0.00     0.029 A 
ENDROOT
BRANCH   1   7
HETATM    7  N   UNL     1      67.648   6.115   6.816  1.00  0.00    -0.333 N 
HETATM    8  C   UNL     1      66.882   7.061   7.474  1.00  0.00     0.096 A 
HETATM    9  C   UNL     1      66.597   8.100   6.617  1.00  0.00     0.019 A 
HETATM   10  C   UNL     1      67.200   7.799   5.382  1.00  0.00     0.019 A 
HETATM   11  C   UNL     1      67.837   6.587   5.527  1.00  0.00     0.096 A 
ENDBRANCH   1   7
BRANCH   3  12
HETATM   12  N   UNL     1      69.675   3.597  10.489  1.00  0.00    -0.399 N 
HETATM   13  H   UNL     1      69.169   3.258  11.262  1.00  0.00     0.156 HD
HETATM   14  H   UNL     1      70.595   3.923  10.608  1.00  0.00     0.156 HD
ENDBRANCH   3  12
TORSDOF 2
ENDMDL
