MODEL 1
REMARK VINA RESULT:      -5.2      0.000      0.000
REMARK  3 active torsions:
REMARK  status: ('A' for Active; 'I' for Inactive)
REMARK    1  A    between atoms: N_1  and  C_2 
REMARK    2  A    between atoms: C_8  and  C_12 
REMARK    3  A    between atoms: N_9  and  C_12 
ROOT
HETATM    1  C   UNL     1      76.141   4.402  17.101  1.00  0.00     0.038 A 
HETATM    2  C   UNL     1      76.998   3.478  17.722  1.00  0.00     0.038 A 
HETATM    3  C   UNL     1      76.600   2.146  17.940  1.00  0.00    -0.031 A 
HETATM    4  C   UNL     1      74.877   3.967  16.677  1.00  0.00     0.030 A 
HETATM    5  C   UNL     1      74.481   2.641  16.875  1.00  0.00     0.003 A 
HETATM    6  C   UNL     1      75.334   1.737  17.505  1.00  0.00     0.009 A 
ENDROOT
BRANCH   1   7
HETATM    7  N   UNL     1      76.544   5.764  16.923  1.00  0.00    -0.333 N 
HETATM    8  C   UNL     1      76.827   6.394  15.723  1.00  0.00     0.096 A 
HETATM    9  C   UNL     1      77.149   7.712  15.960  1.00  0.00     0.019 A 
HETATM   10  C   UNL     1      77.079   7.915  17.350  1.00  0.00     0.019 A 
HETATM   11  C   UNL     1      76.710   6.714  17.917  1.00  0.00     0.096 A 
ENDBRANCH   1   7
BRANCH   3  12
HETATM   12  C   UNL     1      77.506   1.193  18.676  1.00  0.00     0.268 C 
BRANCH  12  13
HETATM   13  N   UNL     1      78.629   1.882  19.301  1.00  0.00    -0.075 N 
HETATM   14  H   UNL     1      78.526   1.852  20.315  1.00  0.00     0.274 HD
HETATM   15  H   UNL     1      78.647   2.854  18.989  1.00  0.00     0.274 HD
HETATM   16  H   UNL     1      79.501   1.424  19.034  1.00  0.00     0.274 HD
ENDBRANCH  12  13
ENDBRANCH   3  12
TORSDOF 3
ENDMDL
MODEL 2
REMARK VINA RESULT:      -5.0     17.377     18.713
REMARK  3 active torsions:
REMARK  status: ('A' for Active; 'I' for Inactive)
REMARK    1  A    between atoms: N_1  and  C_2 
REMARK    2  A    between atoms: C_8  and  C_12 
REMARK    3  A    between atoms: N_9  and  C_12 
ROOT
HETATM    1  C   UNL     1      63.287   8.481   4.624  1.00  0.00     0.038 A 
HETATM    2  C   UNL     1      64.669   8.531   4.871  1.00  0.00     0.038 A 
HETATM    3  C   UNL     1      65.272   7.680   5.817  1.00  0.00    -0.031 A 
HETATM    4  C   UNL     1      62.511   7.547   5.326  1.00  0.00     0.030 A 
HETATM    5  C   UNL     1      63.106   6.687   6.255  1.00  0.00     0.003 A 
HETATM    6  C   UNL     1      64.476   6.756   6.502  1.00  0.00     0.009 A 
ENDROOT
BRANCH   1   7
HETATM    7  N   UNL     1      62.682   9.380   3.689  1.00  0.00    -0.333 N 
HETATM    8  C   UNL     1      62.271  10.679   3.937  1.00  0.00     0.096 A 
HETATM    9  C   UNL     1      61.764  11.230   2.780  1.00  0.00     0.019 A 
HETATM   10  C   UNL     1      61.849  10.247   1.778  1.00  0.00     0.019 A 
HETATM   11  C   UNL     1      62.409   9.127   2.355  1.00  0.00     0.096 A 
ENDBRANCH   1   7
BRANCH   3  12
HETATM   12  C   UNL     1      66.743   7.804   6.121  1.00  0.00     0.268 C 
BRANCH  12  13
HETATM   13  N   UNL     1      66.994   8.688   7.253  1.00  0.00    -0.075 N 
HETATM   14  H   UNL     1      66.667   8.243   8.111  1.00  0.00     0.274 HD
HETATM   15  H   UNL     1      66.495   9.567   7.114  1.00  0.00     0.274 HD
HETATM   16  H   UNL     1      67.995   8.873   7.325  1.00  0.00     0.274 HD
ENDBRANCH  12  13
ENDBRANCH   3  12
TORSDOF 3
ENDMDL
MODEL 3
REMARK VINA RESULT:      -4.9     18.023     19.738
REMARK  3 active torsions:
REMARK  status: ('A' for Active; 'I' for Inactive)
REMARK    1  A    between atoms: N_1  and  C_2 
REMARK    2  A    between atoms: C_8  and  C_12 
REMARK    3  A    between atoms: N_9  and  C_12 
ROOT
HETATM    1  C   UNL     1      63.399   9.073   4.695  1.00  0.00     0.038 A 
HETATM    2  C   UNL     1      62.967   8.736   3.402  1.00  0.00     0.038 A 
HETATM    3  C   UNL     1      62.176   9.620   2.643  1.00  0.00    -0.031 A 
HETATM    4  C   UNL     1      63.044  10.325   5.218  1.00  0.00     0.030 A 
HETATM    5  C   UNL     1      62.273  11.215   4.464  1.00  0.00     0.003 A 
HETATM    6  C   UNL     1      61.838  10.864   3.187  1.00  0.00     0.009 A 
ENDROOT
BRANCH   1   7
HETATM    7  N   UNL     1      64.168   8.148   5.470  1.00  0.00    -0.333 N 
HETATM    8  C   UNL     1      63.685   7.070   6.192  1.00  0.00     0.096 A 
HETATM    9  C   UNL     1      64.735   6.400   6.780  1.00  0.00     0.019 A 
HETATM   10  C   UNL     1      65.914   7.083   6.427  1.00  0.00     0.019 A 
HETATM   11  C   UNL     1      65.544   8.145   5.631  1.00  0.00     0.096 A 
ENDBRANCH   1   7
BRANCH   3  12
HETATM   12  C   UNL     1      61.661   9.206   1.289  1.00  0.00     0.268 C 
BRANCH  12  13
HETATM   13  N   UNL     1      60.275   8.756   1.347  1.00  0.00    -0.075 N 
HETATM   14  H   UNL     1      59.888   8.964   2.268  1.00  0.00     0.274 HD
HETATM   15  H   UNL     1      60.236   7.750   1.180  1.00  0.00     0.274 HD
HETATM   16  H   UNL     1      59.730   9.240   0.632  1.00  0.00     0.274 HD
ENDBRANCH  12  13
ENDBRANCH   3  12
TORSDOF 3
ENDMDL
MODEL 4
REMARK VINA RESULT:      -4.9     17.202     18.928
REMARK  3 active torsions:
REMARK  status: ('A' for Active; 'I' for Inactive)
REMARK    1  A    between atoms: N_1  and  C_2 
REMARK    2  A    between atoms: C_8  and  C_12 
REMARK    3  A    between atoms: N_9  and  C_12 
ROOT
HETATM    1  C   UNL     1      64.049   7.971   4.689  1.00  0.00     0.038 A 
HETATM    2  C   UNL     1      63.374   9.203   4.709  1.00  0.00     0.038 A 
HETATM    3  C   UNL     1      62.562   9.607   3.632  1.00  0.00    -0.031 A 
HETATM    4  C   UNL     1      63.885   7.132   3.578  1.00  0.00     0.030 A 
HETATM    5  C   UNL     1      63.066   7.518   2.512  1.00  0.00     0.003 A 
HETATM    6  C   UNL     1      62.412   8.749   2.536  1.00  0.00     0.009 A 
ENDROOT
BRANCH   1   7
HETATM    7  N   UNL     1      64.903   7.592   5.773  1.00  0.00    -0.333 N 
HETATM    8  C   UNL     1      64.635   6.647   6.748  1.00  0.00     0.096 A 
HETATM    9  C   UNL     1      65.713   6.543   7.599  1.00  0.00     0.019 A 
HETATM   10  C   UNL     1      66.685   7.458   7.153  1.00  0.00     0.019 A 
HETATM   11  C   UNL     1      66.169   8.087   6.041  1.00  0.00     0.096 A 
ENDBRANCH   1   7
BRANCH   3  12
HETATM   12  C   UNL     1      61.908  10.965   3.641  1.00  0.00     0.268 C 
BRANCH  12  13
HETATM   13  N   UNL     1      61.578  11.420   2.296  1.00  0.00    -0.075 N 
HETATM   14  H   UNL     1      62.281  12.089   1.981  1.00  0.00     0.274 HD
HETATM   15  H   UNL     1      60.661  11.868   2.304  1.00  0.00     0.274 HD
HETATM   16  H   UNL     1      61.560  10.621   1.661  1.00  0.00     0.274 HD
ENDBRANCH  12  13
ENDBRANCH   3  12
TORSDOF 3
ENDMDL
MODEL 5
REMARK VINA RESULT:      -4.8     19.733     21.343
REMARK  3 active torsions:
REMARK  status: ('A' for Active; 'I' for Inactive)
REMARK    1  A    between atoms: N_1  and  C_2 
REMARK    2  A    between atoms: C_8  and  C_12 
REMARK    3  A    between atoms: N_9  and  C_12 
ROOT
HETATM    1  C   UNL     1      62.447   8.830   2.027  1.00  0.00     0.038 A 
HETATM    2  C   UNL     1      62.750   8.853   3.398  1.00  0.00     0.038 A 
HETATM    3  C   UNL     1      62.560  10.016   4.168  1.00  0.00    -0.031 A 
HETATM    4  C   UNL     1      61.927   9.990   1.434  1.00  0.00     0.030 A 
HETATM    5  C   UNL     1      61.720  11.143   2.195  1.00  0.00     0.003 A 
HETATM    6  C   UNL     1      62.038  11.159   3.552  1.00  0.00     0.009 A 
ENDROOT
BRANCH   1   7
HETATM    7  N   UNL     1      62.684   7.653   1.248  1.00  0.00    -0.333 N 
HETATM    8  C   UNL     1      62.416   7.483  -0.099  1.00  0.00     0.096 A 
HETATM    9  C   UNL     1      62.811   6.223  -0.493  1.00  0.00     0.019 A 
HETATM   10  C   UNL     1      63.332   5.577   0.642  1.00  0.00     0.019 A 
HETATM   11  C   UNL     1      63.243   6.466   1.692  1.00  0.00     0.096 A 
ENDBRANCH   1   7
BRANCH   3  12
HETATM   12  C   UNL     1      62.964  10.040   5.620  1.00  0.00     0.268 C 
BRANCH  12  13
HETATM   13  N   UNL     1      63.418  11.361   6.038  1.00  0.00    -0.075 N 
HETATM   14  H   UNL     1      64.095  11.265   6.795  1.00  0.00     0.274 HD
HETATM   15  H   UNL     1      62.620  11.908   6.361  1.00  0.00     0.274 HD
HETATM   16  H   UNL     1      63.857  11.835   5.248  1.00  0.00     0.274 HD
ENDBRANCH  12  13
ENDBRANCH   3  12
TORSDOF 3
ENDMDL
MODEL 6
REMARK VINA RESULT:      -4.6     11.511     12.814
REMARK  3 active torsions:
REMARK  status: ('A' for Active; 'I' for Inactive)
REMARK    1  A    between atoms: N_1  and  C_2 
REMARK    2  A    between atoms: C_8  and  C_12 
REMARK    3  A    between atoms: N_9  and  C_12 
ROOT
HETATM    1  C   UNL     1      68.289   5.057   8.062  1.00  0.00     0.038 A 
HETATM    2  C   UNL     1      67.660   3.834   8.349  1.00  0.00     0.038 A 
HETATM    3  C   UNL     1      68.298   2.850   9.128  1.00  0.00    -0.031 A 
HETATM    4  C   UNL     1      69.568   5.294   8.586  1.00  0.00     0.030 A 
HETATM    5  C   UNL     1      70.201   4.329   9.375  1.00  0.00     0.003 A 
HETATM    6  C   UNL     1      69.573   3.113   9.641  1.00  0.00     0.009 A 
ENDROOT
BRANCH   1   7
HETATM    7  N   UNL     1      67.646   6.030   7.234  1.00  0.00    -0.333 N 
HETATM    8  C   UNL     1      66.873   7.098   7.658  1.00  0.00     0.096 A 
HETATM    9  C   UNL     1      66.453   7.826   6.567  1.00  0.00     0.019 A 
HETATM   10  C   UNL     1      66.967   7.192   5.421  1.00  0.00     0.019 A 
HETATM   11  C   UNL     1      67.688   6.099   5.851  1.00  0.00     0.096 A 
ENDBRANCH   1   7
BRANCH   3  12
HETATM   12  C   UNL     1      67.635   1.516   9.359  1.00  0.00     0.268 C 
BRANCH  12  13
HETATM   13  N   UNL     1      67.292   1.314  10.761  1.00  0.00    -0.075 N 
HETATM   14  H   UNL     1      66.739   2.103  11.094  1.00  0.00     0.274 HD
HETATM   15  H   UNL     1      68.148   1.241  11.313  1.00  0.00     0.274 HD
HETATM   16  H   UNL     1      66.751   0.454  10.859  1.00  0.00     0.274 HD
ENDBRANCH  12  13
ENDBRANCH   3  12
TORSDOF 3
ENDMDL
MODEL 7
REMARK VINA RESULT:      -4.5      1.577      2.578
REMARK  3 active torsions:
REMARK  status: ('A' for Active; 'I' for Inactive)
REMARK    1  A    between atoms: N_1  and  C_2 
REMARK    2  A    between atoms: C_8  and  C_12 
REMARK    3  A    between atoms: N_9  and  C_12 
ROOT
HETATM    1  C   UNL     1      75.931   2.106  17.859  1.00  0.00     0.038 A 
HETATM    2  C   UNL     1      77.027   1.311  18.233  1.00  0.00     0.038 A 
HETATM    3  C   UNL     1      76.861  -0.042  18.582  1.00  0.00    -0.031 A 
HETATM    4  C   UNL     1      74.657   1.519  17.818  1.00  0.00     0.030 A 
HETATM    5  C   UNL     1      74.487   0.171  18.147  1.00  0.00     0.003 A 
HETATM    6  C   UNL     1      75.580  -0.604  18.530  1.00  0.00     0.009 A 
ENDROOT
BRANCH   1   7
HETATM    7  N   UNL     1      76.108   3.491  17.547  1.00  0.00    -0.333 N 
HETATM    8  C   UNL     1      77.039   4.353  18.102  1.00  0.00     0.096 A 
HETATM    9  C   UNL     1      76.919   5.597  17.523  1.00  0.00     0.019 A 
HETATM   10  C   UNL     1      75.875   5.520  16.584  1.00  0.00     0.019 A 
HETATM   11  C   UNL     1      75.394   4.228  16.617  1.00  0.00     0.096 A 
ENDBRANCH   1   7
BRANCH   3  12
HETATM   12  C   UNL     1      78.040  -0.855  19.053  1.00  0.00     0.268 C 
BRANCH  12  13
HETATM   13  N   UNL     1      79.233  -0.035  19.224  1.00  0.00    -0.075 N 
HETATM   14  H   UNL     1      79.462   0.031  20.216  1.00  0.00     0.274 HD
HETATM   15  H   UNL     1      79.061   0.899  18.851  1.00  0.00     0.274 HD
HETATM   16  H   UNL     1      80.014  -0.462  18.724  1.00  0.00     0.274 HD
ENDBRANCH  12  13
ENDBRANCH   3  12
TORSDOF 3
ENDMDL
MODEL 8
REMARK VINA RESULT:      -4.5     13.414     15.268
REMARK  3 active torsions:
REMARK  status: ('A' for Active; 'I' for Inactive)
REMARK    1  A    between atoms: N_1  and  C_2 
REMARK    2  A    between atoms: C_8  and  C_12 
REMARK    3  A    between atoms: N_9  and  C_12 
ROOT
HETATM    1  C   UNL     1      67.203   6.155   6.686  1.00  0.00     0.038 A 
HETATM    2  C   UNL     1      65.806   6.199   6.822  1.00  0.00     0.038 A 
HETATM    3  C   UNL     1      65.021   7.043   6.014  1.00  0.00    -0.031 A 
HETATM    4  C   UNL     1      67.810   6.958   5.709  1.00  0.00     0.030 A 
HETATM    5  C   UNL     1      67.036   7.785   4.891  1.00  0.00     0.003 A 
HETATM    6  C   UNL     1      65.651   7.832   5.044  1.00  0.00     0.009 A 
ENDROOT
BRANCH   1   7
HETATM    7  N   UNL     1      67.992   5.323   7.543  1.00  0.00    -0.333 N 
HETATM    8  C   UNL     1      68.381   5.604   8.842  1.00  0.00     0.096 A 
HETATM    9  C   UNL     1      69.106   4.546   9.345  1.00  0.00     0.019 A 
HETATM   10  C   UNL     1      69.185   3.575   8.330  1.00  0.00     0.019 A 
HETATM   11  C   UNL     1      68.502   4.071   7.241  1.00  0.00     0.096 A 
ENDBRANCH   1   7
BRANCH   3  12
HETATM   12  C   UNL     1      63.532   7.130   6.228  1.00  0.00     0.268 C 
BRANCH  12  13
HETATM   13  N   UNL     1      63.041   8.496   6.094  1.00  0.00    -0.075 N 
HETATM   14  H   UNL     1      62.025   8.504   6.187  1.00  0.00     0.274 HD
HETATM   15  H   UNL     1      63.302   8.863   5.178  1.00  0.00     0.274 HD
HETATM   16  H   UNL     1      63.453   9.080   6.823  1.00  0.00     0.274 HD
ENDBRANCH  12  13
ENDBRANCH   3  12
TORSDOF 3
ENDMDL
MODEL 9
REMARK VINA RESULT:      -4.4     12.273     14.166
REMARK  3 active torsions:
REMARK  status: ('A' for Active; 'I' for Inactive)
REMARK    1  A    between atoms: N_1  and  C_2 
REMARK    2  A    between atoms: C_8  and  C_12 
REMARK    3  A    between atoms: N_9  and  C_12 
ROOT
HETATM    1  C   UNL     1      68.035   4.355   6.897  1.00  0.00     0.038 A 
HETATM    2  C   UNL     1      67.983   5.748   6.720  1.00  0.00     0.038 A 
HETATM    3  C   UNL     1      67.597   6.313   5.491  1.00  0.00    -0.031 A 
HETATM    4  C   UNL     1      67.673   3.527   5.825  1.00  0.00     0.030 A 
HETATM    5  C   UNL     1      67.271   4.082   4.606  1.00  0.00     0.003 A 
HETATM    6  C   UNL     1      67.237   5.465   4.438  1.00  0.00     0.009 A 
ENDROOT
BRANCH   1   7
HETATM    7  N   UNL     1      68.469   3.795   8.140  1.00  0.00    -0.333 N 
HETATM    8  C   UNL     1      69.485   4.269   8.953  1.00  0.00     0.096 A 
HETATM    9  C   UNL     1      69.584   3.478  10.077  1.00  0.00     0.019 A 
HETATM   10  C   UNL     1      68.610   2.469   9.962  1.00  0.00     0.019 A 
HETATM   11  C   UNL     1      67.945   2.680   8.774  1.00  0.00     0.096 A 
ENDBRANCH   1   7
BRANCH   3  12
HETATM   12  C   UNL     1      67.622   7.809   5.301  1.00  0.00     0.268 C 
BRANCH  12  13
HETATM   13  N   UNL     1      68.955   8.293   4.968  1.00  0.00    -0.075 N 
HETATM   14  H   UNL     1      69.538   8.291   5.805  1.00  0.00     0.274 HD
HETATM   15  H   UNL     1      68.890   9.243   4.600  1.00  0.00     0.274 HD
HETATM   16  H   UNL     1      69.373   7.685   4.263  1.00  0.00     0.274 HD
ENDBRANCH  12  13
ENDBRANCH   3  12
TORSDOF 3
ENDMDL
