MODEL 1
REMARK VINA RESULT:      -6.7      0.000      0.000
REMARK  2 active torsions:
REMARK  status: ('A' for Active; 'I' for Inactive)
REMARK    1  A    between atoms: N_1  and  C_3 
REMARK    2  A    between atoms: C_2  and  C_4 
ROOT
HETATM    1  C   UNL     1      78.536  12.386  21.061  1.00  0.00     0.039 A 
HETATM    2  C   UNL     1      77.607  11.109  19.211  1.00  0.00     0.043 A 
HETATM    3  C   UNL     1      78.563  11.262  20.223  1.00  0.00     0.048 A 
HETATM    4  C   UNL     1      77.563  13.374  20.845  1.00  0.00     0.030 A 
HETATM    5  C   UNL     1      76.646  12.105  19.003  1.00  0.00     0.018 A 
HETATM    6  C   UNL     1      76.629  13.237  19.816  1.00  0.00     0.003 A 
ENDROOT
BRANCH   1   7
HETATM    7  N   UNL     1      79.474  12.510  22.131  1.00  0.00    -0.333 N 
HETATM    8  C   UNL     1      79.254  12.205  23.461  1.00  0.00     0.096 A 
HETATM    9  C   UNL     1      80.401  12.448  24.182  1.00  0.00     0.019 A 
HETATM   10  C   UNL     1      81.368  12.924  23.278  1.00  0.00     0.019 A 
HETATM   11  C   UNL     1      80.784  12.944  22.031  1.00  0.00     0.096 A 
ENDBRANCH   1   7
BRANCH   2  12
HETATM   12  C   UNL     1      77.555   9.892  18.369  1.00  0.00     0.209 C 
HETATM   13  O   UNL     1      77.323   8.762  18.763  1.00  0.00    -0.644 OA
HETATM   14  O   UNL     1      77.836  10.134  17.076  1.00  0.00    -0.644 OA
ENDBRANCH   2  12
TORSDOF 2
ENDMDL
MODEL 2
REMARK VINA RESULT:      -6.4      2.955      4.727
REMARK  2 active torsions:
REMARK  status: ('A' for Active; 'I' for Inactive)
REMARK    1  A    between atoms: N_1  and  C_3 
REMARK    2  A    between atoms: C_2  and  C_4 
ROOT
HETATM    1  C   UNL     1      77.281  10.106  17.962  1.00  0.00     0.039 A 
HETATM    2  C   UNL     1      77.495   9.075  15.769  1.00  0.00     0.043 A 
HETATM    3  C   UNL     1      77.468  10.219  16.576  1.00  0.00     0.048 A 
HETATM    4  C   UNL     1      77.083   8.835  18.521  1.00  0.00     0.030 A 
HETATM    5  C   UNL     1      77.290   7.814  16.340  1.00  0.00     0.018 A 
HETATM    6  C   UNL     1      77.080   7.697  17.712  1.00  0.00     0.003 A 
ENDROOT
BRANCH   1   7
HETATM    7  N   UNL     1      77.314  11.269  18.790  1.00  0.00    -0.333 N 
HETATM    8  C   UNL     1      76.543  12.408  18.647  1.00  0.00     0.096 A 
HETATM    9  C   UNL     1      76.857  13.301  19.645  1.00  0.00     0.019 A 
HETATM   10  C   UNL     1      77.858  12.708  20.436  1.00  0.00     0.019 A 
HETATM   11  C   UNL     1      78.114  11.465  19.902  1.00  0.00     0.096 A 
ENDBRANCH   1   7
BRANCH   2  12
HETATM   12  C   UNL     1      77.778   9.155  14.317  1.00  0.00     0.209 C 
HETATM   13  O   UNL     1      77.845  10.180  13.660  1.00  0.00    -0.644 OA
HETATM   14  O   UNL     1      77.924   7.948  13.742  1.00  0.00    -0.644 OA
ENDBRANCH   2  12
TORSDOF 2
ENDMDL
MODEL 3
REMARK VINA RESULT:      -6.3      2.882      5.421
REMARK  2 active torsions:
REMARK  status: ('A' for Active; 'I' for Inactive)
REMARK    1  A    between atoms: N_1  and  C_3 
REMARK    2  A    between atoms: C_2  and  C_4 
ROOT
HETATM    1  C   UNL     1      77.326  11.198  18.940  1.00  0.00     0.039 A 
HETATM    2  C   UNL     1      78.242  12.393  20.850  1.00  0.00     0.043 A 
HETATM    3  C   UNL     1      78.201  11.255  20.034  1.00  0.00     0.048 A 
HETATM    4  C   UNL     1      76.466  12.280  18.697  1.00  0.00     0.030 A 
HETATM    5  C   UNL     1      77.375  13.462  20.600  1.00  0.00     0.018 A 
HETATM    6  C   UNL     1      76.486  13.401  19.529  1.00  0.00     0.003 A 
ENDROOT
BRANCH   1   7
HETATM    7  N   UNL     1      77.328  10.062  18.074  1.00  0.00    -0.333 N 
HETATM    8  C   UNL     1      77.587  10.059  16.716  1.00  0.00     0.096 A 
HETATM    9  C   UNL     1      77.504   8.772  16.237  1.00  0.00     0.019 A 
HETATM   10  C   UNL     1      77.179   7.942  17.326  1.00  0.00     0.019 A 
HETATM   11  C   UNL     1      77.087   8.749  18.438  1.00  0.00     0.096 A 
ENDBRANCH   1   7
BRANCH   2  12
HETATM   12  C   UNL     1      79.216  12.519  21.958  1.00  0.00     0.209 C 
HETATM   13  O   UNL     1      80.326  13.017  21.879  1.00  0.00    -0.644 OA
HETATM   14  O   UNL     1      78.776  11.980  23.109  1.00  0.00    -0.644 OA
ENDBRANCH   2  12
TORSDOF 2
ENDMDL
MODEL 4
REMARK VINA RESULT:      -6.2      4.831      7.788
REMARK  2 active torsions:
REMARK  status: ('A' for Active; 'I' for Inactive)
REMARK    1  A    between atoms: N_1  and  C_3 
REMARK    2  A    between atoms: C_2  and  C_4 
ROOT
HETATM    1  C   UNL     1      76.828   6.823  16.389  1.00  0.00     0.039 A 
HETATM    2  C   UNL     1      77.578   9.062  16.971  1.00  0.00     0.043 A 
HETATM    3  C   UNL     1      77.113   7.798  17.356  1.00  0.00     0.048 A 
HETATM    4  C   UNL     1      76.978   7.144  15.031  1.00  0.00     0.030 A 
HETATM    5  C   UNL     1      77.716   9.371  15.613  1.00  0.00     0.018 A 
HETATM    6  C   UNL     1      77.412   8.415  14.647  1.00  0.00     0.003 A 
ENDROOT
BRANCH   1   7
HETATM    7  N   UNL     1      76.413   5.515  16.786  1.00  0.00    -0.333 N 
HETATM    8  C   UNL     1      77.078   4.664  17.648  1.00  0.00     0.096 A 
HETATM    9  C   UNL     1      76.357   3.500  17.788  1.00  0.00     0.019 A 
HETATM   10  C   UNL     1      75.208   3.622  16.986  1.00  0.00     0.019 A 
HETATM   11  C   UNL     1      75.258   4.863  16.392  1.00  0.00     0.096 A 
ENDBRANCH   1   7
BRANCH   2  12
HETATM   12  C   UNL     1      77.970  10.082  17.970  1.00  0.00     0.209 C 
HETATM   13  O   UNL     1      78.946  10.027  18.699  1.00  0.00    -0.644 OA
HETATM   14  O   UNL     1      77.104  11.108  18.044  1.00  0.00    -0.644 OA
ENDBRANCH   2  12
TORSDOF 2
ENDMDL
MODEL 5
REMARK VINA RESULT:      -5.7      7.977     10.199
REMARK  2 active torsions:
REMARK  status: ('A' for Active; 'I' for Inactive)
REMARK    1  A    between atoms: N_1  and  C_3 
REMARK    2  A    between atoms: C_2  and  C_4 
ROOT
HETATM    1  C   UNL     1      76.621   2.261  17.988  1.00  0.00     0.039 A 
HETATM    2  C   UNL     1      76.182   4.527  17.219  1.00  0.00     0.043 A 
HETATM    3  C   UNL     1      77.006   3.605  17.878  1.00  0.00     0.048 A 
HETATM    4  C   UNL     1      75.382   1.862  17.463  1.00  0.00     0.030 A 
HETATM    5  C   UNL     1      74.947   4.116  16.707  1.00  0.00     0.018 A 
HETATM    6  C   UNL     1      74.547   2.787  16.834  1.00  0.00     0.003 A 
ENDROOT
BRANCH   1   7
HETATM    7  N   UNL     1      77.489   1.311  18.606  1.00  0.00    -0.333 N 
HETATM    8  C   UNL     1      77.541  -0.048  18.353  1.00  0.00     0.096 A 
HETATM    9  C   UNL     1      78.513  -0.622  19.139  1.00  0.00     0.019 A 
HETATM   10  C   UNL     1      79.086   0.405  19.912  1.00  0.00     0.019 A 
HETATM   11  C   UNL     1      78.454   1.577  19.562  1.00  0.00     0.096 A 
ENDBRANCH   1   7
BRANCH   2  12
HETATM   12  C   UNL     1      76.601   5.932  17.010  1.00  0.00     0.209 C 
HETATM   13  O   UNL     1      76.861   6.445  15.935  1.00  0.00    -0.644 OA
HETATM   14  O   UNL     1      76.716   6.623  18.157  1.00  0.00    -0.644 OA
ENDBRANCH   2  12
TORSDOF 2
ENDMDL
MODEL 6
REMARK VINA RESULT:      -5.5     19.952     22.315
REMARK  2 active torsions:
REMARK  status: ('A' for Active; 'I' for Inactive)
REMARK    1  A    between atoms: N_1  and  C_3 
REMARK    2  A    between atoms: C_2  and  C_4 
ROOT
HETATM    1  C   UNL     1      63.902   8.099   4.658  1.00  0.00     0.039 A 
HETATM    2  C   UNL     1      62.575   9.854   3.622  1.00  0.00     0.043 A 
HETATM    3  C   UNL     1      63.381   9.401   4.674  1.00  0.00     0.048 A 
HETATM    4  C   UNL     1      63.571   7.245   3.595  1.00  0.00     0.030 A 
HETATM    5  C   UNL     1      62.248   8.990   2.572  1.00  0.00     0.018 A 
HETATM    6  C   UNL     1      62.741   7.687   2.563  1.00  0.00     0.003 A 
ENDROOT
BRANCH   1   7
HETATM    7  N   UNL     1      64.773   7.659   5.701  1.00  0.00    -0.333 N 
HETATM    8  C   UNL     1      66.045   8.132   5.969  1.00  0.00     0.096 A 
HETATM    9  C   UNL     1      66.560   7.466   7.058  1.00  0.00     0.019 A 
HETATM   10  C   UNL     1      65.585   6.545   7.483  1.00  0.00     0.019 A 
HETATM   11  C   UNL     1      64.500   6.687   6.647  1.00  0.00     0.096 A 
ENDBRANCH   1   7
BRANCH   2  12
HETATM   12  C   UNL     1      62.083  11.250   3.567  1.00  0.00     0.209 C 
HETATM   13  O   UNL     1      61.825  11.953   4.529  1.00  0.00    -0.644 OA
HETATM   14  O   UNL     1      61.897  11.693   2.311  1.00  0.00    -0.644 OA
ENDBRANCH   2  12
TORSDOF 2
ENDMDL
MODEL 7
REMARK VINA RESULT:      -5.3     19.856     22.496
REMARK  2 active torsions:
REMARK  status: ('A' for Active; 'I' for Inactive)
REMARK    1  A    between atoms: N_1  and  C_3 
REMARK    2  A    between atoms: C_2  and  C_4 
ROOT
HETATM    1  C   UNL     1      63.125   8.443   4.561  1.00  0.00     0.039 A 
HETATM    2  C   UNL     1      64.998   7.656   5.898  1.00  0.00     0.043 A 
HETATM    3  C   UNL     1      64.483   8.501   4.907  1.00  0.00     0.048 A 
HETATM    4  C   UNL     1      62.299   7.501   5.193  1.00  0.00     0.030 A 
HETATM    5  C   UNL     1      64.165   6.716   6.515  1.00  0.00     0.018 A 
HETATM    6  C   UNL     1      62.820   6.638   6.159  1.00  0.00     0.003 A 
ENDROOT
BRANCH   1   7
HETATM    7  N   UNL     1      62.589   9.347   3.593  1.00  0.00    -0.333 N 
HETATM    8  C   UNL     1      62.203  10.657   3.812  1.00  0.00     0.096 A 
HETATM    9  C   UNL     1      61.748  11.202   2.633  1.00  0.00     0.019 A 
HETATM   10  C   UNL     1      61.847  10.204   1.647  1.00  0.00     0.019 A 
HETATM   11  C   UNL     1      62.372   9.085   2.252  1.00  0.00     0.096 A 
ENDBRANCH   1   7
BRANCH   2  12
HETATM   12  C   UNL     1      66.406   7.752   6.346  1.00  0.00     0.209 C 
HETATM   13  O   UNL     1      67.237   6.863   6.281  1.00  0.00    -0.644 OA
HETATM   14  O   UNL     1      66.703   8.944   6.895  1.00  0.00    -0.644 OA
ENDBRANCH   2  12
TORSDOF 2
ENDMDL
MODEL 8
REMARK VINA RESULT:      -5.3     21.763     23.731
REMARK  2 active torsions:
REMARK  status: ('A' for Active; 'I' for Inactive)
REMARK    1  A    between atoms: N_1  and  C_3 
REMARK    2  A    between atoms: C_2  and  C_4 
ROOT
HETATM    1  C   UNL     1      63.062   7.834   3.365  1.00  0.00     0.039 A 
HETATM    2  C   UNL     1      62.174   9.961   2.585  1.00  0.00     0.043 A 
HETATM    3  C   UNL     1      62.707   9.169   3.610  1.00  0.00     0.048 A 
HETATM    4  C   UNL     1      62.838   7.293   2.089  1.00  0.00     0.030 A 
HETATM    5  C   UNL     1      61.950   9.406   1.320  1.00  0.00     0.018 A 
HETATM    6  C   UNL     1      62.277   8.074   1.077  1.00  0.00     0.003 A 
ENDROOT
BRANCH   1   7
HETATM    7  N   UNL     1      63.662   7.047   4.394  1.00  0.00    -0.333 N 
HETATM    8  C   UNL     1      64.698   6.144   4.245  1.00  0.00     0.096 A 
HETATM    9  C   UNL     1      65.003   5.592   5.468  1.00  0.00     0.019 A 
HETATM   10  C   UNL     1      64.130   6.162   6.412  1.00  0.00     0.019 A 
HETATM   11  C   UNL     1      63.327   7.054   5.737  1.00  0.00     0.096 A 
ENDBRANCH   1   7
BRANCH   2  12
HETATM   12  C   UNL     1      61.873  11.396   2.790  1.00  0.00     0.209 C 
HETATM   13  O   UNL     1      61.754  12.231   1.909  1.00  0.00    -0.644 OA
HETATM   14  O   UNL     1      61.773  11.734   4.087  1.00  0.00    -0.644 OA
ENDBRANCH   2  12
TORSDOF 2
ENDMDL
MODEL 9
REMARK VINA RESULT:      -5.2     20.683     22.833
REMARK  2 active torsions:
REMARK  status: ('A' for Active; 'I' for Inactive)
REMARK    1  A    between atoms: N_1  and  C_3 
REMARK    2  A    between atoms: C_2  and  C_4 
ROOT
HETATM    1  C   UNL     1      63.518   8.966   4.744  1.00  0.00     0.039 A 
HETATM    2  C   UNL     1      62.280   9.393   2.694  1.00  0.00     0.043 A 
HETATM    3  C   UNL     1      63.119   8.572   3.459  1.00  0.00     0.048 A 
HETATM    4  C   UNL     1      63.098  10.211   5.237  1.00  0.00     0.030 A 
HETATM    5  C   UNL     1      61.875  10.635   3.196  1.00  0.00     0.018 A 
HETATM    6  C   UNL     1      62.288  11.044   4.462  1.00  0.00     0.003 A 
ENDROOT
BRANCH   1   7
HETATM    7  N   UNL     1      64.323   8.100   5.546  1.00  0.00    -0.333 N 
HETATM    8  C   UNL     1      65.693   8.171   5.718  1.00  0.00     0.096 A 
HETATM    9  C   UNL     1      66.098   7.170   6.571  1.00  0.00     0.019 A 
HETATM   10  C   UNL     1      64.950   6.447   6.942  1.00  0.00     0.019 A 
HETATM   11  C   UNL     1      63.877   7.038   6.313  1.00  0.00     0.096 A 
ENDBRANCH   1   7
BRANCH   2  12
HETATM   12  C   UNL     1      61.771   8.966   1.371  1.00  0.00     0.209 C 
HETATM   13  O   UNL     1      62.405   8.967   0.330  1.00  0.00    -0.644 OA
HETATM   14  O   UNL     1      60.479   8.595   1.399  1.00  0.00    -0.644 OA
ENDBRANCH   2  12
TORSDOF 2
ENDMDL
