MODEL 1
REMARK VINA RESULT:      -5.9      0.000      0.000
REMARK  1 active torsions:
REMARK  status: ('A' for Active; 'I' for Inactive)
REMARK    1  A    between atoms: C_5  and  C_8 
ROOT
HETATM    1  N   UNL     1      76.336   3.177  18.052  1.00  0.00    -0.364 N 
ATOM      2  HN  UNL     1      76.752   2.403  18.568  1.00  0.00     0.165 HD
HETATM    3  N   UNL     1      77.313   7.887  17.828  1.00  0.00    -0.191 NA
HETATM    4  C   UNL     1      76.851   6.831  17.694  1.00  0.00     0.101 C 
HETATM    5  C   UNL     1      75.299   2.972  17.196  1.00  0.00     0.042 A 
HETATM    6  C   UNL     1      76.287   5.535  17.521  1.00  0.00     0.060 A 
HETATM    7  C   UNL     1      76.800   4.442  18.198  1.00  0.00     0.111 A 
HETATM    8  C   UNL     1      74.720   4.029  16.492  1.00  0.00     0.032 A 
HETATM    9  C   UNL     1      75.219   5.321  16.655  1.00  0.00     0.026 A 
ENDROOT
BRANCH   5  10
HETATM   10  C   UNL     1      74.864   1.572  17.021  1.00  0.00    -0.009 A 
HETATM   11  C   UNL     1      74.460   0.776  18.109  1.00  0.00     0.013 A 
HETATM   12  C   UNL     1      74.004  -0.531  17.923  1.00  0.00     0.001 A 
HETATM   13  C   UNL     1      73.949  -1.076  16.644  1.00  0.00     0.000 A 
HETATM   14  C   UNL     1      74.357  -0.316  15.552  1.00  0.00     0.001 A 
HETATM   15  C   UNL     1      74.813   0.991  15.741  1.00  0.00     0.013 A 
ENDBRANCH   5  10
TORSDOF 1
ENDMDL
MODEL 2
REMARK VINA RESULT:      -5.8     15.796     17.044
REMARK  1 active torsions:
REMARK  status: ('A' for Active; 'I' for Inactive)
REMARK    1  A    between atoms: C_5  and  C_8 
ROOT
HETATM    1  N   UNL     1      64.700   7.434   6.647  1.00  0.00    -0.364 N 
ATOM      2  HN  UNL     1      63.758   7.503   7.029  1.00  0.00     0.165 HD
HETATM    3  N   UNL     1      68.687   5.160   8.107  1.00  0.00    -0.191 NA
HETATM    4  C   UNL     1      67.910   5.806   7.534  1.00  0.00     0.101 C 
HETATM    5  C   UNL     1      65.028   8.042   5.476  1.00  0.00     0.042 A 
HETATM    6  C   UNL     1      66.959   6.592   6.823  1.00  0.00     0.060 A 
HETATM    7  C   UNL     1      65.664   6.732   7.291  1.00  0.00     0.111 A 
HETATM    8  C   UNL     1      66.319   7.958   4.951  1.00  0.00     0.032 A 
HETATM    9  C   UNL     1      67.292   7.225   5.629  1.00  0.00     0.026 A 
ENDROOT
BRANCH   5  10
HETATM   10  C   UNL     1      63.934   8.745   4.777  1.00  0.00    -0.009 A 
HETATM   11  C   UNL     1      63.402   9.957   5.254  1.00  0.00     0.013 A 
HETATM   12  C   UNL     1      62.401  10.637   4.555  1.00  0.00     0.001 A 
HETATM   13  C   UNL     1      61.902  10.114   3.367  1.00  0.00     0.000 A 
HETATM   14  C   UNL     1      62.398   8.908   2.880  1.00  0.00     0.001 A 
HETATM   15  C   UNL     1      63.399   8.231   3.581  1.00  0.00     0.013 A 
ENDBRANCH   5  10
TORSDOF 1
ENDMDL
MODEL 3
REMARK VINA RESULT:      -5.7     16.407     17.790
REMARK  1 active torsions:
REMARK  status: ('A' for Active; 'I' for Inactive)
REMARK    1  A    between atoms: C_5  and  C_8 
ROOT
HETATM    1  N   UNL     1      65.166   8.266   5.985  1.00  0.00    -0.364 N 
ATOM      2  HN  UNL     1      65.575   9.184   5.815  1.00  0.00     0.165 HD
HETATM    3  N   UNL     1      66.578   4.462   8.578  1.00  0.00    -0.191 NA
HETATM    4  C   UNL     1      66.008   5.193   7.880  1.00  0.00     0.101 C 
HETATM    5  C   UNL     1      63.965   7.924   5.447  1.00  0.00     0.042 A 
HETATM    6  C   UNL     1      65.300   6.091   7.031  1.00  0.00     0.060 A 
HETATM    7  C   UNL     1      65.804   7.350   6.754  1.00  0.00     0.111 A 
HETATM    8  C   UNL     1      63.403   6.665   5.670  1.00  0.00     0.032 A 
HETATM    9  C   UNL     1      64.075   5.742   6.469  1.00  0.00     0.026 A 
ENDROOT
BRANCH   5  10
HETATM   10  C   UNL     1      63.277   8.971   4.667  1.00  0.00    -0.009 A 
HETATM   11  C   UNL     1      62.833   8.749   3.350  1.00  0.00     0.013 A 
HETATM   12  C   UNL     1      62.139   9.732   2.641  1.00  0.00     0.001 A 
HETATM   13  C   UNL     1      61.880  10.965   3.230  1.00  0.00     0.000 A 
HETATM   14  C   UNL     1      62.321  11.218   4.526  1.00  0.00     0.001 A 
HETATM   15  C   UNL     1      63.015  10.232   5.233  1.00  0.00     0.013 A 
ENDBRANCH   5  10
TORSDOF 1
ENDMDL
MODEL 4
REMARK VINA RESULT:      -5.5     11.865     13.359
REMARK  1 active torsions:
REMARK  status: ('A' for Active; 'I' for Inactive)
REMARK    1  A    between atoms: C_5  and  C_8 
ROOT
HETATM    1  N   UNL     1      67.125   4.123   8.033  1.00  0.00    -0.364 N 
ATOM      2  HN  UNL     1      66.205   3.949   7.630  1.00  0.00     0.165 HD
HETATM    3  N   UNL     1      70.021   1.529  10.874  1.00  0.00    -0.191 NA
HETATM    4  C   UNL     1      69.544   2.361  10.221  1.00  0.00     0.101 C 
HETATM    5  C   UNL     1      67.795   5.279   7.776  1.00  0.00     0.042 A 
HETATM    6  C   UNL     1      68.966   3.382   9.413  1.00  0.00     0.060 A 
HETATM    7  C   UNL     1      67.717   3.211   8.841  1.00  0.00     0.111 A 
HETATM    8  C   UNL     1      69.052   5.527   8.331  1.00  0.00     0.032 A 
HETATM    9  C   UNL     1      69.643   4.571   9.155  1.00  0.00     0.026 A 
ENDROOT
BRANCH   5  10
HETATM   10  C   UNL     1      67.141   6.218   6.844  1.00  0.00    -0.009 A 
HETATM   11  C   UNL     1      67.839   6.816   5.778  1.00  0.00     0.013 A 
HETATM   12  C   UNL     1      67.196   7.665   4.873  1.00  0.00     0.001 A 
HETATM   13  C   UNL     1      65.841   7.942   5.020  1.00  0.00     0.000 A 
HETATM   14  C   UNL     1      65.129   7.378   6.075  1.00  0.00     0.001 A 
HETATM   15  C   UNL     1      65.775   6.529   6.978  1.00  0.00     0.013 A 
ENDBRANCH   5  10
TORSDOF 1
ENDMDL
MODEL 5
REMARK VINA RESULT:      -5.1     14.915     15.941
REMARK  1 active torsions:
REMARK  status: ('A' for Active; 'I' for Inactive)
REMARK    1  A    between atoms: C_5  and  C_8 
ROOT
HETATM    1  N   UNL     1      65.191   8.156   6.123  1.00  0.00    -0.364 N 
ATOM      2  HN  UNL     1      65.490   8.718   6.919  1.00  0.00     0.165 HD
HETATM    3  N   UNL     1      62.325   9.042   2.355  1.00  0.00    -0.191 NA
HETATM    4  C   UNL     1      63.029   8.552   3.138  1.00  0.00     0.101 C 
HETATM    5  C   UNL     1      65.640   6.883   5.957  1.00  0.00     0.042 A 
HETATM    6  C   UNL     1      63.899   7.949   4.091  1.00  0.00     0.060 A 
HETATM    7  C   UNL     1      64.336   8.655   5.198  1.00  0.00     0.111 A 
HETATM    8  C   UNL     1      65.230   6.105   4.872  1.00  0.00     0.032 A 
HETATM    9  C   UNL     1      64.353   6.643   3.931  1.00  0.00     0.026 A 
ENDROOT
BRANCH   5  10
HETATM   10  C   UNL     1      66.617   6.401   6.953  1.00  0.00    -0.009 A 
HETATM   11  C   UNL     1      66.612   6.858   8.283  1.00  0.00     0.013 A 
HETATM   12  C   UNL     1      67.510   6.355   9.228  1.00  0.00     0.001 A 
HETATM   13  C   UNL     1      68.441   5.389   8.861  1.00  0.00     0.000 A 
HETATM   14  C   UNL     1      68.478   4.930   7.547  1.00  0.00     0.001 A 
HETATM   15  C   UNL     1      67.579   5.434   6.605  1.00  0.00     0.013 A 
ENDBRANCH   5  10
TORSDOF 1
ENDMDL
MODEL 6
REMARK VINA RESULT:      -4.9     13.871     14.830
REMARK  1 active torsions:
REMARK  status: ('A' for Active; 'I' for Inactive)
REMARK    1  A    between atoms: C_5  and  C_8 
ROOT
HETATM    1  N   UNL     1      65.329   5.798   6.184  1.00  0.00    -0.364 N 
ATOM      2  HN  UNL     1      65.082   4.850   6.468  1.00  0.00     0.165 HD
HETATM    3  N   UNL     1      62.855   9.355   4.082  1.00  0.00    -0.191 NA
HETATM    4  C   UNL     1      63.679   8.698   4.568  1.00  0.00     0.101 C 
HETATM    5  C   UNL     1      66.575   6.294   6.407  1.00  0.00     0.042 A 
HETATM    6  C   UNL     1      64.691   7.897   5.170  1.00  0.00     0.060 A 
HETATM    7  C   UNL     1      64.424   6.600   5.572  1.00  0.00     0.111 A 
HETATM    8  C   UNL     1      66.921   7.588   6.014  1.00  0.00     0.032 A 
HETATM    9  C   UNL     1      65.972   8.397   5.392  1.00  0.00     0.026 A 
ENDROOT
BRANCH   5  10
HETATM   10  C   UNL     1      67.510   5.409   7.130  1.00  0.00    -0.009 A 
HETATM   11  C   UNL     1      67.930   4.176   6.597  1.00  0.00     0.013 A 
HETATM   12  C   UNL     1      68.854   3.372   7.269  1.00  0.00     0.001 A 
HETATM   13  C   UNL     1      69.372   3.778   8.494  1.00  0.00     0.000 A 
HETATM   14  C   UNL     1      68.962   4.986   9.052  1.00  0.00     0.001 A 
HETATM   15  C   UNL     1      68.038   5.788   8.378  1.00  0.00     0.013 A 
ENDBRANCH   5  10
TORSDOF 1
ENDMDL
MODEL 7
REMARK VINA RESULT:      -4.8     31.795     33.107
REMARK  1 active torsions:
REMARK  status: ('A' for Active; 'I' for Inactive)
REMARK    1  A    between atoms: C_5  and  C_8 
ROOT
HETATM    1  N   UNL     1      47.349  15.586   4.001  1.00  0.00    -0.364 N 
ATOM      2  HN  UNL     1      46.652  15.875   3.315  1.00  0.00     0.165 HD
HETATM    3  N   UNL     1      47.369  12.251   7.474  1.00  0.00    -0.191 NA
HETATM    4  C   UNL     1      47.641  13.115   6.748  1.00  0.00     0.101 C 
HETATM    5  C   UNL     1      48.579  16.164   4.034  1.00  0.00     0.042 A 
HETATM    6  C   UNL     1      47.981  14.170   5.854  1.00  0.00     0.060 A 
HETATM    7  C   UNL     1      47.078  14.614   4.905  1.00  0.00     0.111 A 
HETATM    8  C   UNL     1      49.536  15.779   4.975  1.00  0.00     0.032 A 
HETATM    9  C   UNL     1      49.236  14.772   5.891  1.00  0.00     0.026 A 
ENDROOT
BRANCH   5  10
HETATM   10  C   UNL     1      48.854  17.175   2.994  1.00  0.00    -0.009 A 
HETATM   11  C   UNL     1      48.204  18.423   2.978  1.00  0.00     0.013 A 
HETATM   12  C   UNL     1      48.510  19.390   2.017  1.00  0.00     0.001 A 
HETATM   13  C   UNL     1      49.468  19.127   1.044  1.00  0.00     0.000 A 
HETATM   14  C   UNL     1      50.116  17.895   1.026  1.00  0.00     0.001 A 
HETATM   15  C   UNL     1      49.807  16.930   1.989  1.00  0.00     0.013 A 
ENDBRANCH   5  10
TORSDOF 1
ENDMDL
MODEL 8
REMARK VINA RESULT:      -4.8     32.139     33.226
REMARK  1 active torsions:
REMARK  status: ('A' for Active; 'I' for Inactive)
REMARK    1  A    between atoms: C_5  and  C_8 
ROOT
HETATM    1  N   UNL     1      48.106  18.009   3.359  1.00  0.00    -0.364 N 
ATOM      2  HN  UNL     1      47.462  17.868   4.136  1.00  0.00     0.165 HD
HETATM    3  N   UNL     1      49.046  21.768   0.500  1.00  0.00    -0.191 NA
HETATM    4  C   UNL     1      49.024  20.725   1.010  1.00  0.00     0.101 C 
HETATM    5  C   UNL     1      48.949  17.019   2.961  1.00  0.00     0.042 A 
HETATM    6  C   UNL     1      49.006  19.448   1.638  1.00  0.00     0.060 A 
HETATM    7  C   UNL     1      48.149  19.189   2.694  1.00  0.00     0.111 A 
HETATM    8  C   UNL     1      49.830  17.203   1.893  1.00  0.00     0.032 A 
HETATM    9  C   UNL     1      49.859  18.428   1.227  1.00  0.00     0.026 A 
ENDROOT
BRANCH   5  10
HETATM   10  C   UNL     1      48.913  15.773   3.751  1.00  0.00    -0.009 A 
HETATM   11  C   UNL     1      48.350  14.587   3.245  1.00  0.00     0.013 A 
HETATM   12  C   UNL     1      48.367  13.401   3.985  1.00  0.00     0.001 A 
HETATM   13  C   UNL     1      48.940  13.378   5.252  1.00  0.00     0.000 A 
HETATM   14  C   UNL     1      49.490  14.541   5.783  1.00  0.00     0.001 A 
HETATM   15  C   UNL     1      49.472  15.724   5.041  1.00  0.00     0.013 A 
ENDBRANCH   5  10
TORSDOF 1
ENDMDL
MODEL 9
REMARK VINA RESULT:      -4.8     19.726     21.865
REMARK  1 active torsions:
REMARK  status: ('A' for Active; 'I' for Inactive)
REMARK    1  A    between atoms: C_5  and  C_8 
ROOT
HETATM    1  N   UNL     1      71.925  23.663  13.083  1.00  0.00    -0.364 N 
ATOM      2  HN  UNL     1      72.365  24.404  13.627  1.00  0.00     0.165 HD
HETATM    3  N   UNL     1      73.587  20.555   9.801  1.00  0.00    -0.191 NA
HETATM    4  C   UNL     1      72.921  21.169  10.528  1.00  0.00     0.101 C 
HETATM    5  C   UNL     1      70.606  23.370  13.237  1.00  0.00     0.042 A 
HETATM    6  C   UNL     1      72.103  21.915  11.424  1.00  0.00     0.060 A 
HETATM    7  C   UNL     1      72.637  22.939  12.186  1.00  0.00     0.111 A 
HETATM    8  C   UNL     1      69.995  22.361  12.491  1.00  0.00     0.032 A 
HETATM    9  C   UNL     1      70.750  21.626  11.578  1.00  0.00     0.026 A 
ENDROOT
BRANCH   5  10
HETATM   10  C   UNL     1      69.883  24.141  14.268  1.00  0.00    -0.009 A 
HETATM   11  C   UNL     1      70.536  25.068  15.100  1.00  0.00     0.013 A 
HETATM   12  C   UNL     1      69.830  25.828  16.037  1.00  0.00     0.001 A 
HETATM   13  C   UNL     1      68.455  25.670  16.169  1.00  0.00     0.000 A 
HETATM   14  C   UNL     1      67.785  24.748  15.369  1.00  0.00     0.001 A 
HETATM   15  C   UNL     1      68.493  23.990  14.433  1.00  0.00     0.013 A 
ENDBRANCH   5  10
TORSDOF 1
ENDMDL
