MODEL 1
REMARK VINA RESULT:      -5.8      0.000      0.000
REMARK  2 active torsions:
REMARK  status: ('A' for Active; 'I' for Inactive)
REMARK    1  A    between atoms: C_4  and  C_7 
REMARK    2  A    between atoms: N_6  and  C_7 
ROOT
HETATM    1  O   UNL     1      77.814  10.558  17.107  1.00  0.00    -0.343 OA
HETATM    2  C   UNL     1      77.607   9.501  16.313  1.00  0.00     0.075 A 
HETATM    3  C   UNL     1      77.221   8.397  17.015  1.00  0.00    -0.022 A 
HETATM    4  C   UNL     1      77.456  10.261  18.415  1.00  0.00     0.158 C 
HETATM    5  C   UNL     1      77.199   8.729  18.457  1.00  0.00     0.075 C 
HETATM    6  C   UNL     1      77.744   9.471  14.925  1.00  0.00     0.037 A 
HETATM    7  C   UNL     1      76.960   7.182  16.380  1.00  0.00     0.010 A 
HETATM    8  C   UNL     1      77.472   8.265  14.255  1.00  0.00     0.003 A 
HETATM    9  C   UNL     1      77.081   7.123  14.981  1.00  0.00     0.001 A 
ENDROOT
BRANCH   4  10
HETATM   10  C   UNL     1      78.511  10.707  19.437  1.00  0.00     0.262 C 
BRANCH  10  11
HETATM   11  N   UNL     1      79.772  10.009  19.212  1.00  0.00    -0.077 N 
HETATM   12  H   UNL     1      80.018   9.476  20.048  1.00  0.00     0.274 HD
HETATM   13  H   UNL     1      80.506  10.688  19.014  1.00  0.00     0.274 HD
HETATM   14  H   UNL     1      79.673   9.374  18.420  1.00  0.00     0.274 HD
ENDBRANCH  10  11
ENDBRANCH   4  10
TORSDOF 2
ENDMDL
MODEL 2
REMARK VINA RESULT:      -4.8     18.352     19.604
REMARK  2 active torsions:
REMARK  status: ('A' for Active; 'I' for Inactive)
REMARK    1  A    between atoms: C_4  and  C_7 
REMARK    2  A    between atoms: N_6  and  C_7 
ROOT
HETATM    1  O   UNL     1      63.018   9.138   5.652  1.00  0.00    -0.343 OA
HETATM    2  C   UNL     1      62.631   9.698   4.499  1.00  0.00     0.075 A 
HETATM    3  C   UNL     1      62.653   8.811   3.464  1.00  0.00    -0.022 A 
HETATM    4  C   UNL     1      63.215   7.774   5.487  1.00  0.00     0.158 C 
HETATM    5  C   UNL     1      63.148   7.508   3.958  1.00  0.00     0.075 C 
HETATM    6  C   UNL     1      62.233  11.023   4.317  1.00  0.00     0.037 A 
HETATM    7  C   UNL     1      62.294   9.191   2.170  1.00  0.00     0.010 A 
HETATM    8  C   UNL     1      61.850  11.432   3.028  1.00  0.00     0.003 A 
HETATM    9  C   UNL     1      61.880  10.518   1.956  1.00  0.00     0.001 A 
ENDROOT
BRANCH   4  10
HETATM   10  C   UNL     1      64.529   7.282   6.112  1.00  0.00     0.262 C 
BRANCH  10  11
HETATM   11  N   UNL     1      65.503   8.366   6.178  1.00  0.00    -0.077 N 
HETATM   12  H   UNL     1      66.351   8.033   6.638  1.00  0.00     0.274 HD
HETATM   13  H   UNL     1      65.112   9.144   6.709  1.00  0.00     0.274 HD
HETATM   14  H   UNL     1      65.729   8.679   5.234  1.00  0.00     0.274 HD
ENDBRANCH  10  11
ENDBRANCH   4  10
TORSDOF 2
ENDMDL
MODEL 3
REMARK VINA RESULT:      -4.6     17.079     18.368
REMARK  2 active torsions:
REMARK  status: ('A' for Active; 'I' for Inactive)
REMARK    1  A    between atoms: C_4  and  C_7 
REMARK    2  A    between atoms: N_6  and  C_7 
ROOT
HETATM    1  O   UNL     1      65.078   9.056   5.902  1.00  0.00    -0.343 OA
HETATM    2  C   UNL     1      64.039   9.309   5.097  1.00  0.00     0.075 A 
HETATM    3  C   UNL     1      63.868   8.336   4.157  1.00  0.00    -0.022 A 
HETATM    4  C   UNL     1      65.613   7.805   5.625  1.00  0.00     0.158 C 
HETATM    5  C   UNL     1      64.934   7.323   4.314  1.00  0.00     0.075 C 
HETATM    6  C   UNL     1      63.190  10.414   5.167  1.00  0.00     0.037 A 
HETATM    7  C   UNL     1      62.845   8.408   3.210  1.00  0.00     0.010 A 
HETATM    8  C   UNL     1      62.140  10.507   4.237  1.00  0.00     0.003 A 
HETATM    9  C   UNL     1      61.968   9.506   3.260  1.00  0.00     0.001 A 
ENDROOT
BRANCH   4  10
HETATM   10  C   UNL     1      67.145   7.822   5.521  1.00  0.00     0.262 C 
BRANCH  10  11
HETATM   11  N   UNL     1      67.579   7.260   4.246  1.00  0.00    -0.077 N 
HETATM   12  H   UNL     1      68.514   7.605   4.025  1.00  0.00     0.274 HD
HETATM   13  H   UNL     1      66.930   7.542   3.512  1.00  0.00     0.274 HD
HETATM   14  H   UNL     1      67.597   6.243   4.311  1.00  0.00     0.274 HD
ENDBRANCH  10  11
ENDBRANCH   4  10
TORSDOF 2
ENDMDL
MODEL 4
REMARK VINA RESULT:      -4.5     12.972     14.481
REMARK  2 active torsions:
REMARK  status: ('A' for Active; 'I' for Inactive)
REMARK    1  A    between atoms: C_4  and  C_7 
REMARK    2  A    between atoms: N_6  and  C_7 
ROOT
HETATM    1  O   UNL     1      66.219   4.471   8.495  1.00  0.00    -0.343 OA
HETATM    2  C   UNL     1      67.510   4.261   8.776  1.00  0.00     0.075 A 
HETATM    3  C   UNL     1      68.285   5.342   8.474  1.00  0.00    -0.022 A 
HETATM    4  C   UNL     1      66.017   5.782   8.087  1.00  0.00     0.158 C 
HETATM    5  C   UNL     1      67.430   6.395   7.884  1.00  0.00     0.075 C 
HETATM    6  C   UNL     1      68.059   3.101   9.322  1.00  0.00     0.037 A 
HETATM    7  C   UNL     1      69.665   5.333   8.682  1.00  0.00     0.010 A 
HETATM    8  C   UNL     1      69.444   3.066   9.558  1.00  0.00     0.003 A 
HETATM    9  C   UNL     1      70.246   4.180   9.239  1.00  0.00     0.001 A 
ENDROOT
BRANCH   4  10
HETATM   10  C   UNL     1      65.144   5.888   6.828  1.00  0.00     0.262 C 
BRANCH  10  11
HETATM   11  N   UNL     1      64.409   7.148   6.818  1.00  0.00    -0.077 N 
HETATM   12  H   UNL     1      63.568   7.045   6.248  1.00  0.00     0.274 HD
HETATM   13  H   UNL     1      64.998   7.882   6.425  1.00  0.00     0.274 HD
HETATM   14  H   UNL     1      64.146   7.396   7.771  1.00  0.00     0.274 HD
ENDBRANCH  10  11
ENDBRANCH   4  10
TORSDOF 2
ENDMDL
MODEL 5
REMARK VINA RESULT:      -4.4     18.544     19.806
REMARK  2 active torsions:
REMARK  status: ('A' for Active; 'I' for Inactive)
REMARK    1  A    between atoms: C_4  and  C_7 
REMARK    2  A    between atoms: N_6  and  C_7 
ROOT
HETATM    1  O   UNL     1      63.752   7.385   3.775  1.00  0.00    -0.343 OA
HETATM    2  C   UNL     1      63.057   8.283   3.066  1.00  0.00     0.075 A 
HETATM    3  C   UNL     1      62.793   9.412   3.784  1.00  0.00    -0.022 A 
HETATM    4  C   UNL     1      64.114   7.913   5.006  1.00  0.00     0.158 C 
HETATM    5  C   UNL     1      63.336   9.251   5.150  1.00  0.00     0.075 C 
HETATM    6  C   UNL     1      62.633   8.142   1.745  1.00  0.00     0.037 A 
HETATM    7  C   UNL     1      62.071  10.473   3.235  1.00  0.00     0.010 A 
HETATM    8  C   UNL     1      61.917   9.201   1.159  1.00  0.00     0.003 A 
HETATM    9  C   UNL     1      61.637  10.364   1.903  1.00  0.00     0.001 A 
ENDROOT
BRANCH   4  10
HETATM   10  C   UNL     1      63.844   6.949   6.171  1.00  0.00     0.262 C 
BRANCH  10  11
HETATM   11  N   UNL     1      64.892   7.058   7.180  1.00  0.00    -0.077 N 
HETATM   12  H   UNL     1      65.637   7.664   6.833  1.00  0.00     0.274 HD
HETATM   13  H   UNL     1      65.272   6.133   7.378  1.00  0.00     0.274 HD
HETATM   14  H   UNL     1      64.502   7.455   8.035  1.00  0.00     0.274 HD
ENDBRANCH  10  11
ENDBRANCH   4  10
TORSDOF 2
ENDMDL
MODEL 6
REMARK VINA RESULT:      -4.4     13.897     15.359
REMARK  2 active torsions:
REMARK  status: ('A' for Active; 'I' for Inactive)
REMARK    1  A    between atoms: C_4  and  C_7 
REMARK    2  A    between atoms: N_6  and  C_7 
ROOT
HETATM    1  O   UNL     1      66.306   7.950   7.072  1.00  0.00    -0.343 OA
HETATM    2  C   UNL     1      66.977   6.936   7.629  1.00  0.00     0.075 A 
HETATM    3  C   UNL     1      67.527   6.108   6.696  1.00  0.00    -0.022 A 
HETATM    4  C   UNL     1      66.465   7.939   5.694  1.00  0.00     0.158 C 
HETATM    5  C   UNL     1      67.157   6.591   5.348  1.00  0.00     0.075 C 
HETATM    6  C   UNL     1      67.138   6.704   8.995  1.00  0.00     0.037 A 
HETATM    7  C   UNL     1      68.264   4.981   7.062  1.00  0.00     0.010 A 
HETATM    8  C   UNL     1      67.889   5.585   9.397  1.00  0.00     0.003 A 
HETATM    9  C   UNL     1      68.450   4.724   8.432  1.00  0.00     0.001 A 
ENDROOT
BRANCH   4  10
HETATM   10  C   UNL     1      65.141   8.130   4.939  1.00  0.00     0.262 C 
BRANCH  10  11
HETATM   11  N   UNL     1      64.288   9.089   5.634  1.00  0.00    -0.077 N 
HETATM   12  H   UNL     1      64.583   9.161   6.608  1.00  0.00     0.274 HD
HETATM   13  H   UNL     1      63.319   8.773   5.594  1.00  0.00     0.274 HD
HETATM   14  H   UNL     1      64.367  10.002   5.186  1.00  0.00     0.274 HD
ENDBRANCH  10  11
ENDBRANCH   4  10
TORSDOF 2
ENDMDL
MODEL 7
REMARK VINA RESULT:      -4.3     12.546     13.730
REMARK  2 active torsions:
REMARK  status: ('A' for Active; 'I' for Inactive)
REMARK    1  A    between atoms: C_4  and  C_7 
REMARK    2  A    between atoms: N_6  and  C_7 
ROOT
HETATM    1  O   UNL     1      69.117   3.779   7.624  1.00  0.00    -0.343 OA
HETATM    2  C   UNL     1      68.295   4.830   7.525  1.00  0.00     0.075 A 
HETATM    3  C   UNL     1      68.111   5.455   8.723  1.00  0.00    -0.022 A 
HETATM    4  C   UNL     1      69.649   3.697   8.903  1.00  0.00     0.158 C 
HETATM    5  C   UNL     1      68.863   4.724   9.766  1.00  0.00     0.075 C 
HETATM    6  C   UNL     1      67.676   5.287   6.361  1.00  0.00     0.037 A 
HETATM    7  C   UNL     1      67.282   6.571   8.845  1.00  0.00     0.010 A 
HETATM    8  C   UNL     1      66.847   6.420   6.449  1.00  0.00     0.003 A 
HETATM    9  C   UNL     1      66.651   7.061   7.688  1.00  0.00     0.001 A 
ENDROOT
BRANCH   4  10
HETATM   10  C   UNL     1      69.591   2.277   9.483  1.00  0.00     0.262 C 
BRANCH  10  11
HETATM   11  N   UNL     1      69.735   2.309  10.935  1.00  0.00    -0.077 N 
HETATM   12  H   UNL     1      69.808   1.355  11.290  1.00  0.00     0.274 HD
HETATM   13  H   UNL     1      68.920   2.763  11.347  1.00  0.00     0.274 HD
HETATM   14  H   UNL     1      70.576   2.830  11.182  1.00  0.00     0.274 HD
ENDBRANCH  10  11
ENDBRANCH   4  10
TORSDOF 2
ENDMDL
MODEL 8
REMARK VINA RESULT:      -4.3     13.300     14.632
REMARK  2 active torsions:
REMARK  status: ('A' for Active; 'I' for Inactive)
REMARK    1  A    between atoms: C_4  and  C_7 
REMARK    2  A    between atoms: N_6  and  C_7 
ROOT
HETATM    1  O   UNL     1      67.631   5.427   5.731  1.00  0.00    -0.343 OA
HETATM    2  C   UNL     1      68.069   4.968   6.909  1.00  0.00     0.075 A 
HETATM    3  C   UNL     1      67.798   5.829   7.931  1.00  0.00    -0.022 A 
HETATM    4  C   UNL     1      66.910   6.601   5.905  1.00  0.00     0.158 C 
HETATM    5  C   UNL     1      67.132   7.030   7.382  1.00  0.00     0.075 C 
HETATM    6  C   UNL     1      68.725   3.757   7.131  1.00  0.00     0.037 A 
HETATM    7  C   UNL     1      68.177   5.547   9.244  1.00  0.00     0.010 A 
HETATM    8  C   UNL     1      69.106   3.436   8.446  1.00  0.00     0.003 A 
HETATM    9  C   UNL     1      68.833   4.330   9.500  1.00  0.00     0.001 A 
ENDROOT
BRANCH   4  10
HETATM   10  C   UNL     1      67.310   7.699   4.909  1.00  0.00     0.262 C 
BRANCH  10  11
HETATM   11  N   UNL     1      68.710   8.067   5.085  1.00  0.00    -0.077 N 
HETATM   12  H   UNL     1      69.116   8.301   4.179  1.00  0.00     0.274 HD
HETATM   13  H   UNL     1      69.219   7.283   5.493  1.00  0.00     0.274 HD
HETATM   14  H   UNL     1      68.775   8.874   5.705  1.00  0.00     0.274 HD
ENDBRANCH  10  11
ENDBRANCH   4  10
TORSDOF 2
ENDMDL
MODEL 9
REMARK VINA RESULT:      -4.2     20.630     21.947
REMARK  2 active torsions:
REMARK  status: ('A' for Active; 'I' for Inactive)
REMARK    1  A    between atoms: C_4  and  C_7 
REMARK    2  A    between atoms: N_6  and  C_7 
ROOT
HETATM    1  O   UNL     1      62.372   7.441   2.471  1.00  0.00    -0.343 OA
HETATM    2  C   UNL     1      62.250   8.732   2.802  1.00  0.00     0.075 A 
HETATM    3  C   UNL     1      61.984   9.518   1.720  1.00  0.00    -0.022 A 
HETATM    4  C   UNL     1      62.069   7.253   1.129  1.00  0.00     0.158 C 
HETATM    5  C   UNL     1      61.959   8.673   0.507  1.00  0.00     0.075 C 
HETATM    6  C   UNL     1      62.363   9.269   4.085  1.00  0.00     0.037 A 
HETATM    7  C   UNL     1      61.827  10.899   1.843  1.00  0.00     0.010 A 
HETATM    8  C   UNL     1      62.194  10.656   4.243  1.00  0.00     0.003 A 
HETATM    9  C   UNL     1      61.926  11.470   3.124  1.00  0.00     0.001 A 
ENDROOT
BRANCH   4  10
HETATM   10  C   UNL     1      63.096   6.372   0.404  1.00  0.00     0.262 C 
BRANCH  10  11
HETATM   11  N   UNL     1      63.176   6.734  -1.008  1.00  0.00    -0.077 N 
HETATM   12  H   UNL     1      62.512   7.483  -1.204  1.00  0.00     0.274 HD
HETATM   13  H   UNL     1      62.950   5.921  -1.580  1.00  0.00     0.274 HD
HETATM   14  H   UNL     1      64.121   7.050  -1.225  1.00  0.00     0.274 HD
ENDBRANCH  10  11
ENDBRANCH   4  10
TORSDOF 2
ENDMDL
