MODEL 1
REMARK VINA RESULT:      -3.6      0.000      0.000
REMARK  0 active torsions:
REMARK  status: ('A' for Active; 'I' for Inactive)
ROOT
HETATM    1  C   UNL     1      72.075  22.792  14.072  1.00  0.00     0.132 A 
HETATM    2  N   UNL     1      70.897  23.492  14.051  1.00  0.00    -0.338 N 
HETATM    3  N   UNL     1      70.801  22.089  12.339  1.00  0.00    -0.359 N 
ATOM      4  HN  UNL     1      70.480  21.582  11.516  1.00  0.00     0.166 HD
HETATM    5  C   UNL     1      73.133  22.939  15.002  1.00  0.00     0.119 C 
HETATM    6  N   UNL     1      73.984  23.078  15.779  1.00  0.00    -0.190 NA
HETATM    7  C   UNL     1      70.161  23.032  12.994  1.00  0.00     0.183 A 
HETATM    8  C   UNL     1      71.994  21.932  13.001  1.00  0.00     0.130 A 
HETATM    9  C   UNL     1      70.500  24.528  14.971  1.00  0.00     0.158 C 
ENDROOT
TORSDOF 0
ENDMDL
MODEL 2
REMARK VINA RESULT:      -3.6      1.568      2.977
REMARK  0 active torsions:
REMARK  status: ('A' for Active; 'I' for Inactive)
ROOT
HETATM    1  C   UNL     1      71.736  23.752  14.086  1.00  0.00     0.132 A 
HETATM    2  N   UNL     1      70.618  24.419  14.514  1.00  0.00    -0.338 N 
HETATM    3  N   UNL     1      72.346  25.563  15.296  1.00  0.00    -0.359 N 
ATOM      4  HN  UNL     1      72.912  26.266  15.770  1.00  0.00     0.166 HD
HETATM    5  C   UNL     1      71.772  22.572  13.302  1.00  0.00     0.119 C 
HETATM    6  N   UNL     1      71.773  21.607  12.657  1.00  0.00    -0.190 NA
HETATM    7  C   UNL     1      71.035  25.504  15.234  1.00  0.00     0.183 A 
HETATM    8  C   UNL     1      72.793  24.476  14.586  1.00  0.00     0.130 A 
HETATM    9  C   UNL     1      69.249  24.049  14.257  1.00  0.00     0.158 C 
ENDROOT
TORSDOF 0
ENDMDL
MODEL 3
REMARK VINA RESULT:      -3.6     17.123     18.581
REMARK  0 active torsions:
REMARK  status: ('A' for Active; 'I' for Inactive)
ROOT
HETATM    1  C   UNL     1      62.640  10.312   4.779  1.00  0.00     0.132 A 
HETATM    2  N   UNL     1      62.418   8.960   4.737  1.00  0.00    -0.338 N 
HETATM    3  N   UNL     1      61.274   9.817   3.045  1.00  0.00    -0.359 N 
ATOM      4  HN  UNL     1      60.675   9.911   2.226  1.00  0.00     0.166 HD
HETATM    5  C   UNL     1      63.441  11.012   5.715  1.00  0.00     0.119 C 
HETATM    6  N   UNL     1      64.105  11.560   6.494  1.00  0.00    -0.190 NA
HETATM    7  C   UNL     1      61.594   8.709   3.675  1.00  0.00     0.183 A 
HETATM    8  C   UNL     1      61.919  10.821   3.725  1.00  0.00     0.130 A 
HETATM    9  C   UNL     1      62.952   7.976   5.646  1.00  0.00     0.158 C 
ENDROOT
TORSDOF 0
ENDMDL
MODEL 4
REMARK VINA RESULT:      -3.6     18.618     19.557
REMARK  0 active torsions:
REMARK  status: ('A' for Active; 'I' for Inactive)
ROOT
HETATM    1  C   UNL     1      62.405   9.790   3.829  1.00  0.00     0.132 A 
HETATM    2  N   UNL     1      62.339   9.226   2.582  1.00  0.00    -0.338 N 
HETATM    3  N   UNL     1      61.613  11.305   2.348  1.00  0.00    -0.359 N 
ATOM      4  HN  UNL     1      61.250  12.168   1.945  1.00  0.00     0.166 HD
HETATM    5  C   UNL     1      62.850   9.165   5.020  1.00  0.00     0.119 C 
HETATM    6  N   UNL     1      63.222   8.630   5.981  1.00  0.00    -0.190 NA
HETATM    7  C   UNL     1      61.860  10.176   1.723  1.00  0.00     0.183 A 
HETATM    8  C   UNL     1      61.947  11.076   3.660  1.00  0.00     0.130 A 
HETATM    9  C   UNL     1      62.703   7.875   2.232  1.00  0.00     0.158 C 
ENDROOT
TORSDOF 0
ENDMDL
MODEL 5
REMARK VINA RESULT:      -3.6     20.502     21.305
REMARK  0 active torsions:
REMARK  status: ('A' for Active; 'I' for Inactive)
ROOT
HETATM    1  C   UNL     1      76.729   3.016  18.140  1.00  0.00     0.132 A 
HETATM    2  N   UNL     1      75.716   2.252  17.621  1.00  0.00    -0.338 N 
HETATM    3  N   UNL     1      77.081   0.839  18.644  1.00  0.00    -0.359 N 
ATOM      4  HN  UNL     1      77.498  -0.016  19.012  1.00  0.00     0.166 HD
HETATM    5  C   UNL     1      76.866   4.423  18.042  1.00  0.00     0.119 C 
HETATM    6  N   UNL     1      76.954   5.576  17.947  1.00  0.00    -0.190 NA
HETATM    7  C   UNL     1      75.969   0.950  17.953  1.00  0.00     0.183 A 
HETATM    8  C   UNL     1      77.563   2.119  18.766  1.00  0.00     0.130 A 
HETATM    9  C   UNL     1      74.588   2.728  16.860  1.00  0.00     0.158 C 
ENDROOT
TORSDOF 0
ENDMDL
MODEL 6
REMARK VINA RESULT:      -3.5     19.826     20.606
REMARK  0 active torsions:
REMARK  status: ('A' for Active; 'I' for Inactive)
ROOT
HETATM    1  C   UNL     1      76.552   3.284  17.798  1.00  0.00     0.132 A 
HETATM    2  N   UNL     1      75.410   3.224  17.042  1.00  0.00    -0.338 N 
HETATM    3  N   UNL     1      75.861   5.378  17.292  1.00  0.00    -0.359 N 
ATOM      4  HN  UNL     1      75.810   6.395  17.235  1.00  0.00     0.166 HD
HETATM    5  C   UNL     1      77.290   2.188  18.309  1.00  0.00     0.119 C 
HETATM    6  N   UNL     1      77.877   1.272  18.714  1.00  0.00    -0.190 NA
HETATM    7  C   UNL     1      75.033   4.508  16.759  1.00  0.00     0.183 A 
HETATM    8  C   UNL     1      76.809   4.628  17.942  1.00  0.00     0.130 A 
HETATM    9  C   UNL     1      74.723   2.028  16.622  1.00  0.00     0.158 C 
ENDROOT
TORSDOF 0
ENDMDL
MODEL 7
REMARK VINA RESULT:      -3.4     21.213     22.165
REMARK  0 active torsions:
REMARK  status: ('A' for Active; 'I' for Inactive)
ROOT
HETATM    1  C   UNL     1      75.067   1.576  16.690  1.00  0.00     0.132 A 
HETATM    2  N   UNL     1      76.309   1.521  17.268  1.00  0.00    -0.338 N 
HETATM    3  N   UNL     1      75.587   3.592  17.575  1.00  0.00    -0.359 N 
ATOM      4  HN  UNL     1      75.532   4.570  17.857  1.00  0.00     0.166 HD
HETATM    5  C   UNL     1      74.389   0.519  16.034  1.00  0.00     0.119 C 
HETATM    6  N   UNL     1      73.854  -0.364  15.504  1.00  0.00    -0.190 NA
HETATM    7  C   UNL     1      76.577   2.755  17.790  1.00  0.00     0.183 A 
HETATM    8  C   UNL     1      74.642   2.869  16.890  1.00  0.00     0.130 A 
HETATM    9  C   UNL     1      77.181   0.373  17.316  1.00  0.00     0.158 C 
ENDROOT
TORSDOF 0
ENDMDL
MODEL 8
REMARK VINA RESULT:      -3.4     17.739     19.321
REMARK  0 active torsions:
REMARK  status: ('A' for Active; 'I' for Inactive)
ROOT
HETATM    1  C   UNL     1      62.149   9.867   3.436  1.00  0.00     0.132 A 
HETATM    2  N   UNL     1      62.614   9.825   4.725  1.00  0.00    -0.338 N 
HETATM    3  N   UNL     1      62.278   7.718   4.130  1.00  0.00    -0.359 N 
ATOM      4  HN  UNL     1      62.226   6.700   4.147  1.00  0.00     0.166 HD
HETATM    5  C   UNL     1      61.932  11.025   2.650  1.00  0.00     0.119 C 
HETATM    6  N   UNL     1      61.765  11.991   2.027  1.00  0.00    -0.190 NA
HETATM    7  C   UNL     1      62.679   8.511   5.098  1.00  0.00     0.183 A 
HETATM    8  C   UNL     1      61.945   8.551   3.091  1.00  0.00     0.130 A 
HETATM    9  C   UNL     1      62.970  10.956   5.544  1.00  0.00     0.158 C 
ENDROOT
TORSDOF 0
ENDMDL
MODEL 9
REMARK VINA RESULT:      -3.3     21.361     22.232
REMARK  0 active torsions:
REMARK  status: ('A' for Active; 'I' for Inactive)
ROOT
HETATM    1  C   UNL     1      77.259   1.607  18.012  1.00  0.00     0.132 A 
HETATM    2  N   UNL     1      76.556   2.783  18.006  1.00  0.00    -0.338 N 
HETATM    3  N   UNL     1      77.950   2.916  19.722  1.00  0.00    -0.359 N 
ATOM      4  HN  UNL     1      78.453   3.254  20.542  1.00  0.00     0.166 HD
HETATM    5  C   UNL     1      77.119   0.531  17.101  1.00  0.00     0.119 C 
HETATM    6  N   UNL     1      76.986  -0.336  16.340  1.00  0.00    -0.190 NA
HETATM    7  C   UNL     1      77.009   3.540  19.051  1.00  0.00     0.183 A 
HETATM    8  C   UNL     1      78.113   1.711  19.085  1.00  0.00     0.130 A 
HETATM    9  C   UNL     1      75.524   3.160  17.073  1.00  0.00     0.158 C 
ENDROOT
TORSDOF 0
ENDMDL
