MODEL 1
REMARK VINA RESULT:      -5.0      0.000      0.000
REMARK  3 active torsions:
REMARK  status: ('A' for Active; 'I' for Inactive)
REMARK    1  A    between atoms: C_1  and  C_6 
REMARK    2  A    between atoms: C_7  and  C_12 
REMARK    3  A    between atoms: C_12  and  O_13 
ROOT
HETATM    1  C   UNL     1      70.941  23.161  13.019  1.00  0.00     0.117 A 
HETATM    2  C   UNL     1      70.489  22.098  12.264  1.00  0.00     0.070 A 
HETATM    3  N   UNL     1      72.664  22.453  11.729  1.00  0.00    -0.263 N 
ATOM      4  HN  UNL     1      73.585  22.380  11.298  1.00  0.00     0.194 HD
HETATM    5  O   UNL     1      72.256  23.370  12.685  1.00  0.00    -0.236 OA
HETATM    6  C   UNL     1      71.595  21.686  11.491  1.00  0.00     0.058 A 
ENDROOT
BRANCH   1   7
HETATM    7  C   UNL     1      70.249  23.956  13.997  1.00  0.00     0.040 A 
HETATM    8  S   UNL     1      71.069  25.074  15.008  1.00  0.00    -0.099 SA
HETATM    9  C   UNL     1      69.621  25.562  15.770  1.00  0.00     0.050 A 
HETATM   10  C   UNL     1      68.527  24.884  15.279  1.00  0.00     0.008 A 
HETATM   11  C   UNL     1      68.891  23.954  14.258  1.00  0.00     0.022 A 
ENDBRANCH   1   7
BRANCH   6  12
HETATM   12  C   UNL     1      71.661  20.567  10.508  1.00  0.00     0.223 C 
BRANCH  12  13
HETATM   13  O   UNL     1      72.875  20.558   9.760  1.00  0.00    -0.395 OA
HETATM   14  H   UNL     1      73.184  19.644   9.657  1.00  0.00     0.209 HD
ENDBRANCH  12  13
ENDBRANCH   6  12
TORSDOF 3
ENDMDL
MODEL 2
REMARK VINA RESULT:      -4.9     20.323     22.007
REMARK  3 active torsions:
REMARK  status: ('A' for Active; 'I' for Inactive)
REMARK    1  A    between atoms: C_1  and  C_6 
REMARK    2  A    between atoms: C_7  and  C_12 
REMARK    3  A    between atoms: C_12  and  O_13 
ROOT
HETATM    1  C   UNL     1      75.642   2.517  17.639  1.00  0.00     0.117 A 
HETATM    2  C   UNL     1      75.688   3.687  16.907  1.00  0.00     0.070 A 
HETATM    3  N   UNL     1      77.028   3.949  18.717  1.00  0.00    -0.263 N 
ATOM      4  HN  UNL     1      77.667   4.345  19.406  1.00  0.00     0.194 HD
HETATM    5  O   UNL     1      76.453   2.689  18.733  1.00  0.00    -0.236 OA
HETATM    6  C   UNL     1      76.568   4.538  17.607  1.00  0.00     0.058 A 
ENDROOT
BRANCH   1   7
HETATM    7  C   UNL     1      74.922   1.300  17.385  1.00  0.00     0.040 A 
HETATM    8  S   UNL     1      74.569   0.764  15.793  1.00  0.00    -0.099 SA
HETATM    9  C   UNL     1      73.792  -0.647  16.360  1.00  0.00     0.050 A 
HETATM   10  C   UNL     1      73.786  -0.715  17.735  1.00  0.00     0.008 A 
HETATM   11  C   UNL     1      74.434   0.412  18.327  1.00  0.00     0.022 A 
ENDBRANCH   1   7
BRANCH   6  12
HETATM   12  C   UNL     1      76.985   5.922  17.248  1.00  0.00     0.223 C 
BRANCH  12  13
HETATM   13  O   UNL     1      76.607   6.887  18.228  1.00  0.00    -0.395 OA
HETATM   14  H   UNL     1      76.152   7.627  17.795  1.00  0.00     0.209 HD
ENDBRANCH  12  13
ENDBRANCH   6  12
TORSDOF 3
ENDMDL
MODEL 3
REMARK VINA RESULT:      -4.9     17.407     18.185
REMARK  3 active torsions:
REMARK  status: ('A' for Active; 'I' for Inactive)
REMARK    1  A    between atoms: C_1  and  C_6 
REMARK    2  A    between atoms: C_7  and  C_12 
REMARK    3  A    between atoms: C_12  and  O_13 
ROOT
HETATM    1  C   UNL     1      64.776   8.688   5.219  1.00  0.00     0.117 A 
HETATM    2  C   UNL     1      63.693   8.700   4.363  1.00  0.00     0.070 A 
HETATM    3  N   UNL     1      63.696  10.659   5.505  1.00  0.00    -0.263 N 
ATOM      4  HN  UNL     1      63.443  11.585   5.851  1.00  0.00     0.194 HD
HETATM    5  O   UNL     1      64.765   9.876   5.908  1.00  0.00    -0.236 OA
HETATM    6  C   UNL     1      63.063   9.945   4.567  1.00  0.00     0.058 A 
ENDROOT
BRANCH   1   7
HETATM    7  C   UNL     1      65.780   7.680   5.420  1.00  0.00     0.040 A 
HETATM    8  S   UNL     1      66.086   6.992   6.962  1.00  0.00    -0.099 SA
HETATM    9  C   UNL     1      67.294   5.956   6.343  1.00  0.00     0.050 A 
HETATM   10  C   UNL     1      67.478   6.130   4.990  1.00  0.00     0.008 A 
HETATM   11  C   UNL     1      66.607   7.128   4.457  1.00  0.00     0.022 A 
ENDBRANCH   1   7
BRANCH   6  12
HETATM   12  C   UNL     1      61.849  10.481   3.889  1.00  0.00     0.223 C 
BRANCH  12  13
HETATM   13  O   UNL     1      61.892  11.896   3.712  1.00  0.00    -0.395 OA
HETATM   14  H   UNL     1      61.494  12.330   4.483  1.00  0.00     0.209 HD
ENDBRANCH  12  13
ENDBRANCH   6  12
TORSDOF 3
ENDMDL
MODEL 4
REMARK VINA RESULT:      -4.8     17.493     18.069
REMARK  3 active torsions:
REMARK  status: ('A' for Active; 'I' for Inactive)
REMARK    1  A    between atoms: C_1  and  C_6 
REMARK    2  A    between atoms: C_7  and  C_12 
REMARK    3  A    between atoms: C_12  and  O_13 
ROOT
HETATM    1  C   UNL     1      65.120   8.187   5.586  1.00  0.00     0.117 A 
HETATM    2  C   UNL     1      65.620   6.935   5.882  1.00  0.00     0.070 A 
HETATM    3  N   UNL     1      66.849   8.460   7.024  1.00  0.00    -0.263 N 
ATOM      4  HN  UNL     1      67.548   8.893   7.628  1.00  0.00     0.194 HD
HETATM    5  O   UNL     1      65.873   9.102   6.279  1.00  0.00    -0.236 OA
HETATM    6  C   UNL     1      66.681   7.155   6.785  1.00  0.00     0.058 A 
ENDROOT
BRANCH   1   7
HETATM    7  C   UNL     1      64.024   8.563   4.735  1.00  0.00     0.040 A 
HETATM    8  S   UNL     1      63.043   9.933   5.064  1.00  0.00    -0.099 SA
HETATM    9  C   UNL     1      62.097   9.684   3.665  1.00  0.00     0.050 A 
HETATM   10  C   UNL     1      62.503   8.575   2.958  1.00  0.00     0.008 A 
HETATM   11  C   UNL     1      63.614   7.925   3.579  1.00  0.00     0.022 A 
ENDBRANCH   1   7
BRANCH   6  12
HETATM   12  C   UNL     1      67.559   6.140   7.433  1.00  0.00     0.223 C 
BRANCH  12  13
HETATM   13  O   UNL     1      68.107   6.591   8.671  1.00  0.00    -0.395 OA
HETATM   14  H   UNL     1      67.524   7.264   9.056  1.00  0.00     0.209 HD
ENDBRANCH  12  13
ENDBRANCH   6  12
TORSDOF 3
ENDMDL
MODEL 5
REMARK VINA RESULT:      -4.7     18.030     18.875
REMARK  3 active torsions:
REMARK  status: ('A' for Active; 'I' for Inactive)
REMARK    1  A    between atoms: C_1  and  C_6 
REMARK    2  A    between atoms: C_7  and  C_12 
REMARK    3  A    between atoms: C_12  and  O_13 
ROOT
HETATM    1  C   UNL     1      67.204   5.892   7.674  1.00  0.00     0.117 A 
HETATM    2  C   UNL     1      67.264   6.547   6.461  1.00  0.00     0.070 A 
HETATM    3  N   UNL     1      65.267   7.039   7.416  1.00  0.00    -0.263 N 
ATOM      4  HN  UNL     1      64.335   7.418   7.585  1.00  0.00     0.194 HD
HETATM    5  O   UNL     1      65.990   6.194   8.242  1.00  0.00    -0.236 OA
HETATM    6  C   UNL     1      66.047   7.253   6.351  1.00  0.00     0.058 A 
ENDROOT
BRANCH   1   7
HETATM    7  C   UNL     1      68.173   5.043   8.311  1.00  0.00     0.040 A 
HETATM    8  S   UNL     1      67.810   3.430   8.771  1.00  0.00    -0.099 SA
HETATM    9  C   UNL     1      69.387   3.166   9.368  1.00  0.00     0.050 A 
HETATM   10  C   UNL     1      70.182   4.282   9.236  1.00  0.00     0.008 A 
HETATM   11  C   UNL     1      69.479   5.368   8.630  1.00  0.00     0.022 A 
ENDBRANCH   1   7
BRANCH   6  12
HETATM   12  C   UNL     1      65.596   8.135   5.238  1.00  0.00     0.223 C 
BRANCH  12  13
HETATM   13  O   UNL     1      65.058   9.374   5.696  1.00  0.00    -0.395 OA
HETATM   14  H   UNL     1      65.438   9.592   6.561  1.00  0.00     0.209 HD
ENDBRANCH  12  13
ENDBRANCH   6  12
TORSDOF 3
ENDMDL
MODEL 6
REMARK VINA RESULT:      -4.6     18.343     19.790
REMARK  3 active torsions:
REMARK  status: ('A' for Active; 'I' for Inactive)
REMARK    1  A    between atoms: C_1  and  C_6 
REMARK    2  A    between atoms: C_7  and  C_12 
REMARK    3  A    between atoms: C_12  and  O_13 
ROOT
HETATM    1  C   UNL     1      67.777   4.400   8.128  1.00  0.00     0.117 A 
HETATM    2  C   UNL     1      69.000   3.939   8.572  1.00  0.00     0.070 A 
HETATM    3  N   UNL     1      67.408   2.507   9.318  1.00  0.00    -0.263 N 
ATOM      4  HN  UNL     1      66.937   1.728   9.778  1.00  0.00     0.194 HD
HETATM    5  O   UNL     1      66.821   3.528   8.588  1.00  0.00    -0.236 OA
HETATM    6  C   UNL     1      68.721   2.759   9.294  1.00  0.00     0.058 A 
ENDROOT
BRANCH   1   7
HETATM    7  C   UNL     1      67.462   5.552   7.329  1.00  0.00     0.040 A 
HETATM    8  S   UNL     1      66.692   6.936   7.990  1.00  0.00    -0.099 SA
HETATM    9  C   UNL     1      66.725   7.760   6.494  1.00  0.00     0.050 A 
HETATM   10  C   UNL     1      67.300   7.001   5.500  1.00  0.00     0.008 A 
HETATM   11  C   UNL     1      67.721   5.723   5.981  1.00  0.00     0.022 A 
ENDBRANCH   1   7
BRANCH   6  12
HETATM   12  C   UNL     1      69.686   1.853   9.978  1.00  0.00     0.223 C 
BRANCH  12  13
HETATM   13  O   UNL     1      69.788   2.108  11.378  1.00  0.00    -0.395 OA
HETATM   14  H   UNL     1      68.950   2.473  11.702  1.00  0.00     0.209 HD
ENDBRANCH  12  13
ENDBRANCH   6  12
TORSDOF 3
ENDMDL
MODEL 7
REMARK VINA RESULT:      -4.5     17.989     18.438
REMARK  3 active torsions:
REMARK  status: ('A' for Active; 'I' for Inactive)
REMARK    1  A    between atoms: C_1  and  C_6 
REMARK    2  A    between atoms: C_7  and  C_12 
REMARK    3  A    between atoms: C_12  and  O_13 
ROOT
HETATM    1  C   UNL     1      65.390   7.140   6.704  1.00  0.00     0.117 A 
HETATM    2  C   UNL     1      65.349   7.794   5.489  1.00  0.00     0.070 A 
HETATM    3  N   UNL     1      63.244   7.764   6.331  1.00  0.00    -0.263 N 
ATOM      4  HN  UNL     1      62.239   7.896   6.446  1.00  0.00     0.194 HD
HETATM    5  O   UNL     1      64.111   7.124   7.202  1.00  0.00    -0.236 OA
HETATM    6  C   UNL     1      64.002   8.172   5.308  1.00  0.00     0.058 A 
ENDROOT
BRANCH   1   7
HETATM    7  C   UNL     1      66.505   6.559   7.400  1.00  0.00     0.040 A 
HETATM    8  S   UNL     1      67.701   5.631   6.591  1.00  0.00    -0.099 SA
HETATM    9  C   UNL     1      68.587   5.382   8.030  1.00  0.00     0.050 A 
HETATM   10  C   UNL     1      67.987   5.981   9.114  1.00  0.00     0.008 A 
HETATM   11  C   UNL     1      66.782   6.657   8.752  1.00  0.00     0.022 A 
ENDBRANCH   1   7
BRANCH   6  12
HETATM   12  C   UNL     1      63.405   8.918   4.164  1.00  0.00     0.223 C 
BRANCH  12  13
HETATM   13  O   UNL     1      62.682  10.077   4.574  1.00  0.00    -0.395 OA
HETATM   14  H   UNL     1      63.178  10.872   4.323  1.00  0.00     0.209 HD
ENDBRANCH  12  13
ENDBRANCH   6  12
TORSDOF 3
ENDMDL
MODEL 8
REMARK VINA RESULT:      -4.3     23.635     25.234
REMARK  3 active torsions:
REMARK  status: ('A' for Active; 'I' for Inactive)
REMARK    1  A    between atoms: C_1  and  C_6 
REMARK    2  A    between atoms: C_7  and  C_12 
REMARK    3  A    between atoms: C_12  and  O_13 
ROOT
HETATM    1  C   UNL     1      78.667   0.587  19.654  1.00  0.00     0.117 A 
HETATM    2  C   UNL     1      77.637   0.556  18.736  1.00  0.00     0.070 A 
HETATM    3  N   UNL     1      77.876   2.698  19.439  1.00  0.00    -0.263 N 
ATOM      4  HN  UNL     1      77.747   3.703  19.563  1.00  0.00     0.194 HD
HETATM    5  O   UNL     1      78.801   1.886  20.075  1.00  0.00    -0.236 OA
HETATM    6  C   UNL     1      77.187   1.888  18.627  1.00  0.00     0.058 A 
ENDROOT
BRANCH   1   7
HETATM    7  C   UNL     1      79.503  -0.479  20.136  1.00  0.00     0.040 A 
HETATM    8  S   UNL     1      79.850  -0.682  21.805  1.00  0.00    -0.099 SA
HETATM    9  C   UNL     1      80.794  -2.075  21.515  1.00  0.00     0.050 A 
HETATM   10  C   UNL     1      80.861  -2.383  20.175  1.00  0.00     0.008 A 
HETATM   11  C   UNL     1      80.120  -1.459  19.378  1.00  0.00     0.022 A 
ENDBRANCH   1   7
BRANCH   6  12
HETATM   12  C   UNL     1      76.096   2.420  17.763  1.00  0.00     0.223 C 
BRANCH  12  13
HETATM   13  O   UNL     1      74.800   2.244  18.335  1.00  0.00    -0.395 OA
HETATM   14  H   UNL     1      74.142   2.169  17.626  1.00  0.00     0.209 HD
ENDBRANCH  12  13
ENDBRANCH   6  12
TORSDOF 3
ENDMDL
MODEL 9
REMARK VINA RESULT:      -4.2     17.751     19.353
REMARK  3 active torsions:
REMARK  status: ('A' for Active; 'I' for Inactive)
REMARK    1  A    between atoms: C_1  and  C_6 
REMARK    2  A    between atoms: C_7  and  C_12 
REMARK    3  A    between atoms: C_12  and  O_13 
ROOT
HETATM    1  C   UNL     1      63.421   8.444   3.852  1.00  0.00     0.117 A 
HETATM    2  C   UNL     1      64.529   7.684   4.170  1.00  0.00     0.070 A 
HETATM    3  N   UNL     1      64.417   9.401   5.647  1.00  0.00    -0.263 N 
ATOM      4  HN  UNL     1      64.624  10.040   6.415  1.00  0.00     0.194 HD
HETATM    5  O   UNL     1      63.365   9.481   4.749  1.00  0.00    -0.236 OA
HETATM    6  C   UNL     1      65.106   8.310   5.295  1.00  0.00     0.058 A 
ENDROOT
BRANCH   1   7
HETATM    7  C   UNL     1      62.449   8.263   2.809  1.00  0.00     0.040 A 
HETATM    8  S   UNL     1      61.315   6.974   2.832  1.00  0.00    -0.099 SA
HETATM    9  C   UNL     1      60.591   7.485   1.373  1.00  0.00     0.050 A 
HETATM   10  C   UNL     1      61.200   8.609   0.862  1.00  0.00     0.008 A 
HETATM   11  C   UNL     1      62.276   9.055   1.688  1.00  0.00     0.022 A 
ENDBRANCH   1   7
BRANCH   6  12
HETATM   12  C   UNL     1      66.320   7.894   6.053  1.00  0.00     0.223 C 
BRANCH  12  13
HETATM   13  O   UNL     1      66.779   8.897   6.957  1.00  0.00    -0.395 OA
HETATM   14  H   UNL     1      67.206   9.611   6.458  1.00  0.00     0.209 HD
ENDBRANCH  12  13
ENDBRANCH   6  12
TORSDOF 3
ENDMDL
