MODEL 1
REMARK VINA RESULT:      -5.5      0.000      0.000
REMARK  2 active torsions:
REMARK  status: ('A' for Active; 'I' for Inactive)
REMARK    1  A    between atoms: C_1  and  C_3 
REMARK    2  A    between atoms: C_2  and  N_4 
ROOT
HETATM    1  C   UNL     1      62.486   9.747   3.687  1.00  0.00     0.067 A 
HETATM    2  C   UNL     1      63.123   8.487   3.564  1.00  0.00     0.047 A 
HETATM    3  C   UNL     1      61.766  10.303   2.607  1.00  0.00     0.021 A 
HETATM    4  C   UNL     1      62.986   7.833   2.321  1.00  0.00     0.030 A 
HETATM    5  C   UNL     1      61.662   9.627   1.396  1.00  0.00     0.001 A 
HETATM    6  C   UNL     1      62.272   8.390   1.254  1.00  0.00     0.002 A 
ENDROOT
BRANCH   2   7
HETATM    7  N   UNL     1      63.882   7.914   4.575  1.00  0.00    -0.376 N 
HETATM    8  C   UNL     1      65.352   8.016   4.589  1.00  0.00     0.149 C 
HETATM    9  C   UNL     1      65.836   7.923   6.047  1.00  0.00     0.187 C 
HETATM   10  O   UNL     1      65.397   6.704   6.673  1.00  0.00    -0.388 OA
HETATM   11  C   UNL     1      63.959   6.634   6.663  1.00  0.00     0.187 C 
HETATM   12  C   UNL     1      63.408   6.676   5.227  1.00  0.00     0.149 C 
ENDBRANCH   2   7
BRANCH   1  13
HETATM   13  C   UNL     1      62.624  10.597   4.906  1.00  0.00     0.211 C 
HETATM   14  O   UNL     1      63.090  10.305   5.991  1.00  0.00    -0.644 OA
HETATM   15  O   UNL     1      62.109  11.829   4.706  1.00  0.00    -0.644 OA
ENDBRANCH   1  13
TORSDOF 2
ENDMDL
MODEL 2
REMARK VINA RESULT:      -5.3     18.567     20.157
REMARK  2 active torsions:
REMARK  status: ('A' for Active; 'I' for Inactive)
REMARK    1  A    between atoms: C_1  and  C_3 
REMARK    2  A    between atoms: C_2  and  N_4 
ROOT
HETATM    1  C   UNL     1      76.764   3.309  18.308  1.00  0.00     0.067 A 
HETATM    2  C   UNL     1      75.813   2.579  17.555  1.00  0.00     0.047 A 
HETATM    3  C   UNL     1      76.899   4.705  18.146  1.00  0.00     0.021 A 
HETATM    4  C   UNL     1      75.018   3.323  16.657  1.00  0.00     0.030 A 
HETATM    5  C   UNL     1      76.099   5.398  17.244  1.00  0.00     0.001 A 
HETATM    6  C   UNL     1      75.157   4.706  16.499  1.00  0.00     0.002 A 
ENDROOT
BRANCH   2   7
HETATM    7  N   UNL     1      75.669   1.200  17.638  1.00  0.00    -0.376 N 
HETATM    8  C   UNL     1      76.312   0.296  16.669  1.00  0.00     0.149 C 
HETATM    9  C   UNL     1      76.553  -1.062  17.349  1.00  0.00     0.187 C 
HETATM   10  O   UNL     1      75.328  -1.628  17.848  1.00  0.00    -0.388 OA
HETATM   11  C   UNL     1      74.726  -0.737  18.806  1.00  0.00     0.187 C 
HETATM   12  C   UNL     1      74.415   0.632  18.176  1.00  0.00     0.149 C 
ENDBRANCH   2   7
BRANCH   1  13
HETATM   13  C   UNL     1      77.739   2.646  19.224  1.00  0.00     0.211 C 
HETATM   14  O   UNL     1      78.411   1.650  19.031  1.00  0.00    -0.644 OA
HETATM   15  O   UNL     1      77.800   3.277  20.416  1.00  0.00    -0.644 OA
ENDBRANCH   1  13
TORSDOF 2
ENDMDL
MODEL 3
REMARK VINA RESULT:      -5.2      2.101      3.046
REMARK  2 active torsions:
REMARK  status: ('A' for Active; 'I' for Inactive)
REMARK    1  A    between atoms: C_1  and  C_3 
REMARK    2  A    between atoms: C_2  and  N_4 
ROOT
HETATM    1  C   UNL     1      62.557   8.792   2.649  1.00  0.00     0.067 A 
HETATM    2  C   UNL     1      62.869   9.192   3.972  1.00  0.00     0.047 A 
HETATM    3  C   UNL     1      61.922   9.681   1.755  1.00  0.00     0.021 A 
HETATM    4  C   UNL     1      62.519  10.512   4.328  1.00  0.00     0.030 A 
HETATM    5  C   UNL     1      61.588  10.972   2.150  1.00  0.00     0.001 A 
HETATM    6  C   UNL     1      61.889  11.388   3.438  1.00  0.00     0.002 A 
ENDROOT
BRANCH   2   7
HETATM    7  N   UNL     1      63.449   8.346   4.908  1.00  0.00    -0.376 N 
HETATM    8  C   UNL     1      62.654   7.709   5.972  1.00  0.00     0.149 C 
HETATM    9  C   UNL     1      63.344   6.397   6.383  1.00  0.00     0.187 C 
HETATM   10  O   UNL     1      64.697   6.625   6.816  1.00  0.00    -0.388 OA
HETATM   11  C   UNL     1      65.460   7.232   5.756  1.00  0.00     0.187 C 
HETATM   12  C   UNL     1      64.848   8.577   5.327  1.00  0.00     0.149 C 
ENDBRANCH   2   7
BRANCH   1  13
HETATM   13  C   UNL     1      62.778   7.399   2.161  1.00  0.00     0.211 C 
HETATM   14  O   UNL     1      63.764   6.696   2.280  1.00  0.00    -0.644 OA
HETATM   15  O   UNL     1      61.706   6.942   1.478  1.00  0.00    -0.644 OA
ENDBRANCH   1  13
TORSDOF 2
ENDMDL
MODEL 4
REMARK VINA RESULT:      -5.1      1.952      2.367
REMARK  2 active torsions:
REMARK  status: ('A' for Active; 'I' for Inactive)
REMARK    1  A    between atoms: C_1  and  C_3 
REMARK    2  A    between atoms: C_2  and  N_4 
ROOT
HETATM    1  C   UNL     1      62.689   9.316   4.095  1.00  0.00     0.067 A 
HETATM    2  C   UNL     1      62.613   8.294   3.116  1.00  0.00     0.047 A 
HETATM    3  C   UNL     1      62.318  10.643   3.787  1.00  0.00     0.021 A 
HETATM    4  C   UNL     1      62.143   8.679   1.843  1.00  0.00     0.030 A 
HETATM    5  C   UNL     1      61.867  10.980   2.516  1.00  0.00     0.001 A 
HETATM    6  C   UNL     1      61.778   9.996   1.543  1.00  0.00     0.002 A 
ENDROOT
BRANCH   2   7
HETATM    7  N   UNL     1      63.008   6.983   3.348  1.00  0.00    -0.376 N 
HETATM    8  C   UNL     1      64.102   6.360   2.583  1.00  0.00     0.149 C 
HETATM    9  C   UNL     1      64.742   5.260   3.449  1.00  0.00     0.187 C 
HETATM   10  O   UNL     1      63.772   4.279   3.858  1.00  0.00    -0.388 OA
HETATM   11  C   UNL     1      62.723   4.907   4.618  1.00  0.00     0.187 C 
HETATM   12  C   UNL     1      62.007   5.991   3.792  1.00  0.00     0.149 C 
ENDBRANCH   2   7
BRANCH   1  13
HETATM   13  C   UNL     1      63.258   9.080   5.455  1.00  0.00     0.211 C 
HETATM   14  O   UNL     1      62.778   8.460   6.385  1.00  0.00    -0.644 OA
HETATM   15  O   UNL     1      64.448   9.699   5.603  1.00  0.00    -0.644 OA
ENDBRANCH   1  13
TORSDOF 2
ENDMDL
MODEL 5
REMARK VINA RESULT:      -4.9     18.212     20.426
REMARK  2 active torsions:
REMARK  status: ('A' for Active; 'I' for Inactive)
REMARK    1  A    between atoms: C_1  and  C_3 
REMARK    2  A    between atoms: C_2  and  N_4 
ROOT
HETATM    1  C   UNL     1      75.489   0.809  16.438  1.00  0.00     0.067 A 
HETATM    2  C   UNL     1      76.700   0.189  16.833  1.00  0.00     0.047 A 
HETATM    3  C   UNL     1      75.043   0.741  15.100  1.00  0.00     0.021 A 
HETATM    4  C   UNL     1      77.413  -0.494  15.824  1.00  0.00     0.030 A 
HETATM    5  C   UNL     1      75.782   0.064  14.136  1.00  0.00     0.001 A 
HETATM    6  C   UNL     1      76.968  -0.556  14.499  1.00  0.00     0.002 A 
ENDROOT
BRANCH   2   7
HETATM    7  N   UNL     1      77.210   0.262  18.122  1.00  0.00    -0.376 N 
HETATM    8  C   UNL     1      76.724  -0.620  19.196  1.00  0.00     0.149 C 
HETATM    9  C   UNL     1      77.848  -0.800  20.231  1.00  0.00     0.187 C 
HETATM   10  O   UNL     1      78.286   0.464  20.760  1.00  0.00    -0.388 OA
HETATM   11  C   UNL     1      78.773   1.303  19.696  1.00  0.00     0.187 C 
HETATM   12  C   UNL     1      77.680   1.562  18.644  1.00  0.00     0.149 C 
ENDBRANCH   2   7
BRANCH   1  13
HETATM   13  C   UNL     1      74.678   1.647  17.370  1.00  0.00     0.211 C 
HETATM   14  O   UNL     1      74.221   1.353  18.459  1.00  0.00    -0.644 OA
HETATM   15  O   UNL     1      74.435   2.867  16.847  1.00  0.00    -0.644 OA
ENDBRANCH   1  13
TORSDOF 2
ENDMDL
MODEL 6
REMARK VINA RESULT:      -4.9      3.709      7.297
REMARK  2 active torsions:
REMARK  status: ('A' for Active; 'I' for Inactive)
REMARK    1  A    between atoms: C_1  and  C_3 
REMARK    2  A    between atoms: C_2  and  N_4 
ROOT
HETATM    1  C   UNL     1      67.785   4.340   6.584  1.00  0.00     0.067 A 
HETATM    2  C   UNL     1      67.448   5.537   7.263  1.00  0.00     0.047 A 
HETATM    3  C   UNL     1      68.789   3.483   7.084  1.00  0.00     0.021 A 
HETATM    4  C   UNL     1      68.160   5.807   8.451  1.00  0.00     0.030 A 
HETATM    5  C   UNL     1      69.471   3.791   8.255  1.00  0.00     0.001 A 
HETATM    6  C   UNL     1      69.155   4.954   8.941  1.00  0.00     0.002 A 
ENDROOT
BRANCH   2   7
HETATM    7  N   UNL     1      66.503   6.441   6.794  1.00  0.00    -0.376 N 
HETATM    8  C   UNL     1      66.890   7.770   6.289  1.00  0.00     0.149 C 
HETATM    9  C   UNL     1      65.833   8.235   5.271  1.00  0.00     0.187 C 
HETATM   10  O   UNL     1      64.518   8.266   5.853  1.00  0.00    -0.388 OA
HETATM   11  C   UNL     1      64.154   6.954   6.324  1.00  0.00     0.187 C 
HETATM   12  C   UNL     1      65.148   6.445   7.383  1.00  0.00     0.149 C 
ENDBRANCH   2   7
BRANCH   1  13
HETATM   13  C   UNL     1      67.188   3.972   5.267  1.00  0.00     0.211 C 
HETATM   14  O   UNL     1      67.519   4.330   4.152  1.00  0.00    -0.644 OA
HETATM   15  O   UNL     1      66.121   3.159   5.421  1.00  0.00    -0.644 OA
ENDBRANCH   1  13
TORSDOF 2
ENDMDL
MODEL 7
REMARK VINA RESULT:      -4.9      4.879      7.964
REMARK  2 active torsions:
REMARK  status: ('A' for Active; 'I' for Inactive)
REMARK    1  A    between atoms: C_1  and  C_3 
REMARK    2  A    between atoms: C_2  and  N_4 
ROOT
HETATM    1  C   UNL     1      67.500   3.944   8.040  1.00  0.00     0.067 A 
HETATM    2  C   UNL     1      68.158   5.181   7.827  1.00  0.00     0.047 A 
HETATM    3  C   UNL     1      68.090   2.937   8.834  1.00  0.00     0.021 A 
HETATM    4  C   UNL     1      69.412   5.340   8.456  1.00  0.00     0.030 A 
HETATM    5  C   UNL     1      69.331   3.134   9.429  1.00  0.00     0.001 A 
HETATM    6  C   UNL     1      69.992   4.338   9.241  1.00  0.00     0.002 A 
ENDROOT
BRANCH   2   7
HETATM    7  N   UNL     1      67.648   6.188   7.019  1.00  0.00    -0.376 N 
HETATM    8  C   UNL     1      66.559   7.068   7.476  1.00  0.00     0.149 C 
HETATM    9  C   UNL     1      66.671   8.413   6.737  1.00  0.00     0.187 C 
HETATM   10  O   UNL     1      66.628   8.237   5.310  1.00  0.00    -0.388 OA
HETATM   11  C   UNL     1      67.711   7.388   4.884  1.00  0.00     0.187 C 
HETATM   12  C   UNL     1      67.633   6.004   5.553  1.00  0.00     0.149 C 
ENDBRANCH   2   7
BRANCH   1  13
HETATM   13  C   UNL     1      66.217   3.594   7.362  1.00  0.00     0.211 C 
HETATM   14  O   UNL     1      65.083   3.912   7.666  1.00  0.00    -0.644 OA
HETATM   15  O   UNL     1      66.427   2.788   6.300  1.00  0.00    -0.644 OA
ENDBRANCH   1  13
TORSDOF 2
ENDMDL
MODEL 8
REMARK VINA RESULT:      -4.8      3.293      4.657
REMARK  2 active torsions:
REMARK  status: ('A' for Active; 'I' for Inactive)
REMARK    1  A    between atoms: C_1  and  C_3 
REMARK    2  A    between atoms: C_2  and  N_4 
ROOT
HETATM    1  C   UNL     1      65.190   7.358   5.857  1.00  0.00     0.067 A 
HETATM    2  C   UNL     1      65.163   6.146   6.589  1.00  0.00     0.047 A 
HETATM    3  C   UNL     1      64.074   7.770   5.097  1.00  0.00     0.021 A 
HETATM    4  C   UNL     1      63.969   5.397   6.519  1.00  0.00     0.030 A 
HETATM    5  C   UNL     1      62.919   6.998   5.050  1.00  0.00     0.001 A 
HETATM    6  C   UNL     1      62.866   5.810   5.764  1.00  0.00     0.002 A 
ENDROOT
BRANCH   2   7
HETATM    7  N   UNL     1      66.246   5.668   7.315  1.00  0.00    -0.376 N 
HETATM    8  C   UNL     1      66.893   4.387   6.984  1.00  0.00     0.149 C 
HETATM    9  C   UNL     1      68.360   4.444   7.443  1.00  0.00     0.187 C 
HETATM   10  O   UNL     1      68.463   4.726   8.850  1.00  0.00    -0.388 OA
HETATM   11  C   UNL     1      67.841   5.990   9.147  1.00  0.00     0.187 C 
HETATM   12  C   UNL     1      66.353   5.986   8.754  1.00  0.00     0.149 C 
ENDBRANCH   2   7
BRANCH   1  13
HETATM   13  C   UNL     1      66.415   8.205   5.757  1.00  0.00     0.211 C 
HETATM   14  O   UNL     1      67.263   8.220   4.884  1.00  0.00    -0.644 OA
HETATM   15  O   UNL     1      66.545   9.010   6.833  1.00  0.00    -0.644 OA
ENDBRANCH   1  13
TORSDOF 2
ENDMDL
MODEL 9
REMARK VINA RESULT:      -4.8      4.358      6.813
REMARK  2 active torsions:
REMARK  status: ('A' for Active; 'I' for Inactive)
REMARK    1  A    between atoms: C_1  and  C_3 
REMARK    2  A    between atoms: C_2  and  N_4 
ROOT
HETATM    1  C   UNL     1      67.207   5.969   7.629  1.00  0.00     0.067 A 
HETATM    2  C   UNL     1      67.405   4.940   6.675  1.00  0.00     0.047 A 
HETATM    3  C   UNL     1      67.954   5.998   8.827  1.00  0.00     0.021 A 
HETATM    4  C   UNL     1      68.383   3.973   6.989  1.00  0.00     0.030 A 
HETATM    5  C   UNL     1      68.903   5.020   9.099  1.00  0.00     0.001 A 
HETATM    6  C   UNL     1      69.119   4.007   8.178  1.00  0.00     0.002 A 
ENDROOT
BRANCH   2   7
HETATM    7  N   UNL     1      66.667   4.834   5.503  1.00  0.00    -0.376 N 
HETATM    8  C   UNL     1      65.936   3.602   5.160  1.00  0.00     0.149 C 
HETATM    9  C   UNL     1      64.745   3.973   4.258  1.00  0.00     0.187 C 
HETATM   10  O   UNL     1      65.176   4.665   3.073  1.00  0.00    -0.388 OA
HETATM   11  C   UNL     1      65.873   5.873   3.432  1.00  0.00     0.187 C 
HETATM   12  C   UNL     1      67.107   5.570   4.300  1.00  0.00     0.149 C 
ENDBRANCH   2   7
BRANCH   1  13
HETATM   13  C   UNL     1      66.141   7.003   7.481  1.00  0.00     0.211 C 
HETATM   14  O   UNL     1      64.943   6.896   7.663  1.00  0.00    -0.644 OA
HETATM   15  O   UNL     1      66.653   8.176   7.051  1.00  0.00    -0.644 OA
ENDBRANCH   1  13
TORSDOF 2
ENDMDL
