MODEL 1
REMARK VINA RESULT:      -4.9      0.000      0.000
REMARK  2 active torsions:
REMARK  status: ('A' for Active; 'I' for Inactive)
REMARK    1  A    between atoms: C_8  and  C_11 
REMARK    2  A    between atoms: N_10  and  C_11 
ROOT
HETATM    1  C   UNL     1      72.267  23.498  13.269  1.00  0.00    -0.018 A 
HETATM    2  S   UNL     1      70.718  24.734  14.926  1.00  0.00    -0.101 SA
HETATM    3  C   UNL     1      70.928  23.589  13.655  1.00  0.00     0.015 A 
HETATM    4  C   UNL     1      72.380  25.110  14.963  1.00  0.00     0.051 A 
HETATM    5  C   UNL     1      73.093  24.384  14.038  1.00  0.00     0.020 A 
HETATM    6  C   UNL     1      72.602  22.603  12.226  1.00  0.00     0.021 A 
HETATM    7  C   UNL     1      69.930  22.812  13.035  1.00  0.00     0.020 A 
HETATM    8  C   UNL     1      71.617  21.829  11.585  1.00  0.00    -0.032 A 
HETATM    9  C   UNL     1      70.291  21.940  12.004  1.00  0.00     0.010 A 
ENDROOT
BRANCH   8  10
HETATM   10  C   UNL     1      72.004  20.898  10.464  1.00  0.00     0.268 C 
BRANCH  10  11
HETATM   11  N   UNL     1      70.882  20.058  10.062  1.00  0.00    -0.075 N 
HETATM   12  H   UNL     1      71.018  19.113  10.421  1.00  0.00     0.274 HD
HETATM   13  H   UNL     1      70.824  20.031   9.045  1.00  0.00     0.274 HD
HETATM   14  H   UNL     1      70.016  20.443  10.442  1.00  0.00     0.274 HD
ENDBRANCH  10  11
ENDBRANCH   8  10
TORSDOF 2
ENDMDL
MODEL 2
REMARK VINA RESULT:      -4.5     17.405     19.566
REMARK  2 active torsions:
REMARK  status: ('A' for Active; 'I' for Inactive)
REMARK    1  A    between atoms: C_8  and  C_11 
REMARK    2  A    between atoms: N_10  and  C_11 
ROOT
HETATM    1  C   UNL     1      63.034   8.153   2.937  1.00  0.00    -0.018 A 
HETATM    2  S   UNL     1      62.467   7.337   0.553  1.00  0.00    -0.101 SA
HETATM    3  C   UNL     1      62.409   8.567   1.758  1.00  0.00     0.015 A 
HETATM    4  C   UNL     1      63.305   6.265   1.580  1.00  0.00     0.051 A 
HETATM    5  C   UNL     1      63.549   6.819   2.814  1.00  0.00     0.020 A 
HETATM    6  C   UNL     1      63.064   9.053   4.028  1.00  0.00     0.021 A 
HETATM    7  C   UNL     1      61.826   9.844   1.645  1.00  0.00     0.020 A 
HETATM    8  C   UNL     1      62.474  10.327   3.939  1.00  0.00    -0.032 A 
HETATM    9  C   UNL     1      61.866  10.709   2.742  1.00  0.00     0.010 A 
ENDROOT
BRANCH   8  10
HETATM   10  C   UNL     1      62.506  11.255   5.126  1.00  0.00     0.268 C 
BRANCH  10  11
HETATM   11  N   UNL     1      63.695  11.032   5.941  1.00  0.00    -0.075 N 
HETATM   12  H   UNL     1      64.499  11.480   5.500  1.00  0.00     0.274 HD
HETATM   13  H   UNL     1      63.868  10.030   6.025  1.00  0.00     0.274 HD
HETATM   14  H   UNL     1      63.551  11.431   6.869  1.00  0.00     0.274 HD
ENDBRANCH  10  11
ENDBRANCH   8  10
TORSDOF 2
ENDMDL
MODEL 3
REMARK VINA RESULT:      -4.3     18.069     19.358
REMARK  2 active torsions:
REMARK  status: ('A' for Active; 'I' for Inactive)
REMARK    1  A    between atoms: C_8  and  C_11 
REMARK    2  A    between atoms: N_10  and  C_11 
ROOT
HETATM    1  C   UNL     1      67.931   4.789   6.833  1.00  0.00    -0.018 A 
HETATM    2  S   UNL     1      66.877   7.146   6.738  1.00  0.00    -0.101 SA
HETATM    3  C   UNL     1      67.679   5.908   7.630  1.00  0.00     0.015 A 
HETATM    4  C   UNL     1      66.857   6.210   5.313  1.00  0.00     0.051 A 
HETATM    5  C   UNL     1      67.450   4.982   5.494  1.00  0.00     0.020 A 
HETATM    6  C   UNL     1      68.580   3.680   7.424  1.00  0.00     0.021 A 
HETATM    7  C   UNL     1      68.062   5.946   8.985  1.00  0.00     0.020 A 
HETATM    8  C   UNL     1      68.956   3.694   8.779  1.00  0.00    -0.032 A 
HETATM    9  C   UNL     1      68.696   4.832   9.543  1.00  0.00     0.010 A 
ENDROOT
BRANCH   8  10
HETATM   10  C   UNL     1      69.629   2.488   9.385  1.00  0.00     0.268 C 
BRANCH  10  11
HETATM   11  N   UNL     1      69.714   2.603  10.837  1.00  0.00    -0.075 N 
HETATM   12  H   UNL     1      69.882   1.682  11.242  1.00  0.00     0.274 HD
HETATM   13  H   UNL     1      68.839   2.980  11.201  1.00  0.00     0.274 HD
HETATM   14  H   UNL     1      70.483   3.227  11.084  1.00  0.00     0.274 HD
ENDBRANCH  10  11
ENDBRANCH   8  10
TORSDOF 2
ENDMDL
MODEL 4
REMARK VINA RESULT:      -4.3     17.864     19.134
REMARK  2 active torsions:
REMARK  status: ('A' for Active; 'I' for Inactive)
REMARK    1  A    between atoms: C_8  and  C_11 
REMARK    2  A    between atoms: N_10  and  C_11 
ROOT
HETATM    1  C   UNL     1      67.522   5.964   7.696  1.00  0.00    -0.018 A 
HETATM    2  S   UNL     1      66.064   5.752   5.575  1.00  0.00    -0.101 SA
HETATM    3  C   UNL     1      67.279   5.113   6.616  1.00  0.00     0.015 A 
HETATM    4  C   UNL     1      65.863   7.143   6.538  1.00  0.00     0.051 A 
HETATM    5  C   UNL     1      66.691   7.134   7.636  1.00  0.00     0.020 A 
HETATM    6  C   UNL     1      68.503   5.582   8.641  1.00  0.00     0.021 A 
HETATM    7  C   UNL     1      67.981   3.901   6.463  1.00  0.00     0.020 A 
HETATM    8  C   UNL     1      69.224   4.383   8.497  1.00  0.00    -0.032 A 
HETATM    9  C   UNL     1      68.949   3.553   7.410  1.00  0.00     0.010 A 
ENDROOT
BRANCH   8  10
HETATM   10  C   UNL     1      70.277   4.013   9.511  1.00  0.00     0.268 C 
BRANCH  10  11
HETATM   11  N   UNL     1      69.697   3.284  10.634  1.00  0.00    -0.075 N 
HETATM   12  H   UNL     1      69.586   2.302  10.381  1.00  0.00     0.274 HD
HETATM   13  H   UNL     1      68.787   3.681  10.865  1.00  0.00     0.274 HD
HETATM   14  H   UNL     1      70.316   3.358  11.443  1.00  0.00     0.274 HD
ENDBRANCH  10  11
ENDBRANCH   8  10
TORSDOF 2
ENDMDL
MODEL 5
REMARK VINA RESULT:      -4.2     17.854     19.259
REMARK  2 active torsions:
REMARK  status: ('A' for Active; 'I' for Inactive)
REMARK    1  A    between atoms: C_8  and  C_11 
REMARK    2  A    between atoms: N_10  and  C_11 
ROOT
HETATM    1  C   UNL     1      68.529   4.729   8.416  1.00  0.00    -0.018 A 
HETATM    2  S   UNL     1      68.954   2.181   8.386  1.00  0.00    -0.101 SA
HETATM    3  C   UNL     1      68.419   3.611   7.586  1.00  0.00     0.015 A 
HETATM    4  C   UNL     1      69.322   3.030   9.818  1.00  0.00     0.051 A 
HETATM    5  C   UNL     1      69.055   4.374   9.703  1.00  0.00     0.020 A 
HETATM    6  C   UNL     1      68.121   5.983   7.905  1.00  0.00     0.021 A 
HETATM    7  C   UNL     1      67.924   3.718   6.272  1.00  0.00     0.020 A 
HETATM    8  C   UNL     1      67.610   6.107   6.600  1.00  0.00    -0.032 A 
HETATM    9  C   UNL     1      67.523   4.970   5.796  1.00  0.00     0.010 A 
ENDROOT
BRANCH   8  10
HETATM   10  C   UNL     1      67.165   7.455   6.091  1.00  0.00     0.268 C 
BRANCH  10  11
HETATM   11  N   UNL     1      66.945   8.389   7.189  1.00  0.00    -0.075 N 
HETATM   12  H   UNL     1      67.552   9.201   7.072  1.00  0.00     0.274 HD
HETATM   13  H   UNL     1      67.158   7.930   8.075  1.00  0.00     0.274 HD
HETATM   14  H   UNL     1      65.970   8.691   7.188  1.00  0.00     0.274 HD
ENDBRANCH  10  11
ENDBRANCH   8  10
TORSDOF 2
ENDMDL
MODEL 6
REMARK VINA RESULT:      -4.0     18.169     19.826
REMARK  2 active torsions:
REMARK  status: ('A' for Active; 'I' for Inactive)
REMARK    1  A    between atoms: C_8  and  C_11 
REMARK    2  A    between atoms: N_10  and  C_11 
ROOT
HETATM    1  C   UNL     1      68.527   3.282   7.482  1.00  0.00    -0.018 A 
HETATM    2  S   UNL     1      69.345   2.131   9.645  1.00  0.00    -0.101 SA
HETATM    3  C   UNL     1      68.814   3.549   8.822  1.00  0.00     0.015 A 
HETATM    4  C   UNL     1      69.201   1.173   8.241  1.00  0.00     0.051 A 
HETATM    5  C   UNL     1      68.754   1.901   7.164  1.00  0.00     0.020 A 
HETATM    6  C   UNL     1      68.085   4.351   6.668  1.00  0.00     0.021 A 
HETATM    7  C   UNL     1      68.666   4.842   9.362  1.00  0.00     0.020 A 
HETATM    8  C   UNL     1      67.945   5.652   7.186  1.00  0.00    -0.032 A 
HETATM    9  C   UNL     1      68.233   5.879   8.532  1.00  0.00     0.010 A 
ENDROOT
BRANCH   8  10
HETATM   10  C   UNL     1      67.490   6.774   6.287  1.00  0.00     0.268 C 
BRANCH  10  11
HETATM   11  N   UNL     1      67.151   7.965   7.058  1.00  0.00    -0.075 N 
HETATM   12  H   UNL     1      67.723   7.998   7.902  1.00  0.00     0.274 HD
HETATM   13  H   UNL     1      66.165   7.936   7.315  1.00  0.00     0.274 HD
HETATM   14  H   UNL     1      67.331   8.797   6.494  1.00  0.00     0.274 HD
ENDBRANCH  10  11
ENDBRANCH   8  10
TORSDOF 2
ENDMDL
MODEL 7
REMARK VINA RESULT:      -4.0     18.006     19.181
REMARK  2 active torsions:
REMARK  status: ('A' for Active; 'I' for Inactive)
REMARK    1  A    between atoms: C_8  and  C_11 
REMARK    2  A    between atoms: N_10  and  C_11 
ROOT
HETATM    1  C   UNL     1      63.707   7.459   3.693  1.00  0.00    -0.018 A 
HETATM    2  S   UNL     1      64.586   7.030   6.083  1.00  0.00    -0.101 SA
HETATM    3  C   UNL     1      63.715   8.019   4.972  1.00  0.00     0.015 A 
HETATM    4  C   UNL     1      64.954   5.875   4.884  1.00  0.00     0.051 A 
HETATM    5  C   UNL     1      64.427   6.217   3.661  1.00  0.00     0.020 A 
HETATM    6  C   UNL     1      63.036   8.157   2.662  1.00  0.00     0.021 A 
HETATM    7  C   UNL     1      63.072   9.242   5.243  1.00  0.00     0.020 A 
HETATM    8  C   UNL     1      62.400   9.387   2.910  1.00  0.00    -0.032 A 
HETATM    9  C   UNL     1      62.422   9.912   4.202  1.00  0.00     0.010 A 
ENDROOT
BRANCH   8  10
HETATM   10  C   UNL     1      61.709  10.117   1.785  1.00  0.00     0.268 C 
BRANCH  10  11
HETATM   11  N   UNL     1      61.583  11.540   2.077  1.00  0.00    -0.075 N 
HETATM   12  H   UNL     1      60.596  11.800   2.082  1.00  0.00     0.274 HD
HETATM   13  H   UNL     1      62.072  12.079   1.363  1.00  0.00     0.274 HD
HETATM   14  H   UNL     1      61.990  11.737   2.992  1.00  0.00     0.274 HD
ENDBRANCH  10  11
ENDBRANCH   8  10
TORSDOF 2
ENDMDL
MODEL 8
REMARK VINA RESULT:      -4.0     17.399     18.858
REMARK  2 active torsions:
REMARK  status: ('A' for Active; 'I' for Inactive)
REMARK    1  A    between atoms: C_8  and  C_11 
REMARK    2  A    between atoms: N_10  and  C_11 
ROOT
HETATM    1  C   UNL     1      63.510   8.762   4.203  1.00  0.00    -0.018 A 
HETATM    2  S   UNL     1      62.272   7.711   2.194  1.00  0.00    -0.101 SA
HETATM    3  C   UNL     1      63.575   7.680   3.322  1.00  0.00     0.015 A 
HETATM    4  C   UNL     1      61.631   9.144   2.859  1.00  0.00     0.051 A 
HETATM    5  C   UNL     1      62.377   9.597   3.921  1.00  0.00     0.020 A 
HETATM    6  C   UNL     1      64.517   8.882   5.189  1.00  0.00     0.021 A 
HETATM    7  C   UNL     1      64.606   6.724   3.407  1.00  0.00     0.020 A 
HETATM    8  C   UNL     1      65.563   7.946   5.280  1.00  0.00    -0.032 A 
HETATM    9  C   UNL     1      65.590   6.873   4.388  1.00  0.00     0.010 A 
ENDROOT
BRANCH   8  10
HETATM   10  C   UNL     1      66.632   8.112   6.330  1.00  0.00     0.268 C 
BRANCH  10  11
HETATM   11  N   UNL     1      67.953   7.799   5.795  1.00  0.00    -0.075 N 
HETATM   12  H   UNL     1      68.507   7.328   6.510  1.00  0.00     0.274 HD
HETATM   13  H   UNL     1      68.420   8.662   5.516  1.00  0.00     0.274 HD
HETATM   14  H   UNL     1      67.855   7.188   4.984  1.00  0.00     0.274 HD
ENDBRANCH  10  11
ENDBRANCH   8  10
TORSDOF 2
ENDMDL
MODEL 9
REMARK VINA RESULT:      -3.8      8.871      9.662
REMARK  2 active torsions:
REMARK  status: ('A' for Active; 'I' for Inactive)
REMARK    1  A    between atoms: C_8  and  C_11 
REMARK    2  A    between atoms: N_10  and  C_11 
ROOT
HETATM    1  C   UNL     1      80.565  23.125  15.384  1.00  0.00    -0.018 A 
HETATM    2  S   UNL     1      82.511  24.633  14.605  1.00  0.00    -0.101 SA
HETATM    3  C   UNL     1      81.628  23.159  14.479  1.00  0.00     0.015 A 
HETATM    4  C   UNL     1      81.502  25.219  15.848  1.00  0.00     0.051 A 
HETATM    5  C   UNL     1      80.506  24.326  16.167  1.00  0.00     0.020 A 
HETATM    6  C   UNL     1      79.745  21.972  15.409  1.00  0.00     0.021 A 
HETATM    7  C   UNL     1      81.883  22.085  13.605  1.00  0.00     0.020 A 
HETATM    8  C   UNL     1      79.994  20.883  14.553  1.00  0.00    -0.032 A 
HETATM    9  C   UNL     1      81.060  20.956  13.656  1.00  0.00     0.010 A 
ENDROOT
BRANCH   8  10
HETATM   10  C   UNL     1      79.113  19.661  14.617  1.00  0.00     0.268 C 
BRANCH  10  11
HETATM   11  N   UNL     1      78.018  19.846  15.563  1.00  0.00    -0.075 N 
HETATM   12  H   UNL     1      77.198  20.197  15.069  1.00  0.00     0.274 HD
HETATM   13  H   UNL     1      78.297  20.516  16.280  1.00  0.00     0.274 HD
HETATM   14  H   UNL     1      77.794  18.952  16.001  1.00  0.00     0.274 HD
ENDBRANCH  10  11
ENDBRANCH   8  10
TORSDOF 2
ENDMDL
