MODEL 1
REMARK VINA RESULT:      -6.5      0.000      0.000
REMARK  1 active torsions:
REMARK  status: ('A' for Active; 'I' for Inactive)
REMARK    1  A    between atoms: N_1  and  C_4 
ROOT
HETATM    1  C   UNL     1      77.779   9.204  16.362  1.00  0.00     0.076 A 
HETATM    2  N   UNL     1      76.535   6.371  18.164  1.00  0.00    -0.191 NA
HETATM    3  C   UNL     1      76.878   7.057  17.296  1.00  0.00     0.102 C 
HETATM    4  C   UNL     1      77.302   7.891  16.206  1.00  0.00     0.073 A 
HETATM    5  C   UNL     1      78.028   9.988  15.219  1.00  0.00     0.033 A 
HETATM    6  C   UNL     1      77.119   7.377  14.909  1.00  0.00     0.025 A 
HETATM    7  C   UNL     1      77.859   9.456  13.939  1.00  0.00     0.002 A 
HETATM    8  C   UNL     1      77.409   8.149  13.784  1.00  0.00     0.002 A 
ENDROOT
BRANCH   1   9
HETATM    9  N   UNL     1      78.018   9.797  17.633  1.00  0.00    -0.267 N 
HETATM   10  N   UNL     1      79.199   9.592  18.276  1.00  0.00    -0.305 N 
HETATM   11  C   UNL     1      79.129  10.364  19.362  1.00  0.00     0.109 A 
ATOM     12  HN  UNL     1      79.966   8.984  17.992  1.00  0.00     0.186 HD
HETATM   13  C   UNL     1      77.879  10.980  19.502  1.00  0.00     0.038 A 
HETATM   14  C   UNL     1      77.172  10.573  18.396  1.00  0.00     0.118 A 
ENDBRANCH   1   9
TORSDOF 1
ENDMDL
MODEL 2
REMARK VINA RESULT:      -5.9      1.567      3.849
REMARK  1 active torsions:
REMARK  status: ('A' for Active; 'I' for Inactive)
REMARK    1  A    between atoms: N_1  and  C_4 
ROOT
HETATM    1  C   UNL     1      77.151   7.581  15.766  1.00  0.00     0.076 A 
HETATM    2  N   UNL     1      77.404   8.937  19.071  1.00  0.00    -0.191 NA
HETATM    3  C   UNL     1      77.400   8.851  17.915  1.00  0.00     0.102 C 
HETATM    4  C   UNL     1      77.397   8.766  16.481  1.00  0.00     0.073 A 
HETATM    5  C   UNL     1      77.318   7.573  14.367  1.00  0.00     0.033 A 
HETATM    6  C   UNL     1      77.768   9.928  15.779  1.00  0.00     0.025 A 
HETATM    7  C   UNL     1      77.668   8.739  13.684  1.00  0.00     0.002 A 
HETATM    8  C   UNL     1      77.889   9.917  14.389  1.00  0.00     0.002 A 
ENDROOT
BRANCH   1   9
HETATM    9  N   UNL     1      76.747   6.368  16.389  1.00  0.00    -0.267 N 
HETATM   10  N   UNL     1      77.442   5.874  17.448  1.00  0.00    -0.305 N 
HETATM   11  C   UNL     1      76.742   4.810  17.845  1.00  0.00     0.109 A 
ATOM     12  HN  UNL     1      78.307   6.237  17.850  1.00  0.00     0.186 HD
HETATM   13  C   UNL     1      75.665   4.531  16.994  1.00  0.00     0.038 A 
HETATM   14  C   UNL     1      75.711   5.526  16.048  1.00  0.00     0.118 A 
ENDBRANCH   1   9
TORSDOF 1
ENDMDL
MODEL 3
REMARK VINA RESULT:      -5.7      1.323      2.747
REMARK  1 active torsions:
REMARK  status: ('A' for Active; 'I' for Inactive)
REMARK    1  A    between atoms: N_1  and  C_4 
ROOT
HETATM    1  C   UNL     1      77.304   8.754  17.279  1.00  0.00     0.076 A 
HETATM    2  N   UNL     1      78.027  11.088  14.662  1.00  0.00    -0.191 NA
HETATM    3  C   UNL     1      77.729  10.115  15.215  1.00  0.00     0.102 C 
HETATM    4  C   UNL     1      77.354   8.899  15.882  1.00  0.00     0.073 A 
HETATM    5  C   UNL     1      77.069   7.480  17.832  1.00  0.00     0.033 A 
HETATM    6  C   UNL     1      77.128   7.775  15.066  1.00  0.00     0.025 A 
HETATM    7  C   UNL     1      76.829   6.378  17.008  1.00  0.00     0.002 A 
HETATM    8  C   UNL     1      76.855   6.527  15.626  1.00  0.00     0.002 A 
ENDROOT
BRANCH   1   9
HETATM    9  N   UNL     1      77.493   9.839  18.179  1.00  0.00    -0.267 N 
HETATM   10  N   UNL     1      78.506   9.812  19.086  1.00  0.00    -0.305 N 
HETATM   11  C   UNL     1      78.459  11.006  19.679  1.00  0.00     0.109 A 
ATOM     12  HN  UNL     1      79.158   9.049  19.270  1.00  0.00     0.186 HD
HETATM   13  C   UNL     1      77.362  11.769  19.261  1.00  0.00     0.038 A 
HETATM   14  C   UNL     1      76.738  10.983  18.322  1.00  0.00     0.118 A 
ENDBRANCH   1   9
TORSDOF 1
ENDMDL
MODEL 4
REMARK VINA RESULT:      -5.6      3.971      5.643
REMARK  1 active torsions:
REMARK  status: ('A' for Active; 'I' for Inactive)
REMARK    1  A    between atoms: N_1  and  C_4 
ROOT
HETATM    1  C   UNL     1      78.008  12.469  20.819  1.00  0.00     0.076 A 
HETATM    2  N   UNL     1      79.779   9.774  19.263  1.00  0.00    -0.191 NA
HETATM    3  C   UNL     1      79.003  10.613  19.457  1.00  0.00     0.102 C 
HETATM    4  C   UNL     1      78.033  11.650  19.678  1.00  0.00     0.073 A 
HETATM    5  C   UNL     1      76.929  13.356  21.008  1.00  0.00     0.033 A 
HETATM    6  C   UNL     1      77.000  11.760  18.729  1.00  0.00     0.025 A 
HETATM    7  C   UNL     1      75.921  13.465  20.048  1.00  0.00     0.002 A 
HETATM    8  C   UNL     1      75.958  12.671  18.908  1.00  0.00     0.002 A 
ENDROOT
BRANCH   1   9
HETATM    9  N   UNL     1      79.023  12.445  21.815  1.00  0.00    -0.267 N 
HETATM   10  N   UNL     1      78.784  11.877  23.027  1.00  0.00    -0.305 N 
HETATM   11  C   UNL     1      79.956  11.930  23.662  1.00  0.00     0.109 A 
ATOM     12  HN  UNL     1      77.904  11.496  23.374  1.00  0.00     0.186 HD
HETATM   13  C   UNL     1      80.929  12.626  22.932  1.00  0.00     0.038 A 
HETATM   14  C   UNL     1      80.295  12.975  21.765  1.00  0.00     0.118 A 
ENDBRANCH   1   9
TORSDOF 1
ENDMDL
MODEL 5
REMARK VINA RESULT:      -5.5      3.406      4.948
REMARK  1 active torsions:
REMARK  status: ('A' for Active; 'I' for Inactive)
REMARK    1  A    between atoms: N_1  and  C_4 
ROOT
HETATM    1  C   UNL     1      78.489  11.286  19.943  1.00  0.00     0.076 A 
HETATM    2  N   UNL     1      76.286  14.101  20.155  1.00  0.00    -0.191 NA
HETATM    3  C   UNL     1      76.769  13.106  19.806  1.00  0.00     0.102 C 
HETATM    4  C   UNL     1      77.351  11.871  19.361  1.00  0.00     0.073 A 
HETATM    5  C   UNL     1      79.066  10.152  19.339  1.00  0.00     0.033 A 
HETATM    6  C   UNL     1      76.791  11.288  18.209  1.00  0.00     0.025 A 
HETATM    7  C   UNL     1      78.487   9.575  18.206  1.00  0.00     0.002 A 
HETATM    8  C   UNL     1      77.349  10.141  17.644  1.00  0.00     0.002 A 
ENDROOT
BRANCH   1   9
HETATM    9  N   UNL     1      79.105  11.790  21.122  1.00  0.00    -0.267 N 
HETATM   10  N   UNL     1      80.427  11.572  21.354  1.00  0.00    -0.305 N 
HETATM   11  C   UNL     1      80.692  12.260  22.466  1.00  0.00     0.109 A 
ATOM     12  HN  UNL     1      81.071  11.007  20.802  1.00  0.00     0.186 HD
HETATM   13  C   UNL     1      79.543  12.829  23.030  1.00  0.00     0.038 A 
HETATM   14  C   UNL     1      78.532  12.485  22.165  1.00  0.00     0.118 A 
ENDBRANCH   1   9
TORSDOF 1
ENDMDL
MODEL 6
REMARK VINA RESULT:      -5.4      5.323      7.216
REMARK  1 active torsions:
REMARK  status: ('A' for Active; 'I' for Inactive)
REMARK    1  A    between atoms: N_1  and  C_4 
ROOT
HETATM    1  C   UNL     1      76.515   2.996  17.971  1.00  0.00     0.076 A 
HETATM    2  N   UNL     1      74.127   0.335  18.177  1.00  0.00    -0.191 NA
HETATM    3  C   UNL     1      74.630   1.342  17.900  1.00  0.00     0.102 C 
HETATM    4  C   UNL     1      75.237   2.595  17.544  1.00  0.00     0.073 A 
HETATM    5  C   UNL     1      76.957   4.304  17.689  1.00  0.00     0.033 A 
HETATM    6  C   UNL     1      74.443   3.496  16.811  1.00  0.00     0.025 A 
HETATM    7  C   UNL     1      76.163   5.179  16.944  1.00  0.00     0.002 A 
HETATM    8  C   UNL     1      74.909   4.774  16.502  1.00  0.00     0.002 A 
ENDROOT
BRANCH   1   9
HETATM    9  N   UNL     1      77.396   2.144  18.693  1.00  0.00    -0.267 N 
HETATM   10  N   UNL     1      77.991   2.579  19.836  1.00  0.00    -0.305 N 
HETATM   11  C   UNL     1      78.647   1.515  20.301  1.00  0.00     0.109 A 
ATOM     12  HN  UNL     1      77.945   3.512  20.246  1.00  0.00     0.186 HD
HETATM   13  C   UNL     1      78.588   0.425  19.423  1.00  0.00     0.038 A 
HETATM   14  C   UNL     1      77.807   0.866  18.383  1.00  0.00     0.118 A 
ENDBRANCH   1   9
TORSDOF 1
ENDMDL
MODEL 7
REMARK VINA RESULT:      -5.4     17.741     19.371
REMARK  1 active torsions:
REMARK  status: ('A' for Active; 'I' for Inactive)
REMARK    1  A    between atoms: N_1  and  C_4 
ROOT
HETATM    1  C   UNL     1      62.951   9.044   3.979  1.00  0.00     0.076 A 
HETATM    2  N   UNL     1      63.233  11.482   6.586  1.00  0.00    -0.191 NA
HETATM    3  C   UNL     1      62.961  10.974   5.581  1.00  0.00     0.102 C 
HETATM    4  C   UNL     1      62.611  10.362   4.330  1.00  0.00     0.073 A 
HETATM    5  C   UNL     1      62.690   8.589   2.672  1.00  0.00     0.033 A 
HETATM    6  C   UNL     1      61.982  11.186   3.377  1.00  0.00     0.025 A 
HETATM    7  C   UNL     1      62.049   9.413   1.745  1.00  0.00     0.002 A 
HETATM    8  C   UNL     1      61.692  10.709   2.099  1.00  0.00     0.002 A 
ENDROOT
BRANCH   1   9
HETATM    9  N   UNL     1      63.564   8.133   4.884  1.00  0.00    -0.267 N 
HETATM   10  N   UNL     1      64.919   8.058   4.972  1.00  0.00    -0.305 N 
HETATM   11  C   UNL     1      65.145   7.204   5.971  1.00  0.00     0.109 A 
ATOM     12  HN  UNL     1      65.608   8.546   4.401  1.00  0.00     0.186 HD
HETATM   13  C   UNL     1      63.965   6.630   6.462  1.00  0.00     0.038 A 
HETATM   14  C   UNL     1      62.966   7.218   5.724  1.00  0.00     0.118 A 
ENDBRANCH   1   9
TORSDOF 1
ENDMDL
MODEL 8
REMARK VINA RESULT:      -5.3      1.818      5.151
REMARK  1 active torsions:
REMARK  status: ('A' for Active; 'I' for Inactive)
REMARK    1  A    between atoms: N_1  and  C_4 
ROOT
HETATM    1  C   UNL     1      77.179  11.291  18.853  1.00  0.00     0.076 A 
HETATM    2  N   UNL     1      80.402  10.266  20.029  1.00  0.00    -0.191 NA
HETATM    3  C   UNL     1      79.405  10.847  19.920  1.00  0.00     0.102 C 
HETATM    4  C   UNL     1      78.174  11.578  19.803  1.00  0.00     0.073 A 
HETATM    5  C   UNL     1      76.077  12.159  18.725  1.00  0.00     0.033 A 
HETATM    6  C   UNL     1      78.029  12.706  20.631  1.00  0.00     0.025 A 
HETATM    7  C   UNL     1      75.940  13.265  19.567  1.00  0.00     0.002 A 
HETATM    8  C   UNL     1      76.913  13.536  20.522  1.00  0.00     0.002 A 
ENDROOT
BRANCH   1   9
HETATM    9  N   UNL     1      77.230  10.158  17.994  1.00  0.00    -0.267 N 
HETATM   10  N   UNL     1      77.514  10.310  16.673  1.00  0.00    -0.305 N 
HETATM   11  C   UNL     1      77.586   9.065  16.198  1.00  0.00     0.109 A 
ATOM     12  HN  UNL     1      77.644  11.182  16.160  1.00  0.00     0.186 HD
HETATM   13  C   UNL     1      77.240   8.106  17.158  1.00  0.00     0.038 A 
HETATM   14  C   UNL     1      76.982   8.836  18.293  1.00  0.00     0.118 A 
ENDBRANCH   1   9
TORSDOF 1
ENDMDL
MODEL 9
REMARK VINA RESULT:      -5.2     17.285     18.928
REMARK  1 active torsions:
REMARK  status: ('A' for Active; 'I' for Inactive)
REMARK    1  A    between atoms: N_1  and  C_4 
ROOT
HETATM    1  C   UNL     1      63.454   9.088   4.691  1.00  0.00     0.076 A 
HETATM    2  N   UNL     1      63.424   6.422   2.301  1.00  0.00    -0.191 NA
HETATM    3  C   UNL     1      63.244   7.451   2.802  1.00  0.00     0.102 C 
HETATM    4  C   UNL     1      63.014   8.735   3.404  1.00  0.00     0.073 A 
HETATM    5  C   UNL     1      63.049  10.318   5.245  1.00  0.00     0.033 A 
HETATM    6  C   UNL     1      62.207   9.635   2.682  1.00  0.00     0.025 A 
HETATM    7  C   UNL     1      62.264  11.208   4.509  1.00  0.00     0.002 A 
HETATM    8  C   UNL     1      61.847  10.868   3.226  1.00  0.00     0.002 A 
ENDROOT
BRANCH   1   9
HETATM    9  N   UNL     1      64.293   8.254   5.481  1.00  0.00    -0.267 N 
HETATM   10  N   UNL     1      63.752   7.393   6.384  1.00  0.00    -0.305 N 
HETATM   11  C   UNL     1      64.792   6.704   6.858  1.00  0.00     0.109 A 
ATOM     12  HN  UNL     1      62.770   7.295   6.640  1.00  0.00     0.186 HD
HETATM   13  C   UNL     1      66.015   7.178   6.368  1.00  0.00     0.038 A 
HETATM   14  C   UNL     1      65.670   8.195   5.511  1.00  0.00     0.118 A 
ENDBRANCH   1   9
TORSDOF 1
ENDMDL
