MODEL 1
REMARK VINA RESULT:      -7.2      0.000      0.000
REMARK  2 active torsions:
REMARK  status: ('A' for Active; 'I' for Inactive)
REMARK    1  A    between atoms: C_1  and  C_2 
REMARK    2  A    between atoms: C_4  and  C_8 
ROOT
HETATM    1  C   UNL     1      76.902   7.278  17.120  1.00  0.00     0.057 A 
HETATM    2  C   UNL     1      76.905   8.351  18.020  1.00  0.00     0.033 A 
HETATM    3  C   UNL     1      77.279   9.640  17.601  1.00  0.00    -0.009 A 
HETATM    4  N   UNL     1      77.606   8.746  15.342  1.00  0.00    -0.373 N 
ATOM      5  HN  UNL     1      77.853   8.899  14.364  1.00  0.00     0.164 HD
HETATM    6  C   UNL     1      77.251   7.525  15.803  1.00  0.00     0.106 A 
HETATM    7  C   UNL     1      77.618   9.757  16.248  1.00  0.00     0.100 A 
ENDROOT
BRANCH   3   8
HETATM    8  C   UNL     1      77.346  10.791  18.532  1.00  0.00    -0.025 A 
HETATM    9  C   UNL     1      78.251  10.813  19.609  1.00  0.00     0.012 A 
HETATM   10  C   UNL     1      78.343  11.915  20.467  1.00  0.00     0.001 A 
HETATM   11  C   UNL     1      77.535  13.028  20.263  1.00  0.00     0.000 A 
HETATM   12  C   UNL     1      76.624  13.031  19.212  1.00  0.00     0.001 A 
HETATM   13  C   UNL     1      76.526  11.923  18.363  1.00  0.00     0.012 A 
ENDBRANCH   3   8
BRANCH   1  14
HETATM   14  C   UNL     1      76.560   5.897  17.506  1.00  0.00     0.210 C 
HETATM   15  O   UNL     1      76.956   5.316  18.498  1.00  0.00    -0.644 OA
HETATM   16  O   UNL     1      75.718   5.308  16.638  1.00  0.00    -0.644 OA
ENDBRANCH   1  14
TORSDOF 2
ENDMDL
MODEL 2
REMARK VINA RESULT:      -7.2      2.212      3.051
REMARK  2 active torsions:
REMARK  status: ('A' for Active; 'I' for Inactive)
REMARK    1  A    between atoms: C_1  and  C_2 
REMARK    2  A    between atoms: C_4  and  C_8 
ROOT
HETATM    1  C   UNL     1      77.545   8.949  15.746  1.00  0.00     0.057 A 
HETATM    2  C   UNL     1      77.581  10.088  16.561  1.00  0.00     0.033 A 
HETATM    3  C   UNL     1      77.335   9.991  17.942  1.00  0.00    -0.009 A 
HETATM    4  N   UNL     1      77.056   7.571  17.662  1.00  0.00    -0.373 N 
ATOM      5  HN  UNL     1      76.874   6.655  18.073  1.00  0.00     0.164 HD
HETATM    6  C   UNL     1      77.288   7.724  16.339  1.00  0.00     0.106 A 
HETATM    7  C   UNL     1      77.078   8.700  18.418  1.00  0.00     0.100 A 
ENDROOT
BRANCH   3   8
HETATM    8  C   UNL     1      77.312  11.176  18.830  1.00  0.00    -0.025 A 
HETATM    9  C   UNL     1      76.391  12.223  18.635  1.00  0.00     0.012 A 
HETATM   10  C   UNL     1      76.342  13.326  19.496  1.00  0.00     0.001 A 
HETATM   11  C   UNL     1      77.210  13.405  20.580  1.00  0.00     0.000 A 
HETATM   12  C   UNL     1      78.136  12.390  20.793  1.00  0.00     0.001 A 
HETATM   13  C   UNL     1      78.191  11.294  19.924  1.00  0.00     0.012 A 
ENDBRANCH   3   8
BRANCH   1  14
HETATM   14  C   UNL     1      77.754   8.989  14.287  1.00  0.00     0.210 C 
HETATM   15  O   UNL     1      77.905   8.024  13.562  1.00  0.00    -0.644 OA
HETATM   16  O   UNL     1      77.744  10.240  13.794  1.00  0.00    -0.644 OA
ENDBRANCH   1  14
TORSDOF 2
ENDMDL
MODEL 3
REMARK VINA RESULT:      -6.7      2.714      6.173
REMARK  2 active torsions:
REMARK  status: ('A' for Active; 'I' for Inactive)
REMARK    1  A    between atoms: C_1  and  C_2 
REMARK    2  A    between atoms: C_4  and  C_8 
ROOT
HETATM    1  C   UNL     1      77.478   8.943  17.051  1.00  0.00     0.057 A 
HETATM    2  C   UNL     1      77.092   7.669  17.487  1.00  0.00     0.033 A 
HETATM    3  C   UNL     1      76.824   6.644  16.561  1.00  0.00    -0.009 A 
HETATM    4  N   UNL     1      77.381   8.208  14.758  1.00  0.00    -0.373 N 
ATOM      5  HN  UNL     1      77.494   8.395  13.761  1.00  0.00     0.164 HD
HETATM    6  C   UNL     1      77.613   9.159  15.690  1.00  0.00     0.106 A 
HETATM    7  C   UNL     1      76.989   6.991  15.215  1.00  0.00     0.100 A 
ENDROOT
BRANCH   3   8
HETATM    8  C   UNL     1      76.364   5.299  16.977  1.00  0.00    -0.025 A 
HETATM    9  C   UNL     1      75.173   4.741  16.475  1.00  0.00     0.012 A 
HETATM   10  C   UNL     1      74.756   3.455  16.836  1.00  0.00     0.001 A 
HETATM   11  C   UNL     1      75.526   2.690  17.706  1.00  0.00     0.000 A 
HETATM   12  C   UNL     1      76.702   3.218  18.226  1.00  0.00     0.001 A 
HETATM   13  C   UNL     1      77.111   4.509  17.872  1.00  0.00     0.012 A 
ENDBRANCH   3   8
BRANCH   1  14
HETATM   14  C   UNL     1      77.733  10.070  17.967  1.00  0.00     0.210 C 
HETATM   15  O   UNL     1      76.992  11.016  18.156  1.00  0.00    -0.644 OA
HETATM   16  O   UNL     1      78.901   9.953  18.622  1.00  0.00    -0.644 OA
ENDBRANCH   1  14
TORSDOF 2
ENDMDL
MODEL 4
REMARK VINA RESULT:      -5.9      4.589      8.281
REMARK  2 active torsions:
REMARK  status: ('A' for Active; 'I' for Inactive)
REMARK    1  A    between atoms: C_1  and  C_2 
REMARK    2  A    between atoms: C_4  and  C_8 
ROOT
HETATM    1  C   UNL     1      76.236   4.924  17.238  1.00  0.00     0.057 A 
HETATM    2  C   UNL     1      77.049   3.887  17.715  1.00  0.00     0.033 A 
HETATM    3  C   UNL     1      76.561   2.571  17.794  1.00  0.00    -0.009 A 
HETATM    4  N   UNL     1      74.437   3.365  16.864  1.00  0.00    -0.373 N 
ATOM      5  HN  UNL     1      73.488   3.165  16.546  1.00  0.00     0.164 HD
HETATM    6  C   UNL     1      74.952   4.614  16.823  1.00  0.00     0.106 A 
HETATM    7  C   UNL     1      75.246   2.389  17.352  1.00  0.00     0.100 A 
ENDROOT
BRANCH   3   8
HETATM    8  C   UNL     1      77.369   1.456  18.340  1.00  0.00    -0.025 A 
HETATM    9  C   UNL     1      78.280   1.655  19.395  1.00  0.00     0.012 A 
HETATM   10  C   UNL     1      79.016   0.596  19.938  1.00  0.00     0.001 A 
HETATM   11  C   UNL     1      78.853  -0.693  19.443  1.00  0.00     0.000 A 
HETATM   12  C   UNL     1      77.968  -0.920  18.395  1.00  0.00     0.001 A 
HETATM   13  C   UNL     1      77.242   0.143  17.846  1.00  0.00     0.012 A 
ENDBRANCH   3   8
BRANCH   1  14
HETATM   14  C   UNL     1      76.673   6.331  17.170  1.00  0.00     0.210 C 
HETATM   15  O   UNL     1      76.833   7.074  18.119  1.00  0.00    -0.644 OA
HETATM   16  O   UNL     1      76.911   6.741  15.911  1.00  0.00    -0.644 OA
ENDBRANCH   1  14
TORSDOF 2
ENDMDL
MODEL 5
REMARK VINA RESULT:      -5.9     17.721     19.307
REMARK  2 active torsions:
REMARK  status: ('A' for Active; 'I' for Inactive)
REMARK    1  A    between atoms: C_1  and  C_2 
REMARK    2  A    between atoms: C_4  and  C_8 
ROOT
HETATM    1  C   UNL     1      65.117   7.482   6.112  1.00  0.00     0.057 A 
HETATM    2  C   UNL     1      64.603   8.446   5.235  1.00  0.00     0.033 A 
HETATM    3  C   UNL     1      63.325   8.292   4.669  1.00  0.00    -0.009 A 
HETATM    4  N   UNL     1      63.085   6.200   5.922  1.00  0.00    -0.373 N 
ATOM      5  HN  UNL     1      62.521   5.388   6.177  1.00  0.00     0.164 HD
HETATM    6  C   UNL     1      64.325   6.391   6.427  1.00  0.00     0.106 A 
HETATM    7  C   UNL     1      62.628   7.143   5.059  1.00  0.00     0.100 A 
ENDROOT
BRANCH   3   8
HETATM    8  C   UNL     1      62.765   9.261   3.697  1.00  0.00    -0.025 A 
HETATM    9  C   UNL     1      62.547   8.909   2.351  1.00  0.00     0.012 A 
HETATM   10  C   UNL     1      61.983   9.810   1.441  1.00  0.00     0.001 A 
HETATM   11  C   UNL     1      61.615  11.085   1.857  1.00  0.00     0.000 A 
HETATM   12  C   UNL     1      61.827  11.464   3.178  1.00  0.00     0.001 A 
HETATM   13  C   UNL     1      62.403  10.566   4.084  1.00  0.00     0.012 A 
ENDBRANCH   3   8
BRANCH   1  14
HETATM   14  C   UNL     1      66.464   7.562   6.706  1.00  0.00     0.210 C 
HETATM   15  O   UNL     1      67.204   6.621   6.925  1.00  0.00    -0.644 OA
HETATM   16  O   UNL     1      66.836   8.825   6.983  1.00  0.00    -0.644 OA
ENDBRANCH   1  14
TORSDOF 2
ENDMDL
MODEL 6
REMARK VINA RESULT:      -5.6     17.753     19.422
REMARK  2 active torsions:
REMARK  status: ('A' for Active; 'I' for Inactive)
REMARK    1  A    between atoms: C_1  and  C_2 
REMARK    2  A    between atoms: C_4  and  C_8 
ROOT
HETATM    1  C   UNL     1      62.184   9.782   3.763  1.00  0.00     0.057 A 
HETATM    2  C   UNL     1      63.344   9.390   4.445  1.00  0.00     0.033 A 
HETATM    3  C   UNL     1      63.520   8.057   4.855  1.00  0.00    -0.009 A 
HETATM    4  N   UNL     1      61.356   7.519   3.838  1.00  0.00    -0.373 N 
ATOM      5  HN  UNL     1      60.639   6.829   3.611  1.00  0.00     0.164 HD
HETATM    6  C   UNL     1      61.232   8.817   3.479  1.00  0.00     0.106 A 
HETATM    7  C   UNL     1      62.482   7.181   4.517  1.00  0.00     0.100 A 
ENDROOT
BRANCH   3   8
HETATM    8  C   UNL     1      64.706   7.613   5.624  1.00  0.00    -0.025 A 
HETATM    9  C   UNL     1      64.585   6.744   6.725  1.00  0.00     0.012 A 
HETATM   10  C   UNL     1      65.707   6.292   7.429  1.00  0.00     0.001 A 
HETATM   11  C   UNL     1      66.981   6.694   7.044  1.00  0.00     0.000 A 
HETATM   12  C   UNL     1      67.132   7.559   5.967  1.00  0.00     0.001 A 
HETATM   13  C   UNL     1      66.007   8.019   5.271  1.00  0.00     0.012 A 
ENDBRANCH   3   8
BRANCH   1  14
HETATM   14  C   UNL     1      61.920  11.170   3.343  1.00  0.00     0.210 C 
HETATM   15  O   UNL     1      61.755  11.549   2.199  1.00  0.00    -0.644 OA
HETATM   16  O   UNL     1      61.855  12.023   4.380  1.00  0.00    -0.644 OA
ENDBRANCH   1  14
TORSDOF 2
ENDMDL
MODEL 7
REMARK VINA RESULT:      -5.5     20.568     22.459
REMARK  2 active torsions:
REMARK  status: ('A' for Active; 'I' for Inactive)
REMARK    1  A    between atoms: C_1  and  C_2 
REMARK    2  A    between atoms: C_4  and  C_8 
ROOT
HETATM    1  C   UNL     1      62.728   9.477   4.122  1.00  0.00     0.057 A 
HETATM    2  C   UNL     1      62.540   8.586   3.057  1.00  0.00     0.033 A 
HETATM    3  C   UNL     1      61.919   9.009   1.869  1.00  0.00    -0.009 A 
HETATM    4  N   UNL     1      61.719  11.251   2.839  1.00  0.00    -0.373 N 
ATOM      5  HN  UNL     1      61.427  12.224   2.748  1.00  0.00     0.164 HD
HETATM    6  C   UNL     1      62.310  10.788   3.963  1.00  0.00     0.106 A 
HETATM    7  C   UNL     1      61.535  10.354   1.836  1.00  0.00     0.100 A 
ENDROOT
BRANCH   3   8
HETATM    8  C   UNL     1      61.654   8.087   0.739  1.00  0.00    -0.025 A 
HETATM    9  C   UNL     1      60.349   7.662   0.427  1.00  0.00     0.012 A 
HETATM   10  C   UNL     1      60.092   6.822  -0.662  1.00  0.00     0.001 A 
HETATM   11  C   UNL     1      61.137   6.391  -1.473  1.00  0.00     0.000 A 
HETATM   12  C   UNL     1      62.438   6.786  -1.184  1.00  0.00     0.001 A 
HETATM   13  C   UNL     1      62.693   7.617  -0.087  1.00  0.00     0.012 A 
ENDBRANCH   3   8
BRANCH   1  14
HETATM   14  C   UNL     1      63.335   9.087   5.408  1.00  0.00     0.210 C 
HETATM   15  O   UNL     1      62.856   8.314   6.216  1.00  0.00    -0.644 OA
HETATM   16  O   UNL     1      64.529   9.670   5.618  1.00  0.00    -0.644 OA
ENDBRANCH   1  14
TORSDOF 2
ENDMDL
MODEL 8
REMARK VINA RESULT:      -5.5     16.823     18.688
REMARK  2 active torsions:
REMARK  status: ('A' for Active; 'I' for Inactive)
REMARK    1  A    between atoms: C_1  and  C_2 
REMARK    2  A    between atoms: C_4  and  C_8 
ROOT
HETATM    1  C   UNL     1      63.219   9.598   4.532  1.00  0.00     0.057 A 
HETATM    2  C   UNL     1      64.258   8.890   5.152  1.00  0.00     0.033 A 
HETATM    3  C   UNL     1      64.683   7.649   4.645  1.00  0.00    -0.009 A 
HETATM    4  N   UNL     1      63.021   7.875   2.858  1.00  0.00    -0.373 N 
ATOM      5  HN  UNL     1      62.581   7.504   2.015  1.00  0.00     0.164 HD
HETATM    6  C   UNL     1      62.643   9.057   3.395  1.00  0.00     0.106 A 
HETATM    7  C   UNL     1      64.015   7.208   3.497  1.00  0.00     0.100 A 
ENDROOT
BRANCH   3   8
HETATM    8  C   UNL     1      65.741   6.844   5.299  1.00  0.00    -0.025 A 
HETATM    9  C   UNL     1      66.320   5.732   4.659  1.00  0.00     0.012 A 
HETATM   10  C   UNL     1      67.346   4.994   5.259  1.00  0.00     0.001 A 
HETATM   11  C   UNL     1      67.824   5.355   6.514  1.00  0.00     0.000 A 
HETATM   12  C   UNL     1      67.265   6.442   7.175  1.00  0.00     0.001 A 
HETATM   13  C   UNL     1      66.231   7.172   6.578  1.00  0.00     0.012 A 
ENDBRANCH   3   8
BRANCH   1  14
HETATM   14  C   UNL     1      62.699  10.882   5.037  1.00  0.00     0.210 C 
HETATM   15  O   UNL     1      61.956  11.635   4.437  1.00  0.00    -0.644 OA
HETATM   16  O   UNL     1      63.119  11.159   6.284  1.00  0.00    -0.644 OA
ENDBRANCH   1  14
TORSDOF 2
ENDMDL
MODEL 9
REMARK VINA RESULT:      -5.4     15.900     17.589
REMARK  2 active torsions:
REMARK  status: ('A' for Active; 'I' for Inactive)
REMARK    1  A    between atoms: C_1  and  C_2 
REMARK    2  A    between atoms: C_4  and  C_8 
ROOT
HETATM    1  C   UNL     1      66.508   6.529   7.094  1.00  0.00     0.057 A 
HETATM    2  C   UNL     1      65.357   7.118   6.554  1.00  0.00     0.033 A 
HETATM    3  C   UNL     1      65.400   7.767   5.308  1.00  0.00    -0.009 A 
HETATM    4  N   UNL     1      67.774   7.179   5.149  1.00  0.00    -0.373 N 
ATOM      5  HN  UNL     1      68.650   7.196   4.626  1.00  0.00     0.164 HD
HETATM    6  C   UNL     1      67.679   6.580   6.357  1.00  0.00     0.106 A 
HETATM    7  C   UNL     1      66.644   7.757   4.667  1.00  0.00     0.100 A 
ENDROOT
BRANCH   3   8
HETATM    8  C   UNL     1      64.220   8.448   4.725  1.00  0.00    -0.025 A 
HETATM    9  C   UNL     1      63.728   9.654   5.259  1.00  0.00     0.012 A 
HETATM   10  C   UNL     1      62.637  10.318   4.687  1.00  0.00     0.001 A 
HETATM   11  C   UNL     1      62.014   9.795   3.560  1.00  0.00     0.000 A 
HETATM   12  C   UNL     1      62.471   8.600   3.015  1.00  0.00     0.001 A 
HETATM   13  C   UNL     1      63.555   7.931   3.596  1.00  0.00     0.012 A 
ENDBRANCH   3   8
BRANCH   1  14
HETATM   14  C   UNL     1      66.539   5.870   8.413  1.00  0.00     0.210 C 
HETATM   15  O   UNL     1      66.148   4.744   8.656  1.00  0.00    -0.644 OA
HETATM   16  O   UNL     1      67.079   6.647   9.369  1.00  0.00    -0.644 OA
ENDBRANCH   1  14
TORSDOF 2
ENDMDL
