MODEL 1
REMARK VINA RESULT:      -5.8      0.000      0.000
REMARK  1 active torsions:
REMARK  status: ('A' for Active; 'I' for Inactive)
REMARK    1  A    between atoms: C_1  and  C_2 
ROOT
HETATM    1  C   UNL     1      71.474  21.553  12.344  1.00  0.00     0.115 C 
HETATM    2  O   UNL     1      72.861  23.405  13.112  1.00  0.00    -0.350 OA
HETATM    3  C   UNL     1      70.184  22.284  12.704  1.00  0.00     0.059 C 
HETATM    4  C   UNL     1      70.473  23.445  13.613  1.00  0.00    -0.024 A 
HETATM    5  C   UNL     1      72.522  22.593  11.981  1.00  0.00     0.191 C 
HETATM    6  C   UNL     1      71.779  23.927  13.770  1.00  0.00     0.075 A 
HETATM    7  C   UNL     1      69.429  24.067  14.312  1.00  0.00     0.010 A 
HETATM    8  C   UNL     1      72.046  24.967  14.659  1.00  0.00     0.037 A 
HETATM    9  C   UNL     1      69.696  25.123  15.186  1.00  0.00     0.001 A 
HETATM   10  C   UNL     1      71.005  25.566  15.368  1.00  0.00     0.003 A 
ENDROOT
BRANCH   1  11
HETATM   11  C   UNL     1      71.257  20.597  11.207  1.00  0.00     0.179 C 
HETATM   12  O   UNL     1      71.000  20.876  10.049  1.00  0.00    -0.648 OA
HETATM   13  O   UNL     1      71.422  19.310  11.574  1.00  0.00    -0.648 OA
ENDBRANCH   1  11
TORSDOF 1
ENDMDL
MODEL 2
REMARK VINA RESULT:      -5.3     17.814     19.175
REMARK  1 active torsions:
REMARK  status: ('A' for Active; 'I' for Inactive)
REMARK    1  A    between atoms: C_1  and  C_2 
ROOT
HETATM    1  C   UNL     1      63.862   7.421   4.833  1.00  0.00     0.115 C 
HETATM    2  O   UNL     1      62.965   7.503   2.567  1.00  0.00    -0.350 OA
HETATM    3  C   UNL     1      63.131   8.696   5.239  1.00  0.00     0.059 C 
HETATM    4  C   UNL     1      62.646   9.435   4.023  1.00  0.00    -0.024 A 
HETATM    5  C   UNL     1      63.035   6.720   3.766  1.00  0.00     0.191 C 
HETATM    6  C   UNL     1      62.600   8.808   2.772  1.00  0.00     0.075 A 
HETATM    7  C   UNL     1      62.225  10.768   4.133  1.00  0.00     0.010 A 
HETATM    8  C   UNL     1      62.204   9.518   1.640  1.00  0.00     0.037 A 
HETATM    9  C   UNL     1      61.808  11.471   3.000  1.00  0.00     0.001 A 
HETATM   10  C   UNL     1      61.808  10.850   1.753  1.00  0.00     0.003 A 
ENDROOT
BRANCH   1  11
HETATM   11  C   UNL     1      64.079   6.520   6.014  1.00  0.00     0.179 C 
HETATM   12  O   UNL     1      64.086   5.301   6.019  1.00  0.00    -0.648 OA
HETATM   13  O   UNL     1      64.328   7.204   7.149  1.00  0.00    -0.648 OA
ENDBRANCH   1  11
TORSDOF 1
ENDMDL
MODEL 3
REMARK VINA RESULT:      -5.2     17.997     19.237
REMARK  1 active torsions:
REMARK  status: ('A' for Active; 'I' for Inactive)
REMARK    1  A    between atoms: C_1  and  C_2 
ROOT
HETATM    1  C   UNL     1      66.018   6.180   7.679  1.00  0.00     0.115 C 
HETATM    2  O   UNL     1      66.201   3.852   8.381  1.00  0.00    -0.350 OA
HETATM    3  C   UNL     1      67.531   6.338   7.581  1.00  0.00     0.059 C 
HETATM    4  C   UNL     1      68.226   5.211   8.293  1.00  0.00    -0.024 A 
HETATM    5  C   UNL     1      65.672   4.729   7.379  1.00  0.00     0.191 C 
HETATM    6  C   UNL     1      67.528   4.052   8.655  1.00  0.00     0.075 A 
HETATM    7  C   UNL     1      69.591   5.307   8.596  1.00  0.00     0.010 A 
HETATM    8  C   UNL     1      68.166   3.037   9.367  1.00  0.00     0.037 A 
HETATM    9  C   UNL     1      70.234   4.279   9.290  1.00  0.00     0.001 A 
HETATM   10  C   UNL     1      69.520   3.150   9.685  1.00  0.00     0.003 A 
ENDROOT
BRANCH   1  11
HETATM   11  C   UNL     1      65.313   7.102   6.727  1.00  0.00     0.179 C 
HETATM   12  O   UNL     1      65.790   7.664   5.757  1.00  0.00    -0.648 OA
HETATM   13  O   UNL     1      64.003   7.242   7.017  1.00  0.00    -0.648 OA
ENDBRANCH   1  11
TORSDOF 1
ENDMDL
MODEL 4
REMARK VINA RESULT:      -5.2     17.307     19.007
REMARK  1 active torsions:
REMARK  status: ('A' for Active; 'I' for Inactive)
REMARK    1  A    between atoms: C_1  and  C_2 
ROOT
HETATM    1  C   UNL     1      67.145   6.888   7.135  1.00  0.00     0.115 C 
HETATM    2  O   UNL     1      67.932   6.206   9.340  1.00  0.00    -0.350 OA
HETATM    3  C   UNL     1      67.150   5.453   6.617  1.00  0.00     0.059 C 
HETATM    4  C   UNL     1      67.946   4.566   7.533  1.00  0.00    -0.024 A 
HETATM    5  C   UNL     1      66.867   6.851   8.630  1.00  0.00     0.191 C 
HETATM    6  C   UNL     1      68.294   4.991   8.821  1.00  0.00     0.075 A 
HETATM    7  C   UNL     1      68.343   3.291   7.106  1.00  0.00     0.010 A 
HETATM    8  C   UNL     1      69.081   4.184   9.643  1.00  0.00     0.037 A 
HETATM    9  C   UNL     1      69.113   2.476   7.939  1.00  0.00     0.001 A 
HETATM   10  C   UNL     1      69.491   2.926   9.202  1.00  0.00     0.003 A 
ENDROOT
BRANCH   1  11
HETATM   11  C   UNL     1      66.117   7.718   6.423  1.00  0.00     0.179 C 
HETATM   12  O   UNL     1      66.315   8.560   5.566  1.00  0.00    -0.648 OA
HETATM   13  O   UNL     1      64.857   7.413   6.796  1.00  0.00    -0.648 OA
ENDBRANCH   1  11
TORSDOF 1
ENDMDL
MODEL 5
REMARK VINA RESULT:      -5.1     17.362     18.809
REMARK  1 active torsions:
REMARK  status: ('A' for Active; 'I' for Inactive)
REMARK    1  A    between atoms: C_1  and  C_2 
ROOT
HETATM    1  C   UNL     1      66.024   6.828   6.047  1.00  0.00     0.115 C 
HETATM    2  O   UNL     1      67.433   4.921   5.477  1.00  0.00    -0.350 OA
HETATM    3  C   UNL     1      66.776   7.077   7.351  1.00  0.00     0.059 C 
HETATM    4  C   UNL     1      67.612   5.881   7.713  1.00  0.00    -0.024 A 
HETATM    5  C   UNL     1      66.996   6.217   5.049  1.00  0.00     0.191 C 
HETATM    6  C   UNL     1      67.881   4.881   6.771  1.00  0.00     0.075 A 
HETATM    7  C   UNL     1      68.141   5.760   9.006  1.00  0.00     0.010 A 
HETATM    8  C   UNL     1      68.609   3.748   7.132  1.00  0.00     0.037 A 
HETATM    9  C   UNL     1      68.888   4.635   9.359  1.00  0.00     0.001 A 
HETATM   10  C   UNL     1      69.112   3.623   8.427  1.00  0.00     0.003 A 
ENDROOT
BRANCH   1  11
HETATM   11  C   UNL     1      65.437   8.100   5.507  1.00  0.00     0.179 C 
HETATM   12  O   UNL     1      64.703   8.220   4.542  1.00  0.00    -0.648 OA
HETATM   13  O   UNL     1      65.768   9.177   6.247  1.00  0.00    -0.648 OA
ENDBRANCH   1  11
TORSDOF 1
ENDMDL
MODEL 6
REMARK VINA RESULT:      -5.0     17.381     18.917
REMARK  1 active torsions:
REMARK  status: ('A' for Active; 'I' for Inactive)
REMARK    1  A    between atoms: C_1  and  C_2 
ROOT
HETATM    1  C   UNL     1      63.178   9.086   3.908  1.00  0.00     0.115 C 
HETATM    2  O   UNL     1      64.972   9.242   5.553  1.00  0.00    -0.350 OA
HETATM    3  C   UNL     1      63.520   7.638   3.575  1.00  0.00     0.059 C 
HETATM    4  C   UNL     1      64.887   7.287   4.095  1.00  0.00    -0.024 A 
HETATM    5  C   UNL     1      63.555   9.340   5.360  1.00  0.00     0.191 C 
HETATM    6  C   UNL     1      65.529   8.103   5.034  1.00  0.00     0.075 A 
HETATM    7  C   UNL     1      65.532   6.126   3.646  1.00  0.00     0.010 A 
HETATM    8  C   UNL     1      66.820   7.801   5.467  1.00  0.00     0.037 A 
HETATM    9  C   UNL     1      66.816   5.814   4.098  1.00  0.00     0.001 A 
HETATM   10  C   UNL     1      67.464   6.656   4.999  1.00  0.00     0.003 A 
ENDROOT
BRANCH   1  11
HETATM   11  C   UNL     1      61.720   9.366   3.682  1.00  0.00     0.179 C 
HETATM   12  O   UNL     1      60.857   8.564   3.370  1.00  0.00    -0.648 OA
HETATM   13  O   UNL     1      61.399  10.656   3.907  1.00  0.00    -0.648 OA
ENDBRANCH   1  11
TORSDOF 1
ENDMDL
MODEL 7
REMARK VINA RESULT:      -4.9     17.093     18.518
REMARK  1 active torsions:
REMARK  status: ('A' for Active; 'I' for Inactive)
REMARK    1  A    between atoms: C_1  and  C_2 
ROOT
HETATM    1  C   UNL     1      65.746   6.809   5.207  1.00  0.00     0.115 C 
HETATM    2  O   UNL     1      65.151   9.050   5.962  1.00  0.00    -0.350 OA
HETATM    3  C   UNL     1      64.942   6.959   3.919  1.00  0.00     0.059 C 
HETATM    4  C   UNL     1      63.999   8.125   4.020  1.00  0.00    -0.024 A 
HETATM    5  C   UNL     1      66.242   8.187   5.618  1.00  0.00     0.191 C 
HETATM    6  C   UNL     1      64.150   9.086   5.027  1.00  0.00     0.075 A 
HETATM    7  C   UNL     1      62.957   8.268   3.094  1.00  0.00     0.010 A 
HETATM    8  C   UNL     1      63.237  10.133   5.148  1.00  0.00     0.037 A 
HETATM    9  C   UNL     1      62.056   9.329   3.203  1.00  0.00     0.001 A 
HETATM   10  C   UNL     1      62.189  10.255   4.236  1.00  0.00     0.003 A 
ENDROOT
BRANCH   1  11
HETATM   11  C   UNL     1      66.897   5.863   5.021  1.00  0.00     0.179 C 
HETATM   12  O   UNL     1      67.080   5.100   4.089  1.00  0.00    -0.648 OA
HETATM   13  O   UNL     1      67.807   5.955   6.011  1.00  0.00    -0.648 OA
ENDBRANCH   1  11
TORSDOF 1
ENDMDL
MODEL 8
REMARK VINA RESULT:      -4.8     18.242     20.050
REMARK  1 active torsions:
REMARK  status: ('A' for Active; 'I' for Inactive)
REMARK    1  A    between atoms: C_1  and  C_2 
ROOT
HETATM    1  C   UNL     1      69.436   2.690   9.207  1.00  0.00     0.115 C 
HETATM    2  O   UNL     1      68.568   3.073   6.961  1.00  0.00    -0.350 OA
HETATM    3  C   UNL     1      68.649   3.863   9.782  1.00  0.00     0.059 C 
HETATM    4  C   UNL     1      68.153   4.756   8.679  1.00  0.00    -0.024 A 
HETATM    5  C   UNL     1      68.652   2.125   8.032  1.00  0.00     0.191 C 
HETATM    6  C   UNL     1      68.150   4.319   7.348  1.00  0.00     0.075 A 
HETATM    7  C   UNL     1      67.678   6.041   8.975  1.00  0.00     0.010 A 
HETATM    8  C   UNL     1      67.742   5.174   6.325  1.00  0.00     0.037 A 
HETATM    9  C   UNL     1      67.250   6.888   7.951  1.00  0.00     0.001 A 
HETATM   10  C   UNL     1      67.292   6.459   6.625  1.00  0.00     0.003 A 
ENDROOT
BRANCH   1  11
HETATM   11  C   UNL     1      69.671   1.633  10.247  1.00  0.00     0.179 C 
HETATM   12  O   UNL     1      70.728   1.093  10.522  1.00  0.00    -0.648 OA
HETATM   13  O   UNL     1      68.554   1.329  10.938  1.00  0.00    -0.648 OA
ENDBRANCH   1  11
TORSDOF 1
ENDMDL
MODEL 9
REMARK VINA RESULT:      -4.8     18.337     20.172
REMARK  1 active torsions:
REMARK  status: ('A' for Active; 'I' for Inactive)
REMARK    1  A    between atoms: C_1  and  C_2 
ROOT
HETATM    1  C   UNL     1      68.386   3.204   9.354  1.00  0.00     0.115 C 
HETATM    2  O   UNL     1      68.603   5.540   8.689  1.00  0.00    -0.350 OA
HETATM    3  C   UNL     1      68.308   2.731   7.906  1.00  0.00     0.059 C 
HETATM    4  C   UNL     1      68.024   3.888   6.989  1.00  0.00    -0.024 A 
HETATM    5  C   UNL     1      69.236   4.466   9.395  1.00  0.00     0.191 C 
HETATM    6  C   UNL     1      68.178   5.208   7.430  1.00  0.00     0.075 A 
HETATM    7  C   UNL     1      67.609   3.654   5.671  1.00  0.00     0.010 A 
HETATM    8  C   UNL     1      67.857   6.275   6.591  1.00  0.00     0.037 A 
HETATM    9  C   UNL     1      67.310   4.724   4.825  1.00  0.00     0.001 A 
HETATM   10  C   UNL     1      67.423   6.033   5.288  1.00  0.00     0.003 A 
ENDROOT
BRANCH   1  11
HETATM   11  C   UNL     1      68.969   2.142  10.241  1.00  0.00     0.179 C 
HETATM   12  O   UNL     1      68.359   1.333  10.918  1.00  0.00    -0.648 OA
HETATM   13  O   UNL     1      70.316   2.115  10.200  1.00  0.00    -0.648 OA
ENDBRANCH   1  11
TORSDOF 1
ENDMDL
