MODEL 1
REMARK VINA RESULT:      -5.9      0.000      0.000
REMARK  1 active torsions:
REMARK  status: ('A' for Active; 'I' for Inactive)
REMARK    1  A    between atoms: N_1  and  C_4 
ROOT
HETATM    1  N   UNL     1      78.008  10.791  15.307  1.00  0.00    -0.191 NA
HETATM    2  C   UNL     1      77.681   9.720  15.612  1.00  0.00     0.099 C 
HETATM    3  C   UNL     1      76.518   5.790  16.727  1.00  0.00     0.038 A 
HETATM    4  C   UNL     1      76.728   6.776  17.702  1.00  0.00     0.031 A 
HETATM    5  C   UNL     1      76.687   6.128  15.375  1.00  0.00     0.031 A 
HETATM    6  C   UNL     1      77.280   8.397  15.987  1.00  0.00     0.044 A 
HETATM    7  C   UNL     1      77.064   7.425  15.009  1.00  0.00     0.025 A 
HETATM    8  C   UNL     1      77.110   8.071  17.333  1.00  0.00     0.025 A 
ENDROOT
BRANCH   3   9
HETATM    9  N   UNL     1      76.145   4.461  17.104  1.00  0.00    -0.333 N 
HETATM   10  C   UNL     1      74.989   3.794  16.742  1.00  0.00     0.096 A 
HETATM   11  C   UNL     1      74.990   2.534  17.301  1.00  0.00     0.019 A 
HETATM   12  C   UNL     1      76.178   2.411  18.042  1.00  0.00     0.019 A 
HETATM   13  C   UNL     1      76.868   3.596  17.906  1.00  0.00     0.096 A 
ENDBRANCH   3   9
TORSDOF 1
ENDMDL
MODEL 2
REMARK VINA RESULT:      -5.4      2.238      3.831
REMARK  1 active torsions:
REMARK  status: ('A' for Active; 'I' for Inactive)
REMARK    1  A    between atoms: N_1  and  C_4 
ROOT
HETATM    1  N   UNL     1      77.254   7.699  17.785  1.00  0.00    -0.191 NA
HETATM    2  C   UNL     1      76.838   6.623  17.651  1.00  0.00     0.099 C 
HETATM    3  C   UNL     1      75.297   2.692  17.193  1.00  0.00     0.038 A 
HETATM    4  C   UNL     1      74.711   3.773  16.516  1.00  0.00     0.031 A 
HETATM    5  C   UNL     1      76.410   2.931  18.014  1.00  0.00     0.031 A 
HETATM    6  C   UNL     1      76.325   5.296  17.490  1.00  0.00     0.044 A 
HETATM    7  C   UNL     1      76.920   4.227  18.159  1.00  0.00     0.025 A 
HETATM    8  C   UNL     1      75.221   5.068  16.667  1.00  0.00     0.025 A 
ENDROOT
BRANCH   3   9
HETATM    9  N   UNL     1      74.765   1.372  17.053  1.00  0.00    -0.333 N 
HETATM   10  C   UNL     1      74.429   0.505  18.077  1.00  0.00     0.096 A 
HETATM   11  C   UNL     1      73.950  -0.673  17.544  1.00  0.00     0.019 A 
HETATM   12  C   UNL     1      73.995  -0.543  16.144  1.00  0.00     0.019 A 
HETATM   13  C   UNL     1      74.493   0.711  15.868  1.00  0.00     0.096 A 
ENDBRANCH   3   9
TORSDOF 1
ENDMDL
MODEL 3
REMARK VINA RESULT:      -5.4      3.493      6.709
REMARK  1 active torsions:
REMARK  status: ('A' for Active; 'I' for Inactive)
REMARK    1  A    between atoms: N_1  and  C_4 
ROOT
HETATM    1  N   UNL     1      77.066   6.111  15.143  1.00  0.00    -0.191 NA
HETATM    2  C   UNL     1      77.141   7.042  15.833  1.00  0.00     0.099 C 
HETATM    3  C   UNL     1      77.381  10.455  18.351  1.00  0.00     0.038 A 
HETATM    4  C   UNL     1      77.085   9.192  18.886  1.00  0.00     0.031 A 
HETATM    5  C   UNL     1      77.609  10.569  16.971  1.00  0.00     0.031 A 
HETATM    6  C   UNL     1      77.231   8.192  16.683  1.00  0.00     0.044 A 
HETATM    7  C   UNL     1      77.536   9.442  16.143  1.00  0.00     0.025 A 
HETATM    8  C   UNL     1      77.008   8.068  18.055  1.00  0.00     0.025 A 
ENDROOT
BRANCH   3   9
HETATM    9  N   UNL     1      77.443  11.607  19.197  1.00  0.00    -0.333 N 
HETATM   10  C   UNL     1      78.295  11.798  20.270  1.00  0.00     0.096 A 
HETATM   11  C   UNL     1      78.054  13.032  20.834  1.00  0.00     0.019 A 
HETATM   12  C   UNL     1      77.015  13.629  20.098  1.00  0.00     0.019 A 
HETATM   13  C   UNL     1      76.660  12.744  19.104  1.00  0.00     0.096 A 
ENDBRANCH   3   9
TORSDOF 1
ENDMDL
MODEL 4
REMARK VINA RESULT:      -5.2     11.739     13.380
REMARK  1 active torsions:
REMARK  status: ('A' for Active; 'I' for Inactive)
REMARK    1  A    between atoms: N_1  and  C_4 
ROOT
HETATM    1  N   UNL     1      70.137   1.450  10.708  1.00  0.00    -0.191 NA
HETATM    2  C   UNL     1      69.705   2.269  10.008  1.00  0.00     0.099 C 
HETATM    3  C   UNL     1      68.093   5.255   7.454  1.00  0.00     0.038 A 
HETATM    4  C   UNL     1      68.408   5.551   8.788  1.00  0.00     0.031 A 
HETATM    5  C   UNL     1      68.332   3.958   6.973  1.00  0.00     0.031 A 
HETATM    6  C   UNL     1      69.170   3.278   9.144  1.00  0.00     0.044 A 
HETATM    7  C   UNL     1      68.869   2.977   7.815  1.00  0.00     0.025 A 
HETATM    8  C   UNL     1      68.941   4.566   9.629  1.00  0.00     0.025 A 
ENDROOT
BRANCH   3   9
HETATM    9  N   UNL     1      67.532   6.256   6.599  1.00  0.00    -0.333 N 
HETATM   10  C   UNL     1      66.810   7.368   6.994  1.00  0.00     0.096 A 
HETATM   11  C   UNL     1      66.440   8.095   5.882  1.00  0.00     0.019 A 
HETATM   12  C   UNL     1      66.938   7.414   4.757  1.00  0.00     0.019 A 
HETATM   13  C   UNL     1      67.602   6.298   5.218  1.00  0.00     0.096 A 
ENDBRANCH   3   9
TORSDOF 1
ENDMDL
MODEL 5
REMARK VINA RESULT:      -5.2     13.022     14.285
REMARK  1 active torsions:
REMARK  status: ('A' for Active; 'I' for Inactive)
REMARK    1  A    between atoms: N_1  and  C_4 
ROOT
HETATM    1  N   UNL     1      70.148   3.595  10.130  1.00  0.00    -0.191 NA
HETATM    2  C   UNL     1      69.384   4.201   9.499  1.00  0.00     0.099 C 
HETATM    3  C   UNL     1      66.565   6.395   7.201  1.00  0.00     0.038 A 
HETATM    4  C   UNL     1      66.803   6.724   8.544  1.00  0.00     0.031 A 
HETATM    5  C   UNL     1      67.285   5.336   6.626  1.00  0.00     0.031 A 
HETATM    6  C   UNL     1      68.440   4.946   8.721  1.00  0.00     0.044 A 
HETATM    7  C   UNL     1      68.218   4.618   7.383  1.00  0.00     0.025 A 
HETATM    8  C   UNL     1      67.733   6.001   9.300  1.00  0.00     0.025 A 
ENDROOT
BRANCH   3   9
HETATM    9  N   UNL     1      65.602   7.122   6.433  1.00  0.00    -0.333 N 
HETATM   10  C   UNL     1      64.242   6.874   6.367  1.00  0.00     0.096 A 
HETATM   11  C   UNL     1      63.649   7.787   5.522  1.00  0.00     0.019 A 
HETATM   12  C   UNL     1      64.667   8.628   5.038  1.00  0.00     0.019 A 
HETATM   13  C   UNL     1      65.848   8.205   5.609  1.00  0.00     0.096 A 
ENDBRANCH   3   9
TORSDOF 1
ENDMDL
MODEL 6
REMARK VINA RESULT:      -4.8     11.841     12.647
REMARK  1 active torsions:
REMARK  status: ('A' for Active; 'I' for Inactive)
REMARK    1  A    between atoms: N_1  and  C_4 
ROOT
HETATM    1  N   UNL     1      65.699   8.892   5.756  1.00  0.00    -0.191 NA
HETATM    2  C   UNL     1      66.123   7.967   6.315  1.00  0.00     0.099 C 
HETATM    3  C   UNL     1      67.707   4.594   8.353  1.00  0.00     0.038 A 
HETATM    4  C   UNL     1      67.324   5.742   9.063  1.00  0.00     0.031 A 
HETATM    5  C   UNL     1      67.545   4.574   6.959  1.00  0.00     0.031 A 
HETATM    6  C   UNL     1      66.649   6.826   7.003  1.00  0.00     0.044 A 
HETATM    7  C   UNL     1      67.017   5.684   6.290  1.00  0.00     0.025 A 
HETATM    8  C   UNL     1      66.802   6.853   8.390  1.00  0.00     0.025 A 
ENDROOT
BRANCH   3   9
HETATM    9  N   UNL     1      68.258   3.465   9.038  1.00  0.00    -0.333 N 
HETATM   10  C   UNL     1      69.350   3.468   9.887  1.00  0.00     0.096 A 
HETATM   11  C   UNL     1      69.574   2.189  10.352  1.00  0.00     0.019 A 
HETATM   12  C   UNL     1      68.598   1.360   9.771  1.00  0.00     0.019 A 
HETATM   13  C   UNL     1      67.806   2.159   8.977  1.00  0.00     0.096 A 
ENDBRANCH   3   9
TORSDOF 1
ENDMDL
MODEL 7
REMARK VINA RESULT:      -4.7     14.880     15.665
REMARK  1 active torsions:
REMARK  status: ('A' for Active; 'I' for Inactive)
REMARK    1  A    between atoms: N_1  and  C_4 
ROOT
HETATM    1  N   UNL     1      61.697   9.094   3.518  1.00  0.00    -0.191 NA
HETATM    2  C   UNL     1      62.547   8.645   4.170  1.00  0.00     0.099 C 
HETATM    3  C   UNL     1      65.648   7.028   6.580  1.00  0.00     0.038 A 
HETATM    4  C   UNL     1      64.326   6.579   6.721  1.00  0.00     0.031 A 
HETATM    5  C   UNL     1      65.930   8.012   5.619  1.00  0.00     0.031 A 
HETATM    6  C   UNL     1      63.594   8.094   4.976  1.00  0.00     0.044 A 
HETATM    7  C   UNL     1      64.907   8.539   4.821  1.00  0.00     0.025 A 
HETATM    8  C   UNL     1      63.305   7.112   5.925  1.00  0.00     0.025 A 
ENDROOT
BRANCH   3   9
HETATM    9  N   UNL     1      66.689   6.497   7.405  1.00  0.00    -0.333 N 
HETATM   10  C   UNL     1      66.811   6.642   8.775  1.00  0.00     0.096 A 
HETATM   11  C   UNL     1      67.944   5.987   9.208  1.00  0.00     0.019 A 
HETATM   12  C   UNL     1      68.555   5.422   8.074  1.00  0.00     0.019 A 
HETATM   13  C   UNL     1      67.771   5.743   6.987  1.00  0.00     0.096 A 
ENDBRANCH   3   9
TORSDOF 1
ENDMDL
MODEL 8
REMARK VINA RESULT:      -4.6      3.258      7.620
REMARK  1 active torsions:
REMARK  status: ('A' for Active; 'I' for Inactive)
REMARK    1  A    between atoms: N_1  and  C_4 
ROOT
HETATM    1  N   UNL     1      73.068  -3.215  16.387  1.00  0.00    -0.191 NA
HETATM    2  C   UNL     1      73.493  -2.143  16.522  1.00  0.00     0.099 C 
HETATM    3  C   UNL     1      75.081   1.765  17.018  1.00  0.00     0.038 A 
HETATM    4  C   UNL     1      74.863   1.240  15.735  1.00  0.00     0.031 A 
HETATM    5  C   UNL     1      74.753   0.981  18.135  1.00  0.00     0.031 A 
HETATM    6  C   UNL     1      74.020  -0.822  16.690  1.00  0.00     0.044 A 
HETATM    7  C   UNL     1      74.223  -0.305  17.969  1.00  0.00     0.025 A 
HETATM    8  C   UNL     1      74.339  -0.048  15.573  1.00  0.00     0.025 A 
ENDROOT
BRANCH   3   9
HETATM    9  N   UNL     1      75.634   3.073  17.184  1.00  0.00    -0.333 N 
HETATM   10  C   UNL     1      76.807   3.396  17.842  1.00  0.00     0.096 A 
HETATM   11  C   UNL     1      77.004   4.760  17.789  1.00  0.00     0.019 A 
HETATM   12  C   UNL     1      75.918   5.308  17.085  1.00  0.00     0.019 A 
HETATM   13  C   UNL     1      75.097   4.262  16.723  1.00  0.00     0.096 A 
ENDBRANCH   3   9
TORSDOF 1
ENDMDL
MODEL 9
REMARK VINA RESULT:      -4.4     17.279     18.572
REMARK  1 active torsions:
REMARK  status: ('A' for Active; 'I' for Inactive)
REMARK    1  A    between atoms: N_1  and  C_4 
ROOT
HETATM    1  N   UNL     1      65.619   4.404   7.658  1.00  0.00    -0.191 NA
HETATM    2  C   UNL     1      65.139   5.197   6.958  1.00  0.00     0.099 C 
HETATM    3  C   UNL     1      63.363   8.107   4.426  1.00  0.00     0.038 A 
HETATM    4  C   UNL     1      64.507   8.417   5.177  1.00  0.00     0.031 A 
HETATM    5  C   UNL     1      62.823   6.815   4.516  1.00  0.00     0.031 A 
HETATM    6  C   UNL     1      64.545   6.175   6.097  1.00  0.00     0.044 A 
HETATM    7  C   UNL     1      63.414   5.855   5.346  1.00  0.00     0.025 A 
HETATM    8  C   UNL     1      65.092   7.457   6.011  1.00  0.00     0.025 A 
ENDROOT
BRANCH   3   9
HETATM    9  N   UNL     1      62.754   9.094   3.588  1.00  0.00    -0.333 N 
HETATM   10  C   UNL     1      62.458   8.965   2.242  1.00  0.00     0.096 A 
HETATM   11  C   UNL     1      61.876  10.128   1.786  1.00  0.00     0.019 A 
HETATM   12  C   UNL     1      61.813  11.015   2.875  1.00  0.00     0.019 A 
HETATM   13  C   UNL     1      62.351  10.363   3.963  1.00  0.00     0.096 A 
ENDBRANCH   3   9
TORSDOF 1
ENDMDL
