MODEL 1
REMARK VINA RESULT:      -6.2      0.000      0.000
REMARK  2 active torsions:
REMARK  status: ('A' for Active; 'I' for Inactive)
REMARK    1  A    between atoms: N_1  and  C_3 
REMARK    2  A    between atoms: C_2  and  C_4 
ROOT
HETATM    1  C   UNL     1      76.447   5.791  16.867  1.00  0.00     0.038 A 
HETATM    2  C   UNL     1      77.307   8.443  16.425  1.00  0.00     0.041 A 
HETATM    3  C   UNL     1      76.716   6.249  15.567  1.00  0.00     0.031 A 
HETATM    4  C   UNL     1      76.623   6.674  17.943  1.00  0.00     0.031 A 
HETATM    5  C   UNL     1      77.050   7.990  17.723  1.00  0.00     0.020 A 
HETATM    6  C   UNL     1      77.142   7.567  15.350  1.00  0.00     0.020 A 
ENDROOT
BRANCH   1   7
HETATM    7  N   UNL     1      75.986   4.454  17.090  1.00  0.00    -0.333 N 
HETATM    8  C   UNL     1      76.627   3.466  17.818  1.00  0.00     0.096 A 
HETATM    9  C   UNL     1      75.880   2.309  17.782  1.00  0.00     0.019 A 
HETATM   10  C   UNL     1      74.733   2.579  17.014  1.00  0.00     0.019 A 
HETATM   11  C   UNL     1      74.816   3.893  16.609  1.00  0.00     0.096 A 
ENDBRANCH   1   7
BRANCH   2  12
HETATM   12  C   UNL     1      77.743   9.848  16.244  1.00  0.00     0.209 C 
HETATM   13  O   UNL     1      78.091  10.357  15.195  1.00  0.00    -0.644 OA
HETATM   14  O   UNL     1      77.728  10.552  17.391  1.00  0.00    -0.644 OA
ENDBRANCH   2  12
TORSDOF 2
ENDMDL
MODEL 2
REMARK VINA RESULT:      -5.8      4.192      6.319
REMARK  2 active torsions:
REMARK  status: ('A' for Active; 'I' for Inactive)
REMARK    1  A    between atoms: N_1  and  C_3 
REMARK    2  A    between atoms: C_2  and  C_4 
ROOT
HETATM    1  C   UNL     1      76.006   4.919  17.060  1.00  0.00     0.038 A 
HETATM    2  C   UNL     1      75.001   2.310  17.442  1.00  0.00     0.041 A 
HETATM    3  C   UNL     1      74.745   4.559  16.561  1.00  0.00     0.031 A 
HETATM    4  C   UNL     1      76.754   3.961  17.761  1.00  0.00     0.031 A 
HETATM    5  C   UNL     1      76.253   2.667  17.950  1.00  0.00     0.020 A 
HETATM    6  C   UNL     1      74.248   3.262  16.750  1.00  0.00     0.020 A 
ENDROOT
BRANCH   1   7
HETATM    7  N   UNL     1      76.528   6.235  16.845  1.00  0.00    -0.333 N 
HETATM    8  C   UNL     1      76.906   6.790  15.633  1.00  0.00     0.096 A 
HETATM    9  C   UNL     1      77.380   8.067  15.839  1.00  0.00     0.019 A 
HETATM   10  C   UNL     1      77.291   8.326  17.219  1.00  0.00     0.019 A 
HETATM   11  C   UNL     1      76.762   7.199  17.810  1.00  0.00     0.096 A 
ENDBRANCH   1   7
BRANCH   2  12
HETATM   12  C   UNL     1      74.523   0.924  17.657  1.00  0.00     0.209 C 
HETATM   13  O   UNL     1      74.162   0.151  16.789  1.00  0.00    -0.644 OA
HETATM   14  O   UNL     1      74.515   0.569  18.954  1.00  0.00    -0.644 OA
ENDBRANCH   2  12
TORSDOF 2
ENDMDL
MODEL 3
REMARK VINA RESULT:      -5.4     11.851     13.346
REMARK  2 active torsions:
REMARK  status: ('A' for Active; 'I' for Inactive)
REMARK    1  A    between atoms: N_1  and  C_3 
REMARK    2  A    between atoms: C_2  and  C_4 
ROOT
HETATM    1  C   UNL     1      67.938   5.141   7.921  1.00  0.00     0.038 A 
HETATM    2  C   UNL     1      68.717   3.045   9.644  1.00  0.00     0.041 A 
HETATM    3  C   UNL     1      69.030   5.297   8.789  1.00  0.00     0.031 A 
HETATM    4  C   UNL     1      67.247   3.919   7.919  1.00  0.00     0.031 A 
HETATM    5  C   UNL     1      67.635   2.881   8.775  1.00  0.00     0.020 A 
HETATM    6  C   UNL     1      69.415   4.256   9.646  1.00  0.00     0.020 A 
ENDROOT
BRANCH   1   7
HETATM    7  N   UNL     1      67.527   6.212   7.065  1.00  0.00    -0.333 N 
HETATM    8  C   UNL     1      66.717   7.283   7.406  1.00  0.00     0.096 A 
HETATM    9  C   UNL     1      66.530   8.089   6.304  1.00  0.00     0.019 A 
HETATM   10  C   UNL     1      67.249   7.511   5.241  1.00  0.00     0.019 A 
HETATM   11  C   UNL     1      67.853   6.374   5.730  1.00  0.00     0.096 A 
ENDBRANCH   1   7
BRANCH   2  12
HETATM   12  C   UNL     1      69.078   1.921  10.539  1.00  0.00     0.209 C 
HETATM   13  O   UNL     1      70.198   1.653  10.932  1.00  0.00    -0.644 OA
HETATM   14  O   UNL     1      68.016   1.177  10.898  1.00  0.00    -0.644 OA
ENDBRANCH   2  12
TORSDOF 2
ENDMDL
MODEL 4
REMARK VINA RESULT:      -5.2      2.145      3.434
REMARK  2 active torsions:
REMARK  status: ('A' for Active; 'I' for Inactive)
REMARK    1  A    between atoms: N_1  and  C_3 
REMARK    2  A    between atoms: C_2  and  C_4 
ROOT
HETATM    1  C   UNL     1      75.582   2.748  17.339  1.00  0.00     0.038 A 
HETATM    2  C   UNL     1      76.312   5.470  17.192  1.00  0.00     0.041 A 
HETATM    3  C   UNL     1      74.795   3.662  16.621  1.00  0.00     0.031 A 
HETATM    4  C   UNL     1      76.745   3.212  17.973  1.00  0.00     0.031 A 
HETATM    5  C   UNL     1      77.105   4.563  17.900  1.00  0.00     0.020 A 
HETATM    6  C   UNL     1      75.157   5.014  16.551  1.00  0.00     0.020 A 
ENDROOT
BRANCH   1   7
HETATM    7  N   UNL     1      75.200   1.371  17.435  1.00  0.00    -0.333 N 
HETATM    8  C   UNL     1      74.192   0.739  16.727  1.00  0.00     0.096 A 
HETATM    9  C   UNL     1      74.115  -0.581  17.114  1.00  0.00     0.019 A 
HETATM   10  C   UNL     1      75.109  -0.787  18.088  1.00  0.00     0.019 A 
HETATM   11  C   UNL     1      75.762   0.414  18.262  1.00  0.00     0.096 A 
ENDBRANCH   1   7
BRANCH   2  12
HETATM   12  C   UNL     1      76.729   6.892  17.157  1.00  0.00     0.209 C 
HETATM   13  O   UNL     1      77.057   7.515  16.165  1.00  0.00    -0.644 OA
HETATM   14  O   UNL     1      76.721   7.469  18.372  1.00  0.00    -0.644 OA
ENDBRANCH   2  12
TORSDOF 2
ENDMDL
MODEL 5
REMARK VINA RESULT:      -5.2     12.778     13.993
REMARK  2 active torsions:
REMARK  status: ('A' for Active; 'I' for Inactive)
REMARK    1  A    between atoms: N_1  and  C_3 
REMARK    2  A    between atoms: C_2  and  C_4 
ROOT
HETATM    1  C   UNL     1      66.778   6.200   7.251  1.00  0.00     0.038 A 
HETATM    2  C   UNL     1      68.735   4.748   8.675  1.00  0.00     0.041 A 
HETATM    3  C   UNL     1      67.395   5.077   6.677  1.00  0.00     0.031 A 
HETATM    4  C   UNL     1      67.146   6.581   8.551  1.00  0.00     0.031 A 
HETATM    5  C   UNL     1      68.117   5.859   9.256  1.00  0.00     0.020 A 
HETATM    6  C   UNL     1      68.367   4.358   7.385  1.00  0.00     0.020 A 
ENDROOT
BRANCH   1   7
HETATM    7  N   UNL     1      65.804   6.953   6.521  1.00  0.00    -0.333 N 
HETATM    8  C   UNL     1      66.034   8.081   5.751  1.00  0.00     0.096 A 
HETATM    9  C   UNL     1      64.842   8.531   5.226  1.00  0.00     0.019 A 
HETATM   10  C   UNL     1      63.835   7.657   5.673  1.00  0.00     0.019 A 
HETATM   11  C   UNL     1      64.445   6.700   6.454  1.00  0.00     0.096 A 
ENDBRANCH   1   7
BRANCH   2  12
HETATM   12  C   UNL     1      69.766   4.026   9.458  1.00  0.00     0.209 C 
HETATM   13  O   UNL     1      70.949   4.308   9.510  1.00  0.00    -0.644 OA
HETATM   14  O   UNL     1      69.268   2.978  10.138  1.00  0.00    -0.644 OA
ENDBRANCH   2  12
TORSDOF 2
ENDMDL
MODEL 6
REMARK VINA RESULT:      -5.1     11.864     12.837
REMARK  2 active torsions:
REMARK  status: ('A' for Active; 'I' for Inactive)
REMARK    1  A    between atoms: N_1  and  C_3 
REMARK    2  A    between atoms: C_2  and  C_4 
ROOT
HETATM    1  C   UNL     1      67.954   4.625   8.262  1.00  0.00     0.038 A 
HETATM    2  C   UNL     1      67.154   6.868   6.747  1.00  0.00     0.041 A 
HETATM    3  C   UNL     1      68.004   4.596   6.859  1.00  0.00     0.031 A 
HETATM    4  C   UNL     1      67.508   5.795   8.897  1.00  0.00     0.031 A 
HETATM    5  C   UNL     1      67.111   6.907   8.143  1.00  0.00     0.020 A 
HETATM    6  C   UNL     1      67.605   5.710   6.108  1.00  0.00     0.020 A 
ENDROOT
BRANCH   1   7
HETATM    7  N   UNL     1      68.335   3.480   9.031  1.00  0.00    -0.333 N 
HETATM    8  C   UNL     1      69.387   3.395   9.928  1.00  0.00     0.096 A 
HETATM    9  C   UNL     1      69.446   2.122  10.450  1.00  0.00     0.019 A 
HETATM   10  C   UNL     1      68.396   1.386   9.871  1.00  0.00     0.019 A 
HETATM   11  C   UNL     1      67.729   2.235   9.016  1.00  0.00     0.096 A 
ENDBRANCH   1   7
BRANCH   2  12
HETATM   12  C   UNL     1      66.709   8.066   5.995  1.00  0.00     0.209 C 
HETATM   13  O   UNL     1      65.834   8.839   6.338  1.00  0.00    -0.644 OA
HETATM   14  O   UNL     1      67.381   8.239   4.843  1.00  0.00    -0.644 OA
ENDBRANCH   2  12
TORSDOF 2
ENDMDL
MODEL 7
REMARK VINA RESULT:      -5.0     13.475     14.376
REMARK  2 active torsions:
REMARK  status: ('A' for Active; 'I' for Inactive)
REMARK    1  A    between atoms: N_1  and  C_3 
REMARK    2  A    between atoms: C_2  and  C_4 
ROOT
HETATM    1  C   UNL     1      67.146   6.006   7.169  1.00  0.00     0.038 A 
HETATM    2  C   UNL     1      65.462   7.769   5.747  1.00  0.00     0.041 A 
HETATM    3  C   UNL     1      67.654   6.793   6.124  1.00  0.00     0.031 A 
HETATM    4  C   UNL     1      65.787   6.120   7.501  1.00  0.00     0.031 A 
HETATM    5  C   UNL     1      64.953   6.995   6.794  1.00  0.00     0.020 A 
HETATM    6  C   UNL     1      66.816   7.667   5.417  1.00  0.00     0.020 A 
ENDROOT
BRANCH   1   7
HETATM    7  N   UNL     1      67.993   5.093   7.875  1.00  0.00    -0.333 N 
HETATM    8  C   UNL     1      68.473   5.235   9.166  1.00  0.00     0.096 A 
HETATM    9  C   UNL     1      69.275   4.159   9.480  1.00  0.00     0.019 A 
HETATM   10  C   UNL     1      69.295   3.313   8.357  1.00  0.00     0.019 A 
HETATM   11  C   UNL     1      68.501   3.898   7.395  1.00  0.00     0.096 A 
ENDBRANCH   1   7
BRANCH   2  12
HETATM   12  C   UNL     1      64.535   8.669   5.022  1.00  0.00     0.209 C 
HETATM   13  O   UNL     1      63.936   8.400   3.997  1.00  0.00    -0.644 OA
HETATM   14  O   UNL     1      64.404   9.871   5.612  1.00  0.00    -0.644 OA
ENDBRANCH   2  12
TORSDOF 2
ENDMDL
MODEL 8
REMARK VINA RESULT:      -4.9      5.695      7.947
REMARK  2 active torsions:
REMARK  status: ('A' for Active; 'I' for Inactive)
REMARK    1  A    between atoms: N_1  and  C_3 
REMARK    2  A    between atoms: C_2  and  C_4 
ROOT
HETATM    1  C   UNL     1      74.994   1.934  17.057  1.00  0.00     0.038 A 
HETATM    2  C   UNL     1      73.854  -0.634  16.793  1.00  0.00     0.041 A 
HETATM    3  C   UNL     1      74.767   1.379  15.788  1.00  0.00     0.031 A 
HETATM    4  C   UNL     1      74.633   1.192  18.192  1.00  0.00     0.031 A 
HETATM    5  C   UNL     1      74.068  -0.082  18.059  1.00  0.00     0.020 A 
HETATM    6  C   UNL     1      74.203   0.103  15.658  1.00  0.00     0.020 A 
ENDROOT
BRANCH   1   7
HETATM    7  N   UNL     1      75.595   3.227  17.193  1.00  0.00    -0.333 N 
HETATM    8  C   UNL     1      76.738   3.539  17.910  1.00  0.00     0.096 A 
HETATM    9  C   UNL     1      76.984   4.892  17.819  1.00  0.00     0.019 A 
HETATM   10  C   UNL     1      75.970   5.445  17.015  1.00  0.00     0.019 A 
HETATM   11  C   UNL     1      75.141   4.411  16.639  1.00  0.00     0.096 A 
ENDBRANCH   1   7
BRANCH   2  12
HETATM   12  C   UNL     1      73.266  -1.992  16.707  1.00  0.00     0.209 C 
HETATM   13  O   UNL     1      72.091  -2.250  16.525  1.00  0.00    -0.644 OA
HETATM   14  O   UNL     1      74.180  -2.967  16.859  1.00  0.00    -0.644 OA
ENDBRANCH   2  12
TORSDOF 2
ENDMDL
MODEL 9
REMARK VINA RESULT:      -4.8     16.536     17.655
REMARK  2 active torsions:
REMARK  status: ('A' for Active; 'I' for Inactive)
REMARK    1  A    between atoms: N_1  and  C_3 
REMARK    2  A    between atoms: C_2  and  C_4 
ROOT
HETATM    1  C   UNL     1      63.812   8.292   5.089  1.00  0.00     0.038 A 
HETATM    2  C   UNL     1      65.343   6.556   6.703  1.00  0.00     0.041 A 
HETATM    3  C   UNL     1      63.225   7.162   5.681  1.00  0.00     0.031 A 
HETATM    4  C   UNL     1      65.172   8.548   5.324  1.00  0.00     0.031 A 
HETATM    5  C   UNL     1      65.930   7.685   6.125  1.00  0.00     0.020 A 
HETATM    6  C   UNL     1      63.988   6.300   6.480  1.00  0.00     0.020 A 
ENDROOT
BRANCH   1   7
HETATM    7  N   UNL     1      63.042   9.160   4.250  1.00  0.00    -0.333 N 
HETATM    8  C   UNL     1      62.632   8.909   2.951  1.00  0.00     0.096 A 
HETATM    9  C   UNL     1      61.932   9.994   2.471  1.00  0.00     0.019 A 
HETATM   10  C   UNL     1      61.894  10.952   3.500  1.00  0.00     0.019 A 
HETATM   11  C   UNL     1      62.570  10.420   4.576  1.00  0.00     0.096 A 
ENDBRANCH   1   7
BRANCH   2  12
HETATM   12  C   UNL     1      66.193   5.667   7.531  1.00  0.00     0.209 C 
HETATM   13  O   UNL     1      65.907   5.226   8.628  1.00  0.00    -0.644 OA
HETATM   14  O   UNL     1      67.368   5.375   6.946  1.00  0.00    -0.644 OA
ENDBRANCH   2  12
TORSDOF 2
ENDMDL
