MODEL 1
REMARK VINA RESULT:      -5.7      0.000      0.000
REMARK  3 active torsions:
REMARK  status: ('A' for Active; 'I' for Inactive)
REMARK    1  A    between atoms: C_3  and  C_7 
REMARK    2  A    between atoms: C_4  and  C_8 
REMARK    3  A    between atoms: C_8  and  N_9 
ROOT
HETATM    1  N   UNL     1      64.693   7.602   6.496  1.00  0.00    -0.336 N 
ATOM      2  HN  UNL     1      63.862   7.388   7.046  1.00  0.00     0.168 HD
HETATM    3  C   UNL     1      64.776   8.345   5.406  1.00  0.00     0.158 A 
HETATM    4  C   UNL     1      65.990   7.180   6.720  1.00  0.00     0.066 A 
HETATM    5  O   UNL     1      66.043   8.437   4.891  1.00  0.00    -0.296 OA
HETATM    6  C   UNL     1      66.812   7.690   5.736  1.00  0.00     0.075 A 
HETATM    7  C   UNL     1      68.248   7.606   5.427  1.00  0.00     0.079 C 
ENDROOT
BRANCH   3   8
HETATM    8  C   UNL     1      63.730   9.091   4.711  1.00  0.00     0.015 A 
HETATM    9  C   UNL     1      63.291  10.320   5.226  1.00  0.00     0.016 A 
HETATM   10  C   UNL     1      62.307  11.062   4.567  1.00  0.00     0.001 A 
HETATM   11  C   UNL     1      61.746  10.583   3.386  1.00  0.00     0.000 A 
HETATM   12  C   UNL     1      62.164   9.361   2.865  1.00  0.00     0.001 A 
HETATM   13  C   UNL     1      63.150   8.620   3.522  1.00  0.00     0.016 A 
ENDBRANCH   3   8
BRANCH   4  14
HETATM   14  C   UNL     1      66.328   6.314   7.879  1.00  0.00     0.288 C 
BRANCH  14  15
HETATM   15  N   UNL     1      67.244   7.036   8.759  1.00  0.00    -0.074 N 
HETATM   16  H   UNL     1      67.758   6.370   9.335  1.00  0.00     0.274 HD
HETATM   17  H   UNL     1      66.712   7.664   9.361  1.00  0.00     0.274 HD
HETATM   18  H   UNL     1      67.900   7.578   8.196  1.00  0.00     0.274 HD
ENDBRANCH  14  15
ENDBRANCH   4  14
TORSDOF 3
ENDMDL
MODEL 2
REMARK VINA RESULT:      -5.4      1.700      2.237
REMARK  3 active torsions:
REMARK  status: ('A' for Active; 'I' for Inactive)
REMARK    1  A    between atoms: C_3  and  C_7 
REMARK    2  A    between atoms: C_4  and  C_8 
REMARK    3  A    between atoms: C_8  and  N_9 
ROOT
HETATM    1  N   UNL     1      64.688   8.490   5.577  1.00  0.00    -0.336 N 
ATOM      2  HN  UNL     1      65.280   9.320   5.612  1.00  0.00     0.168 HD
HETATM    3  C   UNL     1      63.573   8.318   4.889  1.00  0.00     0.158 A 
HETATM    4  C   UNL     1      64.868   7.291   6.239  1.00  0.00     0.066 A 
HETATM    5  O   UNL     1      63.000   7.084   5.058  1.00  0.00    -0.296 OA
HETATM    6  C   UNL     1      63.834   6.435   5.922  1.00  0.00     0.075 A 
HETATM    7  C   UNL     1      63.465   5.059   6.292  1.00  0.00     0.079 C 
ENDROOT
BRANCH   3   8
HETATM    8  C   UNL     1      62.902   9.232   3.968  1.00  0.00     0.015 A 
HETATM    9  C   UNL     1      62.523  10.510   4.406  1.00  0.00     0.016 A 
HETATM   10  C   UNL     1      61.899  11.410   3.537  1.00  0.00     0.001 A 
HETATM   11  C   UNL     1      61.643  11.041   2.218  1.00  0.00     0.000 A 
HETATM   12  C   UNL     1      62.006   9.774   1.768  1.00  0.00     0.001 A 
HETATM   13  C   UNL     1      62.631   8.876   2.637  1.00  0.00     0.016 A 
ENDBRANCH   3   8
BRANCH   4  14
HETATM   14  C   UNL     1      66.037   7.071   7.130  1.00  0.00     0.288 C 
BRANCH  14  15
HETATM   15  N   UNL     1      66.850   8.285   7.153  1.00  0.00    -0.074 N 
HETATM   16  H   UNL     1      67.821   8.040   7.341  1.00  0.00     0.274 HD
HETATM   17  H   UNL     1      66.509   8.908   7.885  1.00  0.00     0.274 HD
HETATM   18  H   UNL     1      66.785   8.754   6.250  1.00  0.00     0.274 HD
ENDBRANCH  14  15
ENDBRANCH   4  14
TORSDOF 3
ENDMDL
MODEL 3
REMARK VINA RESULT:      -5.1     16.192     17.693
REMARK  3 active torsions:
REMARK  status: ('A' for Active; 'I' for Inactive)
REMARK    1  A    between atoms: C_3  and  C_7 
REMARK    2  A    between atoms: C_4  and  C_8 
REMARK    3  A    between atoms: C_8  and  N_9 
ROOT
HETATM    1  N   UNL     1      74.228   0.368  16.594  1.00  0.00    -0.336 N 
ATOM      2  HN  UNL     1      74.276   0.490  15.583  1.00  0.00     0.168 HD
HETATM    3  C   UNL     1      74.602   1.220  17.533  1.00  0.00     0.158 A 
HETATM    4  C   UNL     1      73.759  -0.726  17.296  1.00  0.00     0.066 A 
HETATM    5  O   UNL     1      74.415   0.758  18.810  1.00  0.00    -0.296 OA
HETATM    6  C   UNL     1      73.877  -0.486  18.649  1.00  0.00     0.075 A 
HETATM    7  C   UNL     1      73.565  -1.237  19.875  1.00  0.00     0.079 C 
ENDROOT
BRANCH   3   8
HETATM    8  C   UNL     1      75.142   2.571  17.396  1.00  0.00     0.015 A 
HETATM    9  C   UNL     1      76.378   2.889  17.980  1.00  0.00     0.016 A 
HETATM   10  C   UNL     1      76.926   4.168  17.844  1.00  0.00     0.001 A 
HETATM   11  C   UNL     1      76.242   5.147  17.125  1.00  0.00     0.000 A 
HETATM   12  C   UNL     1      75.011   4.850  16.546  1.00  0.00     0.001 A 
HETATM   13  C   UNL     1      74.465   3.570  16.679  1.00  0.00     0.016 A 
ENDBRANCH   3   8
BRANCH   4  14
HETATM   14  C   UNL     1      73.230  -1.923  16.592  1.00  0.00     0.288 C 
BRANCH  14  15
HETATM   15  N   UNL     1      74.305  -2.900  16.443  1.00  0.00    -0.074 N 
HETATM   16  H   UNL     1      73.920  -3.842  16.503  1.00  0.00     0.274 HD
HETATM   17  H   UNL     1      74.991  -2.766  17.186  1.00  0.00     0.274 HD
HETATM   18  H   UNL     1      74.756  -2.774  15.537  1.00  0.00     0.274 HD
ENDBRANCH  14  15
ENDBRANCH   4  14
TORSDOF 3
ENDMDL
MODEL 4
REMARK VINA RESULT:      -5.0      1.607      1.787
REMARK  3 active torsions:
REMARK  status: ('A' for Active; 'I' for Inactive)
REMARK    1  A    between atoms: C_3  and  C_7 
REMARK    2  A    between atoms: C_4  and  C_8 
REMARK    3  A    between atoms: C_8  and  N_9 
ROOT
HETATM    1  N   UNL     1      64.280   6.353   5.144  1.00  0.00    -0.336 N 
ATOM      2  HN  UNL     1      63.736   5.797   4.484  1.00  0.00     0.168 HD
HETATM    3  C   UNL     1      64.266   7.665   5.304  1.00  0.00     0.158 A 
HETATM    4  C   UNL     1      65.200   5.907   6.073  1.00  0.00     0.066 A 
HETATM    5  O   UNL     1      65.122   8.115   6.275  1.00  0.00    -0.296 OA
HETATM    6  C   UNL     1      65.715   6.986   6.761  1.00  0.00     0.075 A 
HETATM    7  C   UNL     1      66.702   7.164   7.838  1.00  0.00     0.079 C 
ENDROOT
BRANCH   3   8
HETATM    8  C   UNL     1      63.456   8.673   4.625  1.00  0.00     0.015 A 
HETATM    9  C   UNL     1      63.188   9.896   5.259  1.00  0.00     0.016 A 
HETATM   10  C   UNL     1      62.433  10.884   4.621  1.00  0.00     0.001 A 
HETATM   11  C   UNL     1      61.933  10.660   3.340  1.00  0.00     0.000 A 
HETATM   12  C   UNL     1      62.183   9.450   2.698  1.00  0.00     0.001 A 
HETATM   13  C   UNL     1      62.940   8.463   3.336  1.00  0.00     0.016 A 
ENDBRANCH   3   8
BRANCH   4  14
HETATM   14  C   UNL     1      65.506   4.460   6.220  1.00  0.00     0.288 C 
BRANCH  14  15
HETATM   15  N   UNL     1      64.952   3.985   7.486  1.00  0.00    -0.074 N 
HETATM   16  H   UNL     1      64.156   4.565   7.748  1.00  0.00     0.274 HD
HETATM   17  H   UNL     1      65.667   4.041   8.211  1.00  0.00     0.274 HD
HETATM   18  H   UNL     1      64.649   3.016   7.381  1.00  0.00     0.274 HD
ENDBRANCH  14  15
ENDBRANCH   4  14
TORSDOF 3
ENDMDL
MODEL 5
REMARK VINA RESULT:      -5.0      2.142      5.955
REMARK  3 active torsions:
REMARK  status: ('A' for Active; 'I' for Inactive)
REMARK    1  A    between atoms: C_3  and  C_7 
REMARK    2  A    between atoms: C_4  and  C_8 
REMARK    3  A    between atoms: C_8  and  N_9 
ROOT
HETATM    1  N   UNL     1      65.133   8.100   5.995  1.00  0.00    -0.336 N 
ATOM      2  HN  UNL     1      65.865   8.788   5.822  1.00  0.00     0.168 HD
HETATM    3  C   UNL     1      65.238   6.945   6.630  1.00  0.00     0.158 A 
HETATM    4  C   UNL     1      63.804   8.162   5.620  1.00  0.00     0.066 A 
HETATM    5  O   UNL     1      64.066   6.237   6.694  1.00  0.00    -0.296 OA
HETATM    6  C   UNL     1      63.156   7.022   6.046  1.00  0.00     0.075 A 
HETATM    7  C   UNL     1      61.780   6.507   5.957  1.00  0.00     0.079 C 
ENDROOT
BRANCH   3   8
HETATM    8  C   UNL     1      66.399   6.351   7.287  1.00  0.00     0.015 A 
HETATM    9  C   UNL     1      66.696   6.686   8.617  1.00  0.00     0.016 A 
HETATM   10  C   UNL     1      67.789   6.114   9.273  1.00  0.00     0.001 A 
HETATM   11  C   UNL     1      68.603   5.201   8.606  1.00  0.00     0.000 A 
HETATM   12  C   UNL     1      68.328   4.862   7.284  1.00  0.00     0.001 A 
HETATM   13  C   UNL     1      67.233   5.432   6.628  1.00  0.00     0.016 A 
ENDBRANCH   3   8
BRANCH   4  14
HETATM   14  C   UNL     1      63.269   9.332   4.876  1.00  0.00     0.288 C 
BRANCH  14  15
HETATM   15  N   UNL     1      63.302  10.504   5.748  1.00  0.00    -0.074 N 
HETATM   16  H   UNL     1      62.518  10.465   6.399  1.00  0.00     0.274 HD
HETATM   17  H   UNL     1      63.232  11.350   5.182  1.00  0.00     0.274 HD
HETATM   18  H   UNL     1      64.178  10.515   6.270  1.00  0.00     0.274 HD
ENDBRANCH  14  15
ENDBRANCH   4  14
TORSDOF 3
ENDMDL
MODEL 6
REMARK VINA RESULT:      -4.9     18.122     20.060
REMARK  3 active torsions:
REMARK  status: ('A' for Active; 'I' for Inactive)
REMARK    1  A    between atoms: C_3  and  C_7 
REMARK    2  A    between atoms: C_4  and  C_8 
REMARK    3  A    between atoms: C_8  and  N_9 
ROOT
HETATM    1  N   UNL     1      50.244  21.071   1.787  1.00  0.00    -0.336 N 
ATOM      2  HN  UNL     1      51.239  21.052   1.564  1.00  0.00     0.168 HD
HETATM    3  C   UNL     1      49.324  20.177   1.466  1.00  0.00     0.158 A 
HETATM    4  C   UNL     1      49.550  22.035   2.492  1.00  0.00     0.066 A 
HETATM    5  O   UNL     1      48.065  20.492   1.909  1.00  0.00    -0.296 OA
HETATM    6  C   UNL     1      48.219  21.680   2.563  1.00  0.00     0.075 A 
HETATM    7  C   UNL     1      47.010  22.273   3.157  1.00  0.00     0.079 C 
ENDROOT
BRANCH   3   8
HETATM    8  C   UNL     1      49.470  18.912   0.750  1.00  0.00     0.015 A 
HETATM    9  C   UNL     1      50.146  17.842   1.354  1.00  0.00     0.016 A 
HETATM   10  C   UNL     1      50.280  16.616   0.697  1.00  0.00     0.001 A 
HETATM   11  C   UNL     1      49.740  16.445  -0.576  1.00  0.00     0.000 A 
HETATM   12  C   UNL     1      49.071  17.498  -1.194  1.00  0.00     0.001 A 
HETATM   13  C   UNL     1      48.936  18.724  -0.536  1.00  0.00     0.016 A 
ENDBRANCH   3   8
BRANCH   4  14
HETATM   14  C   UNL     1      50.241  23.229   3.045  1.00  0.00     0.288 C 
BRANCH  14  15
HETATM   15  N   UNL     1      51.117  22.808   4.135  1.00  0.00    -0.074 N 
HETATM   16  H   UNL     1      50.559  22.382   4.875  1.00  0.00     0.274 HD
HETATM   17  H   UNL     1      51.612  23.619   4.506  1.00  0.00     0.274 HD
HETATM   18  H   UNL     1      51.793  22.129   3.784  1.00  0.00     0.274 HD
ENDBRANCH  14  15
ENDBRANCH   4  14
TORSDOF 3
ENDMDL
MODEL 7
REMARK VINA RESULT:      -4.8      2.108      5.522
REMARK  3 active torsions:
REMARK  status: ('A' for Active; 'I' for Inactive)
REMARK    1  A    between atoms: C_3  and  C_7 
REMARK    2  A    between atoms: C_4  and  C_8 
REMARK    3  A    between atoms: C_8  and  N_9 
ROOT
HETATM    1  N   UNL     1      63.736   8.164   3.865  1.00  0.00    -0.336 N 
ATOM      2  HN  UNL     1      63.709   7.410   3.179  1.00  0.00     0.168 HD
HETATM    3  C   UNL     1      64.565   8.304   4.884  1.00  0.00     0.158 A 
HETATM    4  C   UNL     1      62.915   9.273   3.939  1.00  0.00     0.066 A 
HETATM    5  O   UNL     1      64.341   9.431   5.632  1.00  0.00    -0.296 OA
HETATM    6  C   UNL     1      63.285  10.043   5.022  1.00  0.00     0.075 A 
HETATM    7  C   UNL     1      62.814  11.304   5.617  1.00  0.00     0.079 C 
ENDROOT
BRANCH   3   8
HETATM    8  C   UNL     1      65.684   7.458   5.293  1.00  0.00     0.015 A 
HETATM    9  C   UNL     1      66.125   7.480   6.624  1.00  0.00     0.016 A 
HETATM   10  C   UNL     1      67.180   6.663   7.043  1.00  0.00     0.001 A 
HETATM   11  C   UNL     1      67.808   5.815   6.135  1.00  0.00     0.000 A 
HETATM   12  C   UNL     1      67.387   5.785   4.807  1.00  0.00     0.001 A 
HETATM   13  C   UNL     1      66.331   6.600   4.389  1.00  0.00     0.016 A 
ENDBRANCH   3   8
BRANCH   4  14
HETATM   14  C   UNL     1      61.832   9.496   2.947  1.00  0.00     0.288 C 
BRANCH  14  15
HETATM   15  N   UNL     1      60.575   8.991   3.495  1.00  0.00    -0.074 N 
HETATM   16  H   UNL     1      59.923   8.803   2.733  1.00  0.00     0.274 HD
HETATM   17  H   UNL     1      60.173   9.689   4.121  1.00  0.00     0.274 HD
HETATM   18  H   UNL     1      60.752   8.130   4.013  1.00  0.00     0.274 HD
ENDBRANCH  14  15
ENDBRANCH   4  14
TORSDOF 3
ENDMDL
MODEL 8
REMARK VINA RESULT:      -4.5      3.163      4.912
REMARK  3 active torsions:
REMARK  status: ('A' for Active; 'I' for Inactive)
REMARK    1  A    between atoms: C_3  and  C_7 
REMARK    2  A    between atoms: C_4  and  C_8 
REMARK    3  A    between atoms: C_8  and  N_9 
ROOT
HETATM    1  N   UNL     1      67.127   4.171   8.431  1.00  0.00    -0.336 N 
ATOM      2  HN  UNL     1      66.211   3.726   8.485  1.00  0.00     0.168 HD
HETATM    3  C   UNL     1      67.459   5.267   7.772  1.00  0.00     0.158 A 
HETATM    4  C   UNL     1      68.304   3.765   9.031  1.00  0.00     0.066 A 
HETATM    5  O   UNL     1      68.781   5.609   7.892  1.00  0.00    -0.296 OA
HETATM    6  C   UNL     1      69.313   4.644   8.698  1.00  0.00     0.075 A 
HETATM    7  C   UNL     1      70.747   4.755   9.008  1.00  0.00     0.079 C 
ENDROOT
BRANCH   3   8
HETATM    8  C   UNL     1      66.620   6.161   6.978  1.00  0.00     0.015 A 
HETATM    9  C   UNL     1      67.208   7.004   6.022  1.00  0.00     0.016 A 
HETATM   10  C   UNL     1      66.423   7.852   5.236  1.00  0.00     0.001 A 
HETATM   11  C   UNL     1      65.040   7.871   5.397  1.00  0.00     0.000 A 
HETATM   12  C   UNL     1      64.440   7.046   6.345  1.00  0.00     0.001 A 
HETATM   13  C   UNL     1      65.224   6.196   7.130  1.00  0.00     0.016 A 
ENDBRANCH   3   8
BRANCH   4  14
HETATM   14  C   UNL     1      68.353   2.551   9.886  1.00  0.00     0.288 C 
BRANCH  14  15
HETATM   15  N   UNL     1      67.140   1.767   9.666  1.00  0.00    -0.074 N 
HETATM   16  H   UNL     1      66.485   2.305   9.099  1.00  0.00     0.274 HD
HETATM   17  H   UNL     1      66.711   1.546  10.564  1.00  0.00     0.274 HD
HETATM   18  H   UNL     1      67.379   0.901   9.182  1.00  0.00     0.274 HD
ENDBRANCH  14  15
ENDBRANCH   4  14
TORSDOF 3
ENDMDL
MODEL 9
REMARK VINA RESULT:      -4.5      1.990      2.669
REMARK  3 active torsions:
REMARK  status: ('A' for Active; 'I' for Inactive)
REMARK    1  A    between atoms: C_3  and  C_7 
REMARK    2  A    between atoms: C_4  and  C_8 
REMARK    3  A    between atoms: C_8  and  N_9 
ROOT
HETATM    1  N   UNL     1      66.034   5.443   5.887  1.00  0.00    -0.336 N 
ATOM      2  HN  UNL     1      66.131   4.850   5.063  1.00  0.00     0.168 HD
HETATM    3  C   UNL     1      65.338   6.561   6.006  1.00  0.00     0.158 A 
HETATM    4  C   UNL     1      66.601   5.262   7.134  1.00  0.00     0.066 A 
HETATM    5  O   UNL     1      65.412   7.133   7.249  1.00  0.00    -0.296 OA
HETATM    6  C   UNL     1      66.222   6.297   7.963  1.00  0.00     0.075 A 
HETATM    7  C   UNL     1      66.486   6.665   9.363  1.00  0.00     0.079 C 
ENDROOT
BRANCH   3   8
HETATM    8  C   UNL     1      64.492   7.234   5.024  1.00  0.00     0.015 A 
HETATM    9  C   UNL     1      63.957   8.499   5.314  1.00  0.00     0.016 A 
HETATM   10  C   UNL     1      63.163   9.172   4.381  1.00  0.00     0.001 A 
HETATM   11  C   UNL     1      62.890   8.587   3.147  1.00  0.00     0.000 A 
HETATM   12  C   UNL     1      63.407   7.330   2.844  1.00  0.00     0.001 A 
HETATM   13  C   UNL     1      64.203   6.657   3.776  1.00  0.00     0.016 A 
ENDBRANCH   3   8
BRANCH   4  14
HETATM   14  C   UNL     1      67.468   4.090   7.422  1.00  0.00     0.288 C 
BRANCH  14  15
HETATM   15  N   UNL     1      66.727   3.144   8.252  1.00  0.00    -0.074 N 
HETATM   16  H   UNL     1      65.887   3.595   8.614  1.00  0.00     0.274 HD
HETATM   17  H   UNL     1      67.313   2.843   9.030  1.00  0.00     0.274 HD
HETATM   18  H   UNL     1      66.464   2.333   7.691  1.00  0.00     0.274 HD
ENDBRANCH  14  15
ENDBRANCH   4  14
TORSDOF 3
ENDMDL
