MODEL 1
REMARK VINA RESULT:      -4.8      0.000      0.000
REMARK  2 active torsions:
REMARK  status: ('A' for Active; 'I' for Inactive)
REMARK    1  A    between atoms: C_3  and  C_7 
REMARK    2  A    between atoms: C_7  and  N_8 
ROOT
HETATM    1  N   UNL     1      78.384  10.502  19.786  1.00  0.00    -0.340 N 
ATOM      2  HN  UNL     1      78.941   9.740  20.172  1.00  0.00     0.167 HD
HETATM    3  C   UNL     1      78.282  11.801  20.247  1.00  0.00     0.066 A 
HETATM    4  C   UNL     1      77.425  12.509  19.431  1.00  0.00     0.075 A 
HETATM    5  C   UNL     1      77.594  10.477  18.731  1.00  0.00     0.120 A 
HETATM    6  O   UNL     1      76.972  11.664  18.457  1.00  0.00    -0.301 OA
HETATM    7  C   UNL     1      76.936  13.897  19.397  1.00  0.00     0.079 C 
HETATM    8  C   UNL     1      77.288   9.354  17.825  1.00  0.00     0.098 C 
ENDROOT
BRANCH   3   9
HETATM    9  C   UNL     1      79.022  12.260  21.452  1.00  0.00     0.288 C 
BRANCH   9  10
HETATM   10  N   UNL     1      80.269  11.507  21.566  1.00  0.00    -0.074 N 
HETATM   11  H   UNL     1      80.978  11.929  20.966  1.00  0.00     0.274 HD
HETATM   12  H   UNL     1      80.111  10.541  21.277  1.00  0.00     0.274 HD
HETATM   13  H   UNL     1      80.589  11.524  22.535  1.00  0.00     0.274 HD
ENDBRANCH   9  10
ENDBRANCH   3   9
TORSDOF 2
ENDMDL
MODEL 2
REMARK VINA RESULT:      -4.5      1.872      3.567
REMARK  2 active torsions:
REMARK  status: ('A' for Active; 'I' for Inactive)
REMARK    1  A    between atoms: C_3  and  C_7 
REMARK    2  A    between atoms: C_7  and  N_8 
ROOT
HETATM    1  N   UNL     1      79.901  11.260  21.024  1.00  0.00    -0.340 N 
ATOM      2  HN  UNL     1      80.575  10.510  20.874  1.00  0.00     0.167 HD
HETATM    3  C   UNL     1      78.717  11.489  20.349  1.00  0.00     0.066 A 
HETATM    4  C   UNL     1      78.103  12.609  20.870  1.00  0.00     0.075 A 
HETATM    5  C   UNL     1      79.956  12.238  21.908  1.00  0.00     0.120 A 
HETATM    6  O   UNL     1      78.896  13.101  21.869  1.00  0.00    -0.301 OA
HETATM    7  C   UNL     1      76.850  13.329  20.589  1.00  0.00     0.079 C 
HETATM    8  C   UNL     1      80.996  12.525  22.913  1.00  0.00     0.098 C 
ENDROOT
BRANCH   3   9
HETATM    9  C   UNL     1      78.270  10.605  19.241  1.00  0.00     0.288 C 
BRANCH   9  10
HETATM   10  N   UNL     1      79.414   9.846  18.740  1.00  0.00    -0.074 N 
HETATM   11  H   UNL     1      79.862   9.355  19.514  1.00  0.00     0.274 HD
HETATM   12  H   UNL     1      80.084  10.484  18.310  1.00  0.00     0.274 HD
HETATM   13  H   UNL     1      79.095   9.169  18.047  1.00  0.00     0.274 HD
ENDBRANCH   9  10
ENDBRANCH   3   9
TORSDOF 2
ENDMDL
MODEL 3
REMARK VINA RESULT:      -4.4      2.540      4.867
REMARK  2 active torsions:
REMARK  status: ('A' for Active; 'I' for Inactive)
REMARK    1  A    between atoms: C_3  and  C_7 
REMARK    2  A    between atoms: C_7  and  N_8 
ROOT
HETATM    1  N   UNL     1      77.201   8.716  18.524  1.00  0.00    -0.340 N 
ATOM      2  HN  UNL     1      76.955   8.208  19.373  1.00  0.00     0.167 HD
HETATM    3  C   UNL     1      77.252   8.237  17.229  1.00  0.00     0.066 A 
HETATM    4  C   UNL     1      77.625   9.256  16.378  1.00  0.00     0.075 A 
HETATM    5  C   UNL     1      77.543   9.984  18.406  1.00  0.00     0.120 A 
HETATM    6  O   UNL     1      77.820  10.383  17.128  1.00  0.00    -0.301 OA
HETATM    7  C   UNL     1      77.836   9.370  14.926  1.00  0.00     0.079 C 
HETATM    8  C   UNL     1      77.673  11.014  19.454  1.00  0.00     0.098 C 
ENDROOT
BRANCH   3   9
HETATM    9  C   UNL     1      76.941   6.818  16.912  1.00  0.00     0.288 C 
BRANCH   9  10
HETATM   10  N   UNL     1      76.051   6.280  17.938  1.00  0.00    -0.074 N 
HETATM   11  H   UNL     1      76.514   5.510  18.421  1.00  0.00     0.274 HD
HETATM   12  H   UNL     1      75.194   5.941  17.500  1.00  0.00     0.274 HD
HETATM   13  H   UNL     1      75.822   7.014  18.609  1.00  0.00     0.274 HD
ENDBRANCH   9  10
ENDBRANCH   3   9
TORSDOF 2
ENDMDL
MODEL 4
REMARK VINA RESULT:      -4.4      4.635      6.015
REMARK  2 active torsions:
REMARK  status: ('A' for Active; 'I' for Inactive)
REMARK    1  A    between atoms: C_3  and  C_7 
REMARK    2  A    between atoms: C_7  and  N_8 
ROOT
HETATM    1  N   UNL     1      76.998   6.393  15.923  1.00  0.00    -0.340 N 
ATOM      2  HN  UNL     1      76.959   5.818  15.082  1.00  0.00     0.167 HD
HETATM    3  C   UNL     1      77.200   7.757  16.015  1.00  0.00     0.066 A 
HETATM    4  C   UNL     1      77.175   8.135  17.341  1.00  0.00     0.075 A 
HETATM    5  C   UNL     1      76.866   6.008  17.177  1.00  0.00     0.120 A 
HETATM    6  O   UNL     1      76.967   7.015  18.096  1.00  0.00    -0.301 OA
HETATM    7  C   UNL     1      77.314   9.413  18.057  1.00  0.00     0.079 C 
HETATM    8  C   UNL     1      76.635   4.654  17.714  1.00  0.00     0.098 C 
ENDROOT
BRANCH   3   9
HETATM    9  C   UNL     1      77.409   8.595  14.805  1.00  0.00     0.288 C 
BRANCH   9  10
HETATM   10  N   UNL     1      77.687   7.729  13.662  1.00  0.00    -0.074 N 
HETATM   11  H   UNL     1      78.110   8.278  12.913  1.00  0.00     0.274 HD
HETATM   12  H   UNL     1      76.816   7.315  13.329  1.00  0.00     0.274 HD
HETATM   13  H   UNL     1      78.330   6.988  13.945  1.00  0.00     0.274 HD
ENDBRANCH   9  10
ENDBRANCH   3   9
TORSDOF 2
ENDMDL
MODEL 5
REMARK VINA RESULT:      -4.4      6.800      8.890
REMARK  2 active torsions:
REMARK  status: ('A' for Active; 'I' for Inactive)
REMARK    1  A    between atoms: C_3  and  C_7 
REMARK    2  A    between atoms: C_7  and  N_8 
ROOT
HETATM    1  N   UNL     1      77.364   4.059  18.216  1.00  0.00    -0.340 N 
ATOM      2  HN  UNL     1      78.207   4.268  18.750  1.00  0.00     0.167 HD
HETATM    3  C   UNL     1      76.796   2.823  17.969  1.00  0.00     0.066 A 
HETATM    4  C   UNL     1      75.658   2.987  17.208  1.00  0.00     0.075 A 
HETATM    5  C   UNL     1      76.561   4.904  17.600  1.00  0.00     0.120 A 
HETATM    6  O   UNL     1      75.502   4.322  16.960  1.00  0.00    -0.301 OA
HETATM    7  C   UNL     1      74.644   2.077  16.650  1.00  0.00     0.079 C 
HETATM    8  C   UNL     1      76.656   6.373  17.503  1.00  0.00     0.098 C 
ENDROOT
BRANCH   3   9
HETATM    9  C   UNL     1      77.406   1.570  18.486  1.00  0.00     0.288 C 
BRANCH   9  10
HETATM   10  N   UNL     1      78.554   1.904  19.325  1.00  0.00    -0.074 N 
HETATM   11  H   UNL     1      79.270   1.184  19.225  1.00  0.00     0.274 HD
HETATM   12  H   UNL     1      78.259   1.957  20.300  1.00  0.00     0.274 HD
HETATM   13  H   UNL     1      78.936   2.805  19.036  1.00  0.00     0.274 HD
ENDBRANCH   9  10
ENDBRANCH   3   9
TORSDOF 2
ENDMDL
MODEL 6
REMARK VINA RESULT:      -4.3      2.732      4.068
REMARK  2 active torsions:
REMARK  status: ('A' for Active; 'I' for Inactive)
REMARK    1  A    between atoms: C_3  and  C_7 
REMARK    2  A    between atoms: C_7  and  N_8 
ROOT
HETATM    1  N   UNL     1      76.921   8.210  18.333  1.00  0.00    -0.340 N 
ATOM      2  HN  UNL     1      76.692   8.085  19.319  1.00  0.00     0.167 HD
HETATM    3  C   UNL     1      77.265   9.379  17.681  1.00  0.00     0.066 A 
HETATM    4  C   UNL     1      77.500   9.107  16.350  1.00  0.00     0.075 A 
HETATM    5  C   UNL     1      76.957   7.296  17.385  1.00  0.00     0.120 A 
HETATM    6  O   UNL     1      77.298   7.770  16.148  1.00  0.00    -0.301 OA
HETATM    7  C   UNL     1      77.901   9.910  15.183  1.00  0.00     0.079 C 
HETATM    8  C   UNL     1      76.674   5.851  17.474  1.00  0.00     0.098 C 
ENDROOT
BRANCH   3   9
HETATM    9  C   UNL     1      77.335  10.679  18.399  1.00  0.00     0.288 C 
BRANCH   9  10
HETATM   10  N   UNL     1      77.936  10.470  19.714  1.00  0.00    -0.074 N 
HETATM   11  H   UNL     1      78.840  10.940  19.754  1.00  0.00     0.274 HD
HETATM   12  H   UNL     1      78.066   9.471  19.874  1.00  0.00     0.274 HD
HETATM   13  H   UNL     1      77.322  10.853  20.433  1.00  0.00     0.274 HD
ENDBRANCH   9  10
ENDBRANCH   3   9
TORSDOF 2
ENDMDL
MODEL 7
REMARK VINA RESULT:      -4.2      2.561      4.945
REMARK  2 active torsions:
REMARK  status: ('A' for Active; 'I' for Inactive)
REMARK    1  A    between atoms: C_3  and  C_7 
REMARK    2  A    between atoms: C_7  and  N_8 
ROOT
HETATM    1  N   UNL     1      77.744  10.497  17.397  1.00  0.00    -0.340 N 
ATOM      2  HN  UNL     1      77.977  11.413  17.016  1.00  0.00     0.167 HD
HETATM    3  C   UNL     1      77.551   9.313  16.710  1.00  0.00     0.066 A 
HETATM    4  C   UNL     1      77.257   8.307  17.607  1.00  0.00     0.075 A 
HETATM    5  C   UNL     1      77.558  10.164  18.659  1.00  0.00     0.120 A 
HETATM    6  O   UNL     1      77.253   8.847  18.863  1.00  0.00    -0.301 OA
HETATM    7  C   UNL     1      76.971   6.868  17.492  1.00  0.00     0.079 C 
HETATM    8  C   UNL     1      77.625  11.013  19.864  1.00  0.00     0.098 C 
ENDROOT
BRANCH   3   9
HETATM    9  C   UNL     1      77.660   9.246  15.229  1.00  0.00     0.288 C 
BRANCH   9  10
HETATM   10  N   UNL     1      77.542  10.594  14.677  1.00  0.00    -0.074 N 
HETATM   11  H   UNL     1      76.752  11.072  15.112  1.00  0.00     0.274 HD
HETATM   12  H   UNL     1      77.391  10.537  13.670  1.00  0.00     0.274 HD
HETATM   13  H   UNL     1      78.399  11.114  14.864  1.00  0.00     0.274 HD
ENDBRANCH   9  10
ENDBRANCH   3   9
TORSDOF 2
ENDMDL
MODEL 8
REMARK VINA RESULT:      -3.9      8.831     10.359
REMARK  2 active torsions:
REMARK  status: ('A' for Active; 'I' for Inactive)
REMARK    1  A    between atoms: C_3  and  C_7 
REMARK    2  A    between atoms: C_7  and  N_8 
ROOT
HETATM    1  N   UNL     1      77.849   2.353  19.474  1.00  0.00    -0.340 N 
ATOM      2  HN  UNL     1      77.931   3.161  20.090  1.00  0.00     0.167 HD
HETATM    3  C   UNL     1      77.205   2.275  18.253  1.00  0.00     0.066 A 
HETATM    4  C   UNL     1      77.338   0.998  17.747  1.00  0.00     0.075 A 
HETATM    5  C   UNL     1      78.332   1.140  19.655  1.00  0.00     0.120 A 
HETATM    6  O   UNL     1      78.056   0.259  18.646  1.00  0.00    -0.301 OA
HETATM    7  C   UNL     1      76.896   0.320  16.518  1.00  0.00     0.079 C 
HETATM    8  C   UNL     1      79.113   0.610  20.789  1.00  0.00     0.098 C 
ENDROOT
BRANCH   3   9
HETATM    9  C   UNL     1      76.501   3.446  17.668  1.00  0.00     0.288 C 
BRANCH   9  10
HETATM   10  N   UNL     1      77.188   4.671  18.073  1.00  0.00    -0.074 N 
HETATM   11  H   UNL     1      78.187   4.487  18.165  1.00  0.00     0.274 HD
HETATM   12  H   UNL     1      76.817   4.988  18.970  1.00  0.00     0.274 HD
HETATM   13  H   UNL     1      77.038   5.393  17.369  1.00  0.00     0.274 HD
ENDBRANCH   9  10
ENDBRANCH   3   9
TORSDOF 2
ENDMDL
MODEL 9
REMARK VINA RESULT:      -3.8     16.826     18.130
REMARK  2 active torsions:
REMARK  status: ('A' for Active; 'I' for Inactive)
REMARK    1  A    between atoms: C_3  and  C_7 
REMARK    2  A    between atoms: C_7  and  N_8 
ROOT
HETATM    1  N   UNL     1      67.490   7.071   7.041  1.00  0.00    -0.340 N 
ATOM      2  HN  UNL     1      68.485   6.928   7.211  1.00  0.00     0.167 HD
HETATM    3  C   UNL     1      66.878   7.516   5.884  1.00  0.00     0.066 A 
HETATM    4  C   UNL     1      65.513   7.562   6.077  1.00  0.00     0.075 A 
HETATM    5  C   UNL     1      66.487   6.873   7.874  1.00  0.00     0.120 A 
HETATM    6  O   UNL     1      65.253   7.156   7.357  1.00  0.00    -0.301 OA
HETATM    7  C   UNL     1      64.360   7.930   5.241  1.00  0.00     0.079 C 
HETATM    8  C   UNL     1      66.518   6.402   9.271  1.00  0.00     0.098 C 
ENDROOT
BRANCH   3   9
HETATM    9  C   UNL     1      67.666   7.872   4.675  1.00  0.00     0.288 C 
BRANCH   9  10
HETATM   10  N   UNL     1      69.026   8.227   5.074  1.00  0.00    -0.074 N 
HETATM   11  H   UNL     1      69.678   7.524   4.726  1.00  0.00     0.274 HD
HETATM   12  H   UNL     1      69.082   8.268   6.092  1.00  0.00     0.274 HD
HETATM   13  H   UNL     1      69.268   9.138   4.684  1.00  0.00     0.274 HD
ENDBRANCH   9  10
ENDBRANCH   3   9
TORSDOF 2
ENDMDL
