MODEL 1
REMARK VINA RESULT:      -7.0      0.000      0.000
REMARK  3 active torsions:
REMARK  status: ('A' for Active; 'I' for Inactive)
REMARK    1  A    between atoms: C_3  and  C_7 
REMARK    2  A    between atoms: C_4  and  C_8 
REMARK    3  A    between atoms: C_8  and  O_10 
ROOT
HETATM    1  N   UNK     1      77.077   8.898  18.328  1.00  0.00    -0.336 N 
ATOM      2  HN  UNK     1      76.844   8.453  19.216  1.00  0.00     0.168 HD
HETATM    3  C   UNK     1      77.294  10.182  18.093  1.00  0.00     0.158 A 
HETATM    4  C   UNK     1      77.239   8.298  17.093  1.00  0.00     0.064 A 
HETATM    5  O   UNK     1      77.597  10.466  16.788  1.00  0.00    -0.296 OA
HETATM    6  C   UNK     1      77.577   9.255  16.160  1.00  0.00     0.076 A 
HETATM    7  C   UNK     1      77.916   9.248  14.728  1.00  0.00     0.079 C 
ENDROOT
BRANCH   3   8
HETATM    8  C   UNK     1      77.291  11.308  19.019  1.00  0.00     0.015 A 
HETATM    9  C   UNK     1      78.268  11.387  20.023  1.00  0.00     0.016 A 
HETATM   10  C   UNK     1      78.300  12.469  20.905  1.00  0.00     0.001 A 
HETATM   11  C   UNK     1      77.348  13.482  20.800  1.00  0.00     0.000 A 
HETATM   12  C   UNK     1      76.365  13.414  19.814  1.00  0.00     0.001 A 
HETATM   13  C   UNK     1      76.337  12.335  18.930  1.00  0.00     0.016 A 
ENDBRANCH   3   8
BRANCH   4  14
HETATM   14  C   UNK     1      77.060   6.833  16.916  1.00  0.00     0.223 C 
BRANCH  14  15
HETATM   15  O   UNK     1      76.754   6.171  18.141  1.00  0.00    -0.395 OA
HETATM   16  H   UNK     1      75.927   6.525  18.503  1.00  0.00     0.209 HD
ENDBRANCH  14  15
ENDBRANCH   4  14
TORSDOF 3
ENDMDL
MODEL 2
REMARK VINA RESULT:      -6.5      2.011      5.393
REMARK  3 active torsions:
REMARK  status: ('A' for Active; 'I' for Inactive)
REMARK    1  A    between atoms: C_3  and  C_7 
REMARK    2  A    between atoms: C_4  and  C_8 
REMARK    3  A    between atoms: C_8  and  O_10 
ROOT
HETATM    1  N   UNK     1      78.596  10.492  19.643  1.00  0.00    -0.336 N 
ATOM      2  HN  UNK     1      79.265   9.771  19.915  1.00  0.00     0.168 HD
HETATM    3  C   UNK     1      77.747  10.474  18.628  1.00  0.00     0.158 A 
HETATM    4  C   UNK     1      78.367  11.711  20.252  1.00  0.00     0.064 A 
HETATM    5  O   UNK     1      76.969  11.597  18.534  1.00  0.00    -0.296 OA
HETATM    6  C   UNK     1      77.358  12.373  19.586  1.00  0.00     0.076 A 
HETATM    7  C   UNK     1      76.645  13.649  19.764  1.00  0.00     0.079 C 
ENDROOT
BRANCH   3   8
HETATM    8  C   UNK     1      77.506   9.431  17.638  1.00  0.00     0.015 A 
HETATM    9  C   UNK     1      77.767   9.685  16.283  1.00  0.00     0.016 A 
HETATM   10  C   UNK     1      77.569   8.693  15.319  1.00  0.00     0.001 A 
HETATM   11  C   UNK     1      77.098   7.438  15.699  1.00  0.00     0.000 A 
HETATM   12  C   UNK     1      76.824   7.173  17.040  1.00  0.00     0.001 A 
HETATM   13  C   UNK     1      77.027   8.163  18.002  1.00  0.00     0.016 A 
ENDBRANCH   3   8
BRANCH   4  14
HETATM   14  C   UNK     1      79.143  12.137  21.446  1.00  0.00     0.223 C 
BRANCH  14  15
HETATM   15  O   UNK     1      78.511  11.762  22.668  1.00  0.00    -0.395 OA
HETATM   16  H   UNK     1      78.778  10.860  22.906  1.00  0.00     0.209 HD
ENDBRANCH  14  15
ENDBRANCH   4  14
TORSDOF 3
ENDMDL
MODEL 3
REMARK VINA RESULT:      -6.4      2.582      6.729
REMARK  3 active torsions:
REMARK  status: ('A' for Active; 'I' for Inactive)
REMARK    1  A    between atoms: C_3  and  C_7 
REMARK    2  A    between atoms: C_4  and  C_8 
REMARK    3  A    between atoms: C_8  and  O_10 
ROOT
HETATM    1  N   UNK     1      77.044   7.177  15.985  1.00  0.00    -0.336 N 
ATOM      2  HN  UNK     1      77.048   6.841  15.022  1.00  0.00     0.168 HD
HETATM    3  C   UNK     1      76.704   6.512  17.078  1.00  0.00     0.158 A 
HETATM    4  C   UNK     1      77.394   8.430  16.450  1.00  0.00     0.064 A 
HETATM    5  O   UNK     1      76.816   7.243  18.231  1.00  0.00    -0.296 OA
HETATM    6  C   UNK     1      77.275   8.461  17.823  1.00  0.00     0.076 A 
HETATM    7  C   UNK     1      77.535   9.455  18.875  1.00  0.00     0.079 C 
ENDROOT
BRANCH   3   8
HETATM    8  C   UNK     1      76.270   5.129  17.225  1.00  0.00     0.015 A 
HETATM    9  C   UNK     1      75.093   4.698  16.595  1.00  0.00     0.016 A 
HETATM   10  C   UNK     1      74.670   3.371  16.700  1.00  0.00     0.001 A 
HETATM   11  C   UNK     1      75.416   2.460  17.446  1.00  0.00     0.000 A 
HETATM   12  C   UNK     1      76.583   2.874  18.087  1.00  0.00     0.001 A 
HETATM   13  C   UNK     1      77.006   4.198  17.977  1.00  0.00     0.016 A 
ENDBRANCH   3   8
BRANCH   4  14
HETATM   14  C   UNK     1      77.830   9.505  15.519  1.00  0.00     0.223 C 
BRANCH  14  15
HETATM   15  O   UNK     1      79.116  10.023  15.851  1.00  0.00    -0.395 OA
HETATM   16  H   UNK     1      79.677   9.306  16.187  1.00  0.00     0.209 HD
ENDBRANCH  14  15
ENDBRANCH   4  14
TORSDOF 3
ENDMDL
MODEL 4
REMARK VINA RESULT:      -6.2      2.983      4.714
REMARK  3 active torsions:
REMARK  status: ('A' for Active; 'I' for Inactive)
REMARK    1  A    between atoms: C_3  and  C_7 
REMARK    2  A    between atoms: C_4  and  C_8 
REMARK    3  A    between atoms: C_8  and  O_10 
ROOT
HETATM    1  N   UNK     1      79.116  11.023  20.371  1.00  0.00    -0.336 N 
ATOM      2  HN  UNK     1      79.874  10.340  20.353  1.00  0.00     0.168 HD
HETATM    3  C   UNK     1      78.941  12.024  21.219  1.00  0.00     0.158 A 
HETATM    4  C   UNK     1      78.035  11.115  19.514  1.00  0.00     0.064 A 
HETATM    5  O   UNK     1      77.822  12.774  20.971  1.00  0.00    -0.296 OA
HETATM    6  C   UNK     1      77.260  12.198  19.870  1.00  0.00     0.076 A 
HETATM    7  C   UNK     1      76.043  12.834  19.341  1.00  0.00     0.079 C 
ENDROOT
BRANCH   3   8
HETATM    8  C   UNK     1      79.776  12.451  22.334  1.00  0.00     0.015 A 
HETATM    9  C   UNK     1      80.968  13.149  22.085  1.00  0.00     0.016 A 
HETATM   10  C   UNK     1      81.771  13.591  23.139  1.00  0.00     0.001 A 
HETATM   11  C   UNK     1      81.396  13.331  24.456  1.00  0.00     0.000 A 
HETATM   12  C   UNK     1      80.220  12.630  24.721  1.00  0.00     0.001 A 
HETATM   13  C   UNK     1      79.416  12.194  23.667  1.00  0.00     0.016 A 
ENDBRANCH   3   8
BRANCH   4  14
HETATM   14  C   UNK     1      77.844  10.145  18.404  1.00  0.00     0.223 C 
BRANCH  14  15
HETATM   15  O   UNK     1      79.075   9.772  17.789  1.00  0.00    -0.395 OA
HETATM   16  H   UNK     1      79.746  10.447  17.975  1.00  0.00     0.209 HD
ENDBRANCH  14  15
ENDBRANCH   4  14
TORSDOF 3
ENDMDL
MODEL 5
REMARK VINA RESULT:      -6.1      3.201      7.027
REMARK  3 active torsions:
REMARK  status: ('A' for Active; 'I' for Inactive)
REMARK    1  A    between atoms: C_3  and  C_7 
REMARK    2  A    between atoms: C_4  and  C_8 
REMARK    3  A    between atoms: C_8  and  O_10 
ROOT
HETATM    1  N   UNK     1      76.778   6.338  15.614  1.00  0.00    -0.336 N 
ATOM      2  HN  UNK     1      76.723   5.903  14.693  1.00  0.00     0.168 HD
HETATM    3  C   UNK     1      76.526   5.788  16.791  1.00  0.00     0.158 A 
HETATM    4  C   UNK     1      77.135   7.638  15.920  1.00  0.00     0.064 A 
HETATM    5  O   UNK     1      76.702   6.637  17.851  1.00  0.00    -0.296 OA
HETATM    6  C   UNK     1      77.108   7.811  17.287  1.00  0.00     0.076 A 
HETATM    7  C   UNK     1      77.420   8.913  18.210  1.00  0.00     0.079 C 
ENDROOT
BRANCH   3   8
HETATM    8  C   UNK     1      76.130   4.422  17.111  1.00  0.00     0.015 A 
HETATM    9  C   UNK     1      76.977   3.615  17.886  1.00  0.00     0.016 A 
HETATM   10  C   UNK     1      76.607   2.312  18.227  1.00  0.00     0.001 A 
HETATM   11  C   UNK     1      75.388   1.797  17.789  1.00  0.00     0.000 A 
HETATM   12  C   UNK     1      74.539   2.582  17.010  1.00  0.00     0.001 A 
HETATM   13  C   UNK     1      74.908   3.885  16.674  1.00  0.00     0.016 A 
ENDBRANCH   3   8
BRANCH   4  14
HETATM   14  C   UNK     1      77.485   8.614  14.855  1.00  0.00     0.223 C 
BRANCH  14  15
HETATM   15  O   UNK     1      77.602   8.001  13.573  1.00  0.00    -0.395 OA
HETATM   16  H   UNK     1      76.792   8.159  13.063  1.00  0.00     0.209 HD
ENDBRANCH  14  15
ENDBRANCH   4  14
TORSDOF 3
ENDMDL
MODEL 6
REMARK VINA RESULT:      -5.6     16.626     18.428
REMARK  3 active torsions:
REMARK  status: ('A' for Active; 'I' for Inactive)
REMARK    1  A    between atoms: C_3  and  C_7 
REMARK    2  A    between atoms: C_4  and  C_8 
REMARK    3  A    between atoms: C_8  and  O_10 
ROOT
HETATM    1  N   UNK     1      64.780   7.680   6.522  1.00  0.00    -0.336 N 
ATOM      2  HN  UNK     1      63.965   7.475   7.100  1.00  0.00     0.168 HD
HETATM    3  C   UNK     1      64.831   8.402   5.414  1.00  0.00     0.158 A 
HETATM    4  C   UNK     1      66.085   7.271   6.717  1.00  0.00     0.064 A 
HETATM    5  O   UNK     1      66.085   8.500   4.872  1.00  0.00    -0.296 OA
HETATM    6  C   UNK     1      66.883   7.791   5.721  1.00  0.00     0.076 A 
HETATM    7  C   UNK     1      68.319   7.761   5.405  1.00  0.00     0.079 C 
ENDROOT
BRANCH   3   8
HETATM    8  C   UNK     1      63.766   9.119   4.724  1.00  0.00     0.015 A 
HETATM    9  C   UNK     1      63.186   8.566   3.572  1.00  0.00     0.016 A 
HETATM   10  C   UNK     1      62.147   9.222   2.909  1.00  0.00     0.001 A 
HETATM   11  C   UNK     1      61.681  10.447   3.385  1.00  0.00     0.000 A 
HETATM   12  C   UNK     1      62.253  11.015   4.522  1.00  0.00     0.001 A 
HETATM   13  C   UNK     1      63.288  10.356   5.186  1.00  0.00     0.016 A 
ENDBRANCH   3   8
BRANCH   4  14
HETATM   14  C   UNK     1      66.461   6.408   7.868  1.00  0.00     0.223 C 
BRANCH  14  15
HETATM   15  O   UNK     1      67.379   7.049   8.751  1.00  0.00    -0.395 OA
HETATM   16  H   UNK     1      66.889   7.541   9.427  1.00  0.00     0.209 HD
ENDBRANCH  14  15
ENDBRANCH   4  14
TORSDOF 3
ENDMDL
MODEL 7
REMARK VINA RESULT:      -5.2      3.066      4.799
REMARK  3 active torsions:
REMARK  status: ('A' for Active; 'I' for Inactive)
REMARK    1  A    between atoms: C_3  and  C_7 
REMARK    2  A    between atoms: C_4  and  C_8 
REMARK    3  A    between atoms: C_8  and  O_10 
ROOT
HETATM    1  N   UNK     1      77.940  12.711  20.421  1.00  0.00    -0.336 N 
ATOM      2  HN  UNK     1      77.492  13.578  20.718  1.00  0.00     0.168 HD
HETATM    3  C   UNK     1      78.966  12.091  20.982  1.00  0.00     0.158 A 
HETATM    4  C   UNK     1      77.614  11.912  19.342  1.00  0.00     0.064 A 
HETATM    5  O   UNK     1      79.331  10.934  20.348  1.00  0.00    -0.296 OA
HETATM    6  C   UNK     1      78.450  10.817  19.313  1.00  0.00     0.076 A 
HETATM    7  C   UNK     1      78.579   9.618  18.469  1.00  0.00     0.079 C 
ENDROOT
BRANCH   3   8
HETATM    8  C   UNK     1      79.724  12.445  22.176  1.00  0.00     0.015 A 
HETATM    9  C   UNK     1      79.254  12.055  23.439  1.00  0.00     0.016 A 
HETATM   10  C   UNK     1      79.976  12.360  24.596  1.00  0.00     0.001 A 
HETATM   11  C   UNK     1      81.173  13.068  24.502  1.00  0.00     0.000 A 
HETATM   12  C   UNK     1      81.649  13.471  23.255  1.00  0.00     0.001 A 
HETATM   13  C   UNK     1      80.929  13.162  22.101  1.00  0.00     0.016 A 
ENDBRANCH   3   8
BRANCH   4  14
HETATM   14  C   UNK     1      76.502  12.271  18.422  1.00  0.00     0.223 C 
BRANCH  14  15
HETATM   15  O   UNK     1      75.388  12.834  19.111  1.00  0.00    -0.395 OA
HETATM   16  H   UNK     1      74.892  13.409  18.508  1.00  0.00     0.209 HD
ENDBRANCH  14  15
ENDBRANCH   4  14
TORSDOF 3
ENDMDL
MODEL 8
REMARK VINA RESULT:      -5.2     17.102     18.877
REMARK  3 active torsions:
REMARK  status: ('A' for Active; 'I' for Inactive)
REMARK    1  A    between atoms: C_3  and  C_7 
REMARK    2  A    between atoms: C_4  and  C_8 
REMARK    3  A    between atoms: C_8  and  O_10 
ROOT
HETATM    1  N   UNK     1      65.282   8.306   6.312  1.00  0.00    -0.336 N 
ATOM      2  HN  UNK     1      65.650   9.229   6.541  1.00  0.00     0.168 HD
HETATM    3  C   UNK     1      64.283   8.006   5.498  1.00  0.00     0.158 A 
HETATM    4  C   UNK     1      65.714   7.079   6.780  1.00  0.00     0.064 A 
HETATM    5  O   UNK     1      64.034   6.664   5.393  1.00  0.00    -0.296 OA
HETATM    6  C   UNK     1      64.965   6.078   6.201  1.00  0.00     0.076 A 
HETATM    7  C   UNK     1      64.964   4.608   6.250  1.00  0.00     0.079 C 
ENDROOT
BRANCH   3   8
HETATM    8  C   UNK     1      63.450   8.887   4.688  1.00  0.00     0.015 A 
HETATM    9  C   UNK     1      63.063  10.138   5.192  1.00  0.00     0.016 A 
HETATM   10  C   UNK     1      62.287  11.009   4.425  1.00  0.00     0.001 A 
HETATM   11  C   UNK     1      61.881  10.635   3.145  1.00  0.00     0.000 A 
HETATM   12  C   UNK     1      62.249   9.392   2.632  1.00  0.00     0.001 A 
HETATM   13  C   UNK     1      63.028   8.524   3.399  1.00  0.00     0.016 A 
ENDBRANCH   3   8
BRANCH   4  14
HETATM   14  C   UNK     1      66.833   6.974   7.753  1.00  0.00     0.223 C 
BRANCH  14  15
HETATM   15  O   UNK     1      68.044   6.533   7.142  1.00  0.00    -0.395 OA
HETATM   16  H   UNK     1      67.867   6.271   6.226  1.00  0.00     0.209 HD
ENDBRANCH  14  15
ENDBRANCH   4  14
TORSDOF 3
ENDMDL
MODEL 9
REMARK VINA RESULT:      -5.2     17.556     19.390
REMARK  3 active torsions:
REMARK  status: ('A' for Active; 'I' for Inactive)
REMARK    1  A    between atoms: C_3  and  C_7 
REMARK    2  A    between atoms: C_4  and  C_8 
REMARK    3  A    between atoms: C_8  and  O_10 
ROOT
HETATM    1  N   UNK     1      64.519   9.080   5.485  1.00  0.00    -0.336 N 
ATOM      2  HN  UNK     1      65.137   9.193   6.288  1.00  0.00     0.168 HD
HETATM    3  C   UNK     1      64.539   8.122   4.571  1.00  0.00     0.158 A 
HETATM    4  C   UNK     1      63.469   9.891   5.099  1.00  0.00     0.064 A 
HETATM    5  O   UNK     1      63.566   8.245   3.616  1.00  0.00    -0.296 OA
HETATM    6  C   UNK     1      62.875   9.367   3.970  1.00  0.00     0.076 A 
HETATM    7  C   UNK     1      61.722   9.725   3.131  1.00  0.00     0.079 C 
ENDROOT
BRANCH   3   8
HETATM    8  C   UNK     1      65.412   6.960   4.464  1.00  0.00     0.015 A 
HETATM    9  C   UNK     1      66.651   6.957   5.123  1.00  0.00     0.016 A 
HETATM   10  C   UNK     1      67.494   5.845   5.056  1.00  0.00     0.001 A 
HETATM   11  C   UNK     1      67.110   4.725   4.320  1.00  0.00     0.000 A 
HETATM   12  C   UNK     1      65.887   4.715   3.652  1.00  0.00     0.001 A 
HETATM   13  C   UNK     1      65.044   5.825   3.724  1.00  0.00     0.016 A 
ENDBRANCH   3   8
BRANCH   4  14
HETATM   14  C   UNK     1      63.116  11.115   5.865  1.00  0.00     0.223 C 
BRANCH  14  15
HETATM   15  O   UNK     1      64.242  11.686   6.526  1.00  0.00    -0.395 OA
HETATM   16  H   UNK     1      64.781  10.981   6.916  1.00  0.00     0.209 HD
ENDBRANCH  14  15
ENDBRANCH   4  14
TORSDOF 3
ENDMDL
