MODEL 1
REMARK VINA RESULT:      -6.1      0.000      0.000
REMARK  2 active torsions:
REMARK  status: ('A' for Active; 'I' for Inactive)
REMARK    1  A    between atoms: C_5  and  C_8 
REMARK    2  A    between atoms: C_8  and  O_9 
ROOT
HETATM    1  C   UNL     1      63.913   9.192   5.016  1.00  0.00     0.084 A 
HETATM    2  O   UNL     1      64.903   8.980   5.938  1.00  0.00    -0.340 OA
HETATM    3  C   UNL     1      63.850   8.217   4.033  1.00  0.00    -0.021 A 
HETATM    4  C   UNL     1      65.489   7.693   5.597  1.00  0.00     0.064 C 
HETATM    5  C   UNL     1      63.052  10.276   5.041  1.00  0.00    -0.001 A 
HETATM    6  C   UNL     1      64.914   7.211   4.246  1.00  0.00     0.079 C 
HETATM    7  C   UNL     1      62.903   8.284   3.025  1.00  0.00     0.010 A 
HETATM    8  C   UNL     1      62.085  10.347   4.023  1.00  0.00     0.012 A 
HETATM    9  C   UNL     1      65.147   6.721   6.731  1.00  0.00     0.046 C 
HETATM   10  C   UNL     1      67.003   7.906   5.521  1.00  0.00     0.046 C 
HETATM   11  C   UNL     1      62.012   9.359   3.027  1.00  0.00     0.001 A 
ENDROOT
BRANCH   5  12
HETATM   12  C   UNL     1      63.124  11.323   6.112  1.00  0.00     0.205 C 
BRANCH  12  13
HETATM   13  O   UNL     1      64.481  11.600   6.437  1.00  0.00    -0.396 OA
HETATM   14  H   UNL     1      64.822  10.904   7.019  1.00  0.00     0.209 HD
ENDBRANCH  12  13
ENDBRANCH   5  12
TORSDOF 2
ENDMDL
MODEL 2
REMARK VINA RESULT:      -5.4      1.425      1.881
REMARK  2 active torsions:
REMARK  status: ('A' for Active; 'I' for Inactive)
REMARK    1  A    between atoms: C_5  and  C_8 
REMARK    2  A    between atoms: C_8  and  O_9 
ROOT
HETATM    1  C   UNL     1      62.927   9.208   3.961  1.00  0.00     0.084 A 
HETATM    2  O   UNL     1      63.539   8.362   4.846  1.00  0.00    -0.340 OA
HETATM    3  C   UNL     1      62.717   8.649   2.710  1.00  0.00    -0.021 A 
HETATM    4  C   UNL     1      63.659   7.088   4.154  1.00  0.00     0.064 C 
HETATM    5  C   UNL     1      62.552  10.506   4.265  1.00  0.00    -0.001 A 
HETATM    6  C   UNL     1      63.253   7.269   2.674  1.00  0.00     0.079 C 
HETATM    7  C   UNL     1      62.108   9.374   1.700  1.00  0.00     0.010 A 
HETATM    8  C   UNL     1      61.928  11.246   3.244  1.00  0.00     0.012 A 
HETATM    9  C   UNL     1      62.740   6.092   4.868  1.00  0.00     0.046 C 
HETATM   10  C   UNL     1      65.119   6.651   4.288  1.00  0.00     0.046 C 
HETATM   11  C   UNL     1      61.707  10.683   1.977  1.00  0.00     0.001 A 
ENDROOT
BRANCH   5  12
HETATM   12  C   UNL     1      62.778  11.100   5.622  1.00  0.00     0.205 C 
BRANCH  12  13
HETATM   13  O   UNL     1      64.156  11.030   5.966  1.00  0.00    -0.396 OA
HETATM   14  H   UNL     1      64.670  10.762   5.189  1.00  0.00     0.209 HD
ENDBRANCH  12  13
ENDBRANCH   5  12
TORSDOF 2
ENDMDL
MODEL 3
REMARK VINA RESULT:      -5.2      2.054      2.795
REMARK  2 active torsions:
REMARK  status: ('A' for Active; 'I' for Inactive)
REMARK    1  A    between atoms: C_5  and  C_8 
REMARK    2  A    between atoms: C_8  and  O_9 
ROOT
HETATM    1  C   UNL     1      62.803   8.790   2.915  1.00  0.00     0.084 A 
HETATM    2  O   UNL     1      63.205   9.203   4.157  1.00  0.00    -0.340 OA
HETATM    3  C   UNL     1      63.115   7.468   2.639  1.00  0.00    -0.021 A 
HETATM    4  C   UNL     1      63.744   8.020   4.809  1.00  0.00     0.064 C 
HETATM    5  C   UNL     1      62.154   9.604   2.002  1.00  0.00    -0.001 A 
HETATM    6  C   UNL     1      63.836   6.867   3.784  1.00  0.00     0.079 C 
HETATM    7  C   UNL     1      62.777   6.896   1.424  1.00  0.00     0.010 A 
HETATM    8  C   UNL     1      61.804   9.027   0.768  1.00  0.00     0.012 A 
HETATM    9  C   UNL     1      62.803   7.666   5.965  1.00  0.00     0.046 C 
HETATM   10  C   UNL     1      65.123   8.405   5.349  1.00  0.00     0.046 C 
HETATM   11  C   UNL     1      62.111   7.686   0.486  1.00  0.00     0.001 A 
ENDROOT
BRANCH   5  12
HETATM   12  C   UNL     1      61.816  11.032   2.311  1.00  0.00     0.205 C 
BRANCH  12  13
HETATM   13  O   UNL     1      61.367  11.150   3.656  1.00  0.00    -0.396 OA
HETATM   14  H   UNL     1      61.985  11.706   4.155  1.00  0.00     0.209 HD
ENDBRANCH  12  13
ENDBRANCH   5  12
TORSDOF 2
ENDMDL
MODEL 4
REMARK VINA RESULT:      -4.9      2.107      4.265
REMARK  2 active torsions:
REMARK  status: ('A' for Active; 'I' for Inactive)
REMARK    1  A    between atoms: C_5  and  C_8 
REMARK    2  A    between atoms: C_8  and  O_9 
ROOT
HETATM    1  C   UNL     1      62.421   8.713   3.393  1.00  0.00     0.084 A 
HETATM    2  O   UNL     1      62.377   7.541   2.688  1.00  0.00    -0.340 OA
HETATM    3  C   UNL     1      61.956   9.809   2.682  1.00  0.00    -0.021 A 
HETATM    4  C   UNL     1      61.730   7.864   1.426  1.00  0.00     0.064 C 
HETATM    5  C   UNL     1      62.889   8.818   4.692  1.00  0.00    -0.001 A 
HETATM    6  C   UNL     1      61.559   9.396   1.316  1.00  0.00     0.079 C 
HETATM    7  C   UNL     1      61.934  11.070   3.252  1.00  0.00     0.010 A 
HETATM    8  C   UNL     1      62.864  10.096   5.279  1.00  0.00     0.012 A 
HETATM    9  C   UNL     1      60.376   7.148   1.408  1.00  0.00     0.046 C 
HETATM   10  C   UNL     1      62.632   7.318   0.317  1.00  0.00     0.046 C 
HETATM   11  C   UNL     1      62.390  11.208   4.565  1.00  0.00     0.001 A 
ENDROOT
BRANCH   5  12
HETATM   12  C   UNL     1      63.384   7.627   5.456  1.00  0.00     0.205 C 
BRANCH  12  13
HETATM   13  O   UNL     1      63.043   7.749   6.831  1.00  0.00    -0.396 OA
HETATM   14  H   UNL     1      63.852   7.765   7.364  1.00  0.00     0.209 HD
ENDBRANCH  12  13
ENDBRANCH   5  12
TORSDOF 2
ENDMDL
MODEL 5
REMARK VINA RESULT:      -4.8      2.220      3.785
REMARK  2 active torsions:
REMARK  status: ('A' for Active; 'I' for Inactive)
REMARK    1  A    between atoms: C_5  and  C_8 
REMARK    2  A    between atoms: C_8  and  O_9 
ROOT
HETATM    1  C   UNL     1      62.807   8.541   3.172  1.00  0.00     0.084 A 
HETATM    2  O   UNL     1      63.365   7.542   3.923  1.00  0.00    -0.340 OA
HETATM    3  C   UNL     1      62.604   9.719   3.875  1.00  0.00    -0.021 A 
HETATM    4  C   UNL     1      63.654   8.137   5.218  1.00  0.00     0.064 C 
HETATM    5  C   UNL     1      62.462   8.407   1.838  1.00  0.00    -0.001 A 
HETATM    6  C   UNL     1      63.033   9.551   5.282  1.00  0.00     0.079 C 
HETATM    7  C   UNL     1      62.046  10.828   3.260  1.00  0.00     0.010 A 
HETATM    8  C   UNL     1      61.901   9.531   1.206  1.00  0.00     0.012 A 
HETATM    9  C   UNL     1      65.178   8.188   5.368  1.00  0.00     0.046 C 
HETATM   10  C   UNL     1      63.049   7.209   6.273  1.00  0.00     0.046 C 
HETATM   11  C   UNL     1      61.698  10.728   1.912  1.00  0.00     0.001 A 
ENDROOT
BRANCH   5  12
HETATM   12  C   UNL     1      62.692   7.131   1.084  1.00  0.00     0.205 C 
BRANCH  12  13
HETATM   13  O   UNL     1      62.128   6.034   1.792  1.00  0.00    -0.396 OA
HETATM   14  H   UNL     1      62.817   5.377   1.971  1.00  0.00     0.209 HD
ENDBRANCH  12  13
ENDBRANCH   5  12
TORSDOF 2
ENDMDL
MODEL 6
REMARK VINA RESULT:      -4.6      3.162      4.620
REMARK  2 active torsions:
REMARK  status: ('A' for Active; 'I' for Inactive)
REMARK    1  A    between atoms: C_5  and  C_8 
REMARK    2  A    between atoms: C_8  and  O_9 
ROOT
HETATM    1  C   UNL     1      66.917   6.566   6.257  1.00  0.00     0.084 A 
HETATM    2  O   UNL     1      68.086   5.952   6.618  1.00  0.00    -0.340 OA
HETATM    3  C   UNL     1      65.812   6.121   6.966  1.00  0.00    -0.021 A 
HETATM    4  C   UNL     1      67.748   5.089   7.739  1.00  0.00     0.064 C 
HETATM    5  C   UNL     1      66.824   7.537   5.274  1.00  0.00    -0.001 A 
HETATM    6  C   UNL     1      66.213   5.060   7.918  1.00  0.00     0.079 C 
HETATM    7  C   UNL     1      64.553   6.642   6.722  1.00  0.00     0.010 A 
HETATM    8  C   UNL     1      65.549   8.074   5.025  1.00  0.00     0.012 A 
HETATM    9  C   UNL     1      68.445   5.658   8.980  1.00  0.00     0.046 C 
HETATM   10  C   UNL     1      68.303   3.702   7.410  1.00  0.00     0.046 C 
HETATM   11  C   UNL     1      64.427   7.631   5.744  1.00  0.00     0.001 A 
ENDROOT
BRANCH   5  12
HETATM   12  C   UNL     1      68.026   8.017   4.517  1.00  0.00     0.205 C 
BRANCH  12  13
HETATM   13  O   UNL     1      69.132   8.172   5.397  1.00  0.00    -0.396 OA
HETATM   14  H   UNL     1      69.720   7.406   5.316  1.00  0.00     0.209 HD
ENDBRANCH  12  13
ENDBRANCH   5  12
TORSDOF 2
ENDMDL
MODEL 7
REMARK VINA RESULT:      -4.6      4.531      5.520
REMARK  2 active torsions:
REMARK  status: ('A' for Active; 'I' for Inactive)
REMARK    1  A    between atoms: C_5  and  C_8 
REMARK    2  A    between atoms: C_8  and  O_9 
ROOT
HETATM    1  C   UNL     1      67.708   5.744   5.952  1.00  0.00     0.084 A 
HETATM    2  O   UNL     1      68.250   6.224   7.114  1.00  0.00    -0.340 OA
HETATM    3  C   UNL     1      67.412   4.390   5.993  1.00  0.00    -0.021 A 
HETATM    4  C   UNL     1      68.221   5.112   8.051  1.00  0.00     0.064 C 
HETATM    5  C   UNL     1      67.476   6.519   4.828  1.00  0.00    -0.001 A 
HETATM    6  C   UNL     1      67.801   3.825   7.305  1.00  0.00     0.079 C 
HETATM    7  C   UNL     1      66.858   3.749   4.898  1.00  0.00     0.010 A 
HETATM    8  C   UNL     1      66.909   5.875   3.714  1.00  0.00     0.012 A 
HETATM    9  C   UNL     1      67.220   5.470   9.155  1.00  0.00     0.046 C 
HETATM   10  C   UNL     1      69.630   4.991   8.634  1.00  0.00     0.046 C 
HETATM   11  C   UNL     1      66.602   4.505   3.752  1.00  0.00     0.001 A 
ENDROOT
BRANCH   5  12
HETATM   12  C   UNL     1      67.793   7.984   4.795  1.00  0.00     0.205 C 
BRANCH  12  13
HETATM   13  O   UNL     1      69.143   8.203   5.185  1.00  0.00    -0.396 OA
HETATM   14  H   UNL     1      69.166   8.554   6.088  1.00  0.00     0.209 HD
ENDBRANCH  12  13
ENDBRANCH   5  12
TORSDOF 2
ENDMDL
MODEL 8
REMARK VINA RESULT:      -4.5      5.543      8.545
REMARK  2 active torsions:
REMARK  status: ('A' for Active; 'I' for Inactive)
REMARK    1  A    between atoms: C_5  and  C_8 
REMARK    2  A    between atoms: C_8  and  O_9 
ROOT
HETATM    1  C   UNL     1      67.774   3.499   8.495  1.00  0.00     0.084 A 
HETATM    2  O   UNL     1      67.012   4.272   7.662  1.00  0.00    -0.340 OA
HETATM    3  C   UNL     1      68.734   4.214   9.195  1.00  0.00    -0.021 A 
HETATM    4  C   UNL     1      67.433   5.644   7.901  1.00  0.00     0.064 C 
HETATM    5  C   UNL     1      67.623   2.130   8.634  1.00  0.00    -0.001 A 
HETATM    6  C   UNL     1      68.681   5.644   8.813  1.00  0.00     0.079 C 
HETATM    7  C   UNL     1      69.589   3.580  10.080  1.00  0.00     0.010 A 
HETATM    8  C   UNL     1      68.485   1.481   9.536  1.00  0.00     0.012 A 
HETATM    9  C   UNL     1      66.259   6.375   8.560  1.00  0.00     0.046 C 
HETATM   10  C   UNL     1      67.736   6.256   6.532  1.00  0.00     0.046 C 
HETATM   11  C   UNL     1      69.456   2.201  10.252  1.00  0.00     0.001 A 
ENDROOT
BRANCH   5  12
HETATM   12  C   UNL     1      66.579   1.366   7.878  1.00  0.00     0.205 C 
BRANCH  12  13
HETATM   13  O   UNL     1      65.332   2.048   7.937  1.00  0.00    -0.396 OA
HETATM   14  H   UNL     1      64.650   1.514   7.501  1.00  0.00     0.209 HD
ENDBRANCH  12  13
ENDBRANCH   5  12
TORSDOF 2
ENDMDL
MODEL 9
REMARK VINA RESULT:      -4.4      7.248      8.811
REMARK  2 active torsions:
REMARK  status: ('A' for Active; 'I' for Inactive)
REMARK    1  A    between atoms: C_5  and  C_8 
REMARK    2  A    between atoms: C_8  and  O_9 
ROOT
HETATM    1  C   UNL     1      68.672   2.839   7.935  1.00  0.00     0.084 A 
HETATM    2  O   UNL     1      68.533   1.646   7.279  1.00  0.00    -0.340 OA
HETATM    3  C   UNL     1      68.325   3.941   7.167  1.00  0.00    -0.021 A 
HETATM    4  C   UNL     1      67.944   1.972   5.989  1.00  0.00     0.064 C 
HETATM    5  C   UNL     1      69.123   2.957   9.239  1.00  0.00    -0.001 A 
HETATM    6  C   UNL     1      67.918   3.507   5.812  1.00  0.00     0.079 C 
HETATM    7  C   UNL     1      68.410   5.223   7.684  1.00  0.00     0.010 A 
HETATM    8  C   UNL     1      69.206   4.256   9.771  1.00  0.00     0.012 A 
HETATM    9  C   UNL     1      66.530   1.383   5.970  1.00  0.00     0.046 C 
HETATM   10  C   UNL     1      68.813   1.297   4.926  1.00  0.00     0.046 C 
HETATM   11  C   UNL     1      68.850   5.376   9.000  1.00  0.00     0.001 A 
ENDROOT
BRANCH   5  12
HETATM   12  C   UNL     1      69.490   1.760  10.063  1.00  0.00     0.205 C 
BRANCH  12  13
HETATM   13  O   UNL     1      69.842   2.161  11.382  1.00  0.00    -0.396 OA
HETATM   14  H   UNL     1      70.532   2.840  11.340  1.00  0.00     0.209 HD
ENDBRANCH  12  13
ENDBRANCH   5  12
TORSDOF 2
ENDMDL
