MODEL 1
REMARK VINA RESULT:      -5.5      0.000      0.000
REMARK  1 active torsions:
REMARK  status: ('A' for Active; 'I' for Inactive)
REMARK    1  A    between atoms: C_1  and  C_4 
ROOT
HETATM    1  C   UNL     1      71.392  21.895  11.844  1.00  0.00     0.076 A 
HETATM    2  C   UNL     1      70.066  22.200  12.085  1.00  0.00     0.162 A 
HETATM    3  C   UNL     1      72.129  22.527  12.893  1.00  0.00     0.017 A 
HETATM    4  O   UNL     1      69.934  22.967  13.197  1.00  0.00    -0.321 OA
HETATM    5  C   UNL     1      71.185  23.167  13.690  1.00  0.00     0.086 A 
HETATM    6  C   UNL     1      73.485  22.630  13.259  1.00  0.00     0.015 A 
HETATM    7  C   UNL     1      71.491  23.907  14.829  1.00  0.00     0.038 A 
HETATM    8  C   UNL     1      73.826  23.372  14.401  1.00  0.00     0.001 A 
HETATM    9  C   UNL     1      72.843  23.998  15.172  1.00  0.00     0.003 A 
ENDROOT
BRANCH   1  10
HETATM   10  C   UNL     1      71.882  21.100  10.745  1.00  0.00     0.212 C 
HETATM   11  O   UNL     1      73.006  21.154  10.269  1.00  0.00    -0.644 OA
HETATM   12  O   UNL     1      70.975  20.234  10.236  1.00  0.00    -0.644 OA
ENDBRANCH   1  10
TORSDOF 1
ENDMDL
MODEL 2
REMARK VINA RESULT:      -5.5     17.562     18.846
REMARK  1 active torsions:
REMARK  status: ('A' for Active; 'I' for Inactive)
REMARK    1  A    between atoms: C_1  and  C_4 
ROOT
HETATM    1  C   UNL     1      63.153   8.094   4.520  1.00  0.00     0.076 A 
HETATM    2  C   UNL     1      63.277   7.163   3.506  1.00  0.00     0.162 A 
HETATM    3  C   UNL     1      62.663   9.281   3.894  1.00  0.00     0.017 A 
HETATM    4  O   UNL     1      62.900   7.686   2.312  1.00  0.00    -0.321 OA
HETATM    5  C   UNL     1      62.527   8.973   2.544  1.00  0.00     0.086 A 
HETATM    6  C   UNL     1      62.319  10.581   4.314  1.00  0.00     0.015 A 
HETATM    7  C   UNL     1      62.073   9.864   1.576  1.00  0.00     0.038 A 
HETATM    8  C   UNL     1      61.860  11.504   3.362  1.00  0.00     0.001 A 
HETATM    9  C   UNL     1      61.739  11.149   2.016  1.00  0.00     0.003 A 
ENDROOT
BRANCH   1  10
HETATM   10  C   UNL     1      63.470   7.867   5.909  1.00  0.00     0.212 C 
HETATM   11  O   UNL     1      62.662   7.657   6.801  1.00  0.00    -0.644 OA
HETATM   12  O   UNL     1      64.793   7.900   6.191  1.00  0.00    -0.644 OA
ENDBRANCH   1  10
TORSDOF 1
ENDMDL
MODEL 3
REMARK VINA RESULT:      -5.4     16.986     18.728
REMARK  1 active torsions:
REMARK  status: ('A' for Active; 'I' for Inactive)
REMARK    1  A    between atoms: C_1  and  C_4 
ROOT
HETATM    1  C   UNL     1      63.016   9.279   5.016  1.00  0.00     0.076 A 
HETATM    2  C   UNL     1      62.639  10.588   5.248  1.00  0.00     0.162 A 
HETATM    3  C   UNL     1      62.721   9.032   3.639  1.00  0.00     0.017 A 
HETATM    4  O   UNL     1      62.139  11.161   4.124  1.00  0.00    -0.321 OA
HETATM    5  C   UNL     1      62.187  10.218   3.145  1.00  0.00     0.086 A 
HETATM    6  C   UNL     1      62.845   7.943   2.755  1.00  0.00     0.015 A 
HETATM    7  C   UNL     1      61.764  10.402   1.832  1.00  0.00     0.038 A 
HETATM    8  C   UNL     1      62.424   8.096   1.425  1.00  0.00     0.001 A 
HETATM    9  C   UNL     1      61.894   9.307   0.973  1.00  0.00     0.003 A 
ENDROOT
BRANCH   1  10
HETATM   10  C   UNL     1      63.583   8.384   5.994  1.00  0.00     0.212 C 
HETATM   11  O   UNL     1      62.956   7.728   6.812  1.00  0.00    -0.644 OA
HETATM   12  O   UNL     1      64.934   8.303   5.958  1.00  0.00    -0.644 OA
ENDBRANCH   1  10
TORSDOF 1
ENDMDL
MODEL 4
REMARK VINA RESULT:      -5.3      1.726      2.732
REMARK  1 active torsions:
REMARK  status: ('A' for Active; 'I' for Inactive)
REMARK    1  A    between atoms: C_1  and  C_4 
ROOT
HETATM    1  C   UNL     1      71.936  22.600  12.824  1.00  0.00     0.076 A 
HETATM    2  C   UNL     1      73.254  22.985  12.976  1.00  0.00     0.162 A 
HETATM    3  C   UNL     1      71.179  23.486  13.650  1.00  0.00     0.017 A 
HETATM    4  O   UNL     1      73.363  24.036  13.828  1.00  0.00    -0.321 OA
HETATM    5  C   UNL     1      72.104  24.343  14.239  1.00  0.00     0.086 A 
HETATM    6  C   UNL     1      69.818  23.663  13.967  1.00  0.00     0.015 A 
HETATM    7  C   UNL     1      71.775  25.365  15.124  1.00  0.00     0.038 A 
HETATM    8  C   UNL     1      69.454  24.683  14.858  1.00  0.00     0.001 A 
HETATM    9  C   UNL     1      70.419  25.521  15.426  1.00  0.00     0.003 A 
ENDROOT
BRANCH   1  10
HETATM   10  C   UNL     1      71.471  21.517  11.992  1.00  0.00     0.212 C 
HETATM   11  O   UNL     1      71.653  20.327  12.200  1.00  0.00    -0.644 OA
HETATM   12  O   UNL     1      70.776  21.913  10.900  1.00  0.00    -0.644 OA
ENDBRANCH   1  10
TORSDOF 1
ENDMDL
MODEL 5
REMARK VINA RESULT:      -5.2     17.634     19.748
REMARK  1 active torsions:
REMARK  status: ('A' for Active; 'I' for Inactive)
REMARK    1  A    between atoms: C_1  and  C_4 
ROOT
HETATM    1  C   UNL     1      62.251   9.974   3.199  1.00  0.00     0.076 A 
HETATM    2  C   UNL     1      62.534   9.277   4.358  1.00  0.00     0.162 A 
HETATM    3  C   UNL     1      62.334   9.014   2.143  1.00  0.00     0.017 A 
HETATM    4  O   UNL     1      62.781   7.969   4.096  1.00  0.00    -0.321 OA
HETATM    5  C   UNL     1      62.661   7.806   2.751  1.00  0.00     0.086 A 
HETATM    6  C   UNL     1      62.170   9.029   0.745  1.00  0.00     0.015 A 
HETATM    7  C   UNL     1      62.839   6.606   2.069  1.00  0.00     0.038 A 
HETATM    8  C   UNL     1      62.345   7.835   0.028  1.00  0.00     0.001 A 
HETATM    9  C   UNL     1      62.673   6.644   0.681  1.00  0.00     0.003 A 
ENDROOT
BRANCH   1  10
HETATM   10  C   UNL     1      61.945  11.382   3.121  1.00  0.00     0.212 C 
HETATM   11  O   UNL     1      61.825  12.031   2.093  1.00  0.00    -0.644 OA
HETATM   12  O   UNL     1      61.785  11.984   4.322  1.00  0.00    -0.644 OA
ENDBRANCH   1  10
TORSDOF 1
ENDMDL
MODEL 6
REMARK VINA RESULT:      -5.1     16.513     18.442
REMARK  1 active torsions:
REMARK  status: ('A' for Active; 'I' for Inactive)
REMARK    1  A    between atoms: C_1  and  C_4 
ROOT
HETATM    1  C   UNL     1      62.659   9.824   4.318  1.00  0.00     0.076 A 
HETATM    2  C   UNL     1      61.715   9.459   3.378  1.00  0.00     0.162 A 
HETATM    3  C   UNL     1      63.643   8.788   4.296  1.00  0.00     0.017 A 
HETATM    4  O   UNL     1      62.042   8.284   2.783  1.00  0.00    -0.321 OA
HETATM    5  C   UNL     1      63.214   7.874   3.340  1.00  0.00     0.086 A 
HETATM    6  C   UNL     1      64.847   8.519   4.976  1.00  0.00     0.015 A 
HETATM    7  C   UNL     1      63.895   6.706   3.008  1.00  0.00     0.038 A 
HETATM    8  C   UNL     1      65.556   7.348   4.666  1.00  0.00     0.001 A 
HETATM    9  C   UNL     1      65.086   6.458   3.697  1.00  0.00     0.003 A 
ENDROOT
BRANCH   1  10
HETATM   10  C   UNL     1      62.616  11.015   5.130  1.00  0.00     0.212 C 
HETATM   11  O   UNL     1      63.117  11.144   6.237  1.00  0.00    -0.644 OA
HETATM   12  O   UNL     1      61.949  12.049   4.567  1.00  0.00    -0.644 OA
ENDBRANCH   1  10
TORSDOF 1
ENDMDL
MODEL 7
REMARK VINA RESULT:      -4.9     16.929     18.462
REMARK  1 active torsions:
REMARK  status: ('A' for Active; 'I' for Inactive)
REMARK    1  A    between atoms: C_1  and  C_4 
ROOT
HETATM    1  C   UNL     1      66.868   6.325   6.563  1.00  0.00     0.076 A 
HETATM    2  C   UNL     1      66.929   5.592   5.393  1.00  0.00     0.162 A 
HETATM    3  C   UNL     1      67.669   5.610   7.506  1.00  0.00     0.017 A 
HETATM    4  O   UNL     1      67.703   4.489   5.545  1.00  0.00    -0.321 OA
HETATM    5  C   UNL     1      68.155   4.496   6.828  1.00  0.00     0.086 A 
HETATM    6  C   UNL     1      68.040   5.777   8.855  1.00  0.00     0.015 A 
HETATM    7  C   UNL     1      68.983   3.531   7.393  1.00  0.00     0.038 A 
HETATM    8  C   UNL     1      68.873   4.820   9.454  1.00  0.00     0.001 A 
HETATM    9  C   UNL     1      69.336   3.716   8.733  1.00  0.00     0.003 A 
ENDROOT
BRANCH   1  10
HETATM   10  C   UNL     1      66.132   7.551   6.747  1.00  0.00     0.212 C 
HETATM   11  O   UNL     1      66.592   8.680   6.667  1.00  0.00    -0.644 OA
HETATM   12  O   UNL     1      64.820   7.377   7.029  1.00  0.00    -0.644 OA
ENDBRANCH   1  10
TORSDOF 1
ENDMDL
MODEL 8
REMARK VINA RESULT:      -4.8     16.602     18.445
REMARK  1 active torsions:
REMARK  status: ('A' for Active; 'I' for Inactive)
REMARK    1  A    between atoms: C_1  and  C_4 
ROOT
HETATM    1  C   UNL     1      62.998   9.388   4.440  1.00  0.00     0.076 A 
HETATM    2  C   UNL     1      63.629  10.125   5.424  1.00  0.00     0.162 A 
HETATM    3  C   UNL     1      63.871   8.291   4.163  1.00  0.00     0.017 A 
HETATM    4  O   UNL     1      64.815   9.566   5.771  1.00  0.00    -0.321 OA
HETATM    5  C   UNL     1      64.966   8.452   5.007  1.00  0.00     0.086 A 
HETATM    6  C   UNL     1      63.861   7.181   3.296  1.00  0.00     0.015 A 
HETATM    7  C   UNL     1      66.056   7.588   5.052  1.00  0.00     0.038 A 
HETATM    8  C   UNL     1      64.947   6.293   3.316  1.00  0.00     0.001 A 
HETATM    9  C   UNL     1      66.026   6.495   4.182  1.00  0.00     0.003 A 
ENDROOT
BRANCH   1  10
HETATM   10  C   UNL     1      61.723   9.703   3.844  1.00  0.00     0.212 C 
HETATM   11  O   UNL     1      60.861   8.895   3.531  1.00  0.00    -0.644 OA
HETATM   12  O   UNL     1      61.516  11.024   3.637  1.00  0.00    -0.644 OA
ENDBRANCH   1  10
TORSDOF 1
ENDMDL
MODEL 9
REMARK VINA RESULT:      -4.8     17.086     19.577
REMARK  1 active torsions:
REMARK  status: ('A' for Active; 'I' for Inactive)
REMARK    1  A    between atoms: C_1  and  C_4 
ROOT
HETATM    1  C   UNL     1      63.811   8.238   4.171  1.00  0.00     0.076 A 
HETATM    2  C   UNL     1      64.336   6.973   3.986  1.00  0.00     0.162 A 
HETATM    3  C   UNL     1      62.987   8.482   3.029  1.00  0.00     0.017 A 
HETATM    4  O   UNL     1      63.898   6.425   2.824  1.00  0.00    -0.321 OA
HETATM    5  C   UNL     1      63.078   7.340   2.240  1.00  0.00     0.086 A 
HETATM    6  C   UNL     1      62.174   9.539   2.572  1.00  0.00     0.015 A 
HETATM    7  C   UNL     1      62.421   7.168   1.025  1.00  0.00     0.038 A 
HETATM    8  C   UNL     1      61.500   9.397   1.350  1.00  0.00     0.001 A 
HETATM    9  C   UNL     1      61.622   8.230   0.591  1.00  0.00     0.003 A 
ENDROOT
BRANCH   1  10
HETATM   10  C   UNL     1      64.072   9.097   5.299  1.00  0.00     0.212 C 
HETATM   11  O   UNL     1      65.176   9.396   5.729  1.00  0.00    -0.644 OA
HETATM   12  O   UNL     1      62.960   9.586   5.896  1.00  0.00    -0.644 OA
ENDBRANCH   1  10
TORSDOF 1
ENDMDL
