MODEL 1
REMARK VINA RESULT:      -6.1      0.000      0.000
REMARK  1 active torsions:
REMARK  status: ('A' for Active; 'I' for Inactive)
REMARK    1  A    between atoms: C_2  and  C_4 
ROOT
HETATM    1  C   UNL     1      62.886   8.883   3.217  1.00  0.00     0.093 A 
HETATM    2  C   UNL     1      62.142   9.796   2.481  1.00  0.00     0.074 A 
HETATM    3  O   UNL     1      63.453   9.115   4.443  1.00  0.00    -0.339 OA
HETATM    4  C   UNL     1      63.136   7.603   2.740  1.00  0.00    -0.021 A 
HETATM    5  C   UNL     1      64.034   7.854   4.870  1.00  0.00     0.064 C 
HETATM    6  C   UNL     1      63.980   6.852   3.698  1.00  0.00     0.079 C 
HETATM    7  C   UNL     1      61.645   9.377   1.236  1.00  0.00     0.021 A 
HETATM    8  C   UNL     1      62.654   7.184   1.510  1.00  0.00     0.010 A 
HETATM    9  C   UNL     1      61.899   8.082   0.756  1.00  0.00     0.002 A 
HETATM   10  C   UNL     1      63.225   7.354   6.072  1.00  0.00     0.046 C 
HETATM   11  C   UNL     1      65.477   8.137   5.293  1.00  0.00     0.046 C 
ENDROOT
BRANCH   2  12
HETATM   12  C   UNL     1      61.882  11.164   2.995  1.00  0.00     0.212 C 
HETATM   13  O   UNL     1      61.660  11.508   4.141  1.00  0.00    -0.644 OA
HETATM   14  O   UNL     1      61.909  12.086   2.010  1.00  0.00    -0.644 OA
ENDBRANCH   2  12
TORSDOF 1
ENDMDL
MODEL 2
REMARK VINA RESULT:      -5.9      1.442      1.832
REMARK  1 active torsions:
REMARK  status: ('A' for Active; 'I' for Inactive)
REMARK    1  A    between atoms: C_2  and  C_4 
ROOT
HETATM    1  C   UNL     1      63.721   8.875   4.568  1.00  0.00     0.093 A 
HETATM    2  C   UNL     1      62.788   9.872   4.310  1.00  0.00     0.074 A 
HETATM    3  O   UNL     1      64.611   8.863   5.610  1.00  0.00    -0.339 OA
HETATM    4  C   UNL     1      63.838   7.763   3.745  1.00  0.00    -0.021 A 
HETATM    5  C   UNL     1      65.303   7.587   5.542  1.00  0.00     0.064 C 
HETATM    6  C   UNL     1      64.928   6.881   4.222  1.00  0.00     0.079 C 
HETATM    7  C   UNL     1      61.961   9.713   3.185  1.00  0.00     0.021 A 
HETATM    8  C   UNL     1      63.030   7.602   2.631  1.00  0.00     0.010 A 
HETATM    9  C   UNL     1      62.082   8.587   2.354  1.00  0.00     0.002 A 
HETATM   10  C   UNL     1      64.875   6.762   6.761  1.00  0.00     0.046 C 
HETATM   11  C   UNL     1      66.804   7.879   5.608  1.00  0.00     0.046 C 
ENDROOT
BRANCH   2  12
HETATM   12  C   UNL     1      62.671  11.060   5.192  1.00  0.00     0.212 C 
HETATM   13  O   UNL     1      63.123  11.213   6.311  1.00  0.00    -0.644 OA
HETATM   14  O   UNL     1      61.960  12.050   4.612  1.00  0.00    -0.644 OA
ENDBRANCH   2  12
TORSDOF 1
ENDMDL
MODEL 3
REMARK VINA RESULT:      -5.7      2.105      3.729
REMARK  1 active torsions:
REMARK  status: ('A' for Active; 'I' for Inactive)
REMARK    1  A    between atoms: C_2  and  C_4 
ROOT
HETATM    1  C   UNL     1      62.490   8.804   3.087  1.00  0.00     0.093 A 
HETATM    2  C   UNL     1      62.725   9.554   4.232  1.00  0.00     0.074 A 
HETATM    3  O   UNL     1      62.737   7.464   2.944  1.00  0.00    -0.339 OA
HETATM    4  C   UNL     1      61.971   9.383   1.937  1.00  0.00    -0.021 A 
HETATM    5  C   UNL     1      62.239   7.094   1.630  1.00  0.00     0.064 C 
HETATM    6  C   UNL     1      61.856   8.374   0.859  1.00  0.00     0.079 C 
HETATM    7  C   UNL     1      62.413  10.924   4.188  1.00  0.00     0.021 A 
HETATM    8  C   UNL     1      61.667  10.734   1.883  1.00  0.00     0.010 A 
HETATM    9  C   UNL     1      61.889  11.507   3.023  1.00  0.00     0.002 A 
HETATM   10  C   UNL     1      61.027   6.178   1.833  1.00  0.00     0.046 C 
HETATM   11  C   UNL     1      63.358   6.330   0.918  1.00  0.00     0.046 C 
ENDROOT
BRANCH   2  12
HETATM   12  C   UNL     1      63.283   8.929   5.458  1.00  0.00     0.212 C 
HETATM   13  O   UNL     1      62.716   8.215   6.263  1.00  0.00    -0.644 OA
HETATM   14  O   UNL     1      64.585   9.240   5.633  1.00  0.00    -0.644 OA
ENDBRANCH   2  12
TORSDOF 1
ENDMDL
MODEL 4
REMARK VINA RESULT:      -5.3      1.721      3.716
REMARK  1 active torsions:
REMARK  status: ('A' for Active; 'I' for Inactive)
REMARK    1  A    between atoms: C_2  and  C_4 
ROOT
HETATM    1  C   UNL     1      62.488   8.723   3.820  1.00  0.00     0.093 A 
HETATM    2  C   UNL     1      63.229   9.517   4.686  1.00  0.00     0.074 A 
HETATM    3  O   UNL     1      61.263   9.041   3.294  1.00  0.00    -0.339 OA
HETATM    4  C   UNL     1      62.947   7.479   3.406  1.00  0.00    -0.021 A 
HETATM    5  C   UNL     1      60.927   7.973   2.366  1.00  0.00     0.064 C 
HETATM    6  C   UNL     1      61.953   6.831   2.521  1.00  0.00     0.079 C 
HETATM    7  C   UNL     1      64.467   9.018   5.127  1.00  0.00     0.021 A 
HETATM    8  C   UNL     1      64.164   6.979   3.841  1.00  0.00     0.010 A 
HETATM    9  C   UNL     1      64.929   7.760   4.707  1.00  0.00     0.002 A 
HETATM   10  C   UNL     1      60.953   8.562   0.952  1.00  0.00     0.046 C 
HETATM   11  C   UNL     1      59.513   7.500   2.710  1.00  0.00     0.046 C 
ENDROOT
BRANCH   2  12
HETATM   12  C   UNL     1      62.731  10.843   5.127  1.00  0.00     0.212 C 
HETATM   13  O   UNL     1      62.063  11.643   4.498  1.00  0.00    -0.644 OA
HETATM   14  O   UNL     1      63.106  11.128   6.391  1.00  0.00    -0.644 OA
ENDBRANCH   2  12
TORSDOF 1
ENDMDL
MODEL 5
REMARK VINA RESULT:      -5.2      1.871      3.087
REMARK  1 active torsions:
REMARK  status: ('A' for Active; 'I' for Inactive)
REMARK    1  A    between atoms: C_2  and  C_4 
ROOT
HETATM    1  C   UNL     1      62.875   8.647   3.442  1.00  0.00     0.093 A 
HETATM    2  C   UNL     1      62.192   9.484   2.570  1.00  0.00     0.074 A 
HETATM    3  O   UNL     1      63.262   7.360   3.178  1.00  0.00    -0.339 OA
HETATM    4  C   UNL     1      63.229   9.066   4.718  1.00  0.00    -0.021 A 
HETATM    5  C   UNL     1      64.034   6.920   4.328  1.00  0.00     0.064 C 
HETATM    6  C   UNL     1      63.911   7.973   5.449  1.00  0.00     0.079 C 
HETATM    7  C   UNL     1      61.873  10.776   3.023  1.00  0.00     0.021 A 
HETATM    8  C   UNL     1      62.913  10.336   5.174  1.00  0.00     0.010 A 
HETATM    9  C   UNL     1      62.232  11.197   4.314  1.00  0.00     0.002 A 
HETATM   10  C   UNL     1      65.488   6.752   3.874  1.00  0.00     0.046 C 
HETATM   11  C   UNL     1      63.465   5.570   4.770  1.00  0.00     0.046 C 
ENDROOT
BRANCH   2  12
HETATM   12  C   UNL     1      61.813   9.029   1.208  1.00  0.00     0.212 C 
HETATM   13  O   UNL     1      62.524   8.921   0.227  1.00  0.00    -0.644 OA
HETATM   14  O   UNL     1      60.504   8.715   1.128  1.00  0.00    -0.644 OA
ENDBRANCH   2  12
TORSDOF 1
ENDMDL
MODEL 6
REMARK VINA RESULT:      -5.0      9.107     10.804
REMARK  1 active torsions:
REMARK  status: ('A' for Active; 'I' for Inactive)
REMARK    1  A    between atoms: C_2  and  C_4 
ROOT
HETATM    1  C   UNL     1      68.741   2.608   8.117  1.00  0.00     0.093 A 
HETATM    2  C   UNL     1      69.081   2.883   9.436  1.00  0.00     0.074 A 
HETATM    3  O   UNL     1      68.655   1.361   7.556  1.00  0.00    -0.339 OA
HETATM    4  C   UNL     1      68.458   3.626   7.216  1.00  0.00    -0.021 A 
HETATM    5  C   UNL     1      68.167   1.555   6.201  1.00  0.00     0.064 C 
HETATM    6  C   UNL     1      68.165   3.064   5.878  1.00  0.00     0.079 C 
HETATM    7  C   UNL     1      69.124   4.231   9.829  1.00  0.00     0.021 A 
HETATM    8  C   UNL     1      68.504   4.958   7.595  1.00  0.00     0.010 A 
HETATM    9  C   UNL     1      68.837   5.259   8.916  1.00  0.00     0.002 A 
HETATM   10  C   UNL     1      66.755   0.964   6.128  1.00  0.00     0.046 C 
HETATM   11  C   UNL     1      69.104   0.788   5.265  1.00  0.00     0.046 C 
ENDROOT
BRANCH   2  12
HETATM   12  C   UNL     1      69.386   1.790  10.393  1.00  0.00     0.212 C 
HETATM   13  O   UNL     1      70.468   1.297  10.651  1.00  0.00    -0.644 OA
HETATM   14  O   UNL     1      68.276   1.337  11.012  1.00  0.00    -0.644 OA
ENDBRANCH   2  12
TORSDOF 1
ENDMDL
MODEL 7
REMARK VINA RESULT:      -4.9      5.198      6.816
REMARK  1 active torsions:
REMARK  status: ('A' for Active; 'I' for Inactive)
REMARK    1  A    between atoms: C_2  and  C_4 
ROOT
HETATM    1  C   UNL     1      67.849   5.594   6.453  1.00  0.00     0.093 A 
HETATM    2  C   UNL     1      67.176   6.357   5.508  1.00  0.00     0.074 A 
HETATM    3  O   UNL     1      68.505   6.080   7.554  1.00  0.00    -0.339 OA
HETATM    4  C   UNL     1      67.924   4.211   6.346  1.00  0.00    -0.021 A 
HETATM    5  C   UNL     1      68.959   4.921   8.304  1.00  0.00     0.064 C 
HETATM    6  C   UNL     1      68.727   3.651   7.458  1.00  0.00     0.079 C 
HETATM    7  C   UNL     1      66.567   5.679   4.438  1.00  0.00     0.021 A 
HETATM    8  C   UNL     1      67.331   3.536   5.292  1.00  0.00     0.010 A 
HETATM    9  C   UNL     1      66.644   4.281   4.333  1.00  0.00     0.002 A 
HETATM   10  C   UNL     1      68.164   4.875   9.614  1.00  0.00     0.046 C 
HETATM   11  C   UNL     1      70.446   5.125   8.602  1.00  0.00     0.046 C 
ENDROOT
BRANCH   2  12
HETATM   12  C   UNL     1      67.103   7.835   5.626  1.00  0.00     0.212 C 
HETATM   13  O   UNL     1      66.351   8.498   6.315  1.00  0.00    -0.644 OA
HETATM   14  O   UNL     1      68.014   8.449   4.841  1.00  0.00    -0.644 OA
ENDBRANCH   2  12
TORSDOF 1
ENDMDL
MODEL 8
REMARK VINA RESULT:      -4.9      5.903      7.615
REMARK  1 active torsions:
REMARK  status: ('A' for Active; 'I' for Inactive)
REMARK    1  A    between atoms: C_2  and  C_4 
ROOT
HETATM    1  C   UNL     1      67.208   4.918   6.712  1.00  0.00     0.093 A 
HETATM    2  C   UNL     1      67.114   5.993   7.587  1.00  0.00     0.074 A 
HETATM    3  O   UNL     1      66.393   4.691   5.634  1.00  0.00    -0.339 OA
HETATM    4  C   UNL     1      68.175   3.935   6.875  1.00  0.00    -0.021 A 
HETATM    5  C   UNL     1      66.928   3.522   4.956  1.00  0.00     0.064 C 
HETATM    6  C   UNL     1      68.030   2.891   5.835  1.00  0.00     0.079 C 
HETATM    7  C   UNL     1      68.039   6.054   8.644  1.00  0.00     0.021 A 
HETATM    8  C   UNL     1      69.087   3.985   7.918  1.00  0.00     0.010 A 
HETATM    9  C   UNL     1      69.016   5.058   8.806  1.00  0.00     0.002 A 
HETATM   10  C   UNL     1      67.485   3.983   3.605  1.00  0.00     0.046 C 
HETATM   11  C   UNL     1      65.767   2.550   4.740  1.00  0.00     0.046 C 
ENDROOT
BRANCH   2  12
HETATM   12  C   UNL     1      66.075   7.038   7.410  1.00  0.00     0.212 C 
HETATM   13  O   UNL     1      64.873   6.936   7.563  1.00  0.00    -0.644 OA
HETATM   14  O   UNL     1      66.608   8.219   7.031  1.00  0.00    -0.644 OA
ENDBRANCH   2  12
TORSDOF 1
ENDMDL
MODEL 9
REMARK VINA RESULT:      -4.8      7.438      9.932
REMARK  1 active torsions:
REMARK  status: ('A' for Active; 'I' for Inactive)
REMARK    1  A    between atoms: C_2  and  C_4 
ROOT
HETATM    1  C   UNL     1      68.002   3.194   8.904  1.00  0.00     0.093 A 
HETATM    2  C   UNL     1      67.703   4.248   8.050  1.00  0.00     0.074 A 
HETATM    3  O   UNL     1      67.196   2.115   9.156  1.00  0.00    -0.339 OA
HETATM    4  C   UNL     1      69.195   3.154   9.614  1.00  0.00    -0.021 A 
HETATM    5  C   UNL     1      67.959   1.226  10.016  1.00  0.00     0.064 C 
HETATM    6  C   UNL     1      69.244   1.949  10.473  1.00  0.00     0.079 C 
HETATM    7  C   UNL     1      68.656   5.273   7.925  1.00  0.00     0.021 A 
HETATM    8  C   UNL     1      70.137   4.164   9.499  1.00  0.00     0.010 A 
HETATM    9  C   UNL     1      69.862   5.230   8.643  1.00  0.00     0.002 A 
HETATM   10  C   UNL     1      68.283  -0.036   9.210  1.00  0.00     0.046 C 
HETATM   11  C   UNL     1      67.068   0.871  11.208  1.00  0.00     0.046 C 
ENDROOT
BRANCH   2  12
HETATM   12  C   UNL     1      66.424   4.286   7.298  1.00  0.00     0.212 C 
HETATM   13  O   UNL     1      66.234   4.024   6.125  1.00  0.00    -0.644 OA
HETATM   14  O   UNL     1      65.392   4.670   8.077  1.00  0.00    -0.644 OA
ENDBRANCH   2  12
TORSDOF 1
ENDMDL
