MODEL 1
REMARK VINA RESULT:      -5.7      0.000      0.000
REMARK  2 active torsions:
REMARK  status: ('A' for Active; 'I' for Inactive)
REMARK    1  A    between atoms: C_9  and  C_13 
REMARK    2  A    between atoms: O_12  and  C_13 
ROOT
HETATM    1  N   UNL     1      63.043   7.197   2.042  1.00  0.00    -0.359 N 
ATOM      2  HN  UNL     1      63.579   6.345   2.207  1.00  0.00     0.166 HD
HETATM    3  C   UNL     1      63.023   8.182   2.955  1.00  0.00     0.042 A 
HETATM    4  C   UNL     1      62.299   9.375   2.768  1.00  0.00    -0.009 A 
HETATM    5  C   UNL     1      62.307  10.375   3.760  1.00  0.00     0.023 A 
HETATM    6  C   UNL     1      63.738   8.033   4.136  1.00  0.00     0.031 A 
HETATM    7  C   UNL     1      62.336   7.357   0.897  1.00  0.00     0.005 A 
HETATM    8  C   UNL     1      61.584   9.522   1.573  1.00  0.00     0.015 A 
HETATM    9  C   UNL     1      63.029  10.203   4.949  1.00  0.00    -0.034 A 
HETATM   10  C   UNL     1      61.600   8.503   0.626  1.00  0.00     0.025 A 
HETATM   11  C   UNL     1      63.749   9.020   5.126  1.00  0.00     0.011 A 
HETATM   12  C   UNL     1      62.380   6.221  -0.079  1.00  0.00     0.068 C 
ENDROOT
BRANCH   9  13
HETATM   13  C   UNL     1      63.007  11.263   6.016  1.00  0.00     0.202 C 
BRANCH  13  14
HETATM   14  O   UNL     1      64.327  11.553   6.454  1.00  0.00    -0.396 OA
HETATM   15  H   UNL     1      64.648  10.828   7.013  1.00  0.00     0.209 HD
ENDBRANCH  13  14
ENDBRANCH   9  13
TORSDOF 2
ENDMDL
MODEL 2
REMARK VINA RESULT:      -5.7      0.996      1.992
REMARK  2 active torsions:
REMARK  status: ('A' for Active; 'I' for Inactive)
REMARK    1  A    between atoms: C_9  and  C_13 
REMARK    2  A    between atoms: O_12  and  C_13 
ROOT
HETATM    1  N   UNL     1      61.975   8.902   1.128  1.00  0.00    -0.359 N 
ATOM      2  HN  UNL     1      61.494   9.443   0.411  1.00  0.00     0.166 HD
HETATM    3  C   UNL     1      62.223   9.434   2.337  1.00  0.00     0.042 A 
HETATM    4  C   UNL     1      62.881   8.723   3.359  1.00  0.00    -0.009 A 
HETATM    5  C   UNL     1      63.121   9.330   4.607  1.00  0.00     0.023 A 
HETATM    6  C   UNL     1      61.820  10.736   2.605  1.00  0.00     0.031 A 
HETATM    7  C   UNL     1      62.379   7.632   0.882  1.00  0.00     0.005 A 
HETATM    8  C   UNL     1      63.280   7.410   3.084  1.00  0.00     0.015 A 
HETATM    9  C   UNL     1      62.713  10.647   4.856  1.00  0.00    -0.034 A 
HETATM   10  C   UNL     1      63.028   6.856   1.833  1.00  0.00     0.025 A 
HETATM   11  C   UNL     1      62.056  11.346   3.841  1.00  0.00     0.011 A 
HETATM   12  C   UNL     1      62.092   7.095  -0.487  1.00  0.00     0.068 C 
ENDROOT
BRANCH   9  13
HETATM   13  C   UNL     1      63.001  11.297   6.183  1.00  0.00     0.202 C 
BRANCH  13  14
HETATM   14  O   UNL     1      64.401  11.467   6.357  1.00  0.00    -0.396 OA
HETATM   15  H   UNL     1      64.571  12.312   6.801  1.00  0.00     0.209 HD
ENDBRANCH  13  14
ENDBRANCH   9  13
TORSDOF 2
ENDMDL
MODEL 3
REMARK VINA RESULT:      -5.6      7.602      9.168
REMARK  2 active torsions:
REMARK  status: ('A' for Active; 'I' for Inactive)
REMARK    1  A    between atoms: C_9  and  C_13 
REMARK    2  A    between atoms: O_12  and  C_13 
ROOT
HETATM    1  N   UNL     1      68.075   6.461   7.071  1.00  0.00    -0.359 N 
ATOM      2  HN  UNL     1      68.188   7.368   7.522  1.00  0.00     0.166 HD
HETATM    3  C   UNL     1      68.384   5.327   7.724  1.00  0.00     0.042 A 
HETATM    4  C   UNL     1      68.241   4.053   7.141  1.00  0.00    -0.009 A 
HETATM    5  C   UNL     1      68.585   2.896   7.866  1.00  0.00     0.023 A 
HETATM    6  C   UNL     1      68.865   5.398   9.024  1.00  0.00     0.031 A 
HETATM    7  C   UNL     1      67.610   6.374   5.801  1.00  0.00     0.005 A 
HETATM    8  C   UNL     1      67.750   3.988   5.831  1.00  0.00     0.015 A 
HETATM    9  C   UNL     1      69.076   2.989   9.176  1.00  0.00    -0.034 A 
HETATM   10  C   UNL     1      67.431   5.159   5.151  1.00  0.00     0.025 A 
HETATM   11  C   UNL     1      69.211   4.254   9.750  1.00  0.00     0.011 A 
HETATM   12  C   UNL     1      67.297   7.668   5.116  1.00  0.00     0.068 C 
ENDROOT
BRANCH   9  13
HETATM   13  C   UNL     1      69.469   1.749   9.933  1.00  0.00     0.202 C 
BRANCH  13  14
HETATM   14  O   UNL     1      69.816   2.075  11.271  1.00  0.00    -0.396 OA
HETATM   15  H   UNL     1      70.599   1.567  11.535  1.00  0.00     0.209 HD
ENDBRANCH  13  14
ENDBRANCH   9  13
TORSDOF 2
ENDMDL
MODEL 4
REMARK VINA RESULT:      -5.4      5.877      7.452
REMARK  2 active torsions:
REMARK  status: ('A' for Active; 'I' for Inactive)
REMARK    1  A    between atoms: C_9  and  C_13 
REMARK    2  A    between atoms: O_12  and  C_13 
ROOT
HETATM    1  N   UNL     1      65.836   7.677   6.877  1.00  0.00    -0.359 N 
ATOM      2  HN  UNL     1      65.277   8.270   7.489  1.00  0.00     0.166 HD
HETATM    3  C   UNL     1      66.764   6.848   7.384  1.00  0.00     0.042 A 
HETATM    4  C   UNL     1      67.557   6.011   6.576  1.00  0.00    -0.009 A 
HETATM    5  C   UNL     1      68.520   5.165   7.158  1.00  0.00     0.023 A 
HETATM    6  C   UNL     1      66.963   6.806   8.758  1.00  0.00     0.031 A 
HETATM    7  C   UNL     1      65.658   7.709   5.533  1.00  0.00     0.005 A 
HETATM    8  C   UNL     1      67.348   6.054   5.192  1.00  0.00     0.015 A 
HETATM    9  C   UNL     1      68.711   5.141   8.547  1.00  0.00    -0.034 A 
HETATM   10  C   UNL     1      66.390   6.912   4.662  1.00  0.00     0.025 A 
HETATM   11  C   UNL     1      67.919   5.970   9.343  1.00  0.00     0.011 A 
HETATM   12  C   UNL     1      64.621   8.661   5.021  1.00  0.00     0.068 C 
ENDROOT
BRANCH   9  13
HETATM   13  C   UNL     1      69.764   4.256   9.158  1.00  0.00     0.202 C 
BRANCH  13  14
HETATM   14  O   UNL     1      69.329   3.768  10.419  1.00  0.00    -0.396 OA
HETATM   15  H   UNL     1      68.799   2.966  10.288  1.00  0.00     0.209 HD
ENDBRANCH  13  14
ENDBRANCH   9  13
TORSDOF 2
ENDMDL
MODEL 5
REMARK VINA RESULT:      -5.2      7.635      9.451
REMARK  2 active torsions:
REMARK  status: ('A' for Active; 'I' for Inactive)
REMARK    1  A    between atoms: C_9  and  C_13 
REMARK    2  A    between atoms: O_12  and  C_13 
ROOT
HETATM    1  N   UNL     1      67.407   5.564   6.571  1.00  0.00    -0.359 N 
ATOM      2  HN  UNL     1      67.297   5.366   5.577  1.00  0.00     0.166 HD
HETATM    3  C   UNL     1      67.990   4.670   7.388  1.00  0.00     0.042 A 
HETATM    4  C   UNL     1      68.165   4.902   8.765  1.00  0.00    -0.009 A 
HETATM    5  C   UNL     1      68.776   3.928   9.579  1.00  0.00     0.023 A 
HETATM    6  C   UNL     1      68.440   3.464   6.868  1.00  0.00     0.031 A 
HETATM    7  C   UNL     1      66.970   6.735   7.096  1.00  0.00     0.005 A 
HETATM    8  C   UNL     1      67.713   6.122   9.282  1.00  0.00     0.015 A 
HETATM    9  C   UNL     1      69.219   2.713   9.037  1.00  0.00    -0.034 A 
HETATM   10  C   UNL     1      67.108   7.050   8.441  1.00  0.00     0.025 A 
HETATM   11  C   UNL     1      69.046   2.491   7.669  1.00  0.00     0.011 A 
HETATM   12  C   UNL     1      66.315   7.688   6.144  1.00  0.00     0.068 C 
ENDROOT
BRANCH   9  13
HETATM   13  C   UNL     1      69.843   1.666   9.919  1.00  0.00     0.202 C 
BRANCH  13  14
HETATM   14  O   UNL     1      69.802   2.076  11.278  1.00  0.00    -0.396 OA
HETATM   15  H   UNL     1      69.684   3.038  11.322  1.00  0.00     0.209 HD
ENDBRANCH  13  14
ENDBRANCH   9  13
TORSDOF 2
ENDMDL
MODEL 6
REMARK VINA RESULT:      -5.1      2.904      5.016
REMARK  2 active torsions:
REMARK  status: ('A' for Active; 'I' for Inactive)
REMARK    1  A    between atoms: C_9  and  C_13 
REMARK    2  A    between atoms: O_12  and  C_13 
ROOT
HETATM    1  N   UNL     1      62.902   9.279   4.098  1.00  0.00    -0.359 N 
ATOM      2  HN  UNL     1      63.310   8.767   4.880  1.00  0.00     0.166 HD
HETATM    3  C   UNL     1      62.752   8.693   2.898  1.00  0.00     0.042 A 
HETATM    4  C   UNL     1      62.193   9.362   1.792  1.00  0.00    -0.009 A 
HETATM    5  C   UNL     1      62.063   8.703   0.554  1.00  0.00     0.023 A 
HETATM    6  C   UNL     1      63.161   7.378   2.725  1.00  0.00     0.031 A 
HETATM    7  C   UNL     1      62.502  10.565   4.249  1.00  0.00     0.005 A 
HETATM    8  C   UNL     1      61.778  10.687   1.974  1.00  0.00     0.015 A 
HETATM    9  C   UNL     1      62.488   7.377   0.397  1.00  0.00    -0.034 A 
HETATM   10  C   UNL     1      61.934  11.298   3.214  1.00  0.00     0.025 A 
HETATM   11  C   UNL     1      63.037   6.718   1.499  1.00  0.00     0.011 A 
HETATM   12  C   UNL     1      62.707  11.174   5.602  1.00  0.00     0.068 C 
ENDROOT
BRANCH   9  13
HETATM   13  C   UNL     1      62.374   6.691  -0.938  1.00  0.00     0.202 C 
BRANCH  13  14
HETATM   14  O   UNL     1      63.642   6.636  -1.575  1.00  0.00    -0.396 OA
HETATM   15  H   UNL     1      64.327   6.937  -0.958  1.00  0.00     0.209 HD
ENDBRANCH  13  14
ENDBRANCH   9  13
TORSDOF 2
ENDMDL
MODEL 7
REMARK VINA RESULT:      -5.0      6.708      8.658
REMARK  2 active torsions:
REMARK  status: ('A' for Active; 'I' for Inactive)
REMARK    1  A    between atoms: C_9  and  C_13 
REMARK    2  A    between atoms: O_12  and  C_13 
ROOT
HETATM    1  N   UNL     1      67.385   3.286   8.926  1.00  0.00    -0.359 N 
ATOM      2  HN  UNL     1      66.655   2.584   9.039  1.00  0.00     0.166 HD
HETATM    3  C   UNL     1      67.179   4.371   8.160  1.00  0.00     0.042 A 
HETATM    4  C   UNL     1      68.158   5.367   7.977  1.00  0.00    -0.009 A 
HETATM    5  C   UNL     1      67.893   6.483   7.159  1.00  0.00     0.023 A 
HETATM    6  C   UNL     1      65.959   4.530   7.516  1.00  0.00     0.031 A 
HETATM    7  C   UNL     1      68.583   3.144   9.544  1.00  0.00     0.005 A 
HETATM    8  C   UNL     1      69.383   5.204   8.633  1.00  0.00     0.015 A 
HETATM    9  C   UNL     1      66.657   6.622   6.511  1.00  0.00    -0.034 A 
HETATM   10  C   UNL     1      69.601   4.081   9.425  1.00  0.00     0.025 A 
HETATM   11  C   UNL     1      65.690   5.634   6.700  1.00  0.00     0.011 A 
HETATM   12  C   UNL     1      68.764   1.909  10.372  1.00  0.00     0.068 C 
ENDROOT
BRANCH   9  13
HETATM   13  C   UNL     1      66.395   7.802   5.615  1.00  0.00     0.202 C 
BRANCH  13  14
HETATM   14  O   UNL     1      66.034   8.939   6.386  1.00  0.00    -0.396 OA
HETATM   15  H   UNL     1      65.592   9.588   5.817  1.00  0.00     0.209 HD
ENDBRANCH  13  14
ENDBRANCH   9  13
TORSDOF 2
ENDMDL
MODEL 8
REMARK VINA RESULT:      -5.0     22.914     25.430
REMARK  2 active torsions:
REMARK  status: ('A' for Active; 'I' for Inactive)
REMARK    1  A    between atoms: C_9  and  C_13 
REMARK    2  A    between atoms: O_12  and  C_13 
ROOT
HETATM    1  N   UNL     1      79.036  13.283  23.324  1.00  0.00    -0.359 N 
ATOM      2  HN  UNL     1      78.258  13.742  23.797  1.00  0.00     0.166 HD
HETATM    3  C   UNL     1      78.834  12.578  22.198  1.00  0.00     0.042 A 
HETATM    4  C   UNL     1      79.878  11.929  21.512  1.00  0.00    -0.009 A 
HETATM    5  C   UNL     1      79.611  11.197  20.338  1.00  0.00     0.023 A 
HETATM    6  C   UNL     1      77.550  12.474  21.679  1.00  0.00     0.031 A 
HETATM    7  C   UNL     1      80.294  13.371  23.820  1.00  0.00     0.005 A 
HETATM    8  C   UNL     1      81.171  12.042  22.037  1.00  0.00     0.015 A 
HETATM    9  C   UNL     1      78.307  11.098  19.833  1.00  0.00    -0.034 A 
HETATM   10  C   UNL     1      81.384  12.769  23.204  1.00  0.00     0.025 A 
HETATM   11  C   UNL     1      77.277  11.748  20.516  1.00  0.00     0.011 A 
HETATM   12  C   UNL     1      80.459  14.155  25.085  1.00  0.00     0.068 C 
ENDROOT
BRANCH   9  13
HETATM   13  C   UNL     1      78.027  10.289  18.596  1.00  0.00     0.202 C 
BRANCH  13  14
HETATM   14  O   UNL     1      79.243   9.880  17.987  1.00  0.00    -0.396 OA
HETATM   15  H   UNL     1      79.991  10.278  18.460  1.00  0.00     0.209 HD
ENDBRANCH  13  14
ENDBRANCH   9  13
TORSDOF 2
ENDMDL
MODEL 9
REMARK VINA RESULT:      -4.7      2.712      4.363
REMARK  2 active torsions:
REMARK  status: ('A' for Active; 'I' for Inactive)
REMARK    1  A    between atoms: C_9  and  C_13 
REMARK    2  A    between atoms: O_12  and  C_13 
ROOT
HETATM    1  N   UNL     1      65.414   6.028   3.949  1.00  0.00    -0.359 N 
ATOM      2  HN  UNL     1      65.201   5.327   3.241  1.00  0.00     0.166 HD
HETATM    3  C   UNL     1      64.664   7.137   4.065  1.00  0.00     0.042 A 
HETATM    4  C   UNL     1      64.921   8.130   5.030  1.00  0.00    -0.009 A 
HETATM    5  C   UNL     1      64.107   9.277   5.104  1.00  0.00     0.023 A 
HETATM    6  C   UNL     1      63.590   7.327   3.205  1.00  0.00     0.031 A 
HETATM    7  C   UNL     1      66.461   5.860   4.794  1.00  0.00     0.005 A 
HETATM    8  C   UNL     1      66.001   7.930   5.897  1.00  0.00     0.015 A 
HETATM    9  C   UNL     1      63.032   9.454   4.222  1.00  0.00    -0.034 A 
HETATM   10  C   UNL     1      66.782   6.784   5.780  1.00  0.00     0.025 A 
HETATM   11  C   UNL     1      62.779   8.464   3.271  1.00  0.00     0.011 A 
HETATM   12  C   UNL     1      67.272   4.614   4.611  1.00  0.00     0.068 C 
ENDROOT
BRANCH   9  13
HETATM   13  C   UNL     1      62.186  10.697   4.289  1.00  0.00     0.202 C 
BRANCH  13  14
HETATM   14  O   UNL     1      61.099  10.606   3.379  1.00  0.00    -0.396 OA
HETATM   15  H   UNL     1      60.778   9.692   3.352  1.00  0.00     0.209 HD
ENDBRANCH  13  14
ENDBRANCH   9  13
TORSDOF 2
ENDMDL
