MODEL 1
REMARK VINA RESULT:      -5.1      0.000      0.000
REMARK  2 active torsions:
REMARK  status: ('A' for Active; 'I' for Inactive)
REMARK    1  A    between atoms: C_5  and  C_9 
REMARK    2  A    between atoms: O_7  and  C_9 
ROOT
HETATM    1  O   UNL     1      62.418  10.385   3.774  1.00  0.00    -0.340 OA
HETATM    2  N   UNL     1      63.296   7.666   4.392  1.00  0.00    -0.385 N 
HETATM    3  C   UNL     1      62.409   9.372   2.841  1.00  0.00     0.095 A 
HETATM    4  C   UNL     1      62.860   8.067   3.115  1.00  0.00     0.061 A 
HETATM    5  C   UNL     1      63.297  10.091   4.879  1.00  0.00     0.170 C 
HETATM    6  C   UNL     1      63.045   8.680   5.423  1.00  0.00     0.154 C 
HETATM    7  C   UNL     1      61.917   9.707   1.579  1.00  0.00     0.039 A 
HETATM    8  C   UNL     1      62.852   7.125   2.079  1.00  0.00     0.032 A 
HETATM    9  C   UNL     1      61.894   8.750   0.564  1.00  0.00     0.003 A 
HETATM   10  C   UNL     1      62.367   7.462   0.812  1.00  0.00     0.002 A 
HETATM   11  H   UNL     1      63.725   6.798   4.574  1.00  0.00     0.159 HD
ENDROOT
BRANCH   5  12
HETATM   12  C   UNL     1      63.059  11.152   5.960  1.00  0.00     0.198 C 
BRANCH  12  13
HETATM   13  O   UNL     1      64.278  11.641   6.516  1.00  0.00    -0.398 OA
HETATM   14  H   UNL     1      64.084  12.340   7.159  1.00  0.00     0.209 HD
ENDBRANCH  12  13
ENDBRANCH   5  12
TORSDOF 2
ENDMDL
MODEL 2
REMARK VINA RESULT:      -5.0      2.304      3.403
REMARK  2 active torsions:
REMARK  status: ('A' for Active; 'I' for Inactive)
REMARK    1  A    between atoms: C_5  and  C_9 
REMARK    2  A    between atoms: O_7  and  C_9 
ROOT
HETATM    1  O   UNL     1      64.964   9.127   5.907  1.00  0.00    -0.340 OA
HETATM    2  N   UNL     1      64.159   7.317   3.756  1.00  0.00    -0.385 N 
HETATM    3  C   UNL     1      63.928   9.412   5.046  1.00  0.00     0.095 A 
HETATM    4  C   UNL     1      63.551   8.566   3.985  1.00  0.00     0.061 A 
HETATM    5  C   UNL     1      65.852   8.126   5.367  1.00  0.00     0.170 C 
HETATM    6  C   UNL     1      65.067   6.921   4.839  1.00  0.00     0.154 C 
HETATM    7  C   UNL     1      63.249  10.609   5.278  1.00  0.00     0.039 A 
HETATM    8  C   UNL     1      62.513   8.976   3.139  1.00  0.00     0.032 A 
HETATM    9  C   UNL     1      62.203  10.992   4.440  1.00  0.00     0.003 A 
HETATM   10  C   UNL     1      61.838  10.179   3.367  1.00  0.00     0.002 A 
HETATM   11  H   UNL     1      63.993   6.769   2.955  1.00  0.00     0.159 HD
ENDROOT
BRANCH   5  12
HETATM   12  C   UNL     1      66.820   7.712   6.482  1.00  0.00     0.198 C 
BRANCH  12  13
HETATM   13  O   UNL     1      67.042   8.762   7.422  1.00  0.00    -0.398 OA
HETATM   14  H   UNL     1      67.968   9.046   7.379  1.00  0.00     0.209 HD
ENDBRANCH  12  13
ENDBRANCH   5  12
TORSDOF 2
ENDMDL
MODEL 3
REMARK VINA RESULT:      -5.0     18.932     20.456
REMARK  2 active torsions:
REMARK  status: ('A' for Active; 'I' for Inactive)
REMARK    1  A    between atoms: C_5  and  C_9 
REMARK    2  A    between atoms: O_7  and  C_9 
ROOT
HETATM    1  O   UNL     1      77.193   4.017  17.725  1.00  0.00    -0.340 OA
HETATM    2  N   UNL     1      74.411   3.645  16.906  1.00  0.00    -0.385 N 
HETATM    3  C   UNL     1      76.558   2.796  17.785  1.00  0.00     0.095 A 
HETATM    4  C   UNL     1      75.209   2.609  17.426  1.00  0.00     0.061 A 
HETATM    5  C   UNL     1      76.253   5.110  17.668  1.00  0.00     0.170 C 
HETATM    6  C   UNL     1      75.180   4.857  16.602  1.00  0.00     0.154 C 
HETATM    7  C   UNL     1      77.333   1.723  18.229  1.00  0.00     0.039 A 
HETATM    8  C   UNL     1      74.649   1.334  17.571  1.00  0.00     0.032 A 
HETATM    9  C   UNL     1      76.766   0.455  18.346  1.00  0.00     0.003 A 
HETATM   10  C   UNL     1      75.423   0.261  18.023  1.00  0.00     0.002 A 
HETATM   11  H   UNL     1      73.440   3.565  16.762  1.00  0.00     0.159 HD
ENDROOT
BRANCH   5  12
HETATM   12  C   UNL     1      77.043   6.389  17.367  1.00  0.00     0.198 C 
BRANCH  12  13
HETATM   13  O   UNL     1      76.712   7.451  18.260  1.00  0.00    -0.398 OA
HETATM   14  H   UNL     1      76.834   8.302  17.811  1.00  0.00     0.209 HD
ENDBRANCH  12  13
ENDBRANCH   5  12
TORSDOF 2
ENDMDL
MODEL 4
REMARK VINA RESULT:      -5.0      4.770      6.670
REMARK  2 active torsions:
REMARK  status: ('A' for Active; 'I' for Inactive)
REMARK    1  A    between atoms: C_5  and  C_9 
REMARK    2  A    between atoms: O_7  and  C_9 
ROOT
HETATM    1  O   UNL     1      64.836   7.105   7.506  1.00  0.00    -0.340 OA
HETATM    2  N   UNL     1      66.445   6.002   5.329  1.00  0.00    -0.385 N 
HETATM    3  C   UNL     1      66.084   6.560   7.709  1.00  0.00     0.095 A 
HETATM    4  C   UNL     1      66.856   5.994   6.675  1.00  0.00     0.061 A 
HETATM    5  C   UNL     1      64.253   6.669   6.261  1.00  0.00     0.170 C 
HETATM    6  C   UNL     1      65.248   6.821   5.104  1.00  0.00     0.154 C 
HETATM    7  C   UNL     1      66.563   6.594   9.019  1.00  0.00     0.039 A 
HETATM    8  C   UNL     1      68.092   5.423   6.999  1.00  0.00     0.032 A 
HETATM    9  C   UNL     1      67.807   6.040   9.321  1.00  0.00     0.003 A 
HETATM   10  C   UNL     1      68.569   5.450   8.313  1.00  0.00     0.002 A 
HETATM   11  H   UNL     1      66.911   5.510   4.614  1.00  0.00     0.159 HD
ENDROOT
BRANCH   5  12
HETATM   12  C   UNL     1      62.990   7.504   6.019  1.00  0.00     0.198 C 
BRANCH  12  13
HETATM   13  O   UNL     1      62.471   8.061   7.226  1.00  0.00    -0.398 OA
HETATM   14  H   UNL     1      63.007   7.761   7.977  1.00  0.00     0.209 HD
ENDBRANCH  12  13
ENDBRANCH   5  12
TORSDOF 2
ENDMDL
MODEL 5
REMARK VINA RESULT:      -4.8      6.876      8.578
REMARK  2 active torsions:
REMARK  status: ('A' for Active; 'I' for Inactive)
REMARK    1  A    between atoms: C_5  and  C_9 
REMARK    2  A    between atoms: O_7  and  C_9 
ROOT
HETATM    1  O   UNL     1      68.052   6.326   7.533  1.00  0.00    -0.340 OA
HETATM    2  N   UNL     1      66.177   4.180   8.184  1.00  0.00    -0.385 N 
HETATM    3  C   UNL     1      68.422   5.210   8.250  1.00  0.00     0.095 A 
HETATM    4  C   UNL     1      67.522   4.185   8.600  1.00  0.00     0.061 A 
HETATM    5  C   UNL     1      66.624   6.528   7.550  1.00  0.00     0.170 C 
HETATM    6  C   UNL     1      65.881   5.232   7.206  1.00  0.00     0.154 C 
HETATM    7  C   UNL     1      69.765   5.139   8.624  1.00  0.00     0.039 A 
HETATM    8  C   UNL     1      67.993   3.117   9.374  1.00  0.00     0.032 A 
HETATM    9  C   UNL     1      70.222   4.057   9.375  1.00  0.00     0.003 A 
HETATM   10  C   UNL     1      69.337   3.049   9.755  1.00  0.00     0.002 A 
HETATM   11  H   UNL     1      65.507   3.538   8.515  1.00  0.00     0.159 HD
ENDROOT
BRANCH   5  12
HETATM   12  C   UNL     1      66.298   7.638   6.543  1.00  0.00     0.198 C 
BRANCH  12  13
HETATM   13  O   UNL     1      66.818   8.903   6.948  1.00  0.00    -0.398 OA
HETATM   14  H   UNL     1      67.436   9.230   6.275  1.00  0.00     0.209 HD
ENDBRANCH  12  13
ENDBRANCH   5  12
TORSDOF 2
ENDMDL
MODEL 6
REMARK VINA RESULT:      -4.7      2.019      2.967
REMARK  2 active torsions:
REMARK  status: ('A' for Active; 'I' for Inactive)
REMARK    1  A    between atoms: C_5  and  C_9 
REMARK    2  A    between atoms: O_7  and  C_9 
ROOT
HETATM    1  O   UNL     1      62.889   8.739   5.304  1.00  0.00    -0.340 OA
HETATM    2  N   UNL     1      62.775   7.376   2.720  1.00  0.00    -0.385 N 
HETATM    3  C   UNL     1      62.536   9.384   4.140  1.00  0.00     0.095 A 
HETATM    4  C   UNL     1      62.510   8.749   2.883  1.00  0.00     0.061 A 
HETATM    5  C   UNL     1      63.608   7.515   5.045  1.00  0.00     0.170 C 
HETATM    6  C   UNL     1      62.883   6.662   3.998  1.00  0.00     0.154 C 
HETATM    7  C   UNL     1      62.195  10.732   4.265  1.00  0.00     0.039 A 
HETATM    8  C   UNL     1      62.182   9.511   1.755  1.00  0.00     0.032 A 
HETATM    9  C   UNL     1      61.850  11.471   3.134  1.00  0.00     0.003 A 
HETATM   10  C   UNL     1      61.849  10.863   1.879  1.00  0.00     0.002 A 
HETATM   11  H   UNL     1      62.878   6.942   1.842  1.00  0.00     0.159 HD
ENDROOT
BRANCH   5  12
HETATM   12  C   UNL     1      63.745   6.764   6.374  1.00  0.00     0.198 C 
BRANCH  12  13
HETATM   13  O   UNL     1      64.876   7.197   7.126  1.00  0.00    -0.398 OA
HETATM   14  H   UNL     1      65.587   7.461   6.521  1.00  0.00     0.209 HD
ENDBRANCH  12  13
ENDBRANCH   5  12
TORSDOF 2
ENDMDL
MODEL 7
REMARK VINA RESULT:      -4.7      6.374      7.830
REMARK  2 active torsions:
REMARK  status: ('A' for Active; 'I' for Inactive)
REMARK    1  A    between atoms: C_5  and  C_9 
REMARK    2  A    between atoms: O_7  and  C_9 
ROOT
HETATM    1  O   UNL     1      67.122   5.757   5.996  1.00  0.00    -0.340 OA
HETATM    2  N   UNL     1      67.701   6.789   8.669  1.00  0.00    -0.385 N 
HETATM    3  C   UNL     1      67.832   5.037   6.931  1.00  0.00     0.095 A 
HETATM    4  C   UNL     1      68.148   5.535   8.210  1.00  0.00     0.061 A 
HETATM    5  C   UNL     1      67.109   7.167   6.298  1.00  0.00     0.170 C 
HETATM    6  C   UNL     1      66.730   7.413   7.763  1.00  0.00     0.154 C 
HETATM    7  C   UNL     1      68.235   3.759   6.545  1.00  0.00     0.039 A 
HETATM    8  C   UNL     1      68.917   4.739   9.067  1.00  0.00     0.032 A 
HETATM    9  C   UNL     1      68.981   2.969   7.419  1.00  0.00     0.003 A 
HETATM   10  C   UNL     1      69.327   3.460   8.677  1.00  0.00     0.002 A 
HETATM   11  H   UNL     1      68.008   7.203   9.508  1.00  0.00     0.159 HD
ENDROOT
BRANCH   5  12
HETATM   12  C   UNL     1      66.110   7.838   5.347  1.00  0.00     0.198 C 
BRANCH  12  13
HETATM   13  O   UNL     1      65.557   9.031   5.899  1.00  0.00    -0.398 OA
HETATM   14  H   UNL     1      64.614   9.084   5.677  1.00  0.00     0.209 HD
ENDBRANCH  12  13
ENDBRANCH   5  12
TORSDOF 2
ENDMDL
MODEL 8
REMARK VINA RESULT:      -4.5      7.658      9.013
REMARK  2 active torsions:
REMARK  status: ('A' for Active; 'I' for Inactive)
REMARK    1  A    between atoms: C_5  and  C_9 
REMARK    2  A    between atoms: O_7  and  C_9 
ROOT
HETATM    1  O   UNL     1      67.666   3.262   8.628  1.00  0.00    -0.340 OA
HETATM    2  N   UNL     1      69.034   5.846   8.634  1.00  0.00    -0.385 N 
HETATM    3  C   UNL     1      67.099   4.403   8.106  1.00  0.00     0.095 A 
HETATM    4  C   UNL     1      67.732   5.661   8.132  1.00  0.00     0.061 A 
HETATM    5  C   UNL     1      68.739   3.566   9.544  1.00  0.00     0.170 C 
HETATM    6  C   UNL     1      69.713   4.580   8.935  1.00  0.00     0.154 C 
HETATM    7  C   UNL     1      65.836   4.253   7.532  1.00  0.00     0.039 A 
HETATM    8  C   UNL     1      67.045   6.767   7.615  1.00  0.00     0.032 A 
HETATM    9  C   UNL     1      65.175   5.360   7.002  1.00  0.00     0.003 A 
HETATM   10  C   UNL     1      65.776   6.617   7.048  1.00  0.00     0.002 A 
HETATM   11  H   UNL     1      69.445   6.731   8.770  1.00  0.00     0.159 HD
ENDROOT
BRANCH   5  12
HETATM   12  C   UNL     1      69.450   2.249   9.882  1.00  0.00     0.198 C 
BRANCH  12  13
HETATM   13  O   UNL     1      69.749   2.137  11.272  1.00  0.00    -0.398 OA
HETATM   14  H   UNL     1      70.028   3.001  11.614  1.00  0.00     0.209 HD
ENDBRANCH  12  13
ENDBRANCH   5  12
TORSDOF 2
ENDMDL
MODEL 9
REMARK VINA RESULT:      -4.5      8.052      9.584
REMARK  2 active torsions:
REMARK  status: ('A' for Active; 'I' for Inactive)
REMARK    1  A    between atoms: C_5  and  C_9 
REMARK    2  A    between atoms: O_7  and  C_9 
ROOT
HETATM    1  O   UNL     1      68.802   3.853   9.626  1.00  0.00    -0.340 OA
HETATM    2  N   UNL     1      66.676   2.704   7.981  1.00  0.00    -0.385 N 
HETATM    3  C   UNL     1      67.850   4.625   8.999  1.00  0.00     0.095 A 
HETATM    4  C   UNL     1      66.840   4.088   8.177  1.00  0.00     0.061 A 
HETATM    5  C   UNL     1      68.909   2.543   9.031  1.00  0.00     0.170 C 
HETATM    6  C   UNL     1      67.527   1.900   8.864  1.00  0.00     0.154 C 
HETATM    7  C   UNL     1      67.931   6.000   9.223  1.00  0.00     0.039 A 
HETATM    8  C   UNL     1      65.951   4.969   7.549  1.00  0.00     0.032 A 
HETATM    9  C   UNL     1      67.023   6.861   8.608  1.00  0.00     0.003 A 
HETATM   10  C   UNL     1      66.037   6.347   7.767  1.00  0.00     0.002 A 
HETATM   11  H   UNL     1      66.056   2.317   7.320  1.00  0.00     0.159 HD
ENDROOT
BRANCH   5  12
HETATM   12  C   UNL     1      69.810   1.693   9.935  1.00  0.00     0.198 C 
BRANCH  12  13
HETATM   13  O   UNL     1      69.777   2.127  11.294  1.00  0.00    -0.398 OA
HETATM   14  H   UNL     1      69.807   1.357  11.882  1.00  0.00     0.209 HD
ENDBRANCH  12  13
ENDBRANCH   5  12
TORSDOF 2
ENDMDL
