MODEL 1
REMARK VINA RESULT:      -3.9      0.000      0.000
REMARK  2 active torsions:
REMARK  status: ('A' for Active; 'I' for Inactive)
REMARK    1  A    between atoms: O_2  and  C_6 
REMARK    2  A    between atoms: C_3  and  C_6 
ROOT
HETATM    1  O   UNL     1      73.274  22.339  12.829  1.00  0.00    -0.391 OA
HETATM    2  C   UNL     1      71.640  23.646  14.842  1.00  0.00     0.013 C 
HETATM    3  C   UNL     1      73.911  23.033  13.902  1.00  0.00     0.168 C 
HETATM    4  C   UNL     1      72.035  22.932  12.444  1.00  0.00     0.168 C 
HETATM    5  C   UNL     1      71.055  22.936  13.612  1.00  0.00     0.033 C 
HETATM    6  C   UNL     1      73.024  23.050  15.143  1.00  0.00     0.033 C 
ENDROOT
BRANCH   2   7
HETATM    7  C   UNL     1      71.725  25.168  14.649  1.00  0.00     0.168 C 
BRANCH   7   8
HETATM    8  O   UNL     1      70.719  25.828  15.404  1.00  0.00    -0.400 OA
HETATM    9  H   UNL     1      70.039  26.174  14.804  1.00  0.00     0.209 HD
ENDBRANCH   7   8
ENDBRANCH   2   7
TORSDOF 2
ENDMDL
MODEL 2
REMARK VINA RESULT:      -3.4     21.104     22.299
REMARK  2 active torsions:
REMARK  status: ('A' for Active; 'I' for Inactive)
REMARK    1  A    between atoms: O_2  and  C_6 
REMARK    2  A    between atoms: C_3  and  C_6 
ROOT
HETATM    1  O   UNL     1      51.721  22.498  20.432  1.00  0.00    -0.391 OA
HETATM    2  C   UNL     1      51.222  19.862  21.541  1.00  0.00     0.013 C 
HETATM    3  C   UNL     1      50.608  21.741  19.957  1.00  0.00     0.168 C 
HETATM    4  C   UNL     1      52.826  21.679  20.810  1.00  0.00     0.168 C 
HETATM    5  C   UNL     1      52.430  20.726  21.931  1.00  0.00     0.033 C 
HETATM    6  C   UNL     1      50.102  20.783  21.030  1.00  0.00     0.033 C 
ENDROOT
BRANCH   2   7
HETATM    7  C   UNL     1      51.580  18.798  20.492  1.00  0.00     0.168 C 
BRANCH   7   8
HETATM    8  O   UNL     1      50.407  18.219  19.940  1.00  0.00    -0.400 OA
HETATM    9  H   UNL     1      50.205  18.643  19.091  1.00  0.00     0.209 HD
ENDBRANCH   7   8
ENDBRANCH   2   7
TORSDOF 2
ENDMDL
MODEL 3
REMARK VINA RESULT:      -3.4     19.330     20.557
REMARK  2 active torsions:
REMARK  status: ('A' for Active; 'I' for Inactive)
REMARK    1  A    between atoms: O_2  and  C_6 
REMARK    2  A    between atoms: C_3  and  C_6 
ROOT
HETATM    1  O   UNL     1      67.108   5.571   7.839  1.00  0.00    -0.391 OA
HETATM    2  C   UNL     1      69.371   3.839   8.392  1.00  0.00     0.013 C 
HETATM    3  C   UNL     1      67.939   5.849   8.965  1.00  0.00     0.168 C 
HETATM    4  C   UNL     1      67.004   4.177   7.558  1.00  0.00     0.168 C 
HETATM    5  C   UNL     1      68.375   3.587   7.250  1.00  0.00     0.033 C 
HETATM    6  C   UNL     1      69.357   5.337   8.735  1.00  0.00     0.033 C 
ENDROOT
BRANCH   2   7
HETATM    7  C   UNL     1      69.062   2.987   9.633  1.00  0.00     0.168 C 
BRANCH   7   8
HETATM    8  O   UNL     1      69.881   3.375  10.727  1.00  0.00    -0.400 OA
HETATM    9  H   UNL     1      69.337   3.454  11.527  1.00  0.00     0.209 HD
ENDBRANCH   7   8
ENDBRANCH   2   7
TORSDOF 2
ENDMDL
MODEL 4
REMARK VINA RESULT:      -3.3     20.212     21.542
REMARK  2 active torsions:
REMARK  status: ('A' for Active; 'I' for Inactive)
REMARK    1  A    between atoms: O_2  and  C_6 
REMARK    2  A    between atoms: C_3  and  C_6 
ROOT
HETATM    1  O   UNL     1      60.434   7.552   2.132  1.00  0.00    -0.391 OA
HETATM    2  C   UNL     1      62.414   9.657   2.409  1.00  0.00     0.013 C 
HETATM    3  C   UNL     1      60.548   8.542   1.110  1.00  0.00     0.168 C 
HETATM    4  C   UNL     1      60.735   8.060   3.430  1.00  0.00     0.168 C 
HETATM    5  C   UNL     1      62.163   8.588   3.483  1.00  0.00     0.033 C 
HETATM    6  C   UNL     1      61.965   9.102   1.048  1.00  0.00     0.033 C 
ENDROOT
BRANCH   2   7
HETATM    7  C   UNL     1      61.701  10.981   2.727  1.00  0.00     0.168 C 
BRANCH   7   8
HETATM    8  O   UNL     1      62.103  11.998   1.822  1.00  0.00    -0.400 OA
HETATM    9  H   UNL     1      63.039  11.878   1.593  1.00  0.00     0.209 HD
ENDBRANCH   7   8
ENDBRANCH   2   7
TORSDOF 2
ENDMDL
MODEL 5
REMARK VINA RESULT:      -3.2     18.242     19.349
REMARK  2 active torsions:
REMARK  status: ('A' for Active; 'I' for Inactive)
REMARK    1  A    between atoms: O_2  and  C_6 
REMARK    2  A    between atoms: C_3  and  C_6 
ROOT
HETATM    1  O   UNL     1      67.712   4.369   8.755  1.00  0.00    -0.391 OA
HETATM    2  C   UNL     1      65.998   6.586   7.995  1.00  0.00     0.013 C 
HETATM    3  C   UNL     1      68.093   5.699   9.109  1.00  0.00     0.168 C 
HETATM    4  C   UNL     1      66.998   4.308   7.522  1.00  0.00     0.168 C 
HETATM    5  C   UNL     1      65.716   5.128   7.601  1.00  0.00     0.033 C 
HETATM    6  C   UNL     1      66.868   6.594   9.262  1.00  0.00     0.033 C 
ENDROOT
BRANCH   2   7
HETATM    7  C   UNL     1      66.669   7.376   6.861  1.00  0.00     0.168 C 
BRANCH   7   8
HETATM    8  O   UNL     1      66.993   8.692   7.286  1.00  0.00    -0.400 OA
HETATM    9  H   UNL     1      66.498   8.902   8.094  1.00  0.00     0.209 HD
ENDBRANCH   7   8
ENDBRANCH   2   7
TORSDOF 2
ENDMDL
MODEL 6
REMARK VINA RESULT:      -3.2     18.557     19.838
REMARK  2 active torsions:
REMARK  status: ('A' for Active; 'I' for Inactive)
REMARK    1  A    between atoms: O_2  and  C_6 
REMARK    2  A    between atoms: C_3  and  C_6 
ROOT
HETATM    1  O   UNL     1      62.049   6.898   4.936  1.00  0.00    -0.391 OA
HETATM    2  C   UNL     1      63.707   9.258   4.601  1.00  0.00     0.013 C 
HETATM    3  C   UNL     1      61.573   7.977   4.130  1.00  0.00     0.168 C 
HETATM    4  C   UNL     1      62.866   7.336   6.020  1.00  0.00     0.168 C 
HETATM    5  C   UNL     1      64.094   8.076   5.503  1.00  0.00     0.033 C 
HETATM    6  C   UNL     1      62.735   8.756   3.522  1.00  0.00     0.033 C 
ENDROOT
BRANCH   2   7
HETATM    7  C   UNL     1      63.095  10.421   5.397  1.00  0.00     0.168 C 
BRANCH   7   8
HETATM    8  O   UNL     1      64.104  11.147   6.083  1.00  0.00    -0.400 OA
HETATM    9  H   UNL     1      63.695  11.711   6.759  1.00  0.00     0.209 HD
ENDBRANCH   7   8
ENDBRANCH   2   7
TORSDOF 2
ENDMDL
MODEL 7
REMARK VINA RESULT:      -3.2     19.227     20.373
REMARK  2 active torsions:
REMARK  status: ('A' for Active; 'I' for Inactive)
REMARK    1  A    between atoms: O_2  and  C_6 
REMARK    2  A    between atoms: C_3  and  C_6 
ROOT
HETATM    1  O   UNL     1      67.899   2.534   8.295  1.00  0.00    -0.391 OA
HETATM    2  C   UNL     1      68.846   5.274   8.446  1.00  0.00     0.013 C 
HETATM    3  C   UNL     1      67.230   3.545   7.542  1.00  0.00     0.168 C 
HETATM    4  C   UNL     1      68.433   3.021   9.525  1.00  0.00     0.168 C 
HETATM    5  C   UNL     1      69.450   4.127   9.269  1.00  0.00     0.033 C 
HETATM    6  C   UNL     1      68.182   4.684   7.192  1.00  0.00     0.033 C 
ENDROOT
BRANCH   2   7
HETATM    7  C   UNL     1      67.844   6.110   9.258  1.00  0.00     0.168 C 
BRANCH   7   8
HETATM    8  O   UNL     1      67.432   7.254   8.525  1.00  0.00    -0.400 OA
HETATM    9  H   UNL     1      67.123   6.982   7.646  1.00  0.00     0.209 HD
ENDBRANCH   7   8
ENDBRANCH   2   7
TORSDOF 2
ENDMDL
MODEL 8
REMARK VINA RESULT:      -3.2     18.811     20.126
REMARK  2 active torsions:
REMARK  status: ('A' for Active; 'I' for Inactive)
REMARK    1  A    between atoms: O_2  and  C_6 
REMARK    2  A    between atoms: C_3  and  C_6 
ROOT
HETATM    1  O   UNL     1      64.081   9.939   5.474  1.00  0.00    -0.391 OA
HETATM    2  C   UNL     1      62.402   8.842   3.375  1.00  0.00     0.013 C 
HETATM    3  C   UNL     1      64.128   8.538   5.204  1.00  0.00     0.168 C 
HETATM    4  C   UNL     1      62.791  10.504   5.246  1.00  0.00     0.168 C 
HETATM    5  C   UNL     1      62.374  10.321   3.792  1.00  0.00     0.033 C 
HETATM    6  C   UNL     1      63.770   8.252   3.749  1.00  0.00     0.033 C 
ENDROOT
BRANCH   2   7
HETATM    7  C   UNL     1      61.260   8.036   4.013  1.00  0.00     0.168 C 
BRANCH   7   8
HETATM    8  O   UNL     1      60.001   8.471   3.522  1.00  0.00    -0.400 OA
HETATM    9  H   UNL     1      59.561   7.738   3.063  1.00  0.00     0.209 HD
ENDBRANCH   7   8
ENDBRANCH   2   7
TORSDOF 2
ENDMDL
MODEL 9
REMARK VINA RESULT:      -3.2     18.735     19.595
REMARK  2 active torsions:
REMARK  status: ('A' for Active; 'I' for Inactive)
REMARK    1  A    between atoms: O_2  and  C_6 
REMARK    2  A    between atoms: C_3  and  C_6 
ROOT
HETATM    1  O   UNL     1      64.396   7.097   7.129  1.00  0.00    -0.391 OA
HETATM    2  C   UNL     1      66.907   7.696   5.799  1.00  0.00     0.013 C 
HETATM    3  C   UNL     1      65.609   6.559   7.654  1.00  0.00     0.168 C 
HETATM    4  C   UNL     1      64.419   7.230   5.709  1.00  0.00     0.168 C 
HETATM    5  C   UNL     1      65.541   8.166   5.275  1.00  0.00     0.033 C 
HETATM    6  C   UNL     1      66.795   7.455   7.313  1.00  0.00     0.033 C 
ENDROOT
BRANCH   2   7
HETATM    7  C   UNL     1      67.407   6.436   5.076  1.00  0.00     0.168 C 
BRANCH   7   8
HETATM    8  O   UNL     1      67.383   6.622   3.668  1.00  0.00    -0.400 OA
HETATM    9  H   UNL     1      68.160   7.136   3.396  1.00  0.00     0.209 HD
ENDBRANCH   7   8
ENDBRANCH   2   7
TORSDOF 2
ENDMDL
