MODEL 1
REMARK VINA RESULT:      -4.9      0.000      0.000
REMARK  2 active torsions:
REMARK  status: ('A' for Active; 'I' for Inactive)
REMARK    1  A    between atoms: C_6  and  C_9 
REMARK    2  A    between atoms: C_9  and  O_10 
ROOT
HETATM    1  N   UNL     1      66.022   5.201   5.518  1.00  0.00    -0.283 NA
HETATM    2  O   UNL     1      64.950   7.067   7.495  1.00  0.00    -0.341 OA
HETATM    3  C   UNL     1      66.677   5.475   6.743  1.00  0.00     0.044 A 
HETATM    4  C   UNL     1      66.121   6.368   7.690  1.00  0.00     0.090 A 
HETATM    5  C   UNL     1      64.611   5.619   5.559  1.00  0.00     0.130 C 
HETATM    6  C   UNL     1      64.486   7.028   6.137  1.00  0.00     0.166 C 
HETATM    7  C   UNL     1      66.254   3.891   4.912  1.00  0.00     0.116 C 
HETATM    8  C   UNL     1      66.738   6.608   8.921  1.00  0.00     0.039 A 
HETATM    9  C   UNL     1      67.929   4.919   7.056  1.00  0.00     0.026 A 
HETATM   10  C   UNL     1      67.956   6.002   9.222  1.00  0.00     0.003 A 
HETATM   11  C   UNL     1      68.558   5.175   8.281  1.00  0.00     0.002 A 
ENDROOT
BRANCH   6  12
HETATM   12  C   UNL     1      65.176   8.112   5.297  1.00  0.00     0.197 C 
BRANCH  12  13
HETATM   13  O   UNL     1      65.246   9.358   5.987  1.00  0.00    -0.398 OA
HETATM   14  H   UNL     1      64.459   9.886   5.780  1.00  0.00     0.209 HD
ENDBRANCH  12  13
ENDBRANCH   6  12
TORSDOF 2
ENDMDL
MODEL 2
REMARK VINA RESULT:      -4.7      1.978      4.508
REMARK  2 active torsions:
REMARK  status: ('A' for Active; 'I' for Inactive)
REMARK    1  A    between atoms: C_6  and  C_9 
REMARK    2  A    between atoms: C_9  and  O_10 
ROOT
HETATM    1  N   UNL     1      66.337   6.482   4.620  1.00  0.00    -0.283 NA
HETATM    2  O   UNL     1      65.778   8.855   6.232  1.00  0.00    -0.341 OA
HETATM    3  C   UNL     1      65.196   7.294   4.413  1.00  0.00     0.044 A 
HETATM    4  C   UNL     1      64.964   8.450   5.197  1.00  0.00     0.090 A 
HETATM    5  C   UNL     1      67.359   7.185   5.412  1.00  0.00     0.130 C 
HETATM    6  C   UNL     1      66.727   7.854   6.632  1.00  0.00     0.166 C 
HETATM    7  C   UNL     1      66.854   5.747   3.467  1.00  0.00     0.116 C 
HETATM    8  C   UNL     1      63.865   9.283   4.967  1.00  0.00     0.039 A 
HETATM    9  C   UNL     1      64.215   6.969   3.461  1.00  0.00     0.026 A 
HETATM   10  C   UNL     1      62.937   8.958   3.981  1.00  0.00     0.003 A 
HETATM   11  C   UNL     1      63.102   7.791   3.245  1.00  0.00     0.002 A 
ENDROOT
BRANCH   6  12
HETATM   12  C   UNL     1      66.091   6.870   7.625  1.00  0.00     0.197 C 
BRANCH  12  13
HETATM   13  O   UNL     1      66.542   5.534   7.414  1.00  0.00    -0.398 OA
HETATM   14  H   UNL     1      67.083   5.252   8.168  1.00  0.00     0.209 HD
ENDBRANCH  12  13
ENDBRANCH   6  12
TORSDOF 2
ENDMDL
MODEL 3
REMARK VINA RESULT:      -4.6      3.819      6.086
REMARK  2 active torsions:
REMARK  status: ('A' for Active; 'I' for Inactive)
REMARK    1  A    between atoms: C_6  and  C_9 
REMARK    2  A    between atoms: C_9  and  O_10 
ROOT
HETATM    1  N   UNL     1      63.317   6.967   3.597  1.00  0.00    -0.283 NA
HETATM    2  O   UNL     1      63.049   8.875   5.795  1.00  0.00    -0.341 OA
HETATM    3  C   UNL     1      62.833   8.284   3.410  1.00  0.00     0.044 A 
HETATM    4  C   UNL     1      62.734   9.193   4.491  1.00  0.00     0.090 A 
HETATM    5  C   UNL     1      64.028   6.835   4.880  1.00  0.00     0.130 C 
HETATM    6  C   UNL     1      63.216   7.466   6.010  1.00  0.00     0.166 C 
HETATM    7  C   UNL     1      63.981   6.329   2.461  1.00  0.00     0.116 C 
HETATM    8  C   UNL     1      62.302  10.509   4.306  1.00  0.00     0.039 A 
HETATM    9  C   UNL     1      62.379   8.738   2.160  1.00  0.00     0.026 A 
HETATM   10  C   UNL     1      61.905  10.942   3.043  1.00  0.00     0.003 A 
HETATM   11  C   UNL     1      61.925  10.050   1.977  1.00  0.00     0.002 A 
ENDROOT
BRANCH   6  12
HETATM   12  C   UNL     1      61.860   6.790   6.259  1.00  0.00     0.197 C 
BRANCH  12  13
HETATM   13  O   UNL     1      61.807   5.481   5.697  1.00  0.00    -0.398 OA
HETATM   14  H   UNL     1      60.985   5.045   5.971  1.00  0.00     0.209 HD
ENDBRANCH  12  13
ENDBRANCH   6  12
TORSDOF 2
ENDMDL
MODEL 4
REMARK VINA RESULT:      -4.4      3.288      4.981
REMARK  2 active torsions:
REMARK  status: ('A' for Active; 'I' for Inactive)
REMARK    1  A    between atoms: C_6  and  C_9 
REMARK    2  A    between atoms: C_9  and  O_10 
ROOT
HETATM    1  N   UNL     1      66.920   2.767   7.479  1.00  0.00    -0.283 NA
HETATM    2  O   UNL     1      69.124   3.753   9.126  1.00  0.00    -0.341 OA
HETATM    3  C   UNL     1      66.972   4.093   7.970  1.00  0.00     0.044 A 
HETATM    4  C   UNL     1      68.064   4.548   8.748  1.00  0.00     0.090 A 
HETATM    5  C   UNL     1      68.242   2.121   7.539  1.00  0.00     0.130 C 
HETATM    6  C   UNL     1      68.891   2.354   8.902  1.00  0.00     0.166 C 
HETATM    7  C   UNL     1      66.185   2.540   6.236  1.00  0.00     0.116 C 
HETATM    8  C   UNL     1      68.145   5.869   9.196  1.00  0.00     0.039 A 
HETATM    9  C   UNL     1      65.925   5.006   7.756  1.00  0.00     0.026 A 
HETATM   10  C   UNL     1      67.111   6.763   8.925  1.00  0.00     0.003 A 
HETATM   11  C   UNL     1      65.995   6.324   8.224  1.00  0.00     0.002 A 
ENDROOT
BRANCH   6  12
HETATM   12  C   UNL     1      68.117   1.738  10.077  1.00  0.00     0.197 C 
BRANCH  12  13
HETATM   13  O   UNL     1      68.873   1.765  11.286  1.00  0.00    -0.398 OA
HETATM   14  H   UNL     1      68.269   1.761  12.045  1.00  0.00     0.209 HD
ENDBRANCH  12  13
ENDBRANCH   6  12
TORSDOF 2
ENDMDL
MODEL 5
REMARK VINA RESULT:      -4.3      4.285      5.816
REMARK  2 active torsions:
REMARK  status: ('A' for Active; 'I' for Inactive)
REMARK    1  A    between atoms: C_6  and  C_9 
REMARK    2  A    between atoms: C_9  and  O_10 
ROOT
HETATM    1  N   UNL     1      68.642   1.588   7.401  1.00  0.00    -0.283 NA
HETATM    2  O   UNL     1      69.285   2.286  10.165  1.00  0.00    -0.341 OA
HETATM    3  C   UNL     1      68.635   2.923   7.872  1.00  0.00     0.044 A 
HETATM    4  C   UNL     1      68.972   3.232   9.212  1.00  0.00     0.090 A 
HETATM    5  C   UNL     1      69.387   0.702   8.311  1.00  0.00     0.130 C 
HETATM    6  C   UNL     1      68.967   0.946   9.759  1.00  0.00     0.166 C 
HETATM    7  C   UNL     1      68.921   1.381   5.980  1.00  0.00     0.116 C 
HETATM    8  C   UNL     1      69.013   4.551   9.672  1.00  0.00     0.039 A 
HETATM    9  C   UNL     1      68.246   3.997   7.054  1.00  0.00     0.026 A 
HETATM   10  C   UNL     1      68.668   5.598   8.821  1.00  0.00     0.003 A 
HETATM   11  C   UNL     1      68.265   5.318   7.521  1.00  0.00     0.002 A 
ENDROOT
BRANCH   6  12
HETATM   12  C   UNL     1      67.493   0.628  10.045  1.00  0.00     0.197 C 
BRANCH  12  13
HETATM   13  O   UNL     1      67.083   1.104  11.325  1.00  0.00    -0.398 OA
HETATM   14  H   UNL     1      67.292   0.439  12.000  1.00  0.00     0.209 HD
ENDBRANCH  12  13
ENDBRANCH   6  12
TORSDOF 2
ENDMDL
MODEL 6
REMARK VINA RESULT:      -4.2     11.424     12.071
REMARK  2 active torsions:
REMARK  status: ('A' for Active; 'I' for Inactive)
REMARK    1  A    between atoms: C_6  and  C_9 
REMARK    2  A    between atoms: C_9  and  O_10 
ROOT
HETATM    1  N   UNL     1      56.669   2.843  11.351  1.00  0.00    -0.283 NA
HETATM    2  O   UNL     1      55.441   1.363  13.551  1.00  0.00    -0.341 OA
HETATM    3  C   UNL     1      57.428   2.117  12.299  1.00  0.00     0.044 A 
HETATM    4  C   UNL     1      56.803   1.393  13.343  1.00  0.00     0.090 A 
HETATM    5  C   UNL     1      55.257   2.426  11.361  1.00  0.00     0.130 C 
HETATM    6  C   UNL     1      54.730   2.354  12.794  1.00  0.00     0.166 C 
HETATM    7  C   UNL     1      57.247   3.012  10.018  1.00  0.00     0.116 C 
HETATM    8  C   UNL     1      57.543   0.636  14.255  1.00  0.00     0.039 A 
HETATM    9  C   UNL     1      58.833   2.122  12.287  1.00  0.00     0.026 A 
HETATM   10  C   UNL     1      58.934   0.622  14.185  1.00  0.00     0.003 A 
HETATM   11  C   UNL     1      59.577   1.382  13.214  1.00  0.00     0.002 A 
ENDROOT
BRANCH   6  12
HETATM   12  C   UNL     1      54.731   3.702  13.529  1.00  0.00     0.197 C 
BRANCH  12  13
HETATM   13  O   UNL     1      55.002   3.551  14.920  1.00  0.00    -0.398 OA
HETATM   14  H   UNL     1      55.948   3.379  15.049  1.00  0.00     0.209 HD
ENDBRANCH  12  13
ENDBRANCH   6  12
TORSDOF 2
ENDMDL
MODEL 7
REMARK VINA RESULT:      -4.2      5.599      7.067
REMARK  2 active torsions:
REMARK  status: ('A' for Active; 'I' for Inactive)
REMARK    1  A    between atoms: C_6  and  C_9 
REMARK    2  A    between atoms: C_9  and  O_10 
ROOT
HETATM    1  N   UNL     1      62.009   7.215   1.883  1.00  0.00    -0.283 NA
HETATM    2  O   UNL     1      62.069   7.893   4.725  1.00  0.00    -0.341 OA
HETATM    3  C   UNL     1      61.979   8.551   2.349  1.00  0.00     0.044 A 
HETATM    4  C   UNL     1      62.031   8.848   3.732  1.00  0.00     0.090 A 
HETATM    5  C   UNL     1      62.482   6.293   2.928  1.00  0.00     0.130 C 
HETATM    6  C   UNL     1      61.769   6.572   4.251  1.00  0.00     0.166 C 
HETATM    7  C   UNL     1      62.580   6.982   0.557  1.00  0.00     0.116 C 
HETATM    8  C   UNL     1      62.049  10.166   4.199  1.00  0.00     0.039 A 
HETATM    9  C   UNL     1      61.843   9.641   1.473  1.00  0.00     0.026 A 
HETATM   10  C   UNL     1      61.962  11.226   3.300  1.00  0.00     0.003 A 
HETATM   11  C   UNL     1      61.839  10.961   1.941  1.00  0.00     0.002 A 
ENDROOT
BRANCH   6  12
HETATM   12  C   UNL     1      60.251   6.344   4.204  1.00  0.00     0.197 C 
BRANCH  12  13
HETATM   13  O   UNL     1      59.851   5.666   3.015  1.00  0.00    -0.398 OA
HETATM   14  H   UNL     1      60.029   6.230   2.246  1.00  0.00     0.209 HD
ENDBRANCH  12  13
ENDBRANCH   6  12
TORSDOF 2
ENDMDL
MODEL 8
REMARK VINA RESULT:      -4.1      2.061      2.612
REMARK  2 active torsions:
REMARK  status: ('A' for Active; 'I' for Inactive)
REMARK    1  A    between atoms: C_6  and  C_9 
REMARK    2  A    between atoms: C_9  and  O_10 
ROOT
HETATM    1  N   UNL     1      64.218   6.840   3.948  1.00  0.00    -0.283 NA
HETATM    2  O   UNL     1      63.780   7.414   6.780  1.00  0.00    -0.341 OA
HETATM    3  C   UNL     1      65.255   6.777   4.909  1.00  0.00     0.044 A 
HETATM    4  C   UNL     1      65.007   7.040   6.278  1.00  0.00     0.090 A 
HETATM    5  C   UNL     1      62.892   6.810   4.588  1.00  0.00     0.130 C 
HETATM    6  C   UNL     1      62.840   7.788   5.761  1.00  0.00     0.166 C 
HETATM    7  C   UNL     1      64.346   5.989   2.766  1.00  0.00     0.116 C 
HETATM    8  C   UNL     1      66.016   6.934   7.239  1.00  0.00     0.039 A 
HETATM    9  C   UNL     1      66.585   6.504   4.548  1.00  0.00     0.026 A 
HETATM   10  C   UNL     1      67.316   6.613   6.854  1.00  0.00     0.003 A 
HETATM   11  C   UNL     1      67.602   6.419   5.508  1.00  0.00     0.002 A 
ENDROOT
BRANCH   6  12
HETATM   12  C   UNL     1      63.032   9.257   5.359  1.00  0.00     0.197 C 
BRANCH  12  13
HETATM   13  O   UNL     1      62.918   9.443   3.950  1.00  0.00    -0.398 OA
HETATM   14  H   UNL     1      62.480  10.290   3.770  1.00  0.00     0.209 HD
ENDBRANCH  12  13
ENDBRANCH   6  12
TORSDOF 2
ENDMDL
MODEL 9
REMARK VINA RESULT:      -4.1      1.610      4.158
REMARK  2 active torsions:
REMARK  status: ('A' for Active; 'I' for Inactive)
REMARK    1  A    between atoms: C_6  and  C_9 
REMARK    2  A    between atoms: C_9  and  O_10 
ROOT
HETATM    1  N   UNL     1      64.873   5.321   6.906  1.00  0.00    -0.283 NA
HETATM    2  O   UNL     1      66.716   7.424   6.056  1.00  0.00    -0.341 OA
HETATM    3  C   UNL     1      64.436   6.506   6.268  1.00  0.00     0.044 A 
HETATM    4  C   UNL     1      65.355   7.498   5.849  1.00  0.00     0.090 A 
HETATM    5  C   UNL     1      66.316   5.106   6.707  1.00  0.00     0.130 C 
HETATM    6  C   UNL     1      67.093   6.393   6.981  1.00  0.00     0.166 C 
HETATM    7  C   UNL     1      64.048   4.126   6.738  1.00  0.00     0.116 C 
HETATM    8  C   UNL     1      64.936   8.649   5.176  1.00  0.00     0.039 A 
HETATM    9  C   UNL     1      63.073   6.782   6.066  1.00  0.00     0.026 A 
HETATM   10  C   UNL     1      63.579   8.869   4.948  1.00  0.00     0.003 A 
HETATM   11  C   UNL     1      62.650   7.945   5.412  1.00  0.00     0.002 A 
ENDROOT
BRANCH   6  12
HETATM   12  C   UNL     1      66.982   6.895   8.428  1.00  0.00     0.197 C 
BRANCH  12  13
HETATM   13  O   UNL     1      66.317   5.955   9.268  1.00  0.00    -0.398 OA
HETATM   14  H   UNL     1      66.303   6.288  10.179  1.00  0.00     0.209 HD
ENDBRANCH  12  13
ENDBRANCH   6  12
TORSDOF 2
ENDMDL
