MODEL 1
REMARK VINA RESULT:      -5.2      0.000      0.000
REMARK  3 active torsions:
REMARK  status: ('A' for Active; 'I' for Inactive)
REMARK    1  A    between atoms: C_3  and  C_7 
REMARK    2  A    between atoms: C_5  and  C_8 
REMARK    3  A    between atoms: C_8  and  O_10 
ROOT
HETATM    1  N   UNL     1      62.162   7.240   5.087  1.00  0.00    -0.353 N 
ATOM      2  HN  UNL     1      61.194   7.104   4.796  1.00  0.00     0.166 HD
HETATM    3  C   UNL     1      62.920   8.252   4.714  1.00  0.00     0.085 A 
HETATM    4  S   UNL     1      64.524   8.204   5.338  1.00  0.00    -0.072 SA
HETATM    5  C   UNL     1      64.172   6.748   6.168  1.00  0.00     0.030 A 
HETATM    6  C   UNL     1      62.858   6.383   5.929  1.00  0.00     0.021 A 
HETATM    7  C   UNL     1      62.135   5.198   6.461  1.00  0.00     0.069 C 
ENDROOT
BRANCH   3   8
HETATM    8  C   UNL     1      62.498   9.315   3.785  1.00  0.00    -0.002 A 
HETATM    9  C   UNL     1      62.236  10.629   4.203  1.00  0.00     0.014 A 
HETATM   10  C   UNL     1      61.873  11.617   3.283  1.00  0.00     0.001 A 
HETATM   11  C   UNL     1      61.759  11.303   1.930  1.00  0.00     0.000 A 
HETATM   12  C   UNL     1      61.991   9.999   1.500  1.00  0.00     0.001 A 
HETATM   13  C   UNL     1      62.351   9.012   2.421  1.00  0.00     0.014 A 
ENDBRANCH   3   8
BRANCH   5  14
HETATM   14  C   UNL     1      65.221   6.071   6.977  1.00  0.00     0.212 C 
BRANCH  14  15
HETATM   15  O   UNL     1      65.418   6.837   8.159  1.00  0.00    -0.396 OA
HETATM   16  H   UNL     1      65.233   7.771   7.974  1.00  0.00     0.209 HD
ENDBRANCH  14  15
ENDBRANCH   5  14
TORSDOF 3
ENDMDL
MODEL 2
REMARK VINA RESULT:      -5.2      4.162      8.267
REMARK  3 active torsions:
REMARK  status: ('A' for Active; 'I' for Inactive)
REMARK    1  A    between atoms: C_3  and  C_7 
REMARK    2  A    between atoms: C_5  and  C_8 
REMARK    3  A    between atoms: C_8  and  O_10 
ROOT
HETATM    1  N   UNL     1      68.272   6.530   6.337  1.00  0.00    -0.353 N 
ATOM      2  HN  UNL     1      69.263   6.397   6.135  1.00  0.00     0.166 HD
HETATM    3  C   UNL     1      67.618   5.921   7.305  1.00  0.00     0.085 A 
HETATM    4  S   UNL     1      65.944   6.317   7.389  1.00  0.00    -0.072 SA
HETATM    5  C   UNL     1      66.115   7.379   6.057  1.00  0.00     0.030 A 
HETATM    6  C   UNL     1      67.431   7.376   5.627  1.00  0.00     0.021 A 
HETATM    7  C   UNL     1      68.022   8.161   4.510  1.00  0.00     0.069 C 
ENDROOT
BRANCH   3   8
HETATM    8  C   UNL     1      68.208   4.923   8.214  1.00  0.00    -0.002 A 
HETATM    9  C   UNL     1      67.509   3.784   8.648  1.00  0.00     0.014 A 
HETATM   10  C   UNL     1      68.119   2.842   9.482  1.00  0.00     0.001 A 
HETATM   11  C   UNL     1      69.435   3.029   9.901  1.00  0.00     0.000 A 
HETATM   12  C   UNL     1      70.135   4.164   9.501  1.00  0.00     0.001 A 
HETATM   13  C   UNL     1      69.524   5.106   8.670  1.00  0.00     0.014 A 
ENDBRANCH   3   8
BRANCH   5  14
HETATM   14  C   UNL     1      64.938   8.120   5.529  1.00  0.00     0.212 C 
BRANCH  14  15
HETATM   15  O   UNL     1      65.092   9.488   5.883  1.00  0.00    -0.396 OA
HETATM   16  H   UNL     1      65.574   9.552   6.722  1.00  0.00     0.209 HD
ENDBRANCH  14  15
ENDBRANCH   5  14
TORSDOF 3
ENDMDL
MODEL 3
REMARK VINA RESULT:      -5.1      1.829      2.792
REMARK  3 active torsions:
REMARK  status: ('A' for Active; 'I' for Inactive)
REMARK    1  A    between atoms: C_3  and  C_7 
REMARK    2  A    between atoms: C_5  and  C_8 
REMARK    3  A    between atoms: C_8  and  O_10 
ROOT
HETATM    1  N   UNL     1      65.756   7.877   5.167  1.00  0.00    -0.353 N 
ATOM      2  HN  UNL     1      66.303   8.548   4.627  1.00  0.00     0.166 HD
HETATM    3  C   UNL     1      64.441   7.886   5.259  1.00  0.00     0.085 A 
HETATM    4  S   UNL     1      63.793   6.649   6.267  1.00  0.00    -0.072 SA
HETATM    5  C   UNL     1      65.370   6.062   6.583  1.00  0.00     0.030 A 
HETATM    6  C   UNL     1      66.298   6.832   5.904  1.00  0.00     0.021 A 
HETATM    7  C   UNL     1      67.775   6.667   5.885  1.00  0.00     0.069 C 
ENDROOT
BRANCH   3   8
HETATM    8  C   UNL     1      63.566   8.893   4.634  1.00  0.00    -0.002 A 
HETATM    9  C   UNL     1      62.946   8.692   3.391  1.00  0.00     0.014 A 
HETATM   10  C   UNL     1      62.093   9.658   2.849  1.00  0.00     0.001 A 
HETATM   11  C   UNL     1      61.853  10.844   3.540  1.00  0.00     0.000 A 
HETATM   12  C   UNL     1      62.479  11.072   4.764  1.00  0.00     0.001 A 
HETATM   13  C   UNL     1      63.333  10.106   5.303  1.00  0.00     0.014 A 
ENDBRANCH   3   8
BRANCH   5  14
HETATM   14  C   UNL     1      65.571   4.897   7.486  1.00  0.00     0.212 C 
BRANCH  14  15
HETATM   15  O   UNL     1      65.977   5.395   8.754  1.00  0.00    -0.396 OA
HETATM   16  H   UNL     1      66.531   4.735   9.199  1.00  0.00     0.209 HD
ENDBRANCH  14  15
ENDBRANCH   5  14
TORSDOF 3
ENDMDL
MODEL 4
REMARK VINA RESULT:      -5.0      1.521      1.850
REMARK  3 active torsions:
REMARK  status: ('A' for Active; 'I' for Inactive)
REMARK    1  A    between atoms: C_3  and  C_7 
REMARK    2  A    between atoms: C_5  and  C_8 
REMARK    3  A    between atoms: C_8  and  O_10 
ROOT
HETATM    1  N   UNL     1      63.933   6.728   5.814  1.00  0.00    -0.353 N 
ATOM      2  HN  UNL     1      62.971   6.396   5.762  1.00  0.00     0.166 HD
HETATM    3  C   UNL     1      64.346   7.897   5.367  1.00  0.00     0.085 A 
HETATM    4  S   UNL     1      66.035   8.175   5.563  1.00  0.00    -0.072 SA
HETATM    5  C   UNL     1      66.215   6.642   6.304  1.00  0.00     0.030 A 
HETATM    6  C   UNL     1      64.985   6.008   6.365  1.00  0.00     0.021 A 
HETATM    7  C   UNL     1      64.682   4.671   6.939  1.00  0.00     0.069 C 
ENDROOT
BRANCH   3   8
HETATM    8  C   UNL     1      63.489   8.882   4.684  1.00  0.00    -0.002 A 
HETATM    9  C   UNL     1      63.142  10.115   5.260  1.00  0.00     0.014 A 
HETATM   10  C   UNL     1      62.355  11.036   4.562  1.00  0.00     0.001 A 
HETATM   11  C   UNL     1      61.897  10.735   3.281  1.00  0.00     0.000 A 
HETATM   12  C   UNL     1      62.211   9.507   2.704  1.00  0.00     0.001 A 
HETATM   13  C   UNL     1      62.995   8.586   3.403  1.00  0.00     0.014 A 
ENDBRANCH   3   8
BRANCH   5  14
HETATM   14  C   UNL     1      67.554   6.177   6.754  1.00  0.00     0.212 C 
BRANCH  14  15
HETATM   15  O   UNL     1      67.788   6.716   8.048  1.00  0.00    -0.396 OA
HETATM   16  H   UNL     1      66.940   6.903   8.479  1.00  0.00     0.209 HD
ENDBRANCH  14  15
ENDBRANCH   5  14
TORSDOF 3
ENDMDL
MODEL 5
REMARK VINA RESULT:      -4.9      3.020      6.931
REMARK  3 active torsions:
REMARK  status: ('A' for Active; 'I' for Inactive)
REMARK    1  A    between atoms: C_3  and  C_7 
REMARK    2  A    between atoms: C_5  and  C_8 
REMARK    3  A    between atoms: C_8  and  O_10 
ROOT
HETATM    1  N   UNL     1      64.911   5.746   6.838  1.00  0.00    -0.353 N 
ATOM      2  HN  UNL     1      64.601   4.878   7.274  1.00  0.00     0.166 HD
HETATM    3  C   UNL     1      66.167   6.140   6.770  1.00  0.00     0.085 A 
HETATM    4  S   UNL     1      66.390   7.666   6.001  1.00  0.00    -0.072 SA
HETATM    5  C   UNL     1      64.703   7.792   5.733  1.00  0.00     0.030 A 
HETATM    6  C   UNL     1      64.067   6.670   6.237  1.00  0.00     0.021 A 
HETATM    7  C   UNL     1      62.613   6.361   6.207  1.00  0.00     0.069 C 
ENDROOT
BRANCH   3   8
HETATM    8  C   UNL     1      67.306   5.411   7.353  1.00  0.00    -0.002 A 
HETATM    9  C   UNL     1      67.911   5.789   8.562  1.00  0.00     0.014 A 
HETATM   10  C   UNL     1      68.968   5.047   9.099  1.00  0.00     0.001 A 
HETATM   11  C   UNL     1      69.440   3.919   8.431  1.00  0.00     0.000 A 
HETATM   12  C   UNL     1      68.868   3.543   7.217  1.00  0.00     0.001 A 
HETATM   13  C   UNL     1      67.814   4.286   6.680  1.00  0.00     0.014 A 
ENDBRANCH   3   8
BRANCH   5  14
HETATM   14  C   UNL     1      64.137   8.992   5.061  1.00  0.00     0.212 C 
BRANCH  14  15
HETATM   15  O   UNL     1      64.526  10.134   5.812  1.00  0.00    -0.396 OA
HETATM   16  H   UNL     1      64.427   9.948   6.759  1.00  0.00     0.209 HD
ENDBRANCH  14  15
ENDBRANCH   5  14
TORSDOF 3
ENDMDL
MODEL 6
REMARK VINA RESULT:      -4.9      4.742      6.884
REMARK  3 active torsions:
REMARK  status: ('A' for Active; 'I' for Inactive)
REMARK    1  A    between atoms: C_3  and  C_7 
REMARK    2  A    between atoms: C_5  and  C_8 
REMARK    3  A    between atoms: C_8  and  O_10 
ROOT
HETATM    1  N   UNL     1      69.225   5.748   7.984  1.00  0.00    -0.353 N 
ATOM      2  HN  UNL     1      69.609   6.652   7.711  1.00  0.00     0.166 HD
HETATM    3  C   UNL     1      68.002   5.340   7.708  1.00  0.00     0.085 A 
HETATM    4  S   UNL     1      67.620   3.777   8.323  1.00  0.00    -0.072 SA
HETATM    5  C   UNL     1      69.193   3.638   8.984  1.00  0.00     0.030 A 
HETATM    6  C   UNL     1      69.920   4.781   8.698  1.00  0.00     0.021 A 
HETATM    7  C   UNL     1      71.329   5.076   9.069  1.00  0.00     0.069 C 
ENDROOT
BRANCH   3   8
HETATM    8  C   UNL     1      66.991   6.147   7.003  1.00  0.00    -0.002 A 
HETATM    9  C   UNL     1      65.622   6.085   7.309  1.00  0.00     0.014 A 
HETATM   10  C   UNL     1      64.699   6.895   6.640  1.00  0.00     0.001 A 
HETATM   11  C   UNL     1      65.131   7.773   5.648  1.00  0.00     0.000 A 
HETATM   12  C   UNL     1      66.482   7.830   5.313  1.00  0.00     0.001 A 
HETATM   13  C   UNL     1      67.403   7.019   5.981  1.00  0.00     0.014 A 
ENDBRANCH   3   8
BRANCH   5  14
HETATM   14  C   UNL     1      69.583   2.421   9.746  1.00  0.00     0.212 C 
BRANCH  14  15
HETATM   15  O   UNL     1      69.798   2.805  11.097  1.00  0.00    -0.396 OA
HETATM   16  H   UNL     1      70.376   2.157  11.530  1.00  0.00     0.209 HD
ENDBRANCH  14  15
ENDBRANCH   5  14
TORSDOF 3
ENDMDL
MODEL 7
REMARK VINA RESULT:      -4.8      2.737      5.897
REMARK  3 active torsions:
REMARK  status: ('A' for Active; 'I' for Inactive)
REMARK    1  A    between atoms: C_3  and  C_7 
REMARK    2  A    between atoms: C_5  and  C_8 
REMARK    3  A    between atoms: C_8  and  O_10 
ROOT
HETATM    1  N   UNL     1      64.169   9.492   5.586  1.00  0.00    -0.353 N 
ATOM      2  HN  UNL     1      64.599   9.997   6.361  1.00  0.00     0.166 HD
HETATM    3  C   UNL     1      64.551   8.303   5.165  1.00  0.00     0.085 A 
HETATM    4  S   UNL     1      63.661   7.709   3.815  1.00  0.00    -0.072 SA
HETATM    5  C   UNL     1      62.700   9.126   3.809  1.00  0.00     0.030 A 
HETATM    6  C   UNL     1      63.104   9.966   4.832  1.00  0.00     0.021 A 
HETATM    7  C   UNL     1      62.535  11.291   5.196  1.00  0.00     0.069 C 
ENDROOT
BRANCH   3   8
HETATM    8  C   UNL     1      65.685   7.544   5.721  1.00  0.00    -0.002 A 
HETATM    9  C   UNL     1      66.938   7.480   5.090  1.00  0.00     0.014 A 
HETATM   10  C   UNL     1      67.998   6.777   5.670  1.00  0.00     0.001 A 
HETATM   11  C   UNL     1      67.819   6.121   6.886  1.00  0.00     0.000 A 
HETATM   12  C   UNL     1      66.577   6.153   7.514  1.00  0.00     0.001 A 
HETATM   13  C   UNL     1      65.516   6.853   6.932  1.00  0.00     0.014 A 
ENDBRANCH   3   8
BRANCH   5  14
HETATM   14  C   UNL     1      61.632   9.305   2.789  1.00  0.00     0.212 C 
BRANCH  14  15
HETATM   15  O   UNL     1      60.398   8.921   3.381  1.00  0.00    -0.396 OA
HETATM   16  H   UNL     1      59.787   8.621   2.689  1.00  0.00     0.209 HD
ENDBRANCH  14  15
ENDBRANCH   5  14
TORSDOF 3
ENDMDL
MODEL 8
REMARK VINA RESULT:      -4.7      3.257      7.151
REMARK  3 active torsions:
REMARK  status: ('A' for Active; 'I' for Inactive)
REMARK    1  A    between atoms: C_3  and  C_7 
REMARK    2  A    between atoms: C_5  and  C_8 
REMARK    3  A    between atoms: C_8  and  O_10 
ROOT
HETATM    1  N   UNL     1      66.076   5.693   5.015  1.00  0.00    -0.353 N 
ATOM      2  HN  UNL     1      66.643   5.144   4.369  1.00  0.00     0.166 HD
HETATM    3  C   UNL     1      66.327   5.827   6.302  1.00  0.00     0.085 A 
HETATM    4  S   UNL     1      65.180   6.790   7.152  1.00  0.00    -0.072 SA
HETATM    5  C   UNL     1      64.307   7.052   5.703  1.00  0.00     0.030 A 
HETATM    6  C   UNL     1      64.936   6.400   4.656  1.00  0.00     0.021 A 
HETATM    7  C   UNL     1      64.527   6.372   3.227  1.00  0.00     0.069 C 
ENDROOT
BRANCH   3   8
HETATM    8  C   UNL     1      67.438   5.167   7.010  1.00  0.00    -0.002 A 
HETATM    9  C   UNL     1      67.927   3.903   6.644  1.00  0.00     0.014 A 
HETATM   10  C   UNL     1      69.007   3.328   7.321  1.00  0.00     0.001 A 
HETATM   11  C   UNL     1      69.609   4.005   8.378  1.00  0.00     0.000 A 
HETATM   12  C   UNL     1      69.122   5.249   8.772  1.00  0.00     0.001 A 
HETATM   13  C   UNL     1      68.041   5.822   8.097  1.00  0.00     0.014 A 
ENDBRANCH   3   8
BRANCH   5  14
HETATM   14  C   UNL     1      63.063   7.869   5.711  1.00  0.00     0.212 C 
BRANCH  14  15
HETATM   15  O   UNL     1      62.644   8.006   7.063  1.00  0.00    -0.396 OA
HETATM   16  H   UNL     1      61.695   8.207   7.088  1.00  0.00     0.209 HD
ENDBRANCH  14  15
ENDBRANCH   5  14
TORSDOF 3
ENDMDL
MODEL 9
REMARK VINA RESULT:      -4.6     18.815     19.969
REMARK  3 active torsions:
REMARK  status: ('A' for Active; 'I' for Inactive)
REMARK    1  A    between atoms: C_3  and  C_7 
REMARK    2  A    between atoms: C_5  and  C_8 
REMARK    3  A    between atoms: C_8  and  O_10 
ROOT
HETATM    1  N   UNL     1      77.723  -0.452  16.468  1.00  0.00    -0.353 N 
ATOM      2  HN  UNL     1      78.701  -0.726  16.566  1.00  0.00     0.166 HD
HETATM    3  C   UNL     1      77.071  -0.404  15.324  1.00  0.00     0.085 A 
HETATM    4  S   UNL     1      75.437   0.124  15.461  1.00  0.00    -0.072 SA
HETATM    5  C   UNL     1      75.616   0.281  17.156  1.00  0.00     0.030 A 
HETATM    6  C   UNL     1      76.901  -0.079  17.523  1.00  0.00     0.021 A 
HETATM    7  C   UNL     1      77.481  -0.104  18.892  1.00  0.00     0.069 C 
ENDROOT
BRANCH   3   8
HETATM    8  C   UNL     1      77.667  -0.694  14.008  1.00  0.00    -0.002 A 
HETATM    9  C   UNL     1      77.023  -0.388  12.799  1.00  0.00     0.014 A 
HETATM   10  C   UNL     1      77.640  -0.648  11.571  1.00  0.00     0.001 A 
HETATM   11  C   UNL     1      78.908  -1.223  11.535  1.00  0.00     0.000 A 
HETATM   12  C   UNL     1      79.553  -1.556  12.724  1.00  0.00     0.001 A 
HETATM   13  C   UNL     1      78.934  -1.299  13.950  1.00  0.00     0.014 A 
ENDBRANCH   3   8
BRANCH   5  14
HETATM   14  C   UNL     1      74.482   0.760  17.991  1.00  0.00     0.212 C 
BRANCH  14  15
HETATM   15  O   UNL     1      74.776   2.089  18.401  1.00  0.00    -0.396 OA
HETATM   16  H   UNL     1      75.665   2.332  18.098  1.00  0.00     0.209 HD
ENDBRANCH  14  15
ENDBRANCH   5  14
TORSDOF 3
ENDMDL
