MODEL 1
REMARK VINA RESULT:      -4.6      0.000      0.000
REMARK  1 active torsions:
REMARK  status: ('A' for Active; 'I' for Inactive)
REMARK    1  A    between atoms: C_1  and  C_4 
ROOT
HETATM    1  O   UNL     1      77.585  13.786  20.080  1.00  0.00    -0.391 OA
HETATM    2  C   UNL     1      77.444  10.980  19.476  1.00  0.00     0.091 C 
HETATM    3  C   UNL     1      76.396  13.265  19.488  1.00  0.00     0.168 C 
HETATM    4  C   UNL     1      78.206  12.851  20.960  1.00  0.00     0.168 C 
HETATM    5  C   UNL     1      76.710  12.039  18.644  1.00  0.00     0.041 C 
HETATM    6  C   UNL     1      78.637  11.606  20.201  1.00  0.00     0.041 C 
ENDROOT
BRANCH   2   7
HETATM    7  C   UNL     1      77.889   9.825  18.612  1.00  0.00     0.177 C 
HETATM    8  O   UNL     1      78.656   9.865  17.665  1.00  0.00    -0.648 OA
HETATM    9  O   UNL     1      77.291   8.665  18.948  1.00  0.00    -0.648 OA
ENDBRANCH   2   7
TORSDOF 1
ENDMDL
MODEL 2
REMARK VINA RESULT:      -4.5      3.093      5.296
REMARK  1 active torsions:
REMARK  status: ('A' for Active; 'I' for Inactive)
REMARK    1  A    between atoms: C_1  and  C_4 
ROOT
HETATM    1  O   UNL     1      77.830   7.921  13.984  1.00  0.00    -0.391 OA
HETATM    2  C   UNL     1      77.392   9.072  16.582  1.00  0.00     0.091 C 
HETATM    3  C   UNL     1      76.920   7.283  14.879  1.00  0.00     0.168 C 
HETATM    4  C   UNL     1      77.822   9.340  14.126  1.00  0.00     0.168 C 
HETATM    5  C   UNL     1      77.305   7.563  16.325  1.00  0.00     0.041 C 
HETATM    6  C   UNL     1      78.270   9.741  15.523  1.00  0.00     0.041 C 
ENDROOT
BRANCH   2   7
HETATM    7  C   UNL     1      77.915   9.356  17.968  1.00  0.00     0.177 C 
HETATM    8  O   UNL     1      78.840  10.088  18.272  1.00  0.00    -0.648 OA
HETATM    9  O   UNL     1      77.276   8.645  18.919  1.00  0.00    -0.648 OA
ENDBRANCH   2   7
TORSDOF 1
ENDMDL
MODEL 3
REMARK VINA RESULT:      -4.2      0.707      2.003
REMARK  1 active torsions:
REMARK  status: ('A' for Active; 'I' for Inactive)
REMARK    1  A    between atoms: C_1  and  C_4 
ROOT
HETATM    1  O   UNL     1      76.323  13.365  20.543  1.00  0.00    -0.391 OA
HETATM    2  C   UNL     1      77.852  11.324  19.218  1.00  0.00     0.091 C 
HETATM    3  C   UNL     1      77.514  12.882  21.162  1.00  0.00     0.168 C 
HETATM    4  C   UNL     1      76.420  13.379  19.120  1.00  0.00     0.168 C 
HETATM    5  C   UNL     1      77.790  11.445  20.745  1.00  0.00     0.041 C 
HETATM    6  C   UNL     1      76.619  11.971  18.583  1.00  0.00     0.041 C 
ENDROOT
BRANCH   2   7
HETATM    7  C   UNL     1      77.978   9.881  18.793  1.00  0.00     0.177 C 
HETATM    8  O   UNL     1      77.283   8.945  19.148  1.00  0.00    -0.648 OA
HETATM    9  O   UNL     1      79.028   9.671  17.975  1.00  0.00    -0.648 OA
ENDBRANCH   2   7
TORSDOF 1
ENDMDL
MODEL 4
REMARK VINA RESULT:      -4.2     21.373     22.481
REMARK  1 active torsions:
REMARK  status: ('A' for Active; 'I' for Inactive)
REMARK    1  A    between atoms: C_1  and  C_4 
ROOT
HETATM    1  O   UNL     1      63.523   7.431   3.304  1.00  0.00    -0.391 OA
HETATM    2  C   UNL     1      61.969   9.849   3.374  1.00  0.00     0.091 C 
HETATM    3  C   UNL     1      63.154   7.980   4.568  1.00  0.00     0.168 C 
HETATM    4  C   UNL     1      62.524   7.649   2.309  1.00  0.00     0.168 C 
HETATM    5  C   UNL     1      62.982   9.489   4.468  1.00  0.00     0.041 C 
HETATM    6  C   UNL     1      62.324   9.136   2.068  1.00  0.00     0.041 C 
ENDROOT
BRANCH   2   7
HETATM    7  C   UNL     1      61.903  11.343   3.168  1.00  0.00     0.177 C 
HETATM    8  O   UNL     1      61.964  11.945   2.110  1.00  0.00    -0.648 OA
HETATM    9  O   UNL     1      61.824  12.024   4.329  1.00  0.00    -0.648 OA
ENDBRANCH   2   7
TORSDOF 1
ENDMDL
MODEL 5
REMARK VINA RESULT:      -4.1     22.511     23.494
REMARK  1 active torsions:
REMARK  status: ('A' for Active; 'I' for Inactive)
REMARK    1  A    between atoms: C_1  and  C_4 
ROOT
HETATM    1  O   UNL     1      61.180   7.225   1.869  1.00  0.00    -0.391 OA
HETATM    2  C   UNL     1      62.203   9.760   2.757  1.00  0.00     0.091 C 
HETATM    3  C   UNL     1      62.039   7.966   1.004  1.00  0.00     0.168 C 
HETATM    4  C   UNL     1      61.518   7.398   3.244  1.00  0.00     0.168 C 
HETATM    5  C   UNL     1      61.922   9.458   1.280  1.00  0.00     0.041 C 
HETATM    6  C   UNL     1      61.359   8.853   3.655  1.00  0.00     0.041 C 
ENDROOT
BRANCH   2   7
HETATM    7  C   UNL     1      61.945  11.213   3.071  1.00  0.00     0.177 C 
HETATM    8  O   UNL     1      61.733  11.706   4.165  1.00  0.00    -0.648 OA
HETATM    9  O   UNL     1      61.904  11.983   1.964  1.00  0.00    -0.648 OA
ENDBRANCH   2   7
TORSDOF 1
ENDMDL
MODEL 6
REMARK VINA RESULT:      -3.9     20.950     21.906
REMARK  1 active torsions:
REMARK  status: ('A' for Active; 'I' for Inactive)
REMARK    1  A    between atoms: C_1  and  C_4 
ROOT
HETATM    1  O   UNL     1      64.071  10.028   5.654  1.00  0.00    -0.391 OA
HETATM    2  C   UNL     1      62.063   9.822   3.607  1.00  0.00     0.091 C 
HETATM    3  C   UNL     1      62.948  10.906   5.695  1.00  0.00     0.168 C 
HETATM    4  C   UNL     1      63.733   8.743   5.135  1.00  0.00     0.168 C 
HETATM    5  C   UNL     1      62.404  11.149   4.295  1.00  0.00     0.041 C 
HETATM    6  C   UNL     1      63.247   8.857   3.698  1.00  0.00     0.041 C 
ENDROOT
BRANCH   2   7
HETATM    7  C   UNL     1      61.664  10.045   2.169  1.00  0.00     0.177 C 
HETATM    8  O   UNL     1      61.279   9.207   1.372  1.00  0.00    -0.648 OA
HETATM    9  O   UNL     1      61.829  11.324   1.777  1.00  0.00    -0.648 OA
ENDBRANCH   2   7
TORSDOF 1
ENDMDL
MODEL 7
REMARK VINA RESULT:      -3.9      7.690     10.001
REMARK  1 active torsions:
REMARK  status: ('A' for Active; 'I' for Inactive)
REMARK    1  A    between atoms: C_1  and  C_4 
ROOT
HETATM    1  O   UNL     1      74.859   0.350  17.066  1.00  0.00    -0.391 OA
HETATM    2  C   UNL     1      76.509   2.658  17.526  1.00  0.00     0.091 C 
HETATM    3  C   UNL     1      74.585   1.550  16.346  1.00  0.00     0.168 C 
HETATM    4  C   UNL     1      76.253   0.173  17.313  1.00  0.00     0.168 C 
HETATM    5  C   UNL     1      75.028   2.768  17.144  1.00  0.00     0.041 C 
HETATM    6  C   UNL     1      76.790   1.303  18.177  1.00  0.00     0.041 C 
ENDROOT
BRANCH   2   7
HETATM    7  C   UNL     1      76.917   3.786  18.441  1.00  0.00     0.177 C 
HETATM    8  O   UNL     1      77.155   3.719  19.635  1.00  0.00    -0.648 OA
HETATM    9  O   UNL     1      76.947   4.979  17.813  1.00  0.00    -0.648 OA
ENDBRANCH   2   7
TORSDOF 1
ENDMDL
MODEL 8
REMARK VINA RESULT:      -3.7     15.637     16.872
REMARK  1 active torsions:
REMARK  status: ('A' for Active; 'I' for Inactive)
REMARK    1  A    between atoms: C_1  and  C_4 
ROOT
HETATM    1  O   UNL     1      69.298   4.338   8.062  1.00  0.00    -0.391 OA
HETATM    2  C   UNL     1      66.840   5.805   7.805  1.00  0.00     0.091 C 
HETATM    3  C   UNL     1      68.646   4.807   9.241  1.00  0.00     0.168 C 
HETATM    4  C   UNL     1      68.372   3.973   7.041  1.00  0.00     0.168 C 
HETATM    5  C   UNL     1      67.836   6.060   8.943  1.00  0.00     0.041 C 
HETATM    6  C   UNL     1      67.554   5.179   6.605  1.00  0.00     0.041 C 
ENDROOT
BRANCH   2   7
HETATM    7  C   UNL     1      66.138   7.079   7.404  1.00  0.00     0.177 C 
HETATM    8  O   UNL     1      66.653   8.143   7.107  1.00  0.00    -0.648 OA
HETATM    9  O   UNL     1      64.795   6.970   7.456  1.00  0.00    -0.648 OA
ENDBRANCH   2   7
TORSDOF 1
ENDMDL
MODEL 9
REMARK VINA RESULT:      -3.6     14.764     16.097
REMARK  1 active torsions:
REMARK  status: ('A' for Active; 'I' for Inactive)
REMARK    1  A    between atoms: C_1  and  C_4 
ROOT
HETATM    1  O   UNL     1      67.937   5.114   6.187  1.00  0.00    -0.391 OA
HETATM    2  C   UNL     1      68.793   3.970   8.681  1.00  0.00     0.091 C 
HETATM    3  C   UNL     1      67.845   3.702   6.368  1.00  0.00     0.168 C 
HETATM    4  C   UNL     1      67.706   5.830   7.399  1.00  0.00     0.168 C 
HETATM    5  C   UNL     1      68.902   3.217   7.350  1.00  0.00     0.041 C 
HETATM    6  C   UNL     1      68.761   5.480   8.436  1.00  0.00     0.041 C 
ENDROOT
BRANCH   2   7
HETATM    7  C   UNL     1      69.927   3.602   9.606  1.00  0.00     0.177 C 
HETATM    8  O   UNL     1      69.931   2.730  10.458  1.00  0.00    -0.648 OA
HETATM    9  O   UNL     1      71.001   4.403   9.454  1.00  0.00    -0.648 OA
ENDBRANCH   2   7
TORSDOF 1
ENDMDL
