MODEL 1
REMARK VINA RESULT:      -5.3      0.000      0.000
REMARK  3 active torsions:
REMARK  status: ('A' for Active; 'I' for Inactive)
REMARK    1  A    between atoms: C_3  and  C_7 
REMARK    2  A    between atoms: C_5  and  C_8 
REMARK    3  A    between atoms: C_8  and  N_9 
ROOT
HETATM    1  N   UNL     1      65.794   8.070   5.013  1.00  0.00    -0.353 N 
ATOM      2  HN  UNL     1      66.279   8.693   4.366  1.00  0.00     0.166 HD
HETATM    3  C   UNL     1      64.493   8.072   5.217  1.00  0.00     0.085 A 
HETATM    4  S   UNL     1      63.951   6.909   6.366  1.00  0.00    -0.072 SA
HETATM    5  C   UNL     1      65.565   6.390   6.618  1.00  0.00     0.032 A 
HETATM    6  C   UNL     1      66.418   7.108   5.795  1.00  0.00     0.021 A 
HETATM    7  C   UNL     1      67.895   6.981   5.688  1.00  0.00     0.069 C 
ENDROOT
BRANCH   3   8
HETATM    8  C   UNL     1      63.552   9.016   4.592  1.00  0.00    -0.002 A 
HETATM    9  C   UNL     1      63.196  10.239   5.184  1.00  0.00     0.014 A 
HETATM   10  C   UNL     1      62.316  11.117   4.545  1.00  0.00     0.001 A 
HETATM   11  C   UNL     1      61.774  10.783   3.307  1.00  0.00     0.000 A 
HETATM   12  C   UNL     1      62.103   9.570   2.710  1.00  0.00     0.001 A 
HETATM   13  C   UNL     1      62.981   8.691   3.351  1.00  0.00     0.014 A 
ENDBRANCH   3   8
BRANCH   5  14
HETATM   14  C   UNL     1      65.860   5.318   7.620  1.00  0.00     0.279 C 
BRANCH  14  15
HETATM   15  N   UNL     1      66.384   5.845   8.886  1.00  0.00    -0.075 N 
HETATM   16  C   UNL     1      67.796   5.532   9.079  1.00  0.00     0.267 C 
HETATM   17  H   UNL     1      65.850   5.439   9.655  1.00  0.00     0.277 HD
HETATM   18  H   UNL     1      66.291   6.861   8.861  1.00  0.00     0.277 HD
ENDBRANCH  14  15
ENDBRANCH   5  14
TORSDOF 3
ENDMDL
MODEL 2
REMARK VINA RESULT:      -5.3      1.756      2.351
REMARK  3 active torsions:
REMARK  status: ('A' for Active; 'I' for Inactive)
REMARK    1  A    between atoms: C_3  and  C_7 
REMARK    2  A    between atoms: C_5  and  C_8 
REMARK    3  A    between atoms: C_8  and  N_9 
ROOT
HETATM    1  N   UNL     1      62.292   7.224   5.083  1.00  0.00    -0.353 N 
ATOM      2  HN  UNL     1      61.323   7.068   4.803  1.00  0.00     0.166 HD
HETATM    3  C   UNL     1      63.020   8.258   4.713  1.00  0.00     0.085 A 
HETATM    4  S   UNL     1      64.624   8.261   5.340  1.00  0.00    -0.072 SA
HETATM    5  C   UNL     1      64.326   6.773   6.137  1.00  0.00     0.032 A 
HETATM    6  C   UNL     1      63.019   6.376   5.906  1.00  0.00     0.021 A 
HETATM    7  C   UNL     1      62.342   5.150   6.407  1.00  0.00     0.069 C 
ENDROOT
BRANCH   3   8
HETATM    8  C   UNL     1      62.565   9.308   3.786  1.00  0.00    -0.002 A 
HETATM    9  C   UNL     1      62.274  10.617   4.204  1.00  0.00     0.014 A 
HETATM   10  C   UNL     1      61.867  11.589   3.287  1.00  0.00     0.001 A 
HETATM   11  C   UNL     1      61.738  11.267   1.939  1.00  0.00     0.000 A 
HETATM   12  C   UNL     1      62.008   9.973   1.507  1.00  0.00     0.001 A 
HETATM   13  C   UNL     1      62.413   8.999   2.425  1.00  0.00     0.014 A 
ENDBRANCH   3   8
BRANCH   5  14
HETATM   14  C   UNL     1      65.416   6.111   6.921  1.00  0.00     0.279 C 
BRANCH  14  15
HETATM   15  N   UNL     1      65.781   6.851   8.135  1.00  0.00    -0.075 N 
HETATM   16  C   UNL     1      66.719   6.114   8.976  1.00  0.00     0.267 C 
HETATM   17  H   UNL     1      64.934   7.035   8.672  1.00  0.00     0.277 HD
HETATM   18  H   UNL     1      66.236   7.717   7.845  1.00  0.00     0.277 HD
ENDBRANCH  14  15
ENDBRANCH   5  14
TORSDOF 3
ENDMDL
MODEL 3
REMARK VINA RESULT:      -5.1     16.561     19.343
REMARK  3 active torsions:
REMARK  status: ('A' for Active; 'I' for Inactive)
REMARK    1  A    between atoms: C_3  and  C_7 
REMARK    2  A    between atoms: C_5  and  C_8 
REMARK    3  A    between atoms: C_8  and  N_9 
ROOT
HETATM    1  N   UNL     1      77.859   1.739  19.494  1.00  0.00    -0.353 N 
ATOM      2  HN  UNL     1      77.909   2.586  20.062  1.00  0.00     0.166 HD
HETATM    3  C   UNL     1      77.214   1.645  18.349  1.00  0.00     0.085 A 
HETATM    4  S   UNL     1      77.301   0.092  17.608  1.00  0.00    -0.072 SA
HETATM    5  C   UNL     1      78.241  -0.491  18.918  1.00  0.00     0.032 A 
HETATM    6  C   UNL     1      78.460   0.533  19.825  1.00  0.00     0.021 A 
HETATM    7  C   UNL     1      79.224   0.467  21.099  1.00  0.00     0.069 C 
ENDROOT
BRANCH   3   8
HETATM    8  C   UNL     1      76.416   2.728  17.750  1.00  0.00    -0.002 A 
HETATM    9  C   UNL     1      75.143   2.518  17.197  1.00  0.00     0.014 A 
HETATM   10  C   UNL     1      74.410   3.579  16.659  1.00  0.00     0.001 A 
HETATM   11  C   UNL     1      74.941   4.866  16.660  1.00  0.00     0.000 A 
HETATM   12  C   UNL     1      76.206   5.093  17.191  1.00  0.00     0.001 A 
HETATM   13  C   UNL     1      76.941   4.030  17.727  1.00  0.00     0.014 A 
ENDBRANCH   3   8
BRANCH   5  14
HETATM   14  C   UNL     1      78.679  -1.922  18.947  1.00  0.00     0.279 C 
BRANCH  14  15
HETATM   15  N   UNL     1      79.991  -2.134  18.324  1.00  0.00    -0.075 N 
HETATM   16  C   UNL     1      81.060  -2.265  19.309  1.00  0.00     0.267 C 
HETATM   17  H   UNL     1      80.198  -1.339  17.720  1.00  0.00     0.277 HD
HETATM   18  H   UNL     1      79.946  -3.005  17.796  1.00  0.00     0.277 HD
ENDBRANCH  14  15
ENDBRANCH   5  14
TORSDOF 3
ENDMDL
MODEL 4
REMARK VINA RESULT:      -5.0      1.548      2.045
REMARK  3 active torsions:
REMARK  status: ('A' for Active; 'I' for Inactive)
REMARK    1  A    between atoms: C_3  and  C_7 
REMARK    2  A    between atoms: C_5  and  C_8 
REMARK    3  A    between atoms: C_8  and  N_9 
ROOT
HETATM    1  N   UNL     1      65.212   8.079   6.341  1.00  0.00    -0.353 N 
ATOM      2  HN  UNL     1      65.253   8.972   6.833  1.00  0.00     0.166 HD
HETATM    3  C   UNL     1      64.504   7.857   5.252  1.00  0.00     0.085 A 
HETATM    4  S   UNL     1      64.627   6.253   4.637  1.00  0.00    -0.072 SA
HETATM    5  C   UNL     1      65.675   5.828   5.925  1.00  0.00     0.032 A 
HETATM    6  C   UNL     1      65.895   6.934   6.729  1.00  0.00     0.021 A 
HETATM    7  C   UNL     1      66.738   7.014   7.951  1.00  0.00     0.069 C 
ENDROOT
BRANCH   3   8
HETATM    8  C   UNL     1      63.615   8.846   4.620  1.00  0.00    -0.002 A 
HETATM    9  C   UNL     1      63.009   8.636   3.371  1.00  0.00     0.014 A 
HETATM   10  C   UNL     1      62.154   9.593   2.818  1.00  0.00     0.001 A 
HETATM   11  C   UNL     1      61.895  10.777   3.502  1.00  0.00     0.000 A 
HETATM   12  C   UNL     1      62.496  11.011   4.735  1.00  0.00     0.001 A 
HETATM   13  C   UNL     1      63.355  10.055   5.287  1.00  0.00     0.014 A 
ENDBRANCH   3   8
BRANCH   5  14
HETATM   14  C   UNL     1      66.189   4.427   6.042  1.00  0.00     0.279 C 
BRANCH  14  15
HETATM   15  N   UNL     1      67.633   4.323   5.804  1.00  0.00    -0.075 N 
HETATM   16  C   UNL     1      68.343   3.735   6.935  1.00  0.00     0.267 C 
HETATM   17  H   UNL     1      68.004   5.258   5.634  1.00  0.00     0.277 HD
HETATM   18  H   UNL     1      67.771   3.713   4.998  1.00  0.00     0.277 HD
ENDBRANCH  14  15
ENDBRANCH   5  14
TORSDOF 3
ENDMDL
MODEL 5
REMARK VINA RESULT:      -4.9      1.926      6.196
REMARK  3 active torsions:
REMARK  status: ('A' for Active; 'I' for Inactive)
REMARK    1  A    between atoms: C_3  and  C_7 
REMARK    2  A    between atoms: C_5  and  C_8 
REMARK    3  A    between atoms: C_8  and  N_9 
ROOT
HETATM    1  N   UNL     1      64.088   9.519   5.531  1.00  0.00    -0.353 N 
ATOM      2  HN  UNL     1      64.627  10.127   6.148  1.00  0.00     0.166 HD
HETATM    3  C   UNL     1      64.385   8.260   5.277  1.00  0.00     0.085 A 
HETATM    4  S   UNL     1      63.295   7.476   4.198  1.00  0.00    -0.072 SA
HETATM    5  C   UNL     1      62.386   8.922   4.047  1.00  0.00     0.032 A 
HETATM    6  C   UNL     1      62.944   9.906   4.847  1.00  0.00     0.021 A 
HETATM    7  C   UNL     1      62.477  11.307   5.018  1.00  0.00     0.069 C 
ENDROOT
BRANCH   3   8
HETATM    8  C   UNL     1      65.574   7.564   5.794  1.00  0.00    -0.002 A 
HETATM    9  C   UNL     1      65.574   6.855   7.006  1.00  0.00     0.014 A 
HETATM   10  C   UNL     1      66.719   6.189   7.448  1.00  0.00     0.001 A 
HETATM   11  C   UNL     1      67.886   6.226   6.689  1.00  0.00     0.000 A 
HETATM   12  C   UNL     1      67.911   6.934   5.492  1.00  0.00     0.001 A 
HETATM   13  C   UNL     1      66.765   7.603   5.050  1.00  0.00     0.014 A 
ENDBRANCH   3   8
BRANCH   5  14
HETATM   14  C   UNL     1      61.198   8.968   3.139  1.00  0.00     0.279 C 
BRANCH  14  15
HETATM   15  N   UNL     1      61.411   9.812   1.957  1.00  0.00    -0.075 N 
HETATM   16  C   UNL     1      62.095   9.101   0.881  1.00  0.00     0.267 C 
HETATM   17  H   UNL     1      61.975  10.617   2.227  1.00  0.00     0.277 HD
HETATM   18  H   UNL     1      60.495  10.096   1.609  1.00  0.00     0.277 HD
ENDBRANCH  14  15
ENDBRANCH   5  14
TORSDOF 3
ENDMDL
MODEL 6
REMARK VINA RESULT:      -4.9      2.224      7.169
REMARK  3 active torsions:
REMARK  status: ('A' for Active; 'I' for Inactive)
REMARK    1  A    between atoms: C_3  and  C_7 
REMARK    2  A    between atoms: C_5  and  C_8 
REMARK    3  A    between atoms: C_8  and  N_9 
ROOT
HETATM    1  N   UNL     1      67.622   5.242   5.744  1.00  0.00    -0.353 N 
ATOM      2  HN  UNL     1      68.106   4.458   5.304  1.00  0.00     0.166 HD
HETATM    3  C   UNL     1      67.633   5.497   7.036  1.00  0.00     0.085 A 
HETATM    4  S   UNL     1      66.730   6.890   7.495  1.00  0.00    -0.072 SA
HETATM    5  C   UNL     1      66.281   7.150   5.861  1.00  0.00     0.032 A 
HETATM    6  C   UNL     1      66.866   6.184   5.059  1.00  0.00     0.021 A 
HETATM    7  C   UNL     1      66.745   6.034   3.585  1.00  0.00     0.069 C 
ENDROOT
BRANCH   3   8
HETATM    8  C   UNL     1      68.289   4.651   8.047  1.00  0.00    -0.002 A 
HETATM    9  C   UNL     1      69.559   4.939   8.571  1.00  0.00     0.014 A 
HETATM   10  C   UNL     1      70.136   4.121   9.546  1.00  0.00     0.001 A 
HETATM   11  C   UNL     1      69.454   2.999  10.009  1.00  0.00     0.000 A 
HETATM   12  C   UNL     1      68.200   2.688   9.493  1.00  0.00     0.001 A 
HETATM   13  C   UNL     1      67.624   3.505   8.514  1.00  0.00     0.014 A 
ENDBRANCH   3   8
BRANCH   5  14
HETATM   14  C   UNL     1      65.374   8.286   5.504  1.00  0.00     0.279 C 
BRANCH  14  15
HETATM   15  N   UNL     1      63.994   8.083   5.959  1.00  0.00    -0.075 N 
HETATM   16  C   UNL     1      63.041   8.921   5.238  1.00  0.00     0.267 C 
HETATM   17  H   UNL     1      63.940   8.307   6.953  1.00  0.00     0.277 HD
HETATM   18  H   UNL     1      63.749   7.109   5.780  1.00  0.00     0.277 HD
ENDBRANCH  14  15
ENDBRANCH   5  14
TORSDOF 3
ENDMDL
MODEL 7
REMARK VINA RESULT:      -4.9     16.593     19.162
REMARK  3 active torsions:
REMARK  status: ('A' for Active; 'I' for Inactive)
REMARK    1  A    between atoms: C_3  and  C_7 
REMARK    2  A    between atoms: C_5  and  C_8 
REMARK    3  A    between atoms: C_8  and  N_9 
ROOT
HETATM    1  N   UNL     1      77.986   1.840  19.519  1.00  0.00    -0.353 N 
ATOM      2  HN  UNL     1      78.090   2.686  20.081  1.00  0.00     0.166 HD
HETATM    3  C   UNL     1      77.315   1.773  18.387  1.00  0.00     0.085 A 
HETATM    4  S   UNL     1      77.311   0.215  17.653  1.00  0.00    -0.072 SA
HETATM    5  C   UNL     1      78.248  -0.409  18.947  1.00  0.00     0.032 A 
HETATM    6  C   UNL     1      78.535   0.607  19.844  1.00  0.00     0.021 A 
HETATM    7  C   UNL     1      79.320   0.510  21.103  1.00  0.00     0.069 C 
ENDROOT
BRANCH   3   8
HETATM    8  C   UNL     1      76.559   2.891  17.799  1.00  0.00    -0.002 A 
HETATM    9  C   UNL     1      77.016   4.218  17.831  1.00  0.00     0.014 A 
HETATM   10  C   UNL     1      76.276   5.246  17.240  1.00  0.00     0.001 A 
HETATM   11  C   UNL     1      75.066   4.964  16.613  1.00  0.00     0.000 A 
HETATM   12  C   UNL     1      74.589   3.658  16.582  1.00  0.00     0.001 A 
HETATM   13  C   UNL     1      75.328   2.629  17.176  1.00  0.00     0.014 A 
ENDBRANCH   3   8
BRANCH   5  14
HETATM   14  C   UNL     1      78.616  -1.859  18.975  1.00  0.00     0.279 C 
BRANCH  14  15
HETATM   15  N   UNL     1      77.450  -2.746  19.059  1.00  0.00    -0.075 N 
HETATM   16  C   UNL     1      76.744  -2.619  20.330  1.00  0.00     0.267 C 
HETATM   17  H   UNL     1      77.764  -3.710  18.954  1.00  0.00     0.277 HD
HETATM   18  H   UNL     1      76.804  -2.479  18.316  1.00  0.00     0.277 HD
ENDBRANCH  14  15
ENDBRANCH   5  14
TORSDOF 3
ENDMDL
MODEL 8
REMARK VINA RESULT:      -4.8      1.932      6.353
REMARK  3 active torsions:
REMARK  status: ('A' for Active; 'I' for Inactive)
REMARK    1  A    between atoms: C_3  and  C_7 
REMARK    2  A    between atoms: C_5  and  C_8 
REMARK    3  A    between atoms: C_8  and  N_9 
ROOT
HETATM    1  N   UNL     1      64.003   6.398   6.604  1.00  0.00    -0.353 N 
ATOM      2  HN  UNL     1      63.707   5.696   7.284  1.00  0.00     0.166 HD
HETATM    3  C   UNL     1      65.247   6.798   6.436  1.00  0.00     0.085 A 
HETATM    4  S   UNL     1      65.451   7.994   5.213  1.00  0.00    -0.072 SA
HETATM    5  C   UNL     1      63.763   7.987   4.910  1.00  0.00     0.032 A 
HETATM    6  C   UNL     1      63.148   7.058   5.732  1.00  0.00     0.021 A 
HETATM    7  C   UNL     1      61.700   6.725   5.800  1.00  0.00     0.069 C 
ENDROOT
BRANCH   3   8
HETATM    8  C   UNL     1      66.386   6.341   7.248  1.00  0.00    -0.002 A 
HETATM    9  C   UNL     1      67.440   5.577   6.720  1.00  0.00     0.014 A 
HETATM   10  C   UNL     1      68.513   5.183   7.522  1.00  0.00     0.001 A 
HETATM   11  C   UNL     1      68.549   5.542   8.867  1.00  0.00     0.000 A 
HETATM   12  C   UNL     1      67.509   6.286   9.413  1.00  0.00     0.001 A 
HETATM   13  C   UNL     1      66.432   6.678   8.611  1.00  0.00     0.014 A 
ENDBRANCH   3   8
BRANCH   5  14
HETATM   14  C   UNL     1      63.182   8.913   3.888  1.00  0.00     0.279 C 
BRANCH  14  15
HETATM   15  N   UNL     1      62.293   9.925   4.470  1.00  0.00    -0.075 N 
HETATM   16  C   UNL     1      62.976  10.780   5.435  1.00  0.00     0.267 C 
HETATM   17  H   UNL     1      61.522   9.451   4.941  1.00  0.00     0.277 HD
HETATM   18  H   UNL     1      61.959  10.519   3.710  1.00  0.00     0.277 HD
ENDBRANCH  14  15
ENDBRANCH   5  14
TORSDOF 3
ENDMDL
MODEL 9
REMARK VINA RESULT:      -4.4      2.084      6.743
REMARK  3 active torsions:
REMARK  status: ('A' for Active; 'I' for Inactive)
REMARK    1  A    between atoms: C_3  and  C_7 
REMARK    2  A    between atoms: C_5  and  C_8 
REMARK    3  A    between atoms: C_8  and  N_9 
ROOT
HETATM    1  N   UNL     1      64.664   4.845   6.834  1.00  0.00    -0.353 N 
ATOM      2  HN  UNL     1      64.590   3.903   7.220  1.00  0.00     0.166 HD
HETATM    3  C   UNL     1      65.775   5.552   6.795  1.00  0.00     0.085 A 
HETATM    4  S   UNL     1      65.602   7.111   6.084  1.00  0.00    -0.072 SA
HETATM    5  C   UNL     1      63.929   6.825   5.837  1.00  0.00     0.032 A 
HETATM    6  C   UNL     1      63.606   5.553   6.280  1.00  0.00     0.021 A 
HETATM    7  C   UNL     1      62.272   4.896   6.255  1.00  0.00     0.069 C 
ENDROOT
BRANCH   3   8
HETATM    8  C   UNL     1      67.061   5.115   7.361  1.00  0.00    -0.002 A 
HETATM    9  C   UNL     1      67.746   3.977   6.904  1.00  0.00     0.014 A 
HETATM   10  C   UNL     1      68.977   3.611   7.454  1.00  0.00     0.001 A 
HETATM   11  C   UNL     1      69.540   4.372   8.475  1.00  0.00     0.000 A 
HETATM   12  C   UNL     1      68.871   5.495   8.952  1.00  0.00     0.001 A 
HETATM   13  C   UNL     1      67.638   5.860   8.403  1.00  0.00     0.014 A 
ENDBRANCH   3   8
BRANCH   5  14
HETATM   14  C   UNL     1      63.068   7.889   5.233  1.00  0.00     0.279 C 
BRANCH  14  15
HETATM   15  N   UNL     1      63.055   9.130   6.015  1.00  0.00    -0.075 N 
HETATM   16  C   UNL     1      63.004  10.321   5.173  1.00  0.00     0.267 C 
HETATM   17  H   UNL     1      63.901   9.167   6.584  1.00  0.00     0.277 HD
HETATM   18  H   UNL     1      62.215   9.123   6.594  1.00  0.00     0.277 HD
ENDBRANCH  14  15
ENDBRANCH   5  14
TORSDOF 3
ENDMDL
