MODEL 1
REMARK VINA RESULT:      -6.4      0.000      0.000
REMARK  3 active torsions:
REMARK  status: ('A' for Active; 'I' for Inactive)
REMARK    1  A    between atoms: C_1  and  C_7 
REMARK    2  A    between atoms: C_6  and  C_9 
REMARK    3  A    between atoms: N_8  and  C_9 
ROOT
HETATM    1  C   UNL     1      77.281  10.107  17.937  1.00  0.00     0.111 A 
HETATM    2  N   UNL     1      77.638   9.178  15.919  1.00  0.00    -0.263 N 
ATOM      3  HN  UNL     1      77.879   9.059  14.936  1.00  0.00     0.194 HD
HETATM    4  C   UNL     1      76.977   8.772  18.054  1.00  0.00     0.069 A 
HETATM    5  O   UNL     1      77.666  10.355  16.652  1.00  0.00    -0.237 OA
HETATM    6  C   UNL     1      77.230   8.232  16.773  1.00  0.00     0.060 A 
ENDROOT
BRANCH   1   7
HETATM    7  C   UNL     1      77.281  11.233  18.862  1.00  0.00    -0.000 A 
HETATM    8  C   UNL     1      78.209  11.269  19.916  1.00  0.00     0.014 A 
HETATM    9  C   UNL     1      78.227  12.331  20.821  1.00  0.00     0.001 A 
HETATM   10  C   UNL     1      77.317  13.374  20.684  1.00  0.00     0.000 A 
HETATM   11  C   UNL     1      76.394  13.359  19.640  1.00  0.00     0.001 A 
HETATM   12  C   UNL     1      76.377  12.296  18.733  1.00  0.00     0.014 A 
ENDBRANCH   1   7
BRANCH   6  13
HETATM   13  C   UNL     1      77.100   6.813  16.342  1.00  0.00     0.288 C 
BRANCH  13  14
HETATM   14  N   UNL     1      77.052   6.747  14.879  1.00  0.00    -0.074 N 
HETATM   15  H   UNL     1      76.237   6.208  14.589  1.00  0.00     0.274 HD
HETATM   16  H   UNL     1      77.899   6.296  14.532  1.00  0.00     0.274 HD
HETATM   17  H   UNL     1      76.988   7.691  14.498  1.00  0.00     0.274 HD
ENDBRANCH  13  14
ENDBRANCH   6  13
TORSDOF 3
ENDMDL
MODEL 2
REMARK VINA RESULT:      -6.4      2.595      5.615
REMARK  3 active torsions:
REMARK  status: ('A' for Active; 'I' for Inactive)
REMARK    1  A    between atoms: C_1  and  C_7 
REMARK    2  A    between atoms: C_6  and  C_9 
REMARK    3  A    between atoms: N_8  and  C_9 
ROOT
HETATM    1  C   UNL     1      77.871   9.972  17.972  1.00  0.00     0.111 A 
HETATM    2  N   UNL     1      79.131  10.670  19.700  1.00  0.00    -0.263 N 
ATOM      3  HN  UNL     1      79.908  10.781  20.351  1.00  0.00     0.194 HD
HETATM    4  C   UNL     1      77.119  10.885  18.670  1.00  0.00     0.069 A 
HETATM    5  O   UNL     1      79.075   9.832  18.597  1.00  0.00    -0.237 OA
HETATM    6  C   UNL     1      77.953  11.304  19.730  1.00  0.00     0.060 A 
ENDROOT
BRANCH   1   7
HETATM    7  C   UNL     1      77.649   9.182  16.768  1.00  0.00    -0.000 A 
HETATM    8  C   UNL     1      77.912   9.744  15.508  1.00  0.00     0.014 A 
HETATM    9  C   UNL     1      77.702   9.013  14.337  1.00  0.00     0.001 A 
HETATM   10  C   UNL     1      77.227   7.709  14.411  1.00  0.00     0.000 A 
HETATM   11  C   UNL     1      76.967   7.131  15.653  1.00  0.00     0.001 A 
HETATM   12  C   UNL     1      77.180   7.863  16.825  1.00  0.00     0.014 A 
ENDBRANCH   1   7
BRANCH   6  13
HETATM   13  C   UNL     1      77.652  12.317  20.779  1.00  0.00     0.288 C 
BRANCH  13  14
HETATM   14  N   UNL     1      77.605  11.666  22.090  1.00  0.00    -0.074 N 
HETATM   15  H   UNL     1      76.707  11.860  22.534  1.00  0.00     0.274 HD
HETATM   16  H   UNL     1      78.358  12.027  22.676  1.00  0.00     0.274 HD
HETATM   17  H   UNL     1      77.716  10.659  21.974  1.00  0.00     0.274 HD
ENDBRANCH  13  14
ENDBRANCH   6  13
TORSDOF 3
ENDMDL
MODEL 3
REMARK VINA RESULT:      -6.3      3.623      5.180
REMARK  3 active torsions:
REMARK  status: ('A' for Active; 'I' for Inactive)
REMARK    1  A    between atoms: C_1  and  C_7 
REMARK    2  A    between atoms: C_6  and  C_9 
REMARK    3  A    between atoms: N_8  and  C_9 
ROOT
HETATM    1  C   UNL     1      76.513   5.888  17.126  1.00  0.00     0.111 A 
HETATM    2  N   UNL     1      76.516   3.985  18.327  1.00  0.00    -0.263 N 
ATOM      3  HN  UNL     1      76.718   3.295  19.050  1.00  0.00     0.194 HD
HETATM    4  C   UNL     1      75.679   5.009  16.481  1.00  0.00     0.069 A 
HETATM    5  O   UNL     1      77.027   5.270  18.229  1.00  0.00    -0.237 OA
HETATM    6  C   UNL     1      75.700   3.841  17.275  1.00  0.00     0.060 A 
ENDROOT
BRANCH   1   7
HETATM    7  C   UNL     1      76.922   7.265  16.882  1.00  0.00    -0.000 A 
HETATM    8  C   UNL     1      77.211   7.684  15.573  1.00  0.00     0.014 A 
HETATM    9  C   UNL     1      77.612   8.995  15.311  1.00  0.00     0.001 A 
HETATM   10  C   UNL     1      77.728   9.906  16.355  1.00  0.00     0.000 A 
HETATM   11  C   UNL     1      77.438   9.511  17.659  1.00  0.00     0.001 A 
HETATM   12  C   UNL     1      77.035   8.198  17.921  1.00  0.00     0.014 A 
ENDBRANCH   1   7
BRANCH   6  13
HETATM   13  C   UNL     1      74.943   2.578  17.059  1.00  0.00     0.288 C 
BRANCH  13  14
HETATM   14  N   UNL     1      74.880   1.822  18.313  1.00  0.00    -0.074 N 
HETATM   15  H   UNL     1      74.228   1.045  18.209  1.00  0.00     0.274 HD
HETATM   16  H   UNL     1      74.562   2.436  19.063  1.00  0.00     0.274 HD
HETATM   17  H   UNL     1      75.807   1.461  18.539  1.00  0.00     0.274 HD
ENDBRANCH  13  14
ENDBRANCH   6  13
TORSDOF 3
ENDMDL
MODEL 4
REMARK VINA RESULT:      -6.2      1.336      1.921
REMARK  3 active torsions:
REMARK  status: ('A' for Active; 'I' for Inactive)
REMARK    1  A    between atoms: C_1  and  C_7 
REMARK    2  A    between atoms: C_6  and  C_9 
REMARK    3  A    between atoms: N_8  and  C_9 
ROOT
HETATM    1  C   UNL     1      77.266   9.411  17.915  1.00  0.00     0.111 A 
HETATM    2  N   UNL     1      76.862   7.202  17.781  1.00  0.00    -0.263 N 
ATOM      3  HN  UNL     1      76.649   6.238  18.035  1.00  0.00     0.194 HD
HETATM    4  C   UNL     1      77.365   9.068  16.589  1.00  0.00     0.069 A 
HETATM    5  O   UNL     1      76.978   8.288  18.634  1.00  0.00    -0.237 OA
HETATM    6  C   UNL     1      77.090   7.683  16.552  1.00  0.00     0.060 A 
ENDROOT
BRANCH   1   7
HETATM    7  C   UNL     1      77.394  10.661  18.653  1.00  0.00    -0.000 A 
HETATM    8  C   UNL     1      76.595  11.761  18.303  1.00  0.00     0.014 A 
HETATM    9  C   UNL     1      76.700  12.973  18.988  1.00  0.00     0.001 A 
HETATM   10  C   UNL     1      77.607  13.100  20.034  1.00  0.00     0.000 A 
HETATM   11  C   UNL     1      78.403  12.017  20.401  1.00  0.00     0.001 A 
HETATM   12  C   UNL     1      78.296  10.803  19.716  1.00  0.00     0.014 A 
ENDBRANCH   1   7
BRANCH   6  13
HETATM   13  C   UNL     1      77.027   6.799  15.357  1.00  0.00     0.288 C 
BRANCH  13  14
HETATM   14  N   UNL     1      77.343   7.575  14.155  1.00  0.00    -0.074 N 
HETATM   15  H   UNL     1      77.809   8.441  14.422  1.00  0.00     0.274 HD
HETATM   16  H   UNL     1      76.480   7.793  13.656  1.00  0.00     0.274 HD
HETATM   17  H   UNL     1      77.958   7.030  13.551  1.00  0.00     0.274 HD
ENDBRANCH  13  14
ENDBRANCH   6  13
TORSDOF 3
ENDMDL
MODEL 5
REMARK VINA RESULT:      -6.2      1.539      2.086
REMARK  3 active torsions:
REMARK  status: ('A' for Active; 'I' for Inactive)
REMARK    1  A    between atoms: C_1  and  C_7 
REMARK    2  A    between atoms: C_6  and  C_9 
REMARK    3  A    between atoms: N_8  and  C_9 
ROOT
HETATM    1  C   UNL     1      77.308  10.874  16.916  1.00  0.00     0.111 A 
HETATM    2  N   UNL     1      77.427  11.080  14.679  1.00  0.00    -0.263 N 
ATOM      3  HN  UNL     1      77.413  11.476  13.740  1.00  0.00     0.194 HD
HETATM    4  C   UNL     1      77.599   9.628  16.417  1.00  0.00     0.069 A 
HETATM    5  O   UNL     1      77.191  11.745  15.873  1.00  0.00    -0.237 OA
HETATM    6  C   UNL     1      77.678   9.809  15.018  1.00  0.00     0.060 A 
ENDROOT
BRANCH   1   7
HETATM    7  C   UNL     1      77.120  11.412  18.257  1.00  0.00    -0.000 A 
HETATM    8  C   UNL     1      76.247  12.495  18.458  1.00  0.00     0.014 A 
HETATM    9  C   UNL     1      76.054  13.035  19.730  1.00  0.00     0.001 A 
HETATM   10  C   UNL     1      76.730  12.500  20.820  1.00  0.00     0.000 A 
HETATM   11  C   UNL     1      77.595  11.421  20.642  1.00  0.00     0.001 A 
HETATM   12  C   UNL     1      77.787  10.879  19.368  1.00  0.00     0.014 A 
ENDBRANCH   1   7
BRANCH   6  13
HETATM   13  C   UNL     1      78.004   8.789  13.985  1.00  0.00     0.288 C 
BRANCH  13  14
HETATM   14  N   UNL     1      77.263   7.556  14.263  1.00  0.00    -0.074 N 
HETATM   15  H   UNL     1      76.790   7.245  13.415  1.00  0.00     0.274 HD
HETATM   16  H   UNL     1      76.572   7.732  14.992  1.00  0.00     0.274 HD
HETATM   17  H   UNL     1      77.911   6.832  14.575  1.00  0.00     0.274 HD
ENDBRANCH  13  14
ENDBRANCH   6  13
TORSDOF 3
ENDMDL
MODEL 6
REMARK VINA RESULT:      -5.7      2.660      5.482
REMARK  3 active torsions:
REMARK  status: ('A' for Active; 'I' for Inactive)
REMARK    1  A    between atoms: C_1  and  C_7 
REMARK    2  A    between atoms: C_6  and  C_9 
REMARK    3  A    between atoms: N_8  and  C_9 
ROOT
HETATM    1  C   UNL     1      77.356  10.799  18.403  1.00  0.00     0.111 A 
HETATM    2  N   UNL     1      77.005  12.981  18.826  1.00  0.00    -0.263 N 
ATOM      3  HN  UNL     1      76.741  13.960  18.717  1.00  0.00     0.194 HD
HETATM    4  C   UNL     1      77.769  11.026  19.693  1.00  0.00     0.069 A 
HETATM    5  O   UNL     1      76.910  11.976  17.876  1.00  0.00    -0.237 OA
HETATM    6  C   UNL     1      77.516  12.398  19.918  1.00  0.00     0.060 A 
ENDROOT
BRANCH   1   7
HETATM    7  C   UNL     1      77.300   9.621  17.547  1.00  0.00    -0.000 A 
HETATM    8  C   UNL     1      76.967   8.374  18.100  1.00  0.00     0.014 A 
HETATM    9  C   UNL     1      76.912   7.228  17.305  1.00  0.00     0.001 A 
HETATM   10  C   UNL     1      77.188   7.314  15.946  1.00  0.00     0.000 A 
HETATM   11  C   UNL     1      77.513   8.544  15.378  1.00  0.00     0.001 A 
HETATM   12  C   UNL     1      77.566   9.692  16.173  1.00  0.00     0.014 A 
ENDBRANCH   1   7
BRANCH   6  13
HETATM   13  C   UNL     1      77.742  13.173  21.168  1.00  0.00     0.288 C 
BRANCH  13  14
HETATM   14  N   UNL     1      79.053  12.831  21.726  1.00  0.00    -0.074 N 
HETATM   15  H   UNL     1      79.428  12.016  21.242  1.00  0.00     0.274 HD
HETATM   16  H   UNL     1      78.955  12.622  22.719  1.00  0.00     0.274 HD
HETATM   17  H   UNL     1      79.690  13.620  21.605  1.00  0.00     0.274 HD
ENDBRANCH  13  14
ENDBRANCH   6  13
TORSDOF 3
ENDMDL
MODEL 7
REMARK VINA RESULT:      -5.7      3.751      6.716
REMARK  3 active torsions:
REMARK  status: ('A' for Active; 'I' for Inactive)
REMARK    1  A    between atoms: C_1  and  C_7 
REMARK    2  A    between atoms: C_6  and  C_9 
REMARK    3  A    between atoms: N_8  and  C_9 
ROOT
HETATM    1  C   UNL     1      76.614   6.290  17.069  1.00  0.00     0.111 A 
HETATM    2  N   UNL     1      77.144   8.312  17.902  1.00  0.00    -0.263 N 
ATOM      3  HN  UNL     1      77.299   9.082  18.552  1.00  0.00     0.194 HD
HETATM    4  C   UNL     1      77.005   7.068  16.007  1.00  0.00     0.069 A 
HETATM    5  O   UNL     1      76.684   7.039  18.207  1.00  0.00    -0.237 OA
HETATM    6  C   UNL     1      77.340   8.316  16.578  1.00  0.00     0.060 A 
ENDROOT
BRANCH   1   7
HETATM    7  C   UNL     1      76.177   4.907  17.208  1.00  0.00    -0.000 A 
HETATM    8  C   UNL     1      76.969   3.994  17.923  1.00  0.00     0.014 A 
HETATM    9  C   UNL     1      76.578   2.662  18.066  1.00  0.00     0.001 A 
HETATM   10  C   UNL     1      75.388   2.224  17.496  1.00  0.00     0.000 A 
HETATM   11  C   UNL     1      74.585   3.117  16.788  1.00  0.00     0.001 A 
HETATM   12  C   UNL     1      74.976   4.452  16.647  1.00  0.00     0.014 A 
ENDBRANCH   1   7
BRANCH   6  13
HETATM   13  C   UNL     1      77.862   9.525  15.884  1.00  0.00     0.288 C 
BRANCH  13  14
HETATM   14  N   UNL     1      78.264   9.171  14.520  1.00  0.00    -0.074 N 
HETATM   15  H   UNL     1      78.465  10.021  13.993  1.00  0.00     0.274 HD
HETATM   16  H   UNL     1      77.508   8.660  14.065  1.00  0.00     0.274 HD
HETATM   17  H   UNL     1      79.099   8.586  14.553  1.00  0.00     0.274 HD
ENDBRANCH  13  14
ENDBRANCH   6  13
TORSDOF 3
ENDMDL
MODEL 8
REMARK VINA RESULT:      -5.7     16.638     18.292
REMARK  3 active torsions:
REMARK  status: ('A' for Active; 'I' for Inactive)
REMARK    1  A    between atoms: C_1  and  C_7 
REMARK    2  A    between atoms: C_6  and  C_9 
REMARK    3  A    between atoms: N_8  and  C_9 
ROOT
HETATM    1  C   UNL     1      65.066   8.349   5.580  1.00  0.00     0.111 A 
HETATM    2  N   UNL     1      66.825   8.510   6.973  1.00  0.00    -0.263 N 
ATOM      3  HN  UNL     1      67.545   8.892   7.585  1.00  0.00     0.194 HD
HETATM    4  C   UNL     1      65.536   7.074   5.776  1.00  0.00     0.069 A 
HETATM    5  O   UNL     1      65.848   9.215   6.287  1.00  0.00    -0.237 OA
HETATM    6  C   UNL     1      66.624   7.223   6.665  1.00  0.00     0.060 A 
ENDROOT
BRANCH   1   7
HETATM    7  C   UNL     1      63.962   8.919   4.818  1.00  0.00    -0.000 A 
HETATM    8  C   UNL     1      63.483   8.249   3.679  1.00  0.00     0.014 A 
HETATM    9  C   UNL     1      62.432   8.775   2.927  1.00  0.00     0.001 A 
HETATM   10  C   UNL     1      61.844   9.977   3.302  1.00  0.00     0.000 A 
HETATM   11  C   UNL     1      62.301  10.652   4.433  1.00  0.00     0.001 A 
HETATM   12  C   UNL     1      63.352  10.125   5.188  1.00  0.00     0.014 A 
ENDBRANCH   1   7
BRANCH   6  13
HETATM   13  C   UNL     1      67.480   6.152   7.244  1.00  0.00     0.288 C 
BRANCH  13  14
HETATM   14  N   UNL     1      67.938   6.556   8.576  1.00  0.00    -0.074 N 
HETATM   15  H   UNL     1      68.296   5.741   9.074  1.00  0.00     0.274 HD
HETATM   16  H   UNL     1      67.157   6.956   9.096  1.00  0.00     0.274 HD
HETATM   17  H   UNL     1      68.679   7.251   8.484  1.00  0.00     0.274 HD
ENDBRANCH  13  14
ENDBRANCH   6  13
TORSDOF 3
ENDMDL
MODEL 9
REMARK VINA RESULT:      -5.2     18.044     19.642
REMARK  3 active torsions:
REMARK  status: ('A' for Active; 'I' for Inactive)
REMARK    1  A    between atoms: C_1  and  C_7 
REMARK    2  A    between atoms: C_6  and  C_9 
REMARK    3  A    between atoms: N_8  and  C_9 
ROOT
HETATM    1  C   UNL     1      63.752   8.427   4.886  1.00  0.00     0.111 A 
HETATM    2  N   UNL     1      63.922   7.436   6.899  1.00  0.00    -0.263 N 
ATOM      3  HN  UNL     1      63.701   7.098   7.835  1.00  0.00     0.194 HD
HETATM    4  C   UNL     1      65.012   7.886   4.958  1.00  0.00     0.069 A 
HETATM    5  O   UNL     1      63.101   8.169   6.057  1.00  0.00    -0.237 OA
HETATM    6  C   UNL     1      65.067   7.265   6.226  1.00  0.00     0.060 A 
ENDROOT
BRANCH   1   7
HETATM    7  C   UNL     1      63.021   9.167   3.866  1.00  0.00    -0.000 A 
HETATM    8  C   UNL     1      62.534  10.453   4.153  1.00  0.00     0.014 A 
HETATM    9  C   UNL     1      61.825  11.182   3.197  1.00  0.00     0.001 A 
HETATM   10  C   UNL     1      61.593  10.635   1.940  1.00  0.00     0.000 A 
HETATM   11  C   UNL     1      62.074   9.364   1.634  1.00  0.00     0.001 A 
HETATM   12  C   UNL     1      62.786   8.635   2.591  1.00  0.00     0.014 A 
ENDBRANCH   1   7
BRANCH   6  13
HETATM   13  C   UNL     1      66.195   6.492   6.813  1.00  0.00     0.288 C 
BRANCH  13  14
HETATM   14  N   UNL     1      67.115   7.408   7.492  1.00  0.00    -0.074 N 
HETATM   15  H   UNL     1      67.961   7.518   6.932  1.00  0.00     0.274 HD
HETATM   16  H   UNL     1      67.361   7.026   8.406  1.00  0.00     0.274 HD
HETATM   17  H   UNL     1      66.665   8.316   7.611  1.00  0.00     0.274 HD
ENDBRANCH  13  14
ENDBRANCH   6  13
TORSDOF 3
ENDMDL
