MODEL 1
REMARK VINA RESULT:      -4.6      0.000      0.000
REMARK  1 active torsions:
REMARK  status: ('A' for Active; 'I' for Inactive)
REMARK    1  A    between atoms: C_1  and  C_4 
REMARK       I    between atoms: C_4  and  N_8 
ROOT
HETATM    1  C   UNL     1      76.813   6.758  16.910  1.00  0.00     0.072 A 
HETATM    2  S   UNL     1      77.139   8.189  17.793  1.00  0.00    -0.096 SA
HETATM    3  C   UNL     1      77.000   6.963  15.555  1.00  0.00     0.031 A 
HETATM    4  C   UNL     1      77.524   9.061  16.374  1.00  0.00     0.057 A 
HETATM    5  C   UNL     1      77.413   8.295  15.230  1.00  0.00    -0.054 A 
HETATM    6  C   UNL     1      77.681   8.770  13.842  1.00  0.00     0.048 C 
ENDROOT
BRANCH   1   7
HETATM    7  C   UNL     1      76.399   5.520  17.545  1.00  0.00     0.256 C 
HETATM    8  O   UNL     1      76.974   5.013  18.505  1.00  0.00    -0.267 OA
HETATM    9  N   UNL     1      75.299   4.892  17.030  1.00  0.00    -0.366 N 
HETATM   10  H   UNL     1      74.824   5.281  16.261  1.00  0.00     0.159 HD
HETATM   11  H   UNL     1      74.981   4.049  17.430  1.00  0.00     0.159 HD
ENDBRANCH   1   7
TORSDOF 1
ENDMDL
MODEL 2
REMARK VINA RESULT:      -4.5      4.914      6.011
REMARK  1 active torsions:
REMARK  status: ('A' for Active; 'I' for Inactive)
REMARK    1  A    between atoms: C_1  and  C_4 
REMARK       I    between atoms: C_4  and  N_8 
ROOT
HETATM    1  C   UNL     1      77.323  11.253  18.813  1.00  0.00     0.072 A 
HETATM    2  S   UNL     1      76.241  12.569  18.645  1.00  0.00    -0.096 SA
HETATM    3  C   UNL     1      78.105  11.400  19.944  1.00  0.00     0.031 A 
HETATM    4  C   UNL     1      76.819  13.318  20.070  1.00  0.00     0.057 A 
HETATM    5  C   UNL     1      77.822  12.594  20.683  1.00  0.00    -0.054 A 
HETATM    6  C   UNL     1      78.526  12.984  21.939  1.00  0.00     0.048 C 
ENDROOT
BRANCH   1   7
HETATM    7  C   UNL     1      77.375  10.152  17.868  1.00  0.00     0.256 C 
HETATM    8  O   UNL     1      77.564  10.290  16.661  1.00  0.00    -0.267 OA
HETATM    9  N   UNL     1      77.201   8.891  18.367  1.00  0.00    -0.366 N 
HETATM   10  H   UNL     1      77.048   8.760  19.330  1.00  0.00     0.159 HD
HETATM   11  H   UNL     1      77.229   8.114  17.763  1.00  0.00     0.159 HD
ENDBRANCH   1   7
TORSDOF 1
ENDMDL
MODEL 3
REMARK VINA RESULT:      -4.5     17.314     18.147
REMARK  1 active torsions:
REMARK  status: ('A' for Active; 'I' for Inactive)
REMARK    1  A    between atoms: C_1  and  C_4 
REMARK       I    between atoms: C_4  and  N_8 
ROOT
HETATM    1  C   UNL     1      71.795  23.711  13.913  1.00  0.00     0.072 A 
HETATM    2  S   UNL     1      72.328  25.130  14.709  1.00  0.00    -0.096 SA
HETATM    3  C   UNL     1      70.435  23.531  14.087  1.00  0.00     0.031 A 
HETATM    4  C   UNL     1      70.755  25.489  15.276  1.00  0.00     0.057 A 
HETATM    5  C   UNL     1      69.819  24.555  14.876  1.00  0.00    -0.054 A 
HETATM    6  C   UNL     1      68.366  24.591  15.210  1.00  0.00     0.048 C 
ENDROOT
BRANCH   1   7
HETATM    7  C   UNL     1      72.689  22.846  13.166  1.00  0.00     0.256 C 
HETATM    8  O   UNL     1      72.331  21.824  12.584  1.00  0.00    -0.267 OA
HETATM    9  N   UNL     1      74.008  23.204  13.115  1.00  0.00    -0.366 N 
HETATM   10  H   UNL     1      74.315  24.018  13.574  1.00  0.00     0.159 HD
HETATM   11  H   UNL     1      74.650  22.647  12.618  1.00  0.00     0.159 HD
ENDBRANCH   1   7
TORSDOF 1
ENDMDL
MODEL 4
REMARK VINA RESULT:      -4.4     19.230     19.905
REMARK  1 active torsions:
REMARK  status: ('A' for Active; 'I' for Inactive)
REMARK    1  A    between atoms: C_1  and  C_4 
REMARK       I    between atoms: C_4  and  N_8 
ROOT
HETATM    1  C   UNL     1      62.544  10.115   3.896  1.00  0.00     0.072 A 
HETATM    2  S   UNL     1      63.326   8.651   4.314  1.00  0.00    -0.096 SA
HETATM    3  C   UNL     1      62.005  10.040   2.625  1.00  0.00     0.031 A 
HETATM    4  C   UNL     1      62.942   7.934   2.809  1.00  0.00     0.057 A 
HETATM    5  C   UNL     1      62.229   8.779   1.983  1.00  0.00    -0.054 A 
HETATM    6  C   UNL     1      61.749   8.445   0.611  1.00  0.00     0.048 C 
ENDROOT
BRANCH   1   7
HETATM    7  C   UNL     1      62.482  11.257   4.791  1.00  0.00     0.256 C 
HETATM    8  O   UNL     1      61.843  12.280   4.557  1.00  0.00    -0.267 OA
HETATM    9  N   UNL     1      63.181  11.171   5.963  1.00  0.00    -0.366 N 
HETATM   10  H   UNL     1      63.699  10.360   6.168  1.00  0.00     0.159 HD
HETATM   11  H   UNL     1      63.167  11.921   6.601  1.00  0.00     0.159 HD
ENDBRANCH   1   7
TORSDOF 1
ENDMDL
MODEL 5
REMARK VINA RESULT:      -4.4      3.299      4.231
REMARK  1 active torsions:
REMARK  status: ('A' for Active; 'I' for Inactive)
REMARK    1  A    between atoms: C_1  and  C_4 
REMARK       I    between atoms: C_4  and  N_8 
ROOT
HETATM    1  C   UNL     1      77.556   8.924  15.952  1.00  0.00     0.072 A 
HETATM    2  S   UNL     1      77.478   9.689  17.482  1.00  0.00    -0.096 SA
HETATM    3  C   UNL     1      77.206   7.590  16.050  1.00  0.00     0.031 A 
HETATM    4  C   UNL     1      76.983   8.247  18.256  1.00  0.00     0.057 A 
HETATM    5  C   UNL     1      76.870   7.184  17.382  1.00  0.00    -0.054 A 
HETATM    6  C   UNL     1      76.459   5.799  17.753  1.00  0.00     0.048 C 
ENDROOT
BRANCH   1   7
HETATM    7  C   UNL     1      77.943   9.626  14.741  1.00  0.00     0.256 C 
HETATM    8  O   UNL     1      78.635   9.134  13.852  1.00  0.00    -0.267 OA
HETATM    9  N   UNL     1      77.502  10.912  14.596  1.00  0.00    -0.366 N 
HETATM   10  H   UNL     1      76.948  11.324  15.297  1.00  0.00     0.159 HD
HETATM   11  H   UNL     1      77.740  11.426  13.790  1.00  0.00     0.159 HD
ENDBRANCH   1   7
TORSDOF 1
ENDMDL
MODEL 6
REMARK VINA RESULT:      -4.3      4.938      6.060
REMARK  1 active torsions:
REMARK  status: ('A' for Active; 'I' for Inactive)
REMARK    1  A    between atoms: C_1  and  C_4 
REMARK       I    between atoms: C_4  and  N_8 
ROOT
HETATM    1  C   UNL     1      76.591   2.455  18.002  1.00  0.00     0.072 A 
HETATM    2  S   UNL     1      77.400   0.956  18.182  1.00  0.00    -0.096 SA
HETATM    3  C   UNL     1      75.548   2.346  17.100  1.00  0.00     0.031 A 
HETATM    4  C   UNL     1      76.362   0.182  17.064  1.00  0.00     0.057 A 
HETATM    5  C   UNL     1      75.404   1.032  16.548  1.00  0.00    -0.054 A 
HETATM    6  C   UNL     1      74.358   0.655  15.555  1.00  0.00     0.048 C 
ENDROOT
BRANCH   1   7
HETATM    7  C   UNL     1      76.984   3.651  18.724  1.00  0.00     0.256 C 
HETATM    8  O   UNL     1      77.185   3.689  19.936  1.00  0.00    -0.267 OA
HETATM    9  N   UNL     1      77.137   4.798  17.995  1.00  0.00    -0.366 N 
HETATM   10  H   UNL     1      76.980   4.789  17.024  1.00  0.00     0.159 HD
HETATM   11  H   UNL     1      77.403   5.634  18.443  1.00  0.00     0.159 HD
ENDBRANCH   1   7
TORSDOF 1
ENDMDL
MODEL 7
REMARK VINA RESULT:      -4.3      1.319      1.979
REMARK  1 active torsions:
REMARK  status: ('A' for Active; 'I' for Inactive)
REMARK    1  A    between atoms: C_1  and  C_4 
REMARK       I    between atoms: C_4  and  N_8 
ROOT
HETATM    1  C   UNL     1      76.771   6.383  17.184  1.00  0.00     0.072 A 
HETATM    2  S   UNL     1      76.960   6.680  15.508  1.00  0.00    -0.096 SA
HETATM    3  C   UNL     1      76.954   7.544  17.913  1.00  0.00     0.031 A 
HETATM    4  C   UNL     1      77.281   8.340  15.767  1.00  0.00     0.057 A 
HETATM    5  C   UNL     1      77.250   8.687  17.103  1.00  0.00    -0.054 A 
HETATM    6  C   UNL     1      77.490  10.055  17.646  1.00  0.00     0.048 C 
ENDROOT
BRANCH   1   7
HETATM    7  C   UNL     1      76.460   5.070  17.720  1.00  0.00     0.256 C 
HETATM    8  O   UNL     1      77.011   4.580  18.703  1.00  0.00    -0.267 OA
HETATM    9  N   UNL     1      75.491   4.348  17.081  1.00  0.00    -0.366 N 
HETATM   10  H   UNL     1      75.038   4.723  16.292  1.00  0.00     0.159 HD
HETATM   11  H   UNL     1      75.246   3.453  17.410  1.00  0.00     0.159 HD
ENDBRANCH   1   7
TORSDOF 1
ENDMDL
MODEL 8
REMARK VINA RESULT:      -4.3      3.194      4.182
REMARK  1 active torsions:
REMARK  status: ('A' for Active; 'I' for Inactive)
REMARK    1  A    between atoms: C_1  and  C_4 
REMARK       I    between atoms: C_4  and  N_8 
ROOT
HETATM    1  C   UNL     1      77.531   8.786  15.759  1.00  0.00     0.072 A 
HETATM    2  S   UNL     1      77.032   7.379  16.598  1.00  0.00    -0.096 SA
HETATM    3  C   UNL     1      77.760   9.828  16.639  1.00  0.00     0.031 A 
HETATM    4  C   UNL     1      77.123   8.165  18.114  1.00  0.00     0.057 A 
HETATM    5  C   UNL     1      77.527   9.481  18.009  1.00  0.00    -0.054 A 
HETATM    6  C   UNL     1      77.701  10.426  19.150  1.00  0.00     0.048 C 
ENDROOT
BRANCH   1   7
HETATM    7  C   UNL     1      77.682   8.829  14.316  1.00  0.00     0.256 C 
HETATM    8  O   UNL     1      77.788   9.867  13.666  1.00  0.00    -0.267 OA
HETATM    9  N   UNL     1      77.706   7.633  13.655  1.00  0.00    -0.366 N 
HETATM   10  H   UNL     1      77.621   6.791  14.156  1.00  0.00     0.159 HD
HETATM   11  H   UNL     1      77.806   7.614  12.675  1.00  0.00     0.159 HD
ENDBRANCH   1   7
TORSDOF 1
ENDMDL
MODEL 9
REMARK VINA RESULT:      -4.3      3.244      3.787
REMARK  1 active torsions:
REMARK  status: ('A' for Active; 'I' for Inactive)
REMARK    1  A    between atoms: C_1  and  C_4 
REMARK       I    between atoms: C_4  and  N_8 
ROOT
HETATM    1  C   UNL     1      77.868   9.347  17.567  1.00  0.00     0.072 A 
HETATM    2  S   UNL     1      77.114   7.810  17.616  1.00  0.00    -0.096 SA
HETATM    3  C   UNL     1      78.088   9.746  16.261  1.00  0.00     0.031 A 
HETATM    4  C   UNL     1      77.089   7.690  15.910  1.00  0.00     0.057 A 
HETATM    5  C   UNL     1      77.640   8.793  15.289  1.00  0.00    -0.054 A 
HETATM    6  C   UNL     1      77.762   8.984  13.815  1.00  0.00     0.048 C 
ENDROOT
BRANCH   1   7
HETATM    7  C   UNL     1      78.209  10.094  18.763  1.00  0.00     0.256 C 
HETATM    8  O   UNL     1      77.411  10.782  19.396  1.00  0.00    -0.267 OA
HETATM    9  N   UNL     1      79.502  10.017  19.201  1.00  0.00    -0.366 N 
HETATM   10  H   UNL     1      80.157   9.472  18.708  1.00  0.00     0.159 HD
HETATM   11  H   UNL     1      79.779  10.507  20.009  1.00  0.00     0.159 HD
ENDBRANCH   1   7
TORSDOF 1
ENDMDL
