MODEL 1
REMARK VINA RESULT:      -5.4      0.000      0.000
REMARK  2 active torsions:
REMARK  status: ('A' for Active; 'I' for Inactive)
REMARK    1  A    between atoms: CA_5  and  C_11 
REMARK    2  A    between atoms: C_11  and  O_12 
ROOT
HETATM    1  N   UNL     1      77.810   9.912  19.564  1.00  0.00    -0.343 N 
ATOM      2  HN  UNL     1      78.222   9.242  20.214  1.00  0.00     0.167 HD
HETATM    3  N   UNL     1      76.989  11.793  18.671  1.00  0.00    -0.317 N 
HETATM    4  C   UNL     1      77.583  11.193  19.776  1.00  0.00     0.111 A 
HETATM    5  CA  UNL     1      77.373   9.670  18.276  1.00  0.00     0.050 A 
HETATM    6  C   UNL     1      76.853  10.817  17.716  1.00  0.00     0.125 A 
HETATM    7  C   UNL     1      76.632  13.138  18.621  1.00  0.00     0.098 A 
HETATM    8  C   UNL     1      77.834  12.025  20.905  1.00  0.00     0.049 A 
HETATM    9  C   UNL     1      76.871  13.918  19.689  1.00  0.00     0.018 A 
HETATM   10  C   UNL     1      77.496  13.329  20.865  1.00  0.00     0.005 A 
ENDROOT
BRANCH   5  11
HETATM   11  C   UNL     1      77.476   8.302  17.698  1.00  0.00     0.222 C 
BRANCH  11  12
HETATM   12  O   UNL     1      76.505   7.425  18.265  1.00  0.00    -0.395 OA
HETATM   13  H   UNL     1      76.137   6.857  17.569  1.00  0.00     0.209 HD
ENDBRANCH  11  12
ENDBRANCH   5  11
TORSDOF 2
ENDMDL
MODEL 2
REMARK VINA RESULT:      -5.4      3.915      5.062
REMARK  2 active torsions:
REMARK  status: ('A' for Active; 'I' for Inactive)
REMARK    1  A    between atoms: CA_5  and  C_11 
REMARK    2  A    between atoms: C_11  and  O_12 
ROOT
HETATM    1  N   UNL     1      77.025   7.163  17.521  1.00  0.00    -0.343 N 
ATOM      2  HN  UNL     1      77.020   7.292  18.533  1.00  0.00     0.167 HD
HETATM    3  N   UNL     1      77.182   7.540  15.321  1.00  0.00    -0.317 N 
HETATM    4  C   UNL     1      77.293   8.069  16.602  1.00  0.00     0.111 A 
HETATM    5  CA  UNL     1      76.750   6.002  16.824  1.00  0.00     0.050 A 
HETATM    6  C   UNL     1      76.831   6.222  15.465  1.00  0.00     0.125 A 
HETATM    7  C   UNL     1      77.402   8.277  14.160  1.00  0.00     0.098 A 
HETATM    8  C   UNL     1      77.662   9.441  16.705  1.00  0.00     0.049 A 
HETATM    9  C   UNL     1      77.749   9.572  14.262  1.00  0.00     0.018 A 
HETATM   10  C   UNL     1      77.881  10.161  15.587  1.00  0.00     0.005 A 
ENDROOT
BRANCH   5  11
HETATM   11  C   UNL     1      76.396   4.757  17.558  1.00  0.00     0.222 C 
BRANCH  11  12
HETATM   12  O   UNL     1      77.211   4.590  18.717  1.00  0.00    -0.395 OA
HETATM   13  H   UNL     1      76.930   3.795  19.198  1.00  0.00     0.209 HD
ENDBRANCH  11  12
ENDBRANCH   5  11
TORSDOF 2
ENDMDL
MODEL 3
REMARK VINA RESULT:      -5.4      3.193      4.428
REMARK  2 active torsions:
REMARK  status: ('A' for Active; 'I' for Inactive)
REMARK    1  A    between atoms: CA_5  and  C_11 
REMARK    2  A    between atoms: C_11  and  O_12 
ROOT
HETATM    1  N   UNL     1      79.852  11.140  20.944  1.00  0.00    -0.343 N 
ATOM      2  HN  UNL     1      80.574  10.420  20.985  1.00  0.00     0.167 HD
HETATM    3  N   UNL     1      78.067  12.340  20.328  1.00  0.00    -0.317 N 
HETATM    4  C   UNL     1      78.840  11.206  20.103  1.00  0.00     0.111 A 
HETATM    5  CA  UNL     1      79.729  12.250  21.756  1.00  0.00     0.050 A 
HETATM    6  C   UNL     1      78.640  13.007  21.381  1.00  0.00     0.125 A 
HETATM    7  C   UNL     1      76.939  12.667  19.580  1.00  0.00     0.098 A 
HETATM    8  C   UNL     1      78.427  10.343  19.048  1.00  0.00     0.049 A 
HETATM    9  C   UNL     1      76.554  11.849  18.585  1.00  0.00     0.018 A 
HETATM   10  C   UNL     1      77.333  10.648  18.321  1.00  0.00     0.005 A 
ENDROOT
BRANCH   5  11
HETATM   11  C   UNL     1      80.723  12.499  22.836  1.00  0.00     0.222 C 
BRANCH  11  12
HETATM   12  O   UNL     1      82.026  12.720  22.300  1.00  0.00    -0.395 OA
HETATM   13  H   UNL     1      81.952  13.193  21.455  1.00  0.00     0.209 HD
ENDBRANCH  11  12
ENDBRANCH   5  11
TORSDOF 2
ENDMDL
MODEL 4
REMARK VINA RESULT:      -5.2      4.033      5.388
REMARK  2 active torsions:
REMARK  status: ('A' for Active; 'I' for Inactive)
REMARK    1  A    between atoms: CA_5  and  C_11 
REMARK    2  A    between atoms: C_11  and  O_12 
ROOT
HETATM    1  N   UNL     1      76.787   6.285  15.268  1.00  0.00    -0.343 N 
ATOM      2  HN  UNL     1      76.622   5.579  14.550  1.00  0.00     0.167 HD
HETATM    3  N   UNL     1      77.313   8.200  16.299  1.00  0.00    -0.317 N 
HETATM    4  C   UNL     1      77.170   7.533  15.088  1.00  0.00     0.111 A 
HETATM    5  CA  UNL     1      76.655   6.135  16.635  1.00  0.00     0.050 A 
HETATM    6  C   UNL     1      76.987   7.304  17.286  1.00  0.00     0.125 A 
HETATM    7  C   UNL     1      77.714   9.529  16.407  1.00  0.00     0.098 A 
HETATM    8  C   UNL     1      77.449   8.276  13.905  1.00  0.00     0.049 A 
HETATM    9  C   UNL     1      77.978  10.226  15.287  1.00  0.00     0.018 A 
HETATM   10  C   UNL     1      77.834   9.564  13.998  1.00  0.00     0.005 A 
ENDROOT
BRANCH   5  11
HETATM   11  C   UNL     1      76.233   4.826  17.205  1.00  0.00     0.222 C 
BRANCH  11  12
HETATM   12  O   UNL     1      74.844   4.589  16.984  1.00  0.00    -0.395 OA
HETATM   13  H   UNL     1      74.456   4.181  17.774  1.00  0.00     0.209 HD
ENDBRANCH  11  12
ENDBRANCH   5  11
TORSDOF 2
ENDMDL
MODEL 5
REMARK VINA RESULT:      -5.1      4.216      5.718
REMARK  2 active torsions:
REMARK  status: ('A' for Active; 'I' for Inactive)
REMARK    1  A    between atoms: CA_5  and  C_11 
REMARK    2  A    between atoms: C_11  and  O_12 
ROOT
HETATM    1  N   UNL     1      77.423   7.956  13.910  1.00  0.00    -0.343 N 
ATOM      2  HN  UNL     1      77.295   7.232  13.203  1.00  0.00     0.167 HD
HETATM    3  N   UNL     1      77.512   9.036  15.867  1.00  0.00    -0.317 N 
HETATM    4  C   UNL     1      77.275   7.832  15.214  1.00  0.00     0.111 A 
HETATM    5  CA  UNL     1      77.788   9.272  13.704  1.00  0.00     0.050 A 
HETATM    6  C   UNL     1      77.837   9.954  14.901  1.00  0.00     0.125 A 
HETATM    7  C   UNL     1      77.419   9.197  17.248  1.00  0.00     0.098 A 
HETATM    8  C   UNL     1      76.925   6.715  16.025  1.00  0.00     0.049 A 
HETATM    9  C   UNL     1      77.087   8.140  18.009  1.00  0.00     0.018 A 
HETATM   10  C   UNL     1      76.836   6.860  17.363  1.00  0.00     0.005 A 
ENDROOT
BRANCH   5  11
HETATM   11  C   UNL     1      78.039   9.770  12.325  1.00  0.00     0.222 C 
BRANCH  11  12
HETATM   12  O   UNL     1      77.525  11.089  12.149  1.00  0.00    -0.395 OA
HETATM   13  H   UNL     1      76.634  11.040  11.767  1.00  0.00     0.209 HD
ENDBRANCH  11  12
ENDBRANCH   5  11
TORSDOF 2
ENDMDL
MODEL 6
REMARK VINA RESULT:      -5.0     20.318     21.632
REMARK  2 active torsions:
REMARK  status: ('A' for Active; 'I' for Inactive)
REMARK    1  A    between atoms: CA_5  and  C_11 
REMARK    2  A    between atoms: C_11  and  O_12 
ROOT
HETATM    1  N   UNL     1      63.325   9.309   4.771  1.00  0.00    -0.343 N 
ATOM      2  HN  UNL     1      63.891   8.793   5.444  1.00  0.00     0.167 HD
HETATM    3  N   UNL     1      62.196   9.885   2.927  1.00  0.00    -0.317 N 
HETATM    4  C   UNL     1      62.944   8.908   3.575  1.00  0.00     0.111 A 
HETATM    5  CA  UNL     1      62.794  10.576   4.921  1.00  0.00     0.050 A 
HETATM    6  C   UNL     1      62.104  10.949   3.788  1.00  0.00     0.125 A 
HETATM    7  C   UNL     1      61.671   9.733   1.646  1.00  0.00     0.098 A 
HETATM    8  C   UNL     1      63.166   7.692   2.869  1.00  0.00     0.049 A 
HETATM    9  C   UNL     1      61.885   8.583   0.983  1.00  0.00     0.018 A 
HETATM   10  C   UNL     1      62.659   7.534   1.630  1.00  0.00     0.005 A 
ENDROOT
BRANCH   5  11
HETATM   11  C   UNL     1      63.032  11.341   6.175  1.00  0.00     0.222 C 
BRANCH  11  12
HETATM   12  O   UNL     1      64.427  11.496   6.430  1.00  0.00    -0.395 OA
HETATM   13  H   UNL     1      64.552  11.945   7.281  1.00  0.00     0.209 HD
ENDBRANCH  11  12
ENDBRANCH   5  11
TORSDOF 2
ENDMDL
MODEL 7
REMARK VINA RESULT:      -5.0      1.433      2.076
REMARK  2 active torsions:
REMARK  status: ('A' for Active; 'I' for Inactive)
REMARK    1  A    between atoms: CA_5  and  C_11 
REMARK    2  A    between atoms: C_11  and  O_12 
ROOT
HETATM    1  N   UNL     1      76.680  11.040  17.920  1.00  0.00    -0.343 N 
ATOM      2  HN  UNL     1      75.958  11.167  17.211  1.00  0.00     0.167 HD
HETATM    3  N   UNL     1      78.012  11.351  19.691  1.00  0.00    -0.317 N 
HETATM    4  C   UNL     1      76.941  11.828  18.944  1.00  0.00     0.111 A 
HETATM    5  CA  UNL     1      77.592  10.006  18.011  1.00  0.00     0.050 A 
HETATM    6  C   UNL     1      78.428  10.190  19.091  1.00  0.00     0.125 A 
HETATM    7  C   UNL     1      78.508  11.990  20.825  1.00  0.00     0.098 A 
HETATM    8  C   UNL     1      76.331  13.036  19.388  1.00  0.00     0.049 A 
HETATM    9  C   UNL     1      77.929  13.131  21.239  1.00  0.00     0.018 A 
HETATM   10  C   UNL     1      76.801  13.660  20.486  1.00  0.00     0.005 A 
ENDROOT
BRANCH   5  11
HETATM   11  C   UNL     1      77.588   8.916  16.997  1.00  0.00     0.222 C 
BRANCH  11  12
HETATM   12  O   UNL     1      77.780   9.432  15.681  1.00  0.00    -0.395 OA
HETATM   13  H   UNL     1      78.676   9.798  15.605  1.00  0.00     0.209 HD
ENDBRANCH  11  12
ENDBRANCH   5  11
TORSDOF 2
ENDMDL
MODEL 8
REMARK VINA RESULT:      -4.9      5.467      8.455
REMARK  2 active torsions:
REMARK  status: ('A' for Active; 'I' for Inactive)
REMARK    1  A    between atoms: CA_5  and  C_11 
REMARK    2  A    between atoms: C_11  and  O_12 
ROOT
HETATM    1  N   UNL     1      77.310   4.534  17.887  1.00  0.00    -0.343 N 
ATOM      2  HN  UNL     1      78.205   4.673  18.357  1.00  0.00     0.167 HD
HETATM    3  N   UNL     1      75.471   3.588  17.032  1.00  0.00    -0.317 N 
HETATM    4  C   UNL     1      76.648   3.403  17.749  1.00  0.00     0.111 A 
HETATM    5  CA  UNL     1      76.536   5.492  17.262  1.00  0.00     0.050 A 
HETATM    6  C   UNL     1      75.404   4.922  16.719  1.00  0.00     0.125 A 
HETATM    7  C   UNL     1      74.580   2.561  16.731  1.00  0.00     0.098 A 
HETATM    8  C   UNL     1      76.931   2.080  18.194  1.00  0.00     0.049 A 
HETATM    9  C   UNL     1      74.853   1.314  17.153  1.00  0.00     0.018 A 
HETATM   10  C   UNL     1      76.073   1.080  17.911  1.00  0.00     0.005 A 
ENDROOT
BRANCH   5  11
HETATM   11  C   UNL     1      76.989   6.909  17.222  1.00  0.00     0.222 C 
BRANCH  11  12
HETATM   12  O   UNL     1      76.597   7.611  18.401  1.00  0.00    -0.395 OA
HETATM   13  H   UNL     1      77.368   7.726  18.979  1.00  0.00     0.209 HD
ENDBRANCH  11  12
ENDBRANCH   5  11
TORSDOF 2
ENDMDL
MODEL 9
REMARK VINA RESULT:      -4.8      7.029      8.463
REMARK  2 active torsions:
REMARK  status: ('A' for Active; 'I' for Inactive)
REMARK    1  A    between atoms: CA_5  and  C_11 
REMARK    2  A    between atoms: C_11  and  O_12 
ROOT
HETATM    1  N   UNL     1      75.853   2.090  18.472  1.00  0.00    -0.343 N 
ATOM      2  HN  UNL     1      76.345   1.632  19.240  1.00  0.00     0.167 HD
HETATM    3  N   UNL     1      75.203   3.592  16.947  1.00  0.00    -0.317 N 
HETATM    4  C   UNL     1      76.086   3.289  17.978  1.00  0.00     0.111 A 
HETATM    5  CA  UNL     1      74.802   1.584  17.732  1.00  0.00     0.050 A 
HETATM    6  C   UNL     1      74.383   2.504  16.795  1.00  0.00     0.125 A 
HETATM    7  C   UNL     1      75.216   4.797  16.249  1.00  0.00     0.098 A 
HETATM    8  C   UNL     1      77.051   4.280  18.313  1.00  0.00     0.049 A 
HETATM    9  C   UNL     1      76.129   5.730  16.570  1.00  0.00     0.018 A 
HETATM   10  C   UNL     1      77.075   5.448  17.640  1.00  0.00     0.005 A 
ENDROOT
BRANCH   5  11
HETATM   11  C   UNL     1      74.267   0.227  18.026  1.00  0.00     0.222 C 
BRANCH  11  12
HETATM   12  O   UNL     1      74.132   0.017  19.431  1.00  0.00    -0.395 OA
HETATM   13  H   UNL     1      73.264  -0.374  19.617  1.00  0.00     0.209 HD
ENDBRANCH  11  12
ENDBRANCH   5  11
TORSDOF 2
ENDMDL
