MODEL 1
REMARK VINA RESULT:      -5.5      0.000      0.000
REMARK  2 active torsions:
REMARK  status: ('A' for Active; 'I' for Inactive)
REMARK    1  A    between atoms: C_6  and  C_10 
REMARK    2  A    between atoms: N_8  and  C_10 
ROOT
HETATM    1  C   UNL     1      77.166  11.563  19.138  1.00  0.00    -0.024 A 
HETATM    2  C   UNL     1      78.377  11.475  19.834  1.00  0.00     0.075 A 
HETATM    3  O   UNL     1      78.753  12.357  20.814  1.00  0.00    -0.351 OA
HETATM    4  C   UNL     1      76.861  10.590  18.177  1.00  0.00     0.018 A 
HETATM    5  C   UNL     1      79.294  10.471  19.527  1.00  0.00     0.038 A 
HETATM    6  C   UNL     1      77.764   9.557  17.879  1.00  0.00    -0.032 A 
HETATM    7  C   UNL     1      78.991   9.516  18.553  1.00  0.00     0.011 A 
HETATM    8  C   UNL     1      76.188  12.664  19.428  1.00  0.00     0.043 C 
HETATM    9  C   UNL     1      77.677  13.142  21.339  1.00  0.00     0.176 C 
HETATM   10  C   UNL     1      76.856  13.774  20.229  1.00  0.00     0.031 C 
ENDROOT
BRANCH   6  11
HETATM   11  C   UNL     1      77.419   8.520  16.840  1.00  0.00     0.268 C 
BRANCH  11  12
HETATM   12  N   UNL     1      76.968   7.278  17.458  1.00  0.00    -0.075 N 
HETATM   13  H   UNL     1      76.462   6.720  16.769  1.00  0.00     0.274 HD
HETATM   14  H   UNL     1      76.350   7.493  18.240  1.00  0.00     0.274 HD
HETATM   15  H   UNL     1      77.774   6.753  17.796  1.00  0.00     0.274 HD
ENDBRANCH  11  12
ENDBRANCH   6  11
TORSDOF 2
ENDMDL
MODEL 2
REMARK VINA RESULT:      -5.4      3.247      4.453
REMARK  2 active torsions:
REMARK  status: ('A' for Active; 'I' for Inactive)
REMARK    1  A    between atoms: C_6  and  C_10 
REMARK    2  A    between atoms: N_8  and  C_10 
ROOT
HETATM    1  C   UNL     1      77.737  12.763  20.559  1.00  0.00    -0.024 A 
HETATM    2  C   UNL     1      78.121  11.733  19.694  1.00  0.00     0.075 A 
HETATM    3  O   UNL     1      77.414  11.383  18.573  1.00  0.00    -0.351 OA
HETATM    4  C   UNL     1      78.549  13.065  21.661  1.00  0.00     0.018 A 
HETATM    5  C   UNL     1      79.260  10.975  19.964  1.00  0.00     0.038 A 
HETATM    6  C   UNL     1      79.714  12.327  21.927  1.00  0.00    -0.032 A 
HETATM    7  C   UNL     1      80.053  11.269  21.075  1.00  0.00     0.011 A 
HETATM    8  C   UNL     1      76.490  13.559  20.306  1.00  0.00     0.043 C 
HETATM    9  C   UNL     1      76.475  12.373  18.141  1.00  0.00     0.176 C 
HETATM   10  C   UNL     1      75.605  12.853  19.288  1.00  0.00     0.031 C 
ENDROOT
BRANCH   6  11
HETATM   11  C   UNL     1      80.574  12.665  23.119  1.00  0.00     0.268 C 
BRANCH  11  12
HETATM   12  N   UNL     1      81.990  12.669  22.769  1.00  0.00    -0.075 N 
HETATM   13  H   UNL     1      82.123  13.185  21.898  1.00  0.00     0.274 HD
HETATM   14  H   UNL     1      82.312  11.709  22.648  1.00  0.00     0.274 HD
HETATM   15  H   UNL     1      82.524  13.116  23.514  1.00  0.00     0.274 HD
ENDBRANCH  11  12
ENDBRANCH   6  11
TORSDOF 2
ENDMDL
MODEL 3
REMARK VINA RESULT:      -4.9     15.084     16.444
REMARK  2 active torsions:
REMARK  status: ('A' for Active; 'I' for Inactive)
REMARK    1  A    between atoms: C_6  and  C_10 
REMARK    2  A    between atoms: N_8  and  C_10 
ROOT
HETATM    1  C   UNL     1      67.617   5.904   6.620  1.00  0.00    -0.024 A 
HETATM    2  C   UNL     1      67.057   6.835   7.502  1.00  0.00     0.075 A 
HETATM    3  O   UNL     1      66.363   7.944   7.090  1.00  0.00    -0.351 OA
HETATM    4  C   UNL     1      68.280   4.785   7.143  1.00  0.00     0.018 A 
HETATM    5  C   UNL     1      67.215   6.685   8.878  1.00  0.00     0.038 A 
HETATM    6  C   UNL     1      68.420   4.608   8.529  1.00  0.00    -0.032 A 
HETATM    7  C   UNL     1      67.893   5.578   9.392  1.00  0.00     0.011 A 
HETATM    8  C   UNL     1      67.493   6.076   5.134  1.00  0.00     0.043 C 
HETATM    9  C   UNL     1      65.926   7.889   5.729  1.00  0.00     0.176 C 
HETATM   10  C   UNL     1      67.058   7.495   4.797  1.00  0.00     0.031 C 
ENDROOT
BRANCH   6  11
HETATM   11  C   UNL     1      69.137   3.398   9.073  1.00  0.00     0.268 C 
BRANCH  11  12
HETATM   12  N   UNL     1      69.690   3.659  10.398  1.00  0.00    -0.075 N 
HETATM   13  H   UNL     1      69.349   4.559  10.737  1.00  0.00     0.274 HD
HETATM   14  H   UNL     1      70.709   3.681  10.342  1.00  0.00     0.274 HD
HETATM   15  H   UNL     1      69.401   2.921  11.039  1.00  0.00     0.274 HD
ENDBRANCH  11  12
ENDBRANCH   6  11
TORSDOF 2
ENDMDL
MODEL 4
REMARK VINA RESULT:      -4.6     19.472     20.747
REMARK  2 active torsions:
REMARK  status: ('A' for Active; 'I' for Inactive)
REMARK    1  A    between atoms: C_6  and  C_10 
REMARK    2  A    between atoms: N_8  and  C_10 
ROOT
HETATM    1  C   UNL     1      63.117   8.903   3.951  1.00  0.00    -0.024 A 
HETATM    2  C   UNL     1      64.118   9.152   4.897  1.00  0.00     0.075 A 
HETATM    3  O   UNL     1      64.144  10.267   5.694  1.00  0.00    -0.351 OA
HETATM    4  C   UNL     1      63.163   7.715   3.209  1.00  0.00     0.018 A 
HETATM    5  C   UNL     1      65.180   8.263   5.049  1.00  0.00     0.038 A 
HETATM    6  C   UNL     1      64.214   6.798   3.373  1.00  0.00    -0.032 A 
HETATM    7  C   UNL     1      65.230   7.091   4.291  1.00  0.00     0.011 A 
HETATM    8  C   UNL     1      61.990   9.872   3.745  1.00  0.00     0.043 C 
HETATM    9  C   UNL     1      62.897  10.966   5.765  1.00  0.00     0.176 C 
HETATM   10  C   UNL     1      62.319  11.215   4.384  1.00  0.00     0.031 C 
ENDROOT
BRANCH   6  11
HETATM   11  C   UNL     1      64.247   5.526   2.564  1.00  0.00     0.268 C 
BRANCH  11  12
HETATM   12  N   UNL     1      63.720   5.736   1.220  1.00  0.00    -0.075 N 
HETATM   13  H   UNL     1      62.989   5.049   1.031  1.00  0.00     0.274 HD
HETATM   14  H   UNL     1      64.472   5.628   0.540  1.00  0.00     0.274 HD
HETATM   15  H   UNL     1      63.331   6.676   1.150  1.00  0.00     0.274 HD
ENDBRANCH  11  12
ENDBRANCH   6  11
TORSDOF 2
ENDMDL
MODEL 5
REMARK VINA RESULT:      -4.5     15.040     16.447
REMARK  2 active torsions:
REMARK  status: ('A' for Active; 'I' for Inactive)
REMARK    1  A    between atoms: C_6  and  C_10 
REMARK    2  A    between atoms: N_8  and  C_10 
ROOT
HETATM    1  C   UNL     1      68.258   4.567   7.529  1.00  0.00    -0.024 A 
HETATM    2  C   UNL     1      68.231   5.056   8.840  1.00  0.00     0.075 A 
HETATM    3  O   UNL     1      68.810   4.408   9.901  1.00  0.00    -0.351 OA
HETATM    4  C   UNL     1      67.665   5.323   6.508  1.00  0.00     0.018 A 
HETATM    5  C   UNL     1      67.567   6.245   9.134  1.00  0.00     0.038 A 
HETATM    6  C   UNL     1      67.018   6.537   6.789  1.00  0.00    -0.032 A 
HETATM    7  C   UNL     1      66.962   6.984   8.115  1.00  0.00     0.011 A 
HETATM    8  C   UNL     1      68.932   3.266   7.203  1.00  0.00     0.043 C 
HETATM    9  C   UNL     1      69.758   3.403   9.526  1.00  0.00     0.176 C 
HETATM   10  C   UNL     1      69.190   2.468   8.474  1.00  0.00     0.031 C 
ENDROOT
BRANCH   6  11
HETATM   11  C   UNL     1      66.384   7.336   5.678  1.00  0.00     0.268 C 
BRANCH  11  12
HETATM   12  N   UNL     1      65.605   8.452   6.202  1.00  0.00    -0.075 N 
HETATM   13  H   UNL     1      64.744   8.550   5.663  1.00  0.00     0.274 HD
HETATM   14  H   UNL     1      66.151   9.311   6.129  1.00  0.00     0.274 HD
HETATM   15  H   UNL     1      65.376   8.278   7.181  1.00  0.00     0.274 HD
ENDBRANCH  11  12
ENDBRANCH   6  11
TORSDOF 2
ENDMDL
MODEL 6
REMARK VINA RESULT:      -4.5     18.877     20.622
REMARK  2 active torsions:
REMARK  status: ('A' for Active; 'I' for Inactive)
REMARK    1  A    between atoms: C_6  and  C_10 
REMARK    2  A    between atoms: N_8  and  C_10 
ROOT
HETATM    1  C   UNL     1      64.599   7.567   4.265  1.00  0.00    -0.024 A 
HETATM    2  C   UNL     1      64.625   8.659   5.140  1.00  0.00     0.075 A 
HETATM    3  O   UNL     1      65.598   8.845   6.087  1.00  0.00    -0.351 OA
HETATM    4  C   UNL     1      63.577   7.487   3.308  1.00  0.00     0.018 A 
HETATM    5  C   UNL     1      63.613   9.616   5.103  1.00  0.00     0.038 A 
HETATM    6  C   UNL     1      62.568   8.460   3.242  1.00  0.00    -0.032 A 
HETATM    7  C   UNL     1      62.587   9.518   4.159  1.00  0.00     0.011 A 
HETATM    8  C   UNL     1      65.658   6.505   4.321  1.00  0.00     0.043 C 
HETATM    9  C   UNL     1      66.778   8.063   5.876  1.00  0.00     0.176 C 
HETATM   10  C   UNL     1      66.442   6.605   5.624  1.00  0.00     0.031 C 
ENDROOT
BRANCH   6  11
HETATM   11  C   UNL     1      61.476   8.356   2.207  1.00  0.00     0.268 C 
BRANCH  11  12
HETATM   12  N   UNL     1      61.095   9.670   1.702  1.00  0.00    -0.075 N 
HETATM   13  H   UNL     1      60.769  10.251   2.476  1.00  0.00     0.274 HD
HETATM   14  H   UNL     1      60.346   9.566   1.017  1.00  0.00     0.274 HD
HETATM   15  H   UNL     1      61.900  10.113   1.260  1.00  0.00     0.274 HD
ENDBRANCH  11  12
ENDBRANCH   6  11
TORSDOF 2
ENDMDL
MODEL 7
REMARK VINA RESULT:      -4.4     14.567     16.174
REMARK  2 active torsions:
REMARK  status: ('A' for Active; 'I' for Inactive)
REMARK    1  A    between atoms: C_6  and  C_10 
REMARK    2  A    between atoms: N_8  and  C_10 
ROOT
HETATM    1  C   UNL     1      69.060   2.346   8.248  1.00  0.00    -0.024 A 
HETATM    2  C   UNL     1      69.553   2.748   9.494  1.00  0.00     0.075 A 
HETATM    3  O   UNL     1      70.110   1.884  10.401  1.00  0.00    -0.351 OA
HETATM    4  C   UNL     1      68.540   3.314   7.377  1.00  0.00     0.018 A 
HETATM    5  C   UNL     1      69.467   4.082   9.888  1.00  0.00     0.038 A 
HETATM    6  C   UNL     1      68.475   4.665   7.752  1.00  0.00    -0.032 A 
HETATM    7  C   UNL     1      68.930   5.038   9.023  1.00  0.00     0.011 A 
HETATM    8  C   UNL     1      69.105   0.906   7.826  1.00  0.00     0.043 C 
HETATM    9  C   UNL     1      70.495   0.622   9.848  1.00  0.00     0.176 C 
HETATM   10  C   UNL     1      69.375   0.009   9.027  1.00  0.00     0.031 C 
ENDROOT
BRANCH   6  11
HETATM   11  C   UNL     1      67.911   5.692   6.802  1.00  0.00     0.268 C 
BRANCH  11  12
HETATM   12  N   UNL     1      67.506   6.903   7.508  1.00  0.00    -0.075 N 
HETATM   13  H   UNL     1      67.895   6.893   8.452  1.00  0.00     0.274 HD
HETATM   14  H   UNL     1      66.488   6.940   7.561  1.00  0.00     0.274 HD
HETATM   15  H   UNL     1      67.850   7.721   7.006  1.00  0.00     0.274 HD
ENDBRANCH  11  12
ENDBRANCH   6  11
TORSDOF 2
ENDMDL
MODEL 8
REMARK VINA RESULT:      -4.4     18.827     20.525
REMARK  2 active torsions:
REMARK  status: ('A' for Active; 'I' for Inactive)
REMARK    1  A    between atoms: C_6  and  C_10 
REMARK    2  A    between atoms: N_8  and  C_10 
ROOT
HETATM    1  C   UNL     1      63.723   8.762   4.381  1.00  0.00    -0.024 A 
HETATM    2  C   UNL     1      63.550   7.807   3.374  1.00  0.00     0.075 A 
HETATM    3  O   UNL     1      62.534   7.854   2.454  1.00  0.00    -0.351 OA
HETATM    4  C   UNL     1      64.815   8.643   5.251  1.00  0.00     0.018 A 
HETATM    5  C   UNL     1      64.413   6.717   3.281  1.00  0.00     0.038 A 
HETATM    6  C   UNL     1      65.708   7.564   5.149  1.00  0.00    -0.032 A 
HETATM    7  C   UNL     1      65.487   6.594   4.164  1.00  0.00     0.011 A 
HETATM    8  C   UNL     1      62.776   9.919   4.521  1.00  0.00     0.043 C 
HETATM    9  C   UNL     1      61.892   9.129   2.355  1.00  0.00     0.176 C 
HETATM   10  C   UNL     1      61.505   9.666   3.721  1.00  0.00     0.031 C 
ENDROOT
BRANCH   6  11
HETATM   11  C   UNL     1      66.877   7.451   6.096  1.00  0.00     0.268 C 
BRANCH  11  12
HETATM   12  N   UNL     1      66.883   8.540   7.066  1.00  0.00    -0.075 N 
HETATM   13  H   UNL     1      67.834   8.688   7.406  1.00  0.00     0.274 HD
HETATM   14  H   UNL     1      66.276   8.300   7.850  1.00  0.00     0.274 HD
HETATM   15  H   UNL     1      66.544   9.394   6.623  1.00  0.00     0.274 HD
ENDBRANCH  11  12
ENDBRANCH   6  11
TORSDOF 2
ENDMDL
MODEL 9
REMARK VINA RESULT:      -4.3     20.154     21.943
REMARK  2 active torsions:
REMARK  status: ('A' for Active; 'I' for Inactive)
REMARK    1  A    between atoms: C_6  and  C_10 
REMARK    2  A    between atoms: N_8  and  C_10 
ROOT
HETATM    1  C   UNL     1      63.022   7.887   2.693  1.00  0.00    -0.024 A 
HETATM    2  C   UNL     1      62.378   9.105   2.936  1.00  0.00     0.075 A 
HETATM    3  O   UNL     1      61.511   9.692   2.050  1.00  0.00    -0.351 OA
HETATM    4  C   UNL     1      63.865   7.355   3.679  1.00  0.00     0.018 A 
HETATM    5  C   UNL     1      62.624   9.810   4.112  1.00  0.00     0.038 A 
HETATM    6  C   UNL     1      64.098   8.042   4.881  1.00  0.00    -0.032 A 
HETATM    7  C   UNL     1      63.480   9.283   5.082  1.00  0.00     0.011 A 
HETATM    8  C   UNL     1      62.801   7.137   1.412  1.00  0.00     0.043 C 
HETATM    9  C   UNL     1      61.020   8.806   1.038  1.00  0.00     0.176 C 
HETATM   10  C   UNL     1      62.148   8.040   0.373  1.00  0.00     0.031 C 
ENDROOT
BRANCH   6  11
HETATM   11  C   UNL     1      65.009   7.454   5.930  1.00  0.00     0.268 C 
BRANCH  11  12
HETATM   12  N   UNL     1      65.982   8.435   6.399  1.00  0.00    -0.075 N 
HETATM   13  H   UNL     1      65.511   9.130   6.980  1.00  0.00     0.274 HD
HETATM   14  H   UNL     1      66.411   8.897   5.597  1.00  0.00     0.274 HD
HETATM   15  H   UNL     1      66.702   7.965   6.946  1.00  0.00     0.274 HD
ENDBRANCH  11  12
ENDBRANCH   6  11
TORSDOF 2
ENDMDL
