MODEL 1
REMARK VINA RESULT:      -5.4      0.000      0.000
REMARK  2 active torsions:
REMARK  status: ('A' for Active; 'I' for Inactive)
REMARK    1  A    between atoms: C_6  and  C_10 
REMARK    2  A    between atoms: N_8  and  C_10 
ROOT
HETATM    1  C   UNL     1      69.514  24.077  14.207  1.00  0.00    -0.024 A 
HETATM    2  C   UNL     1      70.383  24.906  14.921  1.00  0.00     0.075 A 
HETATM    3  O   UNL     1      69.961  25.828  15.844  1.00  0.00    -0.351 OA
HETATM    4  C   UNL     1      70.046  23.143  13.305  1.00  0.00     0.018 A 
HETATM    5  C   UNL     1      71.756  24.849  14.692  1.00  0.00     0.038 A 
HETATM    6  C   UNL     1      71.430  23.070  13.071  1.00  0.00    -0.032 A 
HETATM    7  C   UNL     1      72.279  23.939  13.770  1.00  0.00     0.011 A 
HETATM    8  C   UNL     1      68.028  24.163  14.403  1.00  0.00     0.043 C 
HETATM    9  C   UNL     1      68.616  25.640  16.293  1.00  0.00     0.176 C 
HETATM   10  C   UNL     1      67.658  25.446  15.131  1.00  0.00     0.031 C 
ENDROOT
BRANCH   6  11
HETATM   11  C   UNL     1      71.995  22.062  12.095  1.00  0.00     0.270 C 
BRANCH  11  12
HETATM   12  N   UNL     1      71.040  20.989  11.812  1.00  0.00    -0.075 N 
HETATM   13  C   UNL     1      71.319  20.365  10.528  1.00  0.00     0.267 C 
HETATM   14  H   UNL     1      70.097  21.379  11.796  1.00  0.00     0.277 HD
HETATM   15  H   UNL     1      71.124  20.281  12.541  1.00  0.00     0.277 HD
ENDBRANCH  11  12
ENDBRANCH   6  11
TORSDOF 2
ENDMDL
MODEL 2
REMARK VINA RESULT:      -5.1     18.481     19.597
REMARK  2 active torsions:
REMARK  status: ('A' for Active; 'I' for Inactive)
REMARK    1  A    between atoms: C_6  and  C_10 
REMARK    2  A    between atoms: N_8  and  C_10 
ROOT
HETATM    1  C   UNL     1      67.346   5.913   6.634  1.00  0.00    -0.024 A 
HETATM    2  C   UNL     1      66.550   6.655   7.510  1.00  0.00     0.075 A 
HETATM    3  O   UNL     1      65.486   7.418   7.104  1.00  0.00    -0.351 OA
HETATM    4  C   UNL     1      68.396   5.139   7.151  1.00  0.00     0.018 A 
HETATM    5  C   UNL     1      66.836   6.676   8.873  1.00  0.00     0.038 A 
HETATM    6  C   UNL     1      68.690   5.145   8.526  1.00  0.00    -0.032 A 
HETATM    7  C   UNL     1      67.902   5.928   9.380  1.00  0.00     0.011 A 
HETATM    8  C   UNL     1      67.084   5.922   5.156  1.00  0.00     0.043 C 
HETATM    9  C   UNL     1      65.019   7.124   5.784  1.00  0.00     0.176 C 
HETATM   10  C   UNL     1      66.160   7.072   4.783  1.00  0.00     0.031 C 
ENDROOT
BRANCH   6  11
HETATM   11  C   UNL     1      69.825   4.310   9.076  1.00  0.00     0.270 C 
BRANCH  11  12
HETATM   12  N   UNL     1      69.465   3.678  10.347  1.00  0.00    -0.075 N 
HETATM   13  C   UNL     1      69.064   2.294  10.149  1.00  0.00     0.267 C 
HETATM   14  H   UNL     1      68.691   4.193  10.767  1.00  0.00     0.277 HD
HETATM   15  H   UNL     1      70.281   3.694  10.958  1.00  0.00     0.277 HD
ENDBRANCH  11  12
ENDBRANCH   6  11
TORSDOF 2
ENDMDL
MODEL 3
REMARK VINA RESULT:      -4.8     18.366     19.857
REMARK  2 active torsions:
REMARK  status: ('A' for Active; 'I' for Inactive)
REMARK    1  A    between atoms: C_6  and  C_10 
REMARK    2  A    between atoms: N_8  and  C_10 
ROOT
HETATM    1  C   UNL     1      68.260   4.585   7.510  1.00  0.00    -0.024 A 
HETATM    2  C   UNL     1      68.220   5.094   8.810  1.00  0.00     0.075 A 
HETATM    3  O   UNL     1      68.790   4.465   9.887  1.00  0.00    -0.351 OA
HETATM    4  C   UNL     1      67.672   5.320   6.468  1.00  0.00     0.018 A 
HETATM    5  C   UNL     1      67.548   6.284   9.079  1.00  0.00     0.038 A 
HETATM    6  C   UNL     1      66.998   6.526   6.725  1.00  0.00    -0.032 A 
HETATM    7  C   UNL     1      66.937   6.996   8.044  1.00  0.00     0.011 A 
HETATM    8  C   UNL     1      68.935   3.277   7.212  1.00  0.00     0.043 C 
HETATM    9  C   UNL     1      69.734   3.447   9.543  1.00  0.00     0.176 C 
HETATM   10  C   UNL     1      69.180   2.498   8.494  1.00  0.00     0.031 C 
ENDROOT
BRANCH   6  11
HETATM   11  C   UNL     1      66.364   7.310   5.598  1.00  0.00     0.270 C 
BRANCH  11  12
HETATM   12  N   UNL     1      65.487   8.370   6.102  1.00  0.00    -0.075 N 
HETATM   13  C   UNL     1      64.509   8.761   5.099  1.00  0.00     0.267 C 
HETATM   14  H   UNL     1      66.054   9.181   6.350  1.00  0.00     0.277 HD
HETATM   15  H   UNL     1      64.990   8.016   6.919  1.00  0.00     0.277 HD
ENDBRANCH  11  12
ENDBRANCH   6  11
TORSDOF 2
ENDMDL
MODEL 4
REMARK VINA RESULT:      -4.7     18.364     21.229
REMARK  2 active torsions:
REMARK  status: ('A' for Active; 'I' for Inactive)
REMARK    1  A    between atoms: C_6  and  C_10 
REMARK    2  A    between atoms: N_8  and  C_10 
ROOT
HETATM    1  C   UNL     1      68.945   2.586   8.168  1.00  0.00    -0.024 A 
HETATM    2  C   UNL     1      69.404   3.008   9.418  1.00  0.00     0.075 A 
HETATM    3  O   UNL     1      69.942   2.161  10.352  1.00  0.00    -0.351 OA
HETATM    4  C   UNL     1      68.437   3.535   7.268  1.00  0.00     0.018 A 
HETATM    5  C   UNL     1      69.297   4.346   9.790  1.00  0.00     0.038 A 
HETATM    6  C   UNL     1      68.332   4.890   7.629  1.00  0.00    -0.032 A 
HETATM    7  C   UNL     1      68.762   5.283   8.904  1.00  0.00     0.011 A 
HETATM    8  C   UNL     1      69.003   1.138   7.771  1.00  0.00     0.043 C 
HETATM    9  C   UNL     1      70.339   0.888   9.834  1.00  0.00     0.176 C 
HETATM   10  C   UNL     1      69.244   0.259   8.989  1.00  0.00     0.031 C 
ENDROOT
BRANCH   6  11
HETATM   11  C   UNL     1      67.780   5.907   6.655  1.00  0.00     0.270 C 
BRANCH  11  12
HETATM   12  N   UNL     1      67.516   7.192   7.306  1.00  0.00    -0.075 N 
HETATM   13  C   UNL     1      66.527   7.960   6.566  1.00  0.00     0.267 C 
HETATM   14  H   UNL     1      68.385   7.725   7.355  1.00  0.00     0.277 HD
HETATM   15  H   UNL     1      67.153   7.011   8.241  1.00  0.00     0.277 HD
ENDBRANCH  11  12
ENDBRANCH   6  11
TORSDOF 2
ENDMDL
MODEL 5
REMARK VINA RESULT:      -4.7     18.468     20.090
REMARK  2 active torsions:
REMARK  status: ('A' for Active; 'I' for Inactive)
REMARK    1  A    between atoms: C_6  and  C_10 
REMARK    2  A    between atoms: N_8  and  C_10 
ROOT
HETATM    1  C   UNL     1      63.936   7.922   3.905  1.00  0.00    -0.024 A 
HETATM    2  C   UNL     1      63.916   8.902   4.901  1.00  0.00     0.075 A 
HETATM    3  O   UNL     1      64.739   8.885   5.996  1.00  0.00    -0.351 OA
HETATM    4  C   UNL     1      63.072   8.045   2.806  1.00  0.00     0.018 A 
HETATM    5  C   UNL     1      63.003   9.952   4.834  1.00  0.00     0.038 A 
HETATM    6  C   UNL     1      62.152   9.105   2.723  1.00  0.00    -0.032 A 
HETATM    7  C   UNL     1      62.123  10.054   3.755  1.00  0.00     0.011 A 
HETATM    8  C   UNL     1      64.877   6.755   3.988  1.00  0.00     0.043 C 
HETATM    9  C   UNL     1      65.863   8.008   5.876  1.00  0.00     0.176 C 
HETATM   10  C   UNL     1      65.449   6.628   5.392  1.00  0.00     0.031 C 
ENDROOT
BRANCH   6  11
HETATM   11  C   UNL     1      61.223   9.228   1.536  1.00  0.00     0.270 C 
BRANCH  11  12
HETATM   12  N   UNL     1      60.013   8.423   1.711  1.00  0.00    -0.075 N 
HETATM   13  C   UNL     1      59.540   7.904   0.436  1.00  0.00     0.267 C 
HETATM   14  H   UNL     1      59.284   9.003   2.126  1.00  0.00     0.277 HD
HETATM   15  H   UNL     1      60.234   7.635   2.319  1.00  0.00     0.277 HD
ENDBRANCH  11  12
ENDBRANCH   6  11
TORSDOF 2
ENDMDL
MODEL 6
REMARK VINA RESULT:      -4.6     18.720     20.301
REMARK  2 active torsions:
REMARK  status: ('A' for Active; 'I' for Inactive)
REMARK    1  A    between atoms: C_6  and  C_10 
REMARK    2  A    between atoms: N_8  and  C_10 
ROOT
HETATM    1  C   UNL     1      67.521   5.865   7.433  1.00  0.00    -0.024 A 
HETATM    2  C   UNL     1      67.310   4.995   6.360  1.00  0.00     0.075 A 
HETATM    3  O   UNL     1      66.416   5.241   5.351  1.00  0.00    -0.351 OA
HETATM    4  C   UNL     1      68.481   5.538   8.402  1.00  0.00     0.018 A 
HETATM    5  C   UNL     1      68.000   3.787   6.290  1.00  0.00     0.038 A 
HETATM    6  C   UNL     1      69.190   4.325   8.338  1.00  0.00    -0.032 A 
HETATM    7  C   UNL     1      68.933   3.450   7.273  1.00  0.00     0.011 A 
HETATM    8  C   UNL     1      66.747   7.146   7.552  1.00  0.00     0.043 C 
HETATM    9  C   UNL     1      65.978   6.600   5.269  1.00  0.00     0.176 C 
HETATM   10  C   UNL     1      65.542   7.132   6.624  1.00  0.00     0.031 C 
ENDROOT
BRANCH   6  11
HETATM   11  C   UNL     1      70.221   3.978   9.388  1.00  0.00     0.270 C 
BRANCH  11  12
HETATM   12  N   UNL     1      69.603   3.405  10.585  1.00  0.00    -0.075 N 
HETATM   13  C   UNL     1      69.520   1.956  10.489  1.00  0.00     0.267 C 
HETATM   14  H   UNL     1      68.663   3.788  10.690  1.00  0.00     0.277 HD
HETATM   15  H   UNL     1      70.179   3.643  11.392  1.00  0.00     0.277 HD
ENDBRANCH  11  12
ENDBRANCH   6  11
TORSDOF 2
ENDMDL
MODEL 7
REMARK VINA RESULT:      -4.5     18.367     20.159
REMARK  2 active torsions:
REMARK  status: ('A' for Active; 'I' for Inactive)
REMARK    1  A    between atoms: C_6  and  C_10 
REMARK    2  A    between atoms: N_8  and  C_10 
ROOT
HETATM    1  C   UNL     1      62.990   7.846   2.661  1.00  0.00    -0.024 A 
HETATM    2  C   UNL     1      62.359   9.075   2.870  1.00  0.00     0.075 A 
HETATM    3  O   UNL     1      61.531   9.666   1.950  1.00  0.00    -0.351 OA
HETATM    4  C   UNL     1      63.795   7.309   3.677  1.00  0.00     0.018 A 
HETATM    5  C   UNL     1      62.579   9.788   4.046  1.00  0.00     0.038 A 
HETATM    6  C   UNL     1      64.019   8.015   4.872  1.00  0.00    -0.032 A 
HETATM    7  C   UNL     1      63.407   9.265   5.042  1.00  0.00     0.011 A 
HETATM    8  C   UNL     1      62.805   7.090   1.377  1.00  0.00     0.043 C 
HETATM    9  C   UNL     1      61.067   8.786   0.923  1.00  0.00     0.176 C 
HETATM   10  C   UNL     1      62.206   7.991   0.308  1.00  0.00     0.031 C 
ENDROOT
BRANCH   6  11
HETATM   11  C   UNL     1      64.891   7.431   5.961  1.00  0.00     0.270 C 
BRANCH  11  12
HETATM   12  N   UNL     1      65.976   8.341   6.332  1.00  0.00    -0.075 N 
HETATM   13  C   UNL     1      67.244   7.901   5.772  1.00  0.00     0.267 C 
HETATM   14  H   UNL     1      66.053   8.371   7.349  1.00  0.00     0.277 HD
HETATM   15  H   UNL     1      65.763   9.267   5.962  1.00  0.00     0.277 HD
ENDBRANCH  11  12
ENDBRANCH   6  11
TORSDOF 2
ENDMDL
MODEL 8
REMARK VINA RESULT:      -4.4     18.669     19.624
REMARK  2 active torsions:
REMARK  status: ('A' for Active; 'I' for Inactive)
REMARK    1  A    between atoms: C_6  and  C_10 
REMARK    2  A    between atoms: N_8  and  C_10 
ROOT
HETATM    1  C   UNL     1      64.691   7.893   5.196  1.00  0.00    -0.024 A 
HETATM    2  C   UNL     1      64.098   7.038   6.128  1.00  0.00     0.075 A 
HETATM    3  O   UNL     1      64.799   6.383   7.108  1.00  0.00    -0.351 OA
HETATM    4  C   UNL     1      63.883   8.540   4.249  1.00  0.00     0.018 A 
HETATM    5  C   UNL     1      62.730   6.781   6.075  1.00  0.00     0.038 A 
HETATM    6  C   UNL     1      62.499   8.296   4.190  1.00  0.00    -0.032 A 
HETATM    7  C   UNL     1      61.933   7.403   5.111  1.00  0.00     0.011 A 
HETATM    8  C   UNL     1      66.172   8.139   5.206  1.00  0.00     0.043 C 
HETATM    9  C   UNL     1      66.108   6.907   7.346  1.00  0.00     0.176 C 
HETATM   10  C   UNL     1      66.882   7.094   6.053  1.00  0.00     0.031 C 
ENDROOT
BRANCH   6  11
HETATM   11  C   UNL     1      61.636   8.996   3.165  1.00  0.00     0.270 C 
BRANCH  11  12
HETATM   12  N   UNL     1      61.550  10.435   3.421  1.00  0.00    -0.075 N 
HETATM   13  C   UNL     1      61.820  11.199   2.213  1.00  0.00     0.267 C 
HETATM   14  H   UNL     1      62.234  10.687   4.136  1.00  0.00     0.277 HD
HETATM   15  H   UNL     1      60.605  10.651   3.737  1.00  0.00     0.277 HD
ENDBRANCH  11  12
ENDBRANCH   6  11
TORSDOF 2
ENDMDL
MODEL 9
REMARK VINA RESULT:      -4.4     18.329     19.617
REMARK  2 active torsions:
REMARK  status: ('A' for Active; 'I' for Inactive)
REMARK    1  A    between atoms: C_6  and  C_10 
REMARK    2  A    between atoms: N_8  and  C_10 
ROOT
HETATM    1  C   UNL     1      63.109   9.207   4.158  1.00  0.00    -0.024 A 
HETATM    2  C   UNL     1      62.809   8.621   2.925  1.00  0.00     0.075 A 
HETATM    3  O   UNL     1      62.118   9.263   1.930  1.00  0.00    -0.351 OA
HETATM    4  C   UNL     1      63.849   8.477   5.101  1.00  0.00     0.018 A 
HETATM    5  C   UNL     1      63.185   7.306   2.662  1.00  0.00     0.038 A 
HETATM    6  C   UNL     1      64.240   7.151   4.844  1.00  0.00    -0.032 A 
HETATM    7  C   UNL     1      63.893   6.572   3.616  1.00  0.00     0.011 A 
HETATM    8  C   UNL     1      62.665  10.605   4.477  1.00  0.00     0.043 C 
HETATM    9  C   UNL     1      62.039  10.682   2.089  1.00  0.00     0.176 C 
HETATM   10  C   UNL     1      61.602  11.067   3.492  1.00  0.00     0.031 C 
ENDROOT
BRANCH   6  11
HETATM   11  C   UNL     1      65.035   6.370   5.867  1.00  0.00     0.270 C 
BRANCH  11  12
HETATM   12  N   UNL     1      65.187   7.116   7.118  1.00  0.00    -0.075 N 
HETATM   13  C   UNL     1      66.562   7.070   7.591  1.00  0.00     0.267 C 
HETATM   14  H   UNL     1      64.577   6.707   7.826  1.00  0.00     0.277 HD
HETATM   15  H   UNL     1      64.936   8.089   6.946  1.00  0.00     0.277 HD
ENDBRANCH  11  12
ENDBRANCH   6  11
TORSDOF 2
ENDMDL
