MODEL 1
REMARK VINA RESULT:      -5.9      0.000      0.000
REMARK  1 active torsions:
REMARK  status: ('A' for Active; 'I' for Inactive)
REMARK    1  A    between atoms: C_1  and  C_2 
REMARK       I    between atoms: C_1  and  N_10 
ROOT
HETATM    1  C   UNL     1      71.503  21.790  11.637  1.00  0.00     0.032 A 
HETATM    2  C   UNL     1      72.504  22.524  12.286  1.00  0.00     0.027 A 
HETATM    3  C   UNL     1      72.170  23.411  13.320  1.00  0.00    -0.024 A 
HETATM    4  C   UNL     1      70.825  23.564  13.680  1.00  0.00     0.075 A 
HETATM    5  O   UNL     1      70.394  24.430  14.651  1.00  0.00    -0.351 OA
HETATM    6  C   UNL     1      70.170  21.906  12.048  1.00  0.00     0.020 A 
HETATM    7  C   UNL     1      69.835  22.793  13.070  1.00  0.00     0.038 A 
HETATM    8  C   UNL     1      73.244  24.207  14.006  1.00  0.00     0.043 C 
HETATM    9  C   UNL     1      71.347  25.439  15.000  1.00  0.00     0.176 C 
HETATM   10  C   UNL     1      72.712  24.838  15.285  1.00  0.00     0.031 C 
ENDROOT
BRANCH   1  11
HETATM   11  C   UNL     1      71.881  20.898  10.516  1.00  0.00     0.249 C 
HETATM   12  O   UNL     1      73.003  20.911  10.026  1.00  0.00    -0.268 OA
HETATM   13  N   UNL     1      70.891  20.096  10.016  1.00  0.00    -0.366 N 
HETATM   14  H   UNL     1      69.998  20.104  10.428  1.00  0.00     0.159 HD
HETATM   15  H   UNL     1      71.074  19.514   9.244  1.00  0.00     0.159 HD
ENDBRANCH   1  11
TORSDOF 1
ENDMDL
MODEL 2
REMARK VINA RESULT:      -5.7     16.512     17.688
REMARK  1 active torsions:
REMARK  status: ('A' for Active; 'I' for Inactive)
REMARK    1  A    between atoms: C_1  and  C_2 
REMARK       I    between atoms: C_1  and  N_10 
ROOT
HETATM    1  C   UNL     1      76.549   5.287  17.104  1.00  0.00     0.032 A 
HETATM    2  C   UNL     1      76.786   6.377  17.951  1.00  0.00     0.027 A 
HETATM    3  C   UNL     1      77.075   7.639  17.412  1.00  0.00    -0.024 A 
HETATM    4  C   UNL     1      77.142   7.787  16.021  1.00  0.00     0.075 A 
HETATM    5  O   UNL     1      77.453   8.968  15.398  1.00  0.00    -0.351 OA
HETATM    6  C   UNL     1      76.557   5.462  15.716  1.00  0.00     0.020 A 
HETATM    7  C   UNL     1      76.853   6.714  15.178  1.00  0.00     0.038 A 
HETATM    8  C   UNL     1      77.342   8.805  18.322  1.00  0.00     0.043 C 
HETATM    9  C   UNL     1      78.079   9.931  16.250  1.00  0.00     0.176 C 
HETATM   10  C   UNL     1      77.306  10.113  17.545  1.00  0.00     0.031 C 
ENDROOT
BRANCH   1  11
HETATM   11  C   UNL     1      76.293   3.956  17.704  1.00  0.00     0.249 C 
HETATM   12  O   UNL     1      75.558   3.135  17.171  1.00  0.00    -0.268 OA
HETATM   13  N   UNL     1      76.876   3.713  18.917  1.00  0.00    -0.366 N 
HETATM   14  H   UNL     1      77.464   4.389  19.324  1.00  0.00     0.159 HD
HETATM   15  H   UNL     1      76.707   2.862  19.382  1.00  0.00     0.159 HD
ENDBRANCH   1  11
TORSDOF 1
ENDMDL
MODEL 3
REMARK VINA RESULT:      -5.6     17.079     19.841
REMARK  1 active torsions:
REMARK  status: ('A' for Active; 'I' for Inactive)
REMARK    1  A    between atoms: C_1  and  C_2 
REMARK       I    between atoms: C_1  and  N_10 
ROOT
HETATM    1  C   UNL     1      62.689   9.949   4.124  1.00  0.00     0.032 A 
HETATM    2  C   UNL     1      62.070   9.882   2.869  1.00  0.00     0.027 A 
HETATM    3  C   UNL     1      62.211   8.735   2.074  1.00  0.00    -0.024 A 
HETATM    4  C   UNL     1      62.990   7.671   2.545  1.00  0.00     0.075 A 
HETATM    5  O   UNL     1      63.218   6.524   1.830  1.00  0.00    -0.351 OA
HETATM    6  C   UNL     1      63.413   8.855   4.609  1.00  0.00     0.020 A 
HETATM    7  C   UNL     1      63.561   7.717   3.817  1.00  0.00     0.038 A 
HETATM    8  C   UNL     1      61.557   8.669   0.723  1.00  0.00     0.043 C 
HETATM    9  C   UNL     1      62.937   6.640   0.432  1.00  0.00     0.176 C 
HETATM   10  C   UNL     1      61.564   7.243   0.191  1.00  0.00     0.031 C 
ENDROOT
BRANCH   1  11
HETATM   11  C   UNL     1      62.562  11.193   4.920  1.00  0.00     0.249 C 
HETATM   12  O   UNL     1      61.860  12.128   4.554  1.00  0.00    -0.268 OA
HETATM   13  N   UNL     1      63.317  11.267   6.057  1.00  0.00    -0.366 N 
HETATM   14  H   UNL     1      63.872  10.502   6.330  1.00  0.00     0.159 HD
HETATM   15  H   UNL     1      63.305  12.087   6.603  1.00  0.00     0.159 HD
ENDBRANCH   1  11
TORSDOF 1
ENDMDL
MODEL 4
REMARK VINA RESULT:      -5.5     19.365     20.844
REMARK  1 active torsions:
REMARK  status: ('A' for Active; 'I' for Inactive)
REMARK    1  A    between atoms: C_1  and  C_2 
REMARK       I    between atoms: C_1  and  N_10 
ROOT
HETATM    1  C   UNL     1      76.138   4.950  17.150  1.00  0.00     0.032 A 
HETATM    2  C   UNL     1      76.937   3.930  17.682  1.00  0.00     0.027 A 
HETATM    3  C   UNL     1      76.450   2.617  17.751  1.00  0.00    -0.024 A 
HETATM    4  C   UNL     1      75.152   2.346  17.299  1.00  0.00     0.075 A 
HETATM    5  O   UNL     1      74.573   1.105  17.357  1.00  0.00    -0.351 OA
HETATM    6  C   UNL     1      74.867   4.655  16.644  1.00  0.00     0.020 A 
HETATM    7  C   UNL     1      74.378   3.352  16.720  1.00  0.00     0.038 A 
HETATM    8  C   UNL     1      77.303   1.526  18.335  1.00  0.00     0.043 C 
HETATM    9  C   UNL     1      75.221   0.198  18.254  1.00  0.00     0.176 C 
HETATM   10  C   UNL     1      76.721   0.158  18.014  1.00  0.00     0.031 C 
ENDROOT
BRANCH   1  11
HETATM   11  C   UNL     1      76.662   6.337  17.134  1.00  0.00     0.249 C 
HETATM   12  O   UNL     1      76.780   6.997  18.159  1.00  0.00    -0.268 OA
HETATM   13  N   UNL     1      76.952   6.864  15.906  1.00  0.00    -0.366 N 
HETATM   14  H   UNL     1      76.848   6.313  15.098  1.00  0.00     0.159 HD
HETATM   15  H   UNL     1      77.263   7.795  15.832  1.00  0.00     0.159 HD
ENDBRANCH   1  11
TORSDOF 1
ENDMDL
MODEL 5
REMARK VINA RESULT:      -5.4     17.449     18.660
REMARK  1 active torsions:
REMARK  status: ('A' for Active; 'I' for Inactive)
REMARK    1  A    between atoms: C_1  and  C_2 
REMARK       I    between atoms: C_1  and  N_10 
ROOT
HETATM    1  C   UNL     1      68.452   4.667   8.670  1.00  0.00     0.032 A 
HETATM    2  C   UNL     1      68.355   4.814   7.281  1.00  0.00     0.027 A 
HETATM    3  C   UNL     1      67.655   5.900   6.734  1.00  0.00    -0.024 A 
HETATM    4  C   UNL     1      67.043   6.820   7.595  1.00  0.00     0.075 A 
HETATM    5  O   UNL     1      66.308   7.891   7.160  1.00  0.00    -0.351 OA
HETATM    6  C   UNL     1      67.889   5.626   9.519  1.00  0.00     0.020 A 
HETATM    7  C   UNL     1      67.186   6.702   8.978  1.00  0.00     0.038 A 
HETATM    8  C   UNL     1      67.541   6.050   5.243  1.00  0.00     0.043 C 
HETATM    9  C   UNL     1      65.883   7.795   5.797  1.00  0.00     0.176 C 
HETATM   10  C   UNL     1      67.039   7.439   4.879  1.00  0.00     0.031 C 
ENDROOT
BRANCH   1  11
HETATM   11  C   UNL     1      69.156   3.483   9.218  1.00  0.00     0.249 C 
HETATM   12  O   UNL     1      69.203   2.419   8.613  1.00  0.00    -0.268 OA
HETATM   13  N   UNL     1      69.702   3.623  10.464  1.00  0.00    -0.366 N 
HETATM   14  H   UNL     1      69.651   4.488  10.929  1.00  0.00     0.159 HD
HETATM   15  H   UNL     1      70.145   2.856  10.895  1.00  0.00     0.159 HD
ENDBRANCH   1  11
TORSDOF 1
ENDMDL
MODEL 6
REMARK VINA RESULT:      -5.3      1.003      2.246
REMARK  1 active torsions:
REMARK  status: ('A' for Active; 'I' for Inactive)
REMARK    1  A    between atoms: C_1  and  C_2 
REMARK       I    between atoms: C_1  and  N_10 
ROOT
HETATM    1  C   UNL     1      71.707  21.981  11.708  1.00  0.00     0.032 A 
HETATM    2  C   UNL     1      70.402  22.233  12.149  1.00  0.00     0.027 A 
HETATM    3  C   UNL     1      70.172  23.152  13.183  1.00  0.00    -0.024 A 
HETATM    4  C   UNL     1      71.264  23.798  13.776  1.00  0.00     0.075 A 
HETATM    5  O   UNL     1      71.148  24.684  14.815  1.00  0.00    -0.351 OA
HETATM    6  C   UNL     1      72.783  22.679  12.266  1.00  0.00     0.020 A 
HETATM    7  C   UNL     1      72.558  23.587  13.300  1.00  0.00     0.038 A 
HETATM    8  C   UNL     1      68.772  23.411  13.665  1.00  0.00     0.043 C 
HETATM    9  C   UNL     1      69.897  24.615  15.506  1.00  0.00     0.176 C 
HETATM   10  C   UNL     1      68.726  24.655  14.540  1.00  0.00     0.031 C 
ENDROOT
BRANCH   1  11
HETATM   11  C   UNL     1      71.922  20.969  10.647  1.00  0.00     0.249 C 
HETATM   12  O   UNL     1      73.003  20.834  10.088  1.00  0.00    -0.268 OA
HETATM   13  N   UNL     1      70.830  20.230  10.281  1.00  0.00    -0.366 N 
HETATM   14  H   UNL     1      69.972  20.357  10.746  1.00  0.00     0.159 HD
HETATM   15  H   UNL     1      70.904  19.572   9.552  1.00  0.00     0.159 HD
ENDBRANCH   1  11
TORSDOF 1
ENDMDL
MODEL 7
REMARK VINA RESULT:      -5.1     17.824     19.197
REMARK  1 active torsions:
REMARK  status: ('A' for Active; 'I' for Inactive)
REMARK    1  A    between atoms: C_1  and  C_2 
REMARK       I    between atoms: C_1  and  N_10 
ROOT
HETATM    1  C   UNL     1      69.189   4.363   8.457  1.00  0.00     0.032 A 
HETATM    2  C   UNL     1      68.456   5.554   8.515  1.00  0.00     0.027 A 
HETATM    3  C   UNL     1      67.532   5.863   7.506  1.00  0.00    -0.024 A 
HETATM    4  C   UNL     1      67.368   4.975   6.436  1.00  0.00     0.075 A 
HETATM    5  O   UNL     1      66.519   5.203   5.385  1.00  0.00    -0.351 OA
HETATM    6  C   UNL     1      68.971   3.454   7.416  1.00  0.00     0.020 A 
HETATM    7  C   UNL     1      68.059   3.763   6.407  1.00  0.00     0.038 A 
HETATM    8  C   UNL     1      66.756   7.149   7.563  1.00  0.00     0.043 C 
HETATM    9  C   UNL     1      66.106   6.566   5.251  1.00  0.00     0.176 C 
HETATM   10  C   UNL     1      65.602   7.124   6.571  1.00  0.00     0.031 C 
ENDROOT
BRANCH   1  11
HETATM   11  C   UNL     1      70.193   4.087   9.513  1.00  0.00     0.249 C 
HETATM   12  O   UNL     1      71.352   4.469   9.421  1.00  0.00    -0.268 OA
HETATM   13  N   UNL     1      69.770   3.329  10.571  1.00  0.00    -0.366 N 
HETATM   14  H   UNL     1      68.833   3.034  10.621  1.00  0.00     0.159 HD
HETATM   15  H   UNL     1      70.405   3.079  11.281  1.00  0.00     0.159 HD
ENDBRANCH   1  11
TORSDOF 1
ENDMDL
MODEL 8
REMARK VINA RESULT:      -5.1     17.189     18.918
REMARK  1 active torsions:
REMARK  status: ('A' for Active; 'I' for Inactive)
REMARK    1  A    between atoms: C_1  and  C_2 
REMARK       I    between atoms: C_1  and  N_10 
ROOT
HETATM    1  C   UNL     1      63.380   9.335   4.459  1.00  0.00     0.032 A 
HETATM    2  C   UNL     1      64.552   8.890   5.085  1.00  0.00     0.027 A 
HETATM    3  C   UNL     1      65.149   7.685   4.688  1.00  0.00    -0.024 A 
HETATM    4  C   UNL     1      64.548   6.928   3.675  1.00  0.00     0.075 A 
HETATM    5  O   UNL     1      65.033   5.721   3.242  1.00  0.00    -0.351 OA
HETATM    6  C   UNL     1      62.826   8.601   3.405  1.00  0.00     0.020 A 
HETATM    7  C   UNL     1      63.412   7.398   3.015  1.00  0.00     0.038 A 
HETATM    8  C   UNL     1      66.398   7.202   5.370  1.00  0.00     0.043 C 
HETATM    9  C   UNL     1      65.956   5.104   4.144  1.00  0.00     0.176 C 
HETATM   10  C   UNL     1      67.041   6.073   4.578  1.00  0.00     0.031 C 
ENDROOT
BRANCH   1  11
HETATM   11  C   UNL     1      62.746  10.588   4.933  1.00  0.00     0.249 C 
HETATM   12  O   UNL     1      61.781  11.083   4.364  1.00  0.00    -0.268 OA
HETATM   13  N   UNL     1      63.333  11.198   6.007  1.00  0.00    -0.366 N 
HETATM   14  H   UNL     1      64.107  10.781   6.447  1.00  0.00     0.159 HD
HETATM   15  H   UNL     1      62.980  12.056   6.339  1.00  0.00     0.159 HD
ENDBRANCH   1  11
TORSDOF 1
ENDMDL
MODEL 9
REMARK VINA RESULT:      -5.0     17.476     18.535
REMARK  1 active torsions:
REMARK  status: ('A' for Active; 'I' for Inactive)
REMARK    1  A    between atoms: C_1  and  C_2 
REMARK       I    between atoms: C_1  and  N_10 
ROOT
HETATM    1  C   UNL     1      65.969   7.399   5.609  1.00  0.00     0.032 A 
HETATM    2  C   UNL     1      66.340   7.312   6.957  1.00  0.00     0.027 A 
HETATM    3  C   UNL     1      67.198   6.290   7.387  1.00  0.00    -0.024 A 
HETATM    4  C   UNL     1      67.661   5.352   6.457  1.00  0.00     0.075 A 
HETATM    5  O   UNL     1      68.472   4.297   6.784  1.00  0.00    -0.351 OA
HETATM    6  C   UNL     1      66.488   6.493   4.679  1.00  0.00     0.020 A 
HETATM    7  C   UNL     1      67.334   5.471   5.106  1.00  0.00     0.038 A 
HETATM    8  C   UNL     1      67.585   6.190   8.836  1.00  0.00     0.043 C 
HETATM    9  C   UNL     1      68.501   3.991   8.181  1.00  0.00     0.176 C 
HETATM   10  C   UNL     1      68.755   5.234   9.016  1.00  0.00     0.031 C 
ENDROOT
BRANCH   1  11
HETATM   11  C   UNL     1      65.022   8.462   5.194  1.00  0.00     0.249 C 
HETATM   12  O   UNL     1      64.978   9.548   5.757  1.00  0.00    -0.268 OA
HETATM   13  N   UNL     1      64.156   8.144   4.184  1.00  0.00    -0.366 N 
HETATM   14  H   UNL     1      64.212   7.264   3.748  1.00  0.00     0.159 HD
HETATM   15  H   UNL     1      63.477   8.796   3.895  1.00  0.00     0.159 HD
ENDBRANCH   1  11
TORSDOF 1
ENDMDL
