MODEL 1
REMARK VINA RESULT:      -5.5      0.000      0.000
REMARK  3 active torsions:
REMARK  status: ('A' for Active; 'I' for Inactive)
REMARK    1  A    between atoms: N_1  and  C_2 
REMARK    2  A    between atoms: C_5  and  C_13 
REMARK    3  A    between atoms: O_9  and  C_13 
ROOT
HETATM    1  C   UNL     1      79.293  12.293  21.821  1.00  0.00     0.030 A 
HETATM    2  C   UNL     1      79.261  11.306  20.829  1.00  0.00     0.038 A 
HETATM    3  C   UNL     1      78.260  11.277  19.836  1.00  0.00    -0.033 A 
HETATM    4  C   UNL     1      78.290  13.275  21.775  1.00  0.00     0.029 A 
HETATM    5  C   UNL     1      77.299  13.275  20.791  1.00  0.00     0.003 A 
HETATM    6  C   UNL     1      77.283  12.276  19.824  1.00  0.00     0.009 A 
ENDROOT
BRANCH   1   7
HETATM    7  N   UNL     1      80.259  12.343  22.806  1.00  0.00    -0.377 N 
HETATM    8  C   UNL     1      79.945  12.408  24.240  1.00  0.00     0.149 C 
HETATM    9  C   UNL     1      80.360  13.760  24.840  1.00  0.00     0.187 C 
HETATM   10  O   UNL     1      81.733  14.071  24.551  1.00  0.00    -0.388 OA
HETATM   11  C   UNL     1      81.937  14.128  23.130  1.00  0.00     0.187 C 
HETATM   12  C   UNL     1      81.623  12.782  22.457  1.00  0.00     0.149 C 
ENDBRANCH   1   7
BRANCH   3  13
HETATM   13  C   UNL     1      78.234  10.173  18.812  1.00  0.00     0.203 C 
BRANCH  13  14
HETATM   14  O   UNL     1      79.544   9.884  18.344  1.00  0.00    -0.396 OA
HETATM   15  H   UNL     1      79.784  10.513  17.646  1.00  0.00     0.209 HD
ENDBRANCH  13  14
ENDBRANCH   3  13
TORSDOF 3
ENDMDL
MODEL 2
REMARK VINA RESULT:      -5.4     20.642     22.739
REMARK  3 active torsions:
REMARK  status: ('A' for Active; 'I' for Inactive)
REMARK    1  A    between atoms: N_1  and  C_2 
REMARK    2  A    between atoms: C_5  and  C_13 
REMARK    3  A    between atoms: O_9  and  C_13 
ROOT
HETATM    1  C   UNL     1      64.546   7.844   4.612  1.00  0.00     0.030 A 
HETATM    2  C   UNL     1      64.310   9.008   5.351  1.00  0.00     0.038 A 
HETATM    3  C   UNL     1      63.295   9.922   5.002  1.00  0.00    -0.033 A 
HETATM    4  C   UNL     1      63.710   7.610   3.507  1.00  0.00     0.029 A 
HETATM    5  C   UNL     1      62.688   8.493   3.154  1.00  0.00     0.003 A 
HETATM    6  C   UNL     1      62.482   9.649   3.898  1.00  0.00     0.009 A 
ENDROOT
BRANCH   1   7
HETATM    7  N   UNL     1      65.535   6.934   4.929  1.00  0.00    -0.377 N 
HETATM    8  C   UNL     1      65.526   6.130   6.160  1.00  0.00     0.149 C 
HETATM    9  C   UNL     1      66.671   6.538   7.099  1.00  0.00     0.187 C 
HETATM   10  O   UNL     1      67.941   6.523   6.428  1.00  0.00    -0.388 OA
HETATM   11  C   UNL     1      67.923   7.436   5.319  1.00  0.00     0.187 C 
HETATM   12  C   UNL     1      66.855   7.049   4.282  1.00  0.00     0.149 C 
ENDBRANCH   1   7
BRANCH   3  13
HETATM   13  C   UNL     1      63.101  11.186   5.798  1.00  0.00     0.203 C 
BRANCH  13  14
HETATM   14  O   UNL     1      64.307  11.569   6.443  1.00  0.00    -0.396 OA
HETATM   15  H   UNL     1      65.063  11.197   5.962  1.00  0.00     0.209 HD
ENDBRANCH  13  14
ENDBRANCH   3  13
TORSDOF 3
ENDMDL
MODEL 3
REMARK VINA RESULT:      -5.1     18.096     19.903
REMARK  3 active torsions:
REMARK  status: ('A' for Active; 'I' for Inactive)
REMARK    1  A    between atoms: N_1  and  C_2 
REMARK    2  A    between atoms: C_5  and  C_13 
REMARK    3  A    between atoms: O_9  and  C_13 
ROOT
HETATM    1  C   UNL     1      68.013   5.050   7.818  1.00  0.00     0.030 A 
HETATM    2  C   UNL     1      67.594   3.890   8.480  1.00  0.00     0.038 A 
HETATM    3  C   UNL     1      68.429   3.204   9.385  1.00  0.00    -0.033 A 
HETATM    4  C   UNL     1      69.304   5.519   8.110  1.00  0.00     0.029 A 
HETATM    5  C   UNL     1      70.141   4.865   9.016  1.00  0.00     0.003 A 
HETATM    6  C   UNL     1      69.706   3.707   9.651  1.00  0.00     0.009 A 
ENDROOT
BRANCH   1   7
HETATM    7  N   UNL     1      67.217   5.739   6.924  1.00  0.00    -0.377 N 
HETATM    8  C   UNL     1      67.505   5.819   5.485  1.00  0.00     0.149 C 
HETATM    9  C   UNL     1      67.878   7.251   5.071  1.00  0.00     0.187 C 
HETATM   10  O   UNL     1      66.891   8.203   5.501  1.00  0.00    -0.388 OA
HETATM   11  C   UNL     1      66.763   8.168   6.931  1.00  0.00     0.187 C 
HETATM   12  C   UNL     1      66.308   6.785   7.427  1.00  0.00     0.149 C 
ENDBRANCH   1   7
BRANCH   3  13
HETATM   13  C   UNL     1      67.958   1.934  10.044  1.00  0.00     0.203 C 
BRANCH  13  14
HETATM   14  O   UNL     1      68.659   1.703  11.258  1.00  0.00    -0.396 OA
HETATM   15  H   UNL     1      69.594   1.935  11.141  1.00  0.00     0.209 HD
ENDBRANCH  13  14
ENDBRANCH   3  13
TORSDOF 3
ENDMDL
MODEL 4
REMARK VINA RESULT:      -4.9     22.150     24.331
REMARK  3 active torsions:
REMARK  status: ('A' for Active; 'I' for Inactive)
REMARK    1  A    between atoms: N_1  and  C_2 
REMARK    2  A    between atoms: C_5  and  C_13 
REMARK    3  A    between atoms: O_9  and  C_13 
ROOT
HETATM    1  C   UNL     1      63.376   9.047   4.735  1.00  0.00     0.030 A 
HETATM    2  C   UNL     1      62.941   8.725   3.444  1.00  0.00     0.038 A 
HETATM    3  C   UNL     1      62.169   9.617   2.672  1.00  0.00    -0.033 A 
HETATM    4  C   UNL     1      63.025  10.315   5.228  1.00  0.00     0.029 A 
HETATM    5  C   UNL     1      62.275  11.220   4.474  1.00  0.00     0.003 A 
HETATM    6  C   UNL     1      61.844  10.871   3.199  1.00  0.00     0.009 A 
ENDROOT
BRANCH   1   7
HETATM    7  N   UNL     1      64.131   8.192   5.513  1.00  0.00    -0.377 N 
HETATM    8  C   UNL     1      65.598   8.138   5.461  1.00  0.00     0.149 C 
HETATM    9  C   UNL     1      66.087   6.802   4.881  1.00  0.00     0.187 C 
HETATM   10  O   UNL     1      65.507   5.681   5.569  1.00  0.00    -0.388 OA
HETATM   11  C   UNL     1      64.076   5.723   5.459  1.00  0.00     0.187 C 
HETATM   12  C   UNL     1      63.494   6.996   6.095  1.00  0.00     0.149 C 
ENDBRANCH   1   7
BRANCH   3  13
HETATM   13  C   UNL     1      61.682   9.217   1.304  1.00  0.00     0.203 C 
BRANCH  13  14
HETATM   14  O   UNL     1      60.296   8.909   1.329  1.00  0.00    -0.396 OA
HETATM   15  H   UNL     1      59.798   9.629   0.912  1.00  0.00     0.209 HD
ENDBRANCH  13  14
ENDBRANCH   3  13
TORSDOF 3
ENDMDL
MODEL 5
REMARK VINA RESULT:      -4.8     20.944     23.320
REMARK  3 active torsions:
REMARK  status: ('A' for Active; 'I' for Inactive)
REMARK    1  A    between atoms: N_1  and  C_2 
REMARK    2  A    between atoms: C_5  and  C_13 
REMARK    3  A    between atoms: O_9  and  C_13 
ROOT
HETATM    1  C   UNL     1      64.395   8.002   4.927  1.00  0.00     0.030 A 
HETATM    2  C   UNL     1      63.630   9.174   4.927  1.00  0.00     0.038 A 
HETATM    3  C   UNL     1      62.736   9.481   3.881  1.00  0.00    -0.033 A 
HETATM    4  C   UNL     1      64.220   7.126   3.843  1.00  0.00     0.029 A 
HETATM    5  C   UNL     1      63.328   7.402   2.806  1.00  0.00     0.003 A 
HETATM    6  C   UNL     1      62.589   8.580   2.823  1.00  0.00     0.009 A 
ENDROOT
BRANCH   1   7
HETATM    7  N   UNL     1      65.281   7.678   5.936  1.00  0.00    -0.377 N 
HETATM    8  C   UNL     1      66.714   7.996   5.884  1.00  0.00     0.149 C 
HETATM    9  C   UNL     1      67.565   6.722   5.779  1.00  0.00     0.187 C 
HETATM   10  O   UNL     1      67.237   5.777   6.810  1.00  0.00    -0.388 OA
HETATM   11  C   UNL     1      65.853   5.403   6.714  1.00  0.00     0.187 C 
HETATM   12  C   UNL     1      64.923   6.615   6.894  1.00  0.00     0.149 C 
ENDBRANCH   1   7
BRANCH   3  13
HETATM   13  C   UNL     1      61.963  10.773   3.894  1.00  0.00     0.203 C 
BRANCH  13  14
HETATM   14  O   UNL     1      61.513  11.108   2.589  1.00  0.00    -0.396 OA
HETATM   15  H   UNL     1      61.519  10.315   2.032  1.00  0.00     0.209 HD
ENDBRANCH  13  14
ENDBRANCH   3  13
TORSDOF 3
ENDMDL
MODEL 6
REMARK VINA RESULT:      -4.7     18.736     20.065
REMARK  3 active torsions:
REMARK  status: ('A' for Active; 'I' for Inactive)
REMARK    1  A    between atoms: N_1  and  C_2 
REMARK    2  A    between atoms: C_5  and  C_13 
REMARK    3  A    between atoms: O_9  and  C_13 
ROOT
HETATM    1  C   UNL     1      68.343   4.107   7.772  1.00  0.00     0.030 A 
HETATM    2  C   UNL     1      68.479   3.466   9.008  1.00  0.00     0.038 A 
HETATM    3  C   UNL     1      68.804   2.098   9.108  1.00  0.00    -0.033 A 
HETATM    4  C   UNL     1      68.565   3.331   6.623  1.00  0.00     0.029 A 
HETATM    5  C   UNL     1      68.905   1.978   6.699  1.00  0.00     0.003 A 
HETATM    6  C   UNL     1      69.022   1.362   7.940  1.00  0.00     0.009 A 
ENDROOT
BRANCH   1   7
HETATM    7  N   UNL     1      68.021   5.444   7.646  1.00  0.00    -0.377 N 
HETATM    8  C   UNL     1      67.581   6.277   8.773  1.00  0.00     0.149 C 
HETATM    9  C   UNL     1      66.113   6.702   8.612  1.00  0.00     0.187 C 
HETATM   10  O   UNL     1      65.874   7.315   7.334  1.00  0.00    -0.388 OA
HETATM   11  C   UNL     1      66.195   6.394   6.279  1.00  0.00     0.187 C 
HETATM   12  C   UNL     1      67.675   5.980   6.316  1.00  0.00     0.149 C 
ENDBRANCH   1   7
BRANCH   3  13
HETATM   13  C   UNL     1      68.899   1.433  10.456  1.00  0.00     0.203 C 
BRANCH  13  14
HETATM   14  O   UNL     1      69.842   2.098  11.284  1.00  0.00    -0.396 OA
HETATM   15  H   UNL     1      69.943   1.610  12.116  1.00  0.00     0.209 HD
ENDBRANCH  13  14
ENDBRANCH   3  13
TORSDOF 3
ENDMDL
MODEL 7
REMARK VINA RESULT:      -4.6     23.563     26.575
REMARK  3 active torsions:
REMARK  status: ('A' for Active; 'I' for Inactive)
REMARK    1  A    between atoms: N_1  and  C_2 
REMARK    2  A    between atoms: C_5  and  C_13 
REMARK    3  A    between atoms: O_9  and  C_13 
ROOT
HETATM    1  C   UNL     1      61.962   9.311   2.505  1.00  0.00     0.030 A 
HETATM    2  C   UNL     1      62.529   8.419   3.423  1.00  0.00     0.038 A 
HETATM    3  C   UNL     1      62.968   8.837   4.696  1.00  0.00    -0.033 A 
HETATM    4  C   UNL     1      61.829  10.648   2.914  1.00  0.00     0.029 A 
HETATM    5  C   UNL     1      62.242  11.080   4.177  1.00  0.00     0.003 A 
HETATM    6  C   UNL     1      62.813  10.176   5.065  1.00  0.00     0.009 A 
ENDROOT
BRANCH   1   7
HETATM    7  N   UNL     1      61.527   8.930   1.251  1.00  0.00    -0.377 N 
HETATM    8  C   UNL     1      60.191   8.375   0.996  1.00  0.00     0.149 C 
HETATM    9  C   UNL     1      60.271   6.901   0.571  1.00  0.00     0.187 C 
HETATM   10  O   UNL     1      61.177   6.714  -0.529  1.00  0.00    -0.388 OA
HETATM   11  C   UNL     1      62.496   7.148  -0.161  1.00  0.00     0.187 C 
HETATM   12  C   UNL     1      62.521   8.643   0.200  1.00  0.00     0.149 C 
ENDBRANCH   1   7
BRANCH   3  13
HETATM   13  C   UNL     1      63.613   7.856   5.639  1.00  0.00     0.203 C 
BRANCH  13  14
HETATM   14  O   UNL     1      62.890   7.775   6.859  1.00  0.00    -0.396 OA
HETATM   15  H   UNL     1      61.950   7.633   6.668  1.00  0.00     0.209 HD
ENDBRANCH  13  14
ENDBRANCH   3  13
TORSDOF 3
ENDMDL
MODEL 8
REMARK VINA RESULT:      -4.5     18.493     19.865
REMARK  3 active torsions:
REMARK  status: ('A' for Active; 'I' for Inactive)
REMARK    1  A    between atoms: N_1  and  C_2 
REMARK    2  A    between atoms: C_5  and  C_13 
REMARK    3  A    between atoms: O_9  and  C_13 
ROOT
HETATM    1  C   UNL     1      68.323   5.005   7.918  1.00  0.00     0.030 A 
HETATM    2  C   UNL     1      67.981   5.537   6.670  1.00  0.00     0.038 A 
HETATM    3  C   UNL     1      67.160   6.676   6.542  1.00  0.00    -0.033 A 
HETATM    4  C   UNL     1      67.827   5.671   9.052  1.00  0.00     0.029 A 
HETATM    5  C   UNL     1      67.028   6.811   8.949  1.00  0.00     0.003 A 
HETATM    6  C   UNL     1      66.692   7.311   7.696  1.00  0.00     0.009 A 
ENDROOT
BRANCH   1   7
HETATM    7  N   UNL     1      69.121   3.889   8.071  1.00  0.00    -0.377 N 
HETATM    8  C   UNL     1      68.973   2.674   7.258  1.00  0.00     0.149 C 
HETATM    9  C   UNL     1      68.484   1.491   8.108  1.00  0.00     0.187 C 
HETATM   10  O   UNL     1      69.309   1.294   9.268  1.00  0.00    -0.388 OA
HETATM   11  C   UNL     1      69.296   2.473  10.088  1.00  0.00     0.187 C 
HETATM   12  C   UNL     1      69.852   3.694   9.337  1.00  0.00     0.149 C 
ENDBRANCH   1   7
BRANCH   3  13
HETATM   13  C   UNL     1      66.778   7.192   5.180  1.00  0.00     0.203 C 
BRANCH  13  14
HETATM   14  O   UNL     1      66.183   8.479   5.274  1.00  0.00    -0.396 OA
HETATM   15  H   UNL     1      66.294   8.821   6.175  1.00  0.00     0.209 HD
ENDBRANCH  13  14
ENDBRANCH   3  13
TORSDOF 3
ENDMDL
MODEL 9
REMARK VINA RESULT:      -4.5     22.207     25.002
REMARK  3 active torsions:
REMARK  status: ('A' for Active; 'I' for Inactive)
REMARK    1  A    between atoms: N_1  and  C_2 
REMARK    2  A    between atoms: C_5  and  C_13 
REMARK    3  A    between atoms: O_9  and  C_13 
ROOT
HETATM    1  C   UNL     1      62.853   8.531   3.412  1.00  0.00     0.030 A 
HETATM    2  C   UNL     1      63.028   7.423   2.574  1.00  0.00     0.038 A 
HETATM    3  C   UNL     1      62.621   7.436   1.225  1.00  0.00    -0.033 A 
HETATM    4  C   UNL     1      62.268   9.674   2.843  1.00  0.00     0.029 A 
HETATM    5  C   UNL     1      61.873   9.714   1.504  1.00  0.00     0.003 A 
HETATM    6  C   UNL     1      62.047   8.596   0.696  1.00  0.00     0.009 A 
ENDROOT
BRANCH   1   7
HETATM    7  N   UNL     1      63.239   8.545   4.737  1.00  0.00    -0.377 N 
HETATM    8  C   UNL     1      64.571   8.977   5.185  1.00  0.00     0.149 C 
HETATM    9  C   UNL     1      65.373   7.801   5.763  1.00  0.00     0.187 C 
HETATM   10  O   UNL     1      64.637   7.105   6.781  1.00  0.00    -0.388 OA
HETATM   11  C   UNL     1      63.411   6.589   6.238  1.00  0.00     0.187 C 
HETATM   12  C   UNL     1      62.506   7.714   5.710  1.00  0.00     0.149 C 
ENDBRANCH   1   7
BRANCH   3  13
HETATM   13  C   UNL     1      62.787   6.209   0.367  1.00  0.00     0.203 C 
BRANCH  13  14
HETATM   14  O   UNL     1      64.079   5.643   0.536  1.00  0.00    -0.396 OA
HETATM   15  H   UNL     1      64.745   6.244   0.169  1.00  0.00     0.209 HD
ENDBRANCH  13  14
ENDBRANCH   3  13
TORSDOF 3
ENDMDL
