MODEL 1
REMARK VINA RESULT:      -5.1      0.000      0.000
REMARK  2 active torsions:
REMARK  status: ('A' for Active; 'I' for Inactive)
REMARK    1  A    between atoms: C_6  and  C_12 
REMARK    2  A    between atoms: N_11  and  C_12 
ROOT
HETATM    1  N   UNL     1      78.497  11.023  19.694  1.00  0.00    -0.317 N 
HETATM    2  C   UNL     1      77.347  11.735  19.380  1.00  0.00     0.111 A 
HETATM    3  C   UNL     1      79.346  11.347  20.751  1.00  0.00     0.106 A 
HETATM    4  N   UNL     1      76.726  11.216  18.342  1.00  0.00    -0.351 N 
ATOM      5  HN  UNL     1      75.862  11.544  17.909  1.00  0.00     0.166 HD
HETATM    6  C   UNL     1      79.060  12.407  21.536  1.00  0.00    -0.017 A 
HETATM    7  C   UNL     1      77.045  12.863  20.191  1.00  0.00     0.050 A 
HETATM    8  C   UNL     1      77.863  13.193  21.209  1.00  0.00     0.014 A 
HETATM    9  C   UNL     1      77.489  10.140  17.966  1.00  0.00     0.107 A 
HETATM   10  C   UNL     1      78.590  10.004  18.781  1.00  0.00     0.115 A 
ENDROOT
BRANCH   6  11
HETATM   11  C   UNL     1      79.920  12.834  22.699  1.00  0.00     0.271 C 
BRANCH  11  12
HETATM   12  N   UNL     1      81.335  12.559  22.448  1.00  0.00    -0.075 N 
HETATM   13  C   UNL     1      82.169  13.689  22.835  1.00  0.00     0.267 C 
HETATM   14  H   UNL     1      81.466  12.375  21.454  1.00  0.00     0.277 HD
HETATM   15  H   UNL     1      81.610  11.750  23.004  1.00  0.00     0.277 HD
ENDBRANCH  11  12
ENDBRANCH   6  11
TORSDOF 2
ENDMDL
MODEL 2
REMARK VINA RESULT:      -4.9      1.877      5.045
REMARK  2 active torsions:
REMARK  status: ('A' for Active; 'I' for Inactive)
REMARK    1  A    between atoms: C_6  and  C_12 
REMARK    2  A    between atoms: N_11  and  C_12 
ROOT
HETATM    1  N   UNL     1      78.379  11.492  20.045  1.00  0.00    -0.317 N 
HETATM    2  C   UNL     1      77.514  12.555  19.816  1.00  0.00     0.111 A 
HETATM    3  C   UNL     1      78.398  10.329  19.278  1.00  0.00     0.106 A 
HETATM    4  N   UNL     1      77.707  13.529  20.680  1.00  0.00    -0.351 N 
ATOM      5  HN  UNL     1      77.209  14.419  20.732  1.00  0.00     0.166 HD
HETATM    6  C   UNL     1      77.541  10.196  18.243  1.00  0.00    -0.017 A 
HETATM    7  C   UNL     1      76.596  12.419  18.738  1.00  0.00     0.050 A 
HETATM    8  C   UNL     1      76.598  11.295  17.996  1.00  0.00     0.014 A 
HETATM    9  C   UNL     1      78.722  13.093  21.495  1.00  0.00     0.107 A 
HETATM   10  C   UNL     1      79.148  11.838  21.126  1.00  0.00     0.115 A 
ENDROOT
BRANCH   6  11
HETATM   11  C   UNL     1      77.488   8.975  17.360  1.00  0.00     0.271 C 
BRANCH  11  12
HETATM   12  N   UNL     1      76.727   7.894  17.988  1.00  0.00    -0.075 N 
HETATM   13  C   UNL     1      76.920   6.634  17.284  1.00  0.00     0.267 C 
HETATM   14  H   UNL     1      75.736   8.134  17.973  1.00  0.00     0.277 HD
HETATM   15  H   UNL     1      77.056   7.782  18.946  1.00  0.00     0.277 HD
ENDBRANCH  11  12
ENDBRANCH   6  11
TORSDOF 2
ENDMDL
MODEL 3
REMARK VINA RESULT:      -4.7      1.064      2.082
REMARK  2 active torsions:
REMARK  status: ('A' for Active; 'I' for Inactive)
REMARK    1  A    between atoms: C_6  and  C_12 
REMARK    2  A    between atoms: N_11  and  C_12 
ROOT
HETATM    1  N   UNL     1      77.385  12.770  20.371  1.00  0.00    -0.317 N 
HETATM    2  C   UNL     1      77.696  11.755  19.474  1.00  0.00     0.111 A 
HETATM    3  C   UNL     1      78.159  13.080  21.488  1.00  0.00     0.106 A 
HETATM    4  N   UNL     1      76.805  11.675  18.508  1.00  0.00    -0.351 N 
ATOM      5  HN  UNL     1      76.798  11.022  17.725  1.00  0.00     0.166 HD
HETATM    6  C   UNL     1      79.283  12.377  21.739  1.00  0.00    -0.017 A 
HETATM    7  C   UNL     1      78.869  10.997  19.738  1.00  0.00     0.050 A 
HETATM    8  C   UNL     1      79.620  11.281  20.820  1.00  0.00     0.014 A 
HETATM    9  C   UNL     1      75.888  12.660  18.780  1.00  0.00     0.107 A 
HETATM   10  C   UNL     1      76.222  13.344  19.927  1.00  0.00     0.115 A 
ENDROOT
BRANCH   6  11
HETATM   11  C   UNL     1      80.180  12.640  22.923  1.00  0.00     0.271 C 
BRANCH  11  12
HETATM   12  N   UNL     1      81.593  12.582  22.546  1.00  0.00    -0.075 N 
HETATM   13  C   UNL     1      82.275  13.829  22.861  1.00  0.00     0.267 C 
HETATM   14  H   UNL     1      81.663  12.409  21.544  1.00  0.00     0.277 HD
HETATM   15  H   UNL     1      82.036  11.830  23.073  1.00  0.00     0.277 HD
ENDBRANCH  11  12
ENDBRANCH   6  11
TORSDOF 2
ENDMDL
MODEL 4
REMARK VINA RESULT:      -4.7     16.488     18.071
REMARK  2 active torsions:
REMARK  status: ('A' for Active; 'I' for Inactive)
REMARK    1  A    between atoms: C_6  and  C_12 
REMARK    2  A    between atoms: N_11  and  C_12 
ROOT
HETATM    1  N   UNL     1      67.052   5.679   6.957  1.00  0.00    -0.317 N 
HETATM    2  C   UNL     1      66.381   6.512   7.844  1.00  0.00     0.111 A 
HETATM    3  C   UNL     1      68.178   4.931   7.297  1.00  0.00     0.106 A 
HETATM    4  N   UNL     1      65.350   7.097   7.271  1.00  0.00    -0.351 N 
ATOM      5  HN  UNL     1      64.693   7.751   7.697  1.00  0.00     0.166 HD
HETATM    6  C   UNL     1      68.668   4.995   8.553  1.00  0.00    -0.017 A 
HETATM    7  C   UNL     1      66.898   6.598   9.166  1.00  0.00     0.050 A 
HETATM    8  C   UNL     1      67.992   5.888   9.504  1.00  0.00     0.014 A 
HETATM    9  C   UNL     1      65.348   6.637   5.978  1.00  0.00     0.107 A 
HETATM   10  C   UNL     1      66.391   5.767   5.759  1.00  0.00     0.115 A 
ENDROOT
BRANCH   6  11
HETATM   11  C   UNL     1      69.881   4.224   9.011  1.00  0.00     0.271 C 
BRANCH  11  12
HETATM   12  N   UNL     1      69.679   3.648  10.341  1.00  0.00    -0.075 N 
HETATM   13  C   UNL     1      69.353   2.232  10.259  1.00  0.00     0.267 C 
HETATM   14  H   UNL     1      68.914   4.139  10.802  1.00  0.00     0.277 HD
HETATM   15  H   UNL     1      70.544   3.751  10.871  1.00  0.00     0.277 HD
ENDBRANCH  11  12
ENDBRANCH   6  11
TORSDOF 2
ENDMDL
MODEL 5
REMARK VINA RESULT:      -4.5      8.354     10.546
REMARK  2 active torsions:
REMARK  status: ('A' for Active; 'I' for Inactive)
REMARK    1  A    between atoms: C_6  and  C_12 
REMARK    2  A    between atoms: N_11  and  C_12 
ROOT
HETATM    1  N   UNL     1      76.541   3.598  17.673  1.00  0.00    -0.317 N 
HETATM    2  C   UNL     1      75.291   3.542  17.070  1.00  0.00     0.111 A 
HETATM    3  C   UNL     1      77.221   2.481  18.155  1.00  0.00     0.106 A 
HETATM    4  N   UNL     1      74.878   4.736  16.703  1.00  0.00    -0.351 N 
ATOM      5  HN  UNL     1      74.000   4.973  16.239  1.00  0.00     0.166 HD
HETATM    6  C   UNL     1      76.661   1.258  18.042  1.00  0.00    -0.017 A 
HETATM    7  C   UNL     1      74.685   2.260  16.960  1.00  0.00     0.050 A 
HETATM    8  C   UNL     1      75.327   1.174  17.431  1.00  0.00     0.014 A 
HETATM    9  C   UNL     1      75.881   5.596  17.076  1.00  0.00     0.107 A 
HETATM   10  C   UNL     1      76.914   4.918  17.681  1.00  0.00     0.115 A 
ENDROOT
BRANCH   6  11
HETATM   11  C   UNL     1      77.320  -0.006  18.535  1.00  0.00     0.271 C 
BRANCH  11  12
HETATM   12  N   UNL     1      77.691   0.100  19.947  1.00  0.00    -0.075 N 
HETATM   13  C   UNL     1      79.134   0.019  20.121  1.00  0.00     0.267 C 
HETATM   14  H   UNL     1      77.250  -0.661  20.464  1.00  0.00     0.277 HD
HETATM   15  H   UNL     1      77.374   1.004  20.297  1.00  0.00     0.277 HD
ENDBRANCH  11  12
ENDBRANCH   6  11
TORSDOF 2
ENDMDL
MODEL 6
REMARK VINA RESULT:      -4.5      8.629     11.366
REMARK  2 active torsions:
REMARK  status: ('A' for Active; 'I' for Inactive)
REMARK    1  A    between atoms: C_6  and  C_12 
REMARK    2  A    between atoms: N_11  and  C_12 
ROOT
HETATM    1  N   UNL     1      75.472   3.680  17.038  1.00  0.00    -0.317 N 
HETATM    2  C   UNL     1      76.698   3.629  17.690  1.00  0.00     0.111 A 
HETATM    3  C   UNL     1      74.633   2.579  16.878  1.00  0.00     0.106 A 
HETATM    4  N   UNL     1      77.286   4.806  17.705  1.00  0.00    -0.351 N 
ATOM      5  HN  UNL     1      78.188   5.043  18.119  1.00  0.00     0.166 HD
HETATM    6  C   UNL     1      75.001   1.380  17.376  1.00  0.00    -0.017 A 
HETATM    7  C   UNL     1      77.103   2.367  18.204  1.00  0.00     0.050 A 
HETATM    8  C   UNL     1      76.305   1.293  18.047  1.00  0.00     0.014 A 
HETATM    9  C   UNL     1      76.425   5.648  17.046  1.00  0.00     0.107 A 
HETATM   10  C   UNL     1      75.303   4.975  16.621  1.00  0.00     0.115 A 
ENDROOT
BRANCH   6  11
HETATM   11  C   UNL     1      74.159   0.134  17.249  1.00  0.00     0.271 C 
BRANCH  11  12
HETATM   12  N   UNL     1      74.570  -0.889  18.211  1.00  0.00    -0.075 N 
HETATM   13  C   UNL     1      73.638  -0.968  19.327  1.00  0.00     0.267 C 
HETATM   14  H   UNL     1      75.497  -0.657  18.568  1.00  0.00     0.277 HD
HETATM   15  H   UNL     1      74.582  -1.791  17.737  1.00  0.00     0.277 HD
ENDBRANCH  11  12
ENDBRANCH   6  11
TORSDOF 2
ENDMDL
MODEL 7
REMARK VINA RESULT:      -4.5     16.322     18.030
REMARK  2 active torsions:
REMARK  status: ('A' for Active; 'I' for Inactive)
REMARK    1  A    between atoms: C_6  and  C_12 
REMARK    2  A    between atoms: N_11  and  C_12 
ROOT
HETATM    1  N   UNL     1      68.137   3.037   9.083  1.00  0.00    -0.317 N 
HETATM    2  C   UNL     1      69.304   3.470   9.700  1.00  0.00     0.111 A 
HETATM    3  C   UNL     1      67.491   3.738   8.066  1.00  0.00     0.106 A 
HETATM    4  N   UNL     1      69.706   2.621  10.622  1.00  0.00    -0.351 N 
ATOM      5  HN  UNL     1      70.531   2.699  11.218  1.00  0.00     0.166 HD
HETATM    6  C   UNL     1      68.005   4.908   7.631  1.00  0.00    -0.017 A 
HETATM    7  C   UNL     1      69.845   4.709   9.260  1.00  0.00     0.050 A 
HETATM    8  C   UNL     1      69.225   5.401   8.285  1.00  0.00     0.014 A 
HETATM    9  C   UNL     1      68.780   1.609  10.609  1.00  0.00     0.107 A 
HETATM   10  C   UNL     1      67.799   1.846   9.673  1.00  0.00     0.115 A 
ENDROOT
BRANCH   6  11
HETATM   11  C   UNL     1      67.375   5.736   6.538  1.00  0.00     0.271 C 
BRANCH  11  12
HETATM   12  N   UNL     1      67.832   7.125   6.589  1.00  0.00    -0.075 N 
HETATM   13  C   UNL     1      66.709   8.051   6.564  1.00  0.00     0.267 C 
HETATM   14  H   UNL     1      68.431   7.307   5.783  1.00  0.00     0.277 HD
HETATM   15  H   UNL     1      68.346   7.264   7.458  1.00  0.00     0.277 HD
ENDBRANCH  11  12
ENDBRANCH   6  11
TORSDOF 2
ENDMDL
MODEL 8
REMARK VINA RESULT:      -4.4     16.575     17.670
REMARK  2 active torsions:
REMARK  status: ('A' for Active; 'I' for Inactive)
REMARK    1  A    between atoms: C_6  and  C_12 
REMARK    2  A    between atoms: N_11  and  C_12 
ROOT
HETATM    1  N   UNL     1      67.496   4.500   8.426  1.00  0.00    -0.317 N 
HETATM    2  C   UNL     1      68.499   5.450   8.274  1.00  0.00     0.111 A 
HETATM    3  C   UNL     1      67.692   3.255   9.021  1.00  0.00     0.106 A 
HETATM    4  N   UNL     1      68.048   6.538   7.686  1.00  0.00    -0.351 N 
ATOM      5  HN  UNL     1      68.574   7.382   7.459  1.00  0.00     0.166 HD
HETATM    6  C   UNL     1      68.912   2.922   9.490  1.00  0.00    -0.017 A 
HETATM    7  C   UNL     1      69.793   5.104   8.751  1.00  0.00     0.050 A 
HETATM    8  C   UNL     1      69.997   3.899   9.319  1.00  0.00     0.014 A 
HETATM    9  C   UNL     1      66.719   6.294   7.445  1.00  0.00     0.107 A 
HETATM   10  C   UNL     1      66.357   5.042   7.887  1.00  0.00     0.115 A 
ENDROOT
BRANCH   6  11
HETATM   11  C   UNL     1      69.217   1.599  10.146  1.00  0.00     0.271 C 
BRANCH  11  12
HETATM   12  N   UNL     1      70.658   1.407  10.319  1.00  0.00    -0.075 N 
HETATM   13  C   UNL     1      71.065   0.070   9.908  1.00  0.00     0.267 C 
HETATM   14  H   UNL     1      70.895   1.539  11.302  1.00  0.00     0.277 HD
HETATM   15  H   UNL     1      71.146   2.086   9.736  1.00  0.00     0.277 HD
ENDBRANCH  11  12
ENDBRANCH   6  11
TORSDOF 2
ENDMDL
MODEL 9
REMARK VINA RESULT:      -4.3     20.154     22.990
REMARK  2 active torsions:
REMARK  status: ('A' for Active; 'I' for Inactive)
REMARK    1  A    between atoms: C_6  and  C_12 
REMARK    2  A    between atoms: N_11  and  C_12 
ROOT
HETATM    1  N   UNL     1      62.776   8.477   2.740  1.00  0.00    -0.317 N 
HETATM    2  C   UNL     1      62.038   9.608   3.066  1.00  0.00     0.111 A 
HETATM    3  C   UNL     1      63.777   7.945   3.550  1.00  0.00     0.106 A 
HETATM    4  N   UNL     1      61.155   9.894   2.133  1.00  0.00    -0.351 N 
ATOM      5  HN  UNL     1      60.489  10.668   2.125  1.00  0.00     0.166 HD
HETATM    6  C   UNL     1      64.069   8.537   4.727  1.00  0.00    -0.017 A 
HETATM    7  C   UNL     1      62.348  10.248   4.297  1.00  0.00     0.050 A 
HETATM    8  C   UNL     1      63.321   9.749   5.084  1.00  0.00     0.014 A 
HETATM    9  C   UNL     1      61.320   8.929   1.171  1.00  0.00     0.107 A 
HETATM   10  C   UNL     1      62.318   8.048   1.521  1.00  0.00     0.115 A 
ENDROOT
BRANCH   6  11
HETATM   11  C   UNL     1      65.136   8.033   5.667  1.00  0.00     0.271 C 
BRANCH  11  12
HETATM   12  N   UNL     1      64.557   7.278   6.779  1.00  0.00    -0.075 N 
HETATM   13  C   UNL     1      65.583   6.558   7.519  1.00  0.00     0.267 C 
HETATM   14  H   UNL     1      63.882   6.609   6.410  1.00  0.00     0.277 HD
HETATM   15  H   UNL     1      64.103   7.935   7.413  1.00  0.00     0.277 HD
ENDBRANCH  11  12
ENDBRANCH   6  11
TORSDOF 2
ENDMDL
