MODEL 1
REMARK VINA RESULT:      -5.4      0.000      0.000
REMARK  1 active torsions:
REMARK  status: ('A' for Active; 'I' for Inactive)
REMARK    1  A    between atoms: N_1  and  C_3 
ROOT
HETATM    1  N   UNL     1      79.082  12.803  22.592  1.00  0.00    -0.191 NA
HETATM    2  C   UNL     1      77.537  10.805  18.443  1.00  0.00     0.031 A 
HETATM    3  C   UNL     1      78.514  12.561  21.607  1.00  0.00     0.099 C 
HETATM    4  C   UNL     1      78.182  11.128  19.646  1.00  0.00     0.052 A 
HETATM    5  C   UNL     1      77.820  12.259  20.392  1.00  0.00     0.046 A 
HETATM    6  C   UNL     1      76.511  11.663  18.020  1.00  0.00     0.029 A 
HETATM    7  C   UNL     1      76.133  12.788  18.760  1.00  0.00     0.004 A 
HETATM    8  C   UNL     1      76.790  13.087  19.948  1.00  0.00     0.023 A 
ENDROOT
BRANCH   2   9
HETATM    9  N   UNL     1      77.876   9.691  17.708  1.00  0.00    -0.377 N 
HETATM   10  C   UNL     1      78.283   9.749  16.297  1.00  0.00     0.149 C 
HETATM   11  C   UNL     1      77.326   8.916  15.433  1.00  0.00     0.187 C 
HETATM   12  O   UNL     1      77.209   7.570  15.922  1.00  0.00    -0.388 OA
HETATM   13  C   UNL     1      76.711   7.570  17.270  1.00  0.00     0.187 C 
HETATM   14  C   UNL     1      77.648   8.332  18.223  1.00  0.00     0.149 C 
ENDBRANCH   2   9
TORSDOF 1
ENDMDL
MODEL 2
REMARK VINA RESULT:      -5.2     14.463     16.077
REMARK  1 active torsions:
REMARK  status: ('A' for Active; 'I' for Inactive)
REMARK    1  A    between atoms: N_1  and  C_3 
ROOT
HETATM    1  N   UNL     1      67.565   0.906  10.701  1.00  0.00    -0.191 NA
HETATM    2  C   UNL     1      68.042   4.859   7.921  1.00  0.00     0.031 A 
HETATM    3  C   UNL     1      67.958   1.860  10.167  1.00  0.00     0.099 C 
HETATM    4  C   UNL     1      67.606   3.713   8.600  1.00  0.00     0.052 A 
HETATM    5  C   UNL     1      68.437   3.036   9.505  1.00  0.00     0.046 A 
HETATM    6  C   UNL     1      69.348   5.300   8.186  1.00  0.00     0.029 A 
HETATM    7  C   UNL     1      70.182   4.639   9.093  1.00  0.00     0.004 A 
HETATM    8  C   UNL     1      69.726   3.504   9.753  1.00  0.00     0.023 A 
ENDROOT
BRANCH   2   9
HETATM    9  N   UNL     1      67.231   5.540   7.040  1.00  0.00    -0.377 N 
HETATM   10  C   UNL     1      67.677   6.712   6.274  1.00  0.00     0.149 C 
HETATM   11  C   UNL     1      66.806   7.931   6.610  1.00  0.00     0.187 C 
HETATM   12  O   UNL     1      65.409   7.647   6.427  1.00  0.00    -0.388 OA
HETATM   13  C   UNL     1      65.006   6.558   7.275  1.00  0.00     0.187 C 
HETATM   14  C   UNL     1      65.788   5.271   6.961  1.00  0.00     0.149 C 
ENDBRANCH   2   9
TORSDOF 1
ENDMDL
MODEL 3
REMARK VINA RESULT:      -5.0     18.935     21.308
REMARK  1 active torsions:
REMARK  status: ('A' for Active; 'I' for Inactive)
REMARK    1  A    between atoms: N_1  and  C_3 
ROOT
HETATM    1  N   UNL     1      62.143   7.454  -0.472  1.00  0.00    -0.191 NA
HETATM    2  C   UNL     1      62.962   9.009   4.056  1.00  0.00     0.031 A 
HETATM    3  C   UNL     1      62.209   8.084   0.503  1.00  0.00     0.099 C 
HETATM    4  C   UNL     1      62.875   8.294   2.853  1.00  0.00     0.052 A 
HETATM    5  C   UNL     1      62.291   8.853   1.707  1.00  0.00     0.046 A 
HETATM    6  C   UNL     1      62.439  10.311   4.063  1.00  0.00     0.029 A 
HETATM    7  C   UNL     1      61.865  10.884   2.924  1.00  0.00     0.004 A 
HETATM    8  C   UNL     1      61.789  10.153   1.744  1.00  0.00     0.023 A 
ENDROOT
BRANCH   2   9
HETATM    9  N   UNL     1      63.544   8.474   5.184  1.00  0.00    -0.377 N 
HETATM   10  C   UNL     1      64.993   8.493   5.430  1.00  0.00     0.149 C 
HETATM   11  C   UNL     1      65.526   7.061   5.575  1.00  0.00     0.187 C 
HETATM   12  O   UNL     1      64.802   6.327   6.577  1.00  0.00    -0.388 OA
HETATM   13  C   UNL     1      63.408   6.255   6.233  1.00  0.00     0.187 C 
HETATM   14  C   UNL     1      62.774   7.652   6.129  1.00  0.00     0.149 C 
ENDBRANCH   2   9
TORSDOF 1
ENDMDL
MODEL 4
REMARK VINA RESULT:      -4.8     14.801     16.663
REMARK  1 active torsions:
REMARK  status: ('A' for Active; 'I' for Inactive)
REMARK    1  A    between atoms: N_1  and  C_3 
ROOT
HETATM    1  N   UNL     1      69.169   0.327   7.399  1.00  0.00    -0.191 NA
HETATM    2  C   UNL     1      67.877   5.009   7.410  1.00  0.00     0.031 A 
HETATM    3  C   UNL     1      69.027   1.450   7.660  1.00  0.00     0.099 C 
HETATM    4  C   UNL     1      68.064   3.645   7.143  1.00  0.00     0.052 A 
HETATM    5  C   UNL     1      68.850   2.835   7.976  1.00  0.00     0.046 A 
HETATM    6  C   UNL     1      68.511   5.529   8.548  1.00  0.00     0.029 A 
HETATM    7  C   UNL     1      69.289   4.730   9.393  1.00  0.00     0.004 A 
HETATM    8  C   UNL     1      69.459   3.381   9.105  1.00  0.00     0.023 A 
ENDROOT
BRANCH   2   9
HETATM    9  N   UNL     1      67.098   5.811   6.606  1.00  0.00    -0.377 N 
HETATM   10  C   UNL     1      67.563   7.090   6.049  1.00  0.00     0.149 C 
HETATM   11  C   UNL     1      66.661   8.236   6.526  1.00  0.00     0.187 C 
HETATM   12  O   UNL     1      65.277   7.975   6.237  1.00  0.00    -0.388 OA
HETATM   13  C   UNL     1      64.851   6.767   6.889  1.00  0.00     0.187 C 
HETATM   14  C   UNL     1      65.663   5.548   6.419  1.00  0.00     0.149 C 
ENDBRANCH   2   9
TORSDOF 1
ENDMDL
MODEL 5
REMARK VINA RESULT:      -4.6     14.521     16.661
REMARK  1 active torsions:
REMARK  status: ('A' for Active; 'I' for Inactive)
REMARK    1  A    between atoms: N_1  and  C_3 
ROOT
HETATM    1  N   UNL     1      70.109   3.310  10.123  1.00  0.00    -0.191 NA
HETATM    2  C   UNL     1      67.578   5.634   6.690  1.00  0.00     0.031 A 
HETATM    3  C   UNL     1      69.410   4.034   9.542  1.00  0.00     0.099 C 
HETATM    4  C   UNL     1      68.398   4.775   7.435  1.00  0.00     0.052 A 
HETATM    5  C   UNL     1      68.552   4.924   8.821  1.00  0.00     0.046 A 
HETATM    6  C   UNL     1      66.917   6.653   7.394  1.00  0.00     0.029 A 
HETATM    7  C   UNL     1      67.053   6.806   8.777  1.00  0.00     0.004 A 
HETATM    8  C   UNL     1      67.874   5.941   9.492  1.00  0.00     0.023 A 
ENDROOT
BRANCH   2   9
HETATM    9  N   UNL     1      67.410   5.489   5.331  1.00  0.00    -0.377 N 
HETATM   10  C   UNL     1      67.096   6.610   4.433  1.00  0.00     0.149 C 
HETATM   11  C   UNL     1      65.764   6.357   3.713  1.00  0.00     0.187 C 
HETATM   12  O   UNL     1      65.762   5.088   3.039  1.00  0.00    -0.388 OA
HETATM   13  C   UNL     1      65.972   4.022   3.981  1.00  0.00     0.187 C 
HETATM   14  C   UNL     1      67.322   4.161   4.706  1.00  0.00     0.149 C 
ENDBRANCH   2   9
TORSDOF 1
ENDMDL
MODEL 6
REMARK VINA RESULT:      -4.5     14.365     16.674
REMARK  1 active torsions:
REMARK  status: ('A' for Active; 'I' for Inactive)
REMARK    1  A    between atoms: N_1  and  C_3 
ROOT
HETATM    1  N   UNL     1      66.045   8.612   6.377  1.00  0.00    -0.191 NA
HETATM    2  C   UNL     1      68.090   4.214   6.635  1.00  0.00     0.031 A 
HETATM    3  C   UNL     1      66.407   7.529   6.159  1.00  0.00     0.099 C 
HETATM    4  C   UNL     1      67.618   5.515   6.859  1.00  0.00     0.052 A 
HETATM    5  C   UNL     1      66.857   6.196   5.897  1.00  0.00     0.046 A 
HETATM    6  C   UNL     1      67.768   3.622   5.404  1.00  0.00     0.029 A 
HETATM    7  C   UNL     1      67.002   4.286   4.441  1.00  0.00     0.004 A 
HETATM    8  C   UNL     1      66.547   5.577   4.687  1.00  0.00     0.023 A 
ENDROOT
BRANCH   2   9
HETATM    9  N   UNL     1      68.826   3.531   7.577  1.00  0.00    -0.377 N 
HETATM   10  C   UNL     1      68.627   2.107   7.879  1.00  0.00     0.149 C 
HETATM   11  C   UNL     1      68.251   1.924   9.356  1.00  0.00     0.187 C 
HETATM   12  O   UNL     1      69.211   2.547  10.226  1.00  0.00    -0.388 OA
HETATM   13  C   UNL     1      69.291   3.956   9.953  1.00  0.00     0.187 C 
HETATM   14  C   UNL     1      69.727   4.233   8.504  1.00  0.00     0.149 C 
ENDBRANCH   2   9
TORSDOF 1
ENDMDL
MODEL 7
REMARK VINA RESULT:      -4.5     20.450     22.575
REMARK  1 active torsions:
REMARK  status: ('A' for Active; 'I' for Inactive)
REMARK    1  A    between atoms: N_1  and  C_3 
ROOT
HETATM    1  N   UNL     1      63.016  11.089   6.014  1.00  0.00    -0.191 NA
HETATM    2  C   UNL     1      62.577   8.089   2.221  1.00  0.00     0.031 A 
HETATM    3  C   UNL     1      63.117  10.207   5.265  1.00  0.00     0.099 C 
HETATM    4  C   UNL     1      62.500   9.139   3.147  1.00  0.00     0.052 A 
HETATM    5  C   UNL     1      63.236   9.121   4.340  1.00  0.00     0.046 A 
HETATM    6  C   UNL     1      63.425   7.018   2.541  1.00  0.00     0.029 A 
HETATM    7  C   UNL     1      64.173   6.993   3.722  1.00  0.00     0.004 A 
HETATM    8  C   UNL     1      64.077   8.046   4.624  1.00  0.00     0.023 A 
ENDROOT
BRANCH   2   9
HETATM    9  N   UNL     1      61.868   8.101   1.041  1.00  0.00    -0.377 N 
HETATM   10  C   UNL     1      60.463   8.524   0.947  1.00  0.00     0.149 C 
HETATM   11  C   UNL     1      59.597   7.378   0.406  1.00  0.00     0.187 C 
HETATM   12  O   UNL     1      60.109   6.873  -0.839  1.00  0.00    -0.388 OA
HETATM   13  C   UNL     1      61.448   6.380  -0.665  1.00  0.00     0.187 C 
HETATM   14  C   UNL     1      62.403   7.485  -0.183  1.00  0.00     0.149 C 
ENDBRANCH   2   9
TORSDOF 1
ENDMDL
MODEL 8
REMARK VINA RESULT:      -4.3     19.932     21.982
REMARK  1 active torsions:
REMARK  status: ('A' for Active; 'I' for Inactive)
REMARK    1  A    between atoms: N_1  and  C_3 
ROOT
HETATM    1  N   UNL     1      65.598   7.452   6.249  1.00  0.00    -0.191 NA
HETATM    2  C   UNL     1      62.503   8.624   2.695  1.00  0.00     0.031 A 
HETATM    3  C   UNL     1      64.802   7.974   5.582  1.00  0.00     0.099 C 
HETATM    4  C   UNL     1      63.447   8.024   3.540  1.00  0.00     0.052 A 
HETATM    5  C   UNL     1      63.824   8.613   4.755  1.00  0.00     0.046 A 
HETATM    6  C   UNL     1      61.952   9.843   3.119  1.00  0.00     0.029 A 
HETATM    7  C   UNL     1      62.312  10.436   4.334  1.00  0.00     0.004 A 
HETATM    8  C   UNL     1      63.251   9.820   5.152  1.00  0.00     0.023 A 
ENDROOT
BRANCH   2   9
HETATM    9  N   UNL     1      62.116   8.049   1.505  1.00  0.00    -0.377 N 
HETATM   10  C   UNL     1      61.041   8.589   0.660  1.00  0.00     0.149 C 
HETATM   11  C   UNL     1      59.927   7.547   0.486  1.00  0.00     0.187 C 
HETATM   12  O   UNL     1      60.445   6.299  -0.005  1.00  0.00    -0.388 OA
HETATM   13  C   UNL     1      61.418   5.768   0.911  1.00  0.00     0.187 C 
HETATM   14  C   UNL     1      62.608   6.725   1.096  1.00  0.00     0.149 C 
ENDBRANCH   2   9
TORSDOF 1
ENDMDL
MODEL 9
REMARK VINA RESULT:      -4.2     15.718     17.645
REMARK  1 active torsions:
REMARK  status: ('A' for Active; 'I' for Inactive)
REMARK    1  A    between atoms: N_1  and  C_3 
ROOT
HETATM    1  N   UNL     1      68.180   1.480   4.018  1.00  0.00    -0.191 NA
HETATM    2  C   UNL     1      67.615   5.270   7.002  1.00  0.00     0.031 A 
HETATM    3  C   UNL     1      68.234   2.222   4.910  1.00  0.00     0.099 C 
HETATM    4  C   UNL     1      67.568   4.337   5.956  1.00  0.00     0.052 A 
HETATM    5  C   UNL     1      68.298   3.141   6.006  1.00  0.00     0.046 A 
HETATM    6  C   UNL     1      68.426   4.953   8.103  1.00  0.00     0.029 A 
HETATM    7  C   UNL     1      69.151   3.759   8.169  1.00  0.00     0.004 A 
HETATM    8  C   UNL     1      69.088   2.852   7.118  1.00  0.00     0.023 A 
ENDROOT
BRANCH   2   9
HETATM    9  N   UNL     1      66.893   6.442   6.970  1.00  0.00    -0.377 N 
HETATM   10  C   UNL     1      65.617   6.624   7.678  1.00  0.00     0.149 C 
HETATM   11  C   UNL     1      64.500   6.965   6.682  1.00  0.00     0.187 C 
HETATM   12  O   UNL     1      64.848   8.096   5.866  1.00  0.00    -0.388 OA
HETATM   13  C   UNL     1      66.046   7.823   5.120  1.00  0.00     0.187 C 
HETATM   14  C   UNL     1      67.240   7.533   6.046  1.00  0.00     0.149 C 
ENDBRANCH   2   9
TORSDOF 1
ENDMDL
