MODEL 1
REMARK VINA RESULT:      -6.0      0.000      0.000
REMARK  3 active torsions:
REMARK  status: ('A' for Active; 'I' for Inactive)
REMARK    1  A    between atoms: N_1  and  C_2 
REMARK    2  A    between atoms: N_7  and  C_11 
REMARK    3  A    between atoms: C_8  and  C_11 
ROOT
HETATM    1  C   UNL     1      77.310  10.106  18.046  1.00  0.00     0.030 A 
HETATM    2  C   UNL     1      77.566   9.990  16.675  1.00  0.00     0.030 A 
HETATM    3  C   UNL     1      76.934   8.930  18.714  1.00  0.00     0.030 A 
HETATM    4  C   UNL     1      77.464   8.764  16.001  1.00  0.00     0.011 A 
HETATM    5  C   UNL     1      76.837   7.700  18.056  1.00  0.00     0.011 A 
HETATM    6  C   UNL     1      77.092   7.603  16.686  1.00  0.00    -0.033 A 
ENDROOT
BRANCH   1   7
HETATM    7  N   UNL     1      77.415  11.310  18.717  1.00  0.00    -0.381 N 
HETATM    8  C   UNL     1      76.695  12.512  18.298  1.00  0.00     0.123 C 
HETATM    9  C   UNL     1      75.856  13.025  19.471  1.00  0.00     0.020 C 
HETATM   10  C   UNL     1      76.694  13.208  20.736  1.00  0.00     0.003 C 
HETATM   11  C   UNL     1      77.485  11.942  21.071  1.00  0.00     0.020 C 
HETATM   12  C   UNL     1      78.300  11.471  19.871  1.00  0.00     0.123 C 
ENDBRANCH   1   7
BRANCH   6  13
HETATM   13  C   UNL     1      76.979   6.281  15.967  1.00  0.00     0.270 C 
BRANCH  13  14
HETATM   14  N   UNL     1      76.614   5.204  16.887  1.00  0.00    -0.075 N 
HETATM   15  C   UNL     1      75.258   4.740  16.640  1.00  0.00     0.267 C 
HETATM   16  H   UNL     1      76.678   5.549  17.846  1.00  0.00     0.277 HD
HETATM   17  H   UNL     1      77.254   4.423  16.743  1.00  0.00     0.277 HD
ENDBRANCH  13  14
ENDBRANCH   6  13
TORSDOF 3
ENDMDL
MODEL 2
REMARK VINA RESULT:      -5.6      3.621      5.688
REMARK  3 active torsions:
REMARK  status: ('A' for Active; 'I' for Inactive)
REMARK    1  A    between atoms: N_1  and  C_2 
REMARK    2  A    between atoms: N_7  and  C_11 
REMARK    3  A    between atoms: C_8  and  C_11 
ROOT
HETATM    1  C   UNL     1      79.775  12.329  22.010  1.00  0.00     0.030 A 
HETATM    2  C   UNL     1      80.166  11.392  21.047  1.00  0.00     0.030 A 
HETATM    3  C   UNL     1      78.486  12.868  21.871  1.00  0.00     0.030 A 
HETATM    4  C   UNL     1      79.317  11.001  20.002  1.00  0.00     0.011 A 
HETATM    5  C   UNL     1      77.627  12.481  20.838  1.00  0.00     0.011 A 
HETATM    6  C   UNL     1      78.035  11.548  19.883  1.00  0.00    -0.033 A 
ENDROOT
BRANCH   1   7
HETATM    7  N   UNL     1      80.605  12.713  23.047  1.00  0.00    -0.381 N 
HETATM    8  C   UNL     1      81.984  13.152  22.831  1.00  0.00     0.123 C 
HETATM    9  C   UNL     1      82.163  14.545  23.441  1.00  0.00     0.020 C 
HETATM   10  C   UNL     1      81.713  14.592  24.902  1.00  0.00     0.003 C 
HETATM   11  C   UNL     1      80.296  14.042  25.068  1.00  0.00     0.020 C 
HETATM   12  C   UNL     1      80.168  12.656  24.442  1.00  0.00     0.123 C 
ENDBRANCH   1   7
BRANCH   6  13
HETATM   13  C   UNL     1      77.117  11.133  18.760  1.00  0.00     0.270 C 
BRANCH  13  14
HETATM   14  N   UNL     1      77.345   9.741  18.372  1.00  0.00    -0.075 N 
HETATM   15  C   UNL     1      77.617   9.631  16.948  1.00  0.00     0.267 C 
HETATM   16  H   UNL     1      76.514   9.192  18.596  1.00  0.00     0.277 HD
HETATM   17  H   UNL     1      78.155   9.391  18.883  1.00  0.00     0.277 HD
ENDBRANCH  13  14
ENDBRANCH   6  13
TORSDOF 3
ENDMDL
MODEL 3
REMARK VINA RESULT:      -5.2     12.776     15.555
REMARK  3 active torsions:
REMARK  status: ('A' for Active; 'I' for Inactive)
REMARK    1  A    between atoms: N_1  and  C_2 
REMARK    2  A    between atoms: N_7  and  C_11 
REMARK    3  A    between atoms: C_8  and  C_11 
ROOT
HETATM    1  C   UNL     1      66.902   6.106   7.407  1.00  0.00     0.030 A 
HETATM    2  C   UNL     1      67.294   6.413   8.716  1.00  0.00     0.030 A 
HETATM    3  C   UNL     1      67.604   5.069   6.771  1.00  0.00     0.030 A 
HETATM    4  C   UNL     1      68.325   5.719   9.365  1.00  0.00     0.011 A 
HETATM    5  C   UNL     1      68.628   4.364   7.411  1.00  0.00     0.011 A 
HETATM    6  C   UNL     1      69.009   4.687   8.715  1.00  0.00    -0.033 A 
ENDROOT
BRANCH   1   7
HETATM    7  N   UNL     1      65.882   6.782   6.764  1.00  0.00    -0.381 N 
HETATM    8  C   UNL     1      66.074   8.092   6.143  1.00  0.00     0.123 C 
HETATM    9  C   UNL     1      65.657   8.011   4.672  1.00  0.00     0.020 C 
HETATM   10  C   UNL     1      64.248   7.441   4.508  1.00  0.00     0.003 C 
HETATM   11  C   UNL     1      64.092   6.113   5.250  1.00  0.00     0.020 C 
HETATM   12  C   UNL     1      64.522   6.246   6.708  1.00  0.00     0.123 C 
ENDBRANCH   1   7
BRANCH   6  13
HETATM   13  C   UNL     1      70.121   3.937   9.407  1.00  0.00     0.270 C 
BRANCH  13  14
HETATM   14  N   UNL     1      69.650   3.307  10.640  1.00  0.00    -0.075 N 
HETATM   15  C   UNL     1      69.264   1.924  10.408  1.00  0.00     0.267 C 
HETATM   16  H   UNL     1      68.843   3.824  10.991  1.00  0.00     0.277 HD
HETATM   17  H   UNL     1      70.409   3.321  11.322  1.00  0.00     0.277 HD
ENDBRANCH  13  14
ENDBRANCH   6  13
TORSDOF 3
ENDMDL
MODEL 4
REMARK VINA RESULT:      -5.1     16.651     18.872
REMARK  3 active torsions:
REMARK  status: ('A' for Active; 'I' for Inactive)
REMARK    1  A    between atoms: N_1  and  C_2 
REMARK    2  A    between atoms: N_7  and  C_11 
REMARK    3  A    between atoms: C_8  and  C_11 
ROOT
HETATM    1  C   UNL     1      65.245   7.643   4.794  1.00  0.00     0.030 A 
HETATM    2  C   UNL     1      64.579   8.783   5.257  1.00  0.00     0.030 A 
HETATM    3  C   UNL     1      64.675   6.991   3.689  1.00  0.00     0.030 A 
HETATM    4  C   UNL     1      63.410   9.260   4.648  1.00  0.00     0.011 A 
HETATM    5  C   UNL     1      63.514   7.461   3.067  1.00  0.00     0.011 A 
HETATM    6  C   UNL     1      62.860   8.599   3.545  1.00  0.00    -0.033 A 
ENDROOT
BRANCH   1   7
HETATM    7  N   UNL     1      66.401   7.171   5.387  1.00  0.00    -0.381 N 
HETATM    8  C   UNL     1      66.888   7.669   6.672  1.00  0.00     0.123 C 
HETATM    9  C   UNL     1      67.053   6.489   7.633  1.00  0.00     0.020 C 
HETATM   10  C   UNL     1      67.909   5.375   7.029  1.00  0.00     0.003 C 
HETATM   11  C   UNL     1      67.395   4.960   5.651  1.00  0.00     0.020 C 
HETATM   12  C   UNL     1      67.245   6.170   4.733  1.00  0.00     0.123 C 
ENDBRANCH   1   7
BRANCH   6  13
HETATM   13  C   UNL     1      61.601   9.106   2.885  1.00  0.00     0.270 C 
BRANCH  13  14
HETATM   14  N   UNL     1      61.415  10.537   3.123  1.00  0.00    -0.075 N 
HETATM   15  C   UNL     1      61.813  11.318   1.963  1.00  0.00     0.267 C 
HETATM   16  H   UNL     1      61.982  10.818   3.924  1.00  0.00     0.277 HD
HETATM   17  H   UNL     1      60.426  10.709   3.305  1.00  0.00     0.277 HD
ENDBRANCH  13  14
ENDBRANCH   6  13
TORSDOF 3
ENDMDL
MODEL 5
REMARK VINA RESULT:      -5.0      2.494      3.804
REMARK  3 active torsions:
REMARK  status: ('A' for Active; 'I' for Inactive)
REMARK    1  A    between atoms: N_1  and  C_2 
REMARK    2  A    between atoms: N_7  and  C_11 
REMARK    3  A    between atoms: C_8  and  C_11 
ROOT
HETATM    1  C   UNL     1      78.411  11.433  20.025  1.00  0.00     0.030 A 
HETATM    2  C   UNL     1      77.251  11.668  19.278  1.00  0.00     0.030 A 
HETATM    3  C   UNL     1      79.276  10.438  19.541  1.00  0.00     0.030 A 
HETATM    4  C   UNL     1      76.967  10.957  18.103  1.00  0.00     0.011 A 
HETATM    5  C   UNL     1      79.008   9.728  18.366  1.00  0.00     0.011 A 
HETATM    6  C   UNL     1      77.844   9.972  17.636  1.00  0.00    -0.033 A 
ENDROOT
BRANCH   1   7
HETATM    7  N   UNL     1      78.700  12.134  21.181  1.00  0.00    -0.381 N 
HETATM    8  C   UNL     1      77.824  12.120  22.351  1.00  0.00     0.123 C 
HETATM    9  C   UNL     1      78.629  11.659  23.569  1.00  0.00     0.020 C 
HETATM   10  C   UNL     1      79.906  12.479  23.754  1.00  0.00     0.003 C 
HETATM   11  C   UNL     1      80.734  12.522  22.469  1.00  0.00     0.020 C 
HETATM   12  C   UNL     1      79.887  12.983  21.287  1.00  0.00     0.123 C 
ENDBRANCH   1   7
BRANCH   6  13
HETATM   13  C   UNL     1      77.543   9.202  16.373  1.00  0.00     0.270 C 
BRANCH  13  14
HETATM   14  N   UNL     1      78.438   9.595  15.285  1.00  0.00    -0.075 N 
HETATM   15  C   UNL     1      77.686  10.019  14.115  1.00  0.00     0.267 C 
HETATM   16  H   UNL     1      79.026   8.800  15.033  1.00  0.00     0.277 HD
HETATM   17  H   UNL     1      79.010  10.378  15.602  1.00  0.00     0.277 HD
ENDBRANCH  13  14
ENDBRANCH   6  13
TORSDOF 3
ENDMDL
MODEL 6
REMARK VINA RESULT:      -5.0     13.957     16.626
REMARK  3 active torsions:
REMARK  status: ('A' for Active; 'I' for Inactive)
REMARK    1  A    between atoms: N_1  and  C_2 
REMARK    2  A    between atoms: N_7  and  C_11 
REMARK    3  A    between atoms: C_8  and  C_11 
ROOT
HETATM    1  C   UNL     1      66.508   6.146   7.143  1.00  0.00     0.030 A 
HETATM    2  C   UNL     1      67.082   7.126   6.325  1.00  0.00     0.030 A 
HETATM    3  C   UNL     1      65.105   6.079   7.146  1.00  0.00     0.030 A 
HETATM    4  C   UNL     1      66.305   7.990   5.541  1.00  0.00     0.011 A 
HETATM    5  C   UNL     1      64.318   6.929   6.363  1.00  0.00     0.011 A 
HETATM    6  C   UNL     1      64.909   7.904   5.556  1.00  0.00    -0.033 A 
ENDROOT
BRANCH   1   7
HETATM    7  N   UNL     1      67.269   5.287   7.913  1.00  0.00    -0.381 N 
HETATM    8  C   UNL     1      67.226   3.835   7.750  1.00  0.00     0.123 C 
HETATM    9  C   UNL     1      68.644   3.321   7.486  1.00  0.00     0.020 C 
HETATM   10  C   UNL     1      69.633   3.803   8.548  1.00  0.00     0.003 C 
HETATM   11  C   UNL     1      69.567   5.319   8.727  1.00  0.00     0.020 C 
HETATM   12  C   UNL     1      68.135   5.780   8.984  1.00  0.00     0.123 C 
ENDBRANCH   1   7
BRANCH   6  13
HETATM   13  C   UNL     1      64.066   8.832   4.716  1.00  0.00     0.270 C 
BRANCH  13  14
HETATM   14  N   UNL     1      63.317   9.772   5.551  1.00  0.00    -0.075 N 
HETATM   15  C   UNL     1      62.518  10.674   4.737  1.00  0.00     0.267 C 
HETATM   16  H   UNL     1      63.974  10.320   6.107  1.00  0.00     0.277 HD
HETATM   17  H   UNL     1      62.690   9.241   6.155  1.00  0.00     0.277 HD
ENDBRANCH  13  14
ENDBRANCH   6  13
TORSDOF 3
ENDMDL
MODEL 7
REMARK VINA RESULT:      -4.8     13.146     16.100
REMARK  3 active torsions:
REMARK  status: ('A' for Active; 'I' for Inactive)
REMARK    1  A    between atoms: N_1  and  C_2 
REMARK    2  A    between atoms: N_7  and  C_11 
REMARK    3  A    between atoms: C_8  and  C_11 
ROOT
HETATM    1  C   UNL     1      67.885   5.400   7.021  1.00  0.00     0.030 A 
HETATM    2  C   UNL     1      67.284   6.438   7.742  1.00  0.00     0.030 A 
HETATM    3  C   UNL     1      67.582   5.333   5.651  1.00  0.00     0.030 A 
HETATM    4  C   UNL     1      66.433   7.371   7.133  1.00  0.00     0.011 A 
HETATM    5  C   UNL     1      66.741   6.262   5.030  1.00  0.00     0.011 A 
HETATM    6  C   UNL     1      66.147   7.289   5.766  1.00  0.00    -0.033 A 
ENDROOT
BRANCH   1   7
HETATM    7  N   UNL     1      68.730   4.481   7.614  1.00  0.00    -0.381 N 
HETATM    8  C   UNL     1      69.655   4.840   8.689  1.00  0.00     0.123 C 
HETATM    9  C   UNL     1      69.385   3.939   9.898  1.00  0.00     0.020 C 
HETATM   10  C   UNL     1      69.407   2.457   9.523  1.00  0.00     0.003 C 
HETATM   11  C   UNL     1      68.483   2.167   8.340  1.00  0.00     0.020 C 
HETATM   12  C   UNL     1      68.789   3.090   7.165  1.00  0.00     0.123 C 
ENDBRANCH   1   7
BRANCH   6  13
HETATM   13  C   UNL     1      65.230   8.288   5.104  1.00  0.00     0.270 C 
BRANCH  13  14
HETATM   14  N   UNL     1      63.961   8.403   5.822  1.00  0.00    -0.075 N 
HETATM   15  C   UNL     1      63.076   9.357   5.174  1.00  0.00     0.267 C 
HETATM   16  H   UNL     1      64.145   8.714   6.777  1.00  0.00     0.277 HD
HETATM   17  H   UNL     1      63.506   7.490   5.825  1.00  0.00     0.277 HD
ENDBRANCH  13  14
ENDBRANCH   6  13
TORSDOF 3
ENDMDL
MODEL 8
REMARK VINA RESULT:      -4.8     17.027     19.138
REMARK  3 active torsions:
REMARK  status: ('A' for Active; 'I' for Inactive)
REMARK    1  A    between atoms: N_1  and  C_2 
REMARK    2  A    between atoms: N_7  and  C_11 
REMARK    3  A    between atoms: C_8  and  C_11 
ROOT
HETATM    1  C   UNL     1      64.176   7.933   4.051  1.00  0.00     0.030 A 
HETATM    2  C   UNL     1      64.739   8.610   5.139  1.00  0.00     0.030 A 
HETATM    3  C   UNL     1      64.858   6.790   3.606  1.00  0.00     0.030 A 
HETATM    4  C   UNL     1      65.916   8.170   5.761  1.00  0.00     0.011 A 
HETATM    5  C   UNL     1      66.028   6.335   4.223  1.00  0.00     0.011 A 
HETATM    6  C   UNL     1      66.578   7.026   5.304  1.00  0.00    -0.033 A 
ENDROOT
BRANCH   1   7
HETATM    7  N   UNL     1      63.013   8.359   3.438  1.00  0.00    -0.381 N 
HETATM    8  C   UNL     1      62.169   9.416   3.994  1.00  0.00     0.123 C 
HETATM    9  C   UNL     1      61.994  10.517   2.945  1.00  0.00     0.020 C 
HETATM   10  C   UNL     1      61.500   9.960   1.610  1.00  0.00     0.003 C 
HETATM   11  C   UNL     1      62.377   8.805   1.127  1.00  0.00     0.020 C 
HETATM   12  C   UNL     1      62.523   7.738   2.207  1.00  0.00     0.123 C 
ENDBRANCH   1   7
BRANCH   6  13
HETATM   13  C   UNL     1      67.846   6.546   5.968  1.00  0.00     0.270 C 
BRANCH  13  14
HETATM   14  N   UNL     1      67.591   5.394   6.832  1.00  0.00    -0.075 N 
HETATM   15  C   UNL     1      68.121   5.613   8.168  1.00  0.00     0.267 C 
HETATM   16  H   UNL     1      68.037   4.569   6.428  1.00  0.00     0.277 HD
HETATM   17  H   UNL     1      66.583   5.258   6.903  1.00  0.00     0.277 HD
ENDBRANCH  13  14
ENDBRANCH   6  13
TORSDOF 3
ENDMDL
MODEL 9
REMARK VINA RESULT:      -4.8     15.372     17.785
REMARK  3 active torsions:
REMARK  status: ('A' for Active; 'I' for Inactive)
REMARK    1  A    between atoms: N_1  and  C_2 
REMARK    2  A    between atoms: N_7  and  C_11 
REMARK    3  A    between atoms: C_8  and  C_11 
ROOT
HETATM    1  C   UNL     1      65.136   6.750   6.612  1.00  0.00     0.030 A 
HETATM    2  C   UNL     1      63.748   6.587   6.530  1.00  0.00     0.030 A 
HETATM    3  C   UNL     1      65.686   7.809   5.872  1.00  0.00     0.030 A 
HETATM    4  C   UNL     1      62.944   7.440   5.761  1.00  0.00     0.011 A 
HETATM    5  C   UNL     1      64.894   8.672   5.108  1.00  0.00     0.011 A 
HETATM    6  C   UNL     1      63.511   8.492   5.035  1.00  0.00    -0.033 A 
ENDROOT
BRANCH   1   7
HETATM    7  N   UNL     1      65.934   5.916   7.373  1.00  0.00    -0.381 N 
HETATM    8  C   UNL     1      66.543   4.700   6.835  1.00  0.00     0.123 C 
HETATM    9  C   UNL     1      68.058   4.766   7.049  1.00  0.00     0.020 C 
HETATM   10  C   UNL     1      68.417   5.053   8.507  1.00  0.00     0.003 C 
HETATM   11  C   UNL     1      67.682   6.287   9.031  1.00  0.00     0.020 C 
HETATM   12  C   UNL     1      66.180   6.175   8.792  1.00  0.00     0.123 C 
ENDBRANCH   1   7
BRANCH   6  13
HETATM   13  C   UNL     1      62.651   9.413   4.204  1.00  0.00     0.270 C 
BRANCH  13  14
HETATM   14  N   UNL     1      62.609   8.983   2.806  1.00  0.00    -0.075 N 
HETATM   15  C   UNL     1      61.890   9.943   1.984  1.00  0.00     0.267 C 
HETATM   16  H   UNL     1      62.139   8.079   2.750  1.00  0.00     0.277 HD
HETATM   17  H   UNL     1      63.565   8.913   2.459  1.00  0.00     0.277 HD
ENDBRANCH  13  14
ENDBRANCH   6  13
TORSDOF 3
ENDMDL
