MODEL 1
REMARK VINA RESULT:      -4.8      0.000      0.000
REMARK  2 active torsions:
REMARK  status: ('A' for Active; 'I' for Inactive)
REMARK    1  A    between atoms: C_6  and  C_11 
REMARK    2  A    between atoms: C_11  and  O_12 
ROOT
HETATM    1  N   UNL     1      63.540   8.293   3.869  1.00  0.00    -0.317 N 
HETATM    2  C   UNL     1      62.688   8.524   2.796  1.00  0.00     0.111 A 
HETATM    3  C   UNL     1      63.695   9.170   4.939  1.00  0.00     0.107 A 
HETATM    4  N   UNL     1      62.727   7.535   1.929  1.00  0.00    -0.351 N 
ATOM      5  HN  UNL     1      62.201   7.455   1.058  1.00  0.00     0.166 HD
HETATM    6  C   UNL     1      62.996  10.324   4.961  1.00  0.00    -0.019 A 
HETATM    7  C   UNL     1      61.947   9.738   2.811  1.00  0.00     0.050 A 
HETATM    8  C   UNL     1      62.091  10.597   3.839  1.00  0.00     0.014 A 
HETATM    9  C   UNL     1      63.625   6.636   2.445  1.00  0.00     0.107 A 
HETATM   10  C   UNL     1      64.141   7.081   3.640  1.00  0.00     0.115 A 
ENDROOT
BRANCH   6  11
HETATM   11  C   UNL     1      63.076  11.326   6.075  1.00  0.00     0.204 C 
BRANCH  11  12
HETATM   12  O   UNL     1      64.429  11.520   6.458  1.00  0.00    -0.396 OA
HETATM   13  H   UNL     1      64.890  10.667   6.466  1.00  0.00     0.209 HD
ENDBRANCH  11  12
ENDBRANCH   6  11
TORSDOF 2
ENDMDL
MODEL 2
REMARK VINA RESULT:      -4.8      7.865      9.327
REMARK  2 active torsions:
REMARK  status: ('A' for Active; 'I' for Inactive)
REMARK    1  A    between atoms: C_6  and  C_11 
REMARK    2  A    between atoms: C_11  and  O_12 
ROOT
HETATM    1  N   UNL     1      67.456   4.556   8.459  1.00  0.00    -0.317 N 
HETATM    2  C   UNL     1      68.354   5.597   8.259  1.00  0.00     0.111 A 
HETATM    3  C   UNL     1      67.802   3.331   9.024  1.00  0.00     0.107 A 
HETATM    4  N   UNL     1      67.766   6.642   7.716  1.00  0.00    -0.351 N 
ATOM      5  HN  UNL     1      68.196   7.533   7.467  1.00  0.00     0.166 HD
HETATM    6  C   UNL     1      69.078   3.110   9.403  1.00  0.00    -0.019 A 
HETATM    7  C   UNL     1      69.702   5.372   8.656  1.00  0.00     0.050 A 
HETATM    8  C   UNL     1      70.050   4.190   9.201  1.00  0.00     0.014 A 
HETATM    9  C   UNL     1      66.453   6.277   7.556  1.00  0.00     0.107 A 
HETATM   10  C   UNL     1      66.238   4.994   8.005  1.00  0.00     0.115 A 
ENDROOT
BRANCH   6  11
HETATM   11  C   UNL     1      69.549   1.835  10.038  1.00  0.00     0.204 C 
BRANCH  11  12
HETATM   12  O   UNL     1      69.898   2.067  11.396  1.00  0.00    -0.396 OA
HETATM   13  H   UNL     1      69.970   3.021  11.553  1.00  0.00     0.209 HD
ENDBRANCH  11  12
ENDBRANCH   6  11
TORSDOF 2
ENDMDL
MODEL 3
REMARK VINA RESULT:      -4.7     16.632     18.823
REMARK  2 active torsions:
REMARK  status: ('A' for Active; 'I' for Inactive)
REMARK    1  A    between atoms: C_6  and  C_11 
REMARK    2  A    between atoms: C_11  and  O_12 
ROOT
HETATM    1  N   UNL     1      72.764  22.613  13.612  1.00  0.00    -0.317 N 
HETATM    2  C   UNL     1      71.713  23.281  14.229  1.00  0.00     0.111 A 
HETATM    3  C   UNL     1      72.629  21.866  12.445  1.00  0.00     0.107 A 
HETATM    4  N   UNL     1      72.114  23.914  15.311  1.00  0.00    -0.351 N 
ATOM      5  HN  UNL     1      71.546  24.477  15.944  1.00  0.00     0.166 HD
HETATM    6  C   UNL     1      71.419  21.760  11.858  1.00  0.00    -0.019 A 
HETATM    7  C   UNL     1      70.433  23.174  13.617  1.00  0.00     0.050 A 
HETATM    8  C   UNL     1      70.289  22.451  12.490  1.00  0.00     0.014 A 
HETATM    9  C   UNL     1      73.459  23.655  15.405  1.00  0.00     0.107 A 
HETATM   10  C   UNL     1      73.882  22.854  14.370  1.00  0.00     0.115 A 
ENDROOT
BRANCH   6  11
HETATM   11  C   UNL     1      71.172  20.997  10.591  1.00  0.00     0.204 C 
BRANCH  11  12
HETATM   12  O   UNL     1      72.381  20.412  10.131  1.00  0.00    -0.396 OA
HETATM   13  H   UNL     1      72.686  19.752  10.773  1.00  0.00     0.209 HD
ENDBRANCH  11  12
ENDBRANCH   6  11
TORSDOF 2
ENDMDL
MODEL 4
REMARK VINA RESULT:      -4.6     18.506     19.756
REMARK  2 active torsions:
REMARK  status: ('A' for Active; 'I' for Inactive)
REMARK    1  A    between atoms: C_6  and  C_11 
REMARK    2  A    between atoms: C_11  and  O_12 
ROOT
HETATM    1  N   UNL     1      75.472   3.584  17.016  1.00  0.00    -0.317 N 
HETATM    2  C   UNL     1      76.648   3.456  17.744  1.00  0.00     0.111 A 
HETATM    3  C   UNL     1      74.628   2.519  16.712  1.00  0.00     0.107 A 
HETATM    4  N   UNL     1      77.250   4.616  17.894  1.00  0.00    -0.351 N 
ATOM      5  HN  UNL     1      78.125   4.800  18.385  1.00  0.00     0.166 HD
HETATM    6  C   UNL     1      74.948   1.276  17.129  1.00  0.00    -0.019 A 
HETATM    7  C   UNL     1      76.993   2.149  18.188  1.00  0.00     0.050 A 
HETATM    8  C   UNL     1      76.187   1.110  17.897  1.00  0.00     0.014 A 
HETATM    9  C   UNL     1      76.451   5.526  17.249  1.00  0.00     0.107 A 
HETATM   10  C   UNL     1      75.349   4.913  16.698  1.00  0.00     0.115 A 
ENDROOT
BRANCH   6  11
HETATM   11  C   UNL     1      74.099   0.067  16.871  1.00  0.00     0.204 C 
BRANCH  11  12
HETATM   12  O   UNL     1      73.868  -0.078  15.478  1.00  0.00    -0.396 OA
HETATM   13  H   UNL     1      74.454  -0.764  15.122  1.00  0.00     0.209 HD
ENDBRANCH  11  12
ENDBRANCH   6  11
TORSDOF 2
ENDMDL
MODEL 5
REMARK VINA RESULT:      -4.3      1.644      2.543
REMARK  2 active torsions:
REMARK  status: ('A' for Active; 'I' for Inactive)
REMARK    1  A    between atoms: C_6  and  C_11 
REMARK    2  A    between atoms: C_11  and  O_12 
ROOT
HETATM    1  N   UNL     1      62.758   8.471   2.703  1.00  0.00    -0.317 N 
HETATM    2  C   UNL     1      62.041   9.614   3.036  1.00  0.00     0.111 A 
HETATM    3  C   UNL     1      63.755   7.920   3.504  1.00  0.00     0.107 A 
HETATM    4  N   UNL     1      61.156   9.914   2.109  1.00  0.00    -0.351 N 
ATOM      5  HN  UNL     1      60.505  10.699   2.107  1.00  0.00     0.166 HD
HETATM    6  C   UNL     1      64.070   8.512   4.675  1.00  0.00    -0.019 A 
HETATM    7  C   UNL     1      62.367  10.244   4.269  1.00  0.00     0.050 A 
HETATM    8  C   UNL     1      63.332   9.722   5.052  1.00  0.00     0.014 A 
HETATM    9  C   UNL     1      61.298   8.947   1.146  1.00  0.00     0.107 A 
HETATM   10  C   UNL     1      62.280   8.047   1.489  1.00  0.00     0.115 A 
ENDROOT
BRANCH   6  11
HETATM   11  C   UNL     1      65.112   7.988   5.619  1.00  0.00     0.204 C 
BRANCH  11  12
HETATM   12  O   UNL     1      65.782   9.068   6.253  1.00  0.00    -0.396 OA
HETATM   13  H   UNL     1      66.393   8.722   6.921  1.00  0.00     0.209 HD
ENDBRANCH  11  12
ENDBRANCH   6  11
TORSDOF 2
ENDMDL
MODEL 6
REMARK VINA RESULT:      -4.3      6.159      7.453
REMARK  2 active torsions:
REMARK  status: ('A' for Active; 'I' for Inactive)
REMARK    1  A    between atoms: C_6  and  C_11 
REMARK    2  A    between atoms: C_11  and  O_12 
ROOT
HETATM    1  N   UNL     1      66.897   5.573   6.964  1.00  0.00    -0.317 N 
HETATM    2  C   UNL     1      66.288   6.508   7.793  1.00  0.00     0.111 A 
HETATM    3  C   UNL     1      68.004   4.815   7.334  1.00  0.00     0.107 A 
HETATM    4  N   UNL     1      65.260   7.078   7.201  1.00  0.00    -0.351 N 
ATOM      5  HN  UNL     1      64.643   7.794   7.586  1.00  0.00     0.166 HD
HETATM    6  C   UNL     1      68.544   4.979   8.560  1.00  0.00    -0.019 A 
HETATM    7  C   UNL     1      66.851   6.688   9.087  1.00  0.00     0.050 A 
HETATM    8  C   UNL     1      67.925   5.962   9.455  1.00  0.00     0.014 A 
HETATM    9  C   UNL     1      65.194   6.504   5.957  1.00  0.00     0.107 A 
HETATM   10  C   UNL     1      66.193   5.575   5.786  1.00  0.00     0.115 A 
ENDROOT
BRANCH   6  11
HETATM   11  C   UNL     1      69.724   4.199   9.061  1.00  0.00     0.204 C 
BRANCH  11  12
HETATM   12  O   UNL     1      69.495   3.777  10.398  1.00  0.00    -0.396 OA
HETATM   13  H   UNL     1      70.208   4.106  10.967  1.00  0.00     0.209 HD
ENDBRANCH  11  12
ENDBRANCH   6  11
TORSDOF 2
ENDMDL
MODEL 7
REMARK VINA RESULT:      -4.2     19.110     20.085
REMARK  2 active torsions:
REMARK  status: ('A' for Active; 'I' for Inactive)
REMARK    1  A    between atoms: C_6  and  C_11 
REMARK    2  A    between atoms: C_11  and  O_12 
ROOT
HETATM    1  N   UNL     1      76.543   0.443  16.995  1.00  0.00    -0.317 N 
HETATM    2  C   UNL     1      75.282   0.401  16.414  1.00  0.00     0.111 A 
HETATM    3  C   UNL     1      77.078   1.575  17.605  1.00  0.00     0.107 A 
HETATM    4  N   UNL     1      75.021  -0.789  15.916  1.00  0.00    -0.351 N 
ATOM      5  HN  UNL     1      74.170  -1.086  15.438  1.00  0.00     0.166 HD
HETATM    6  C   UNL     1      76.356   2.714  17.644  1.00  0.00    -0.019 A 
HETATM    7  C   UNL     1      74.514   1.599  16.451  1.00  0.00     0.050 A 
HETATM    8  C   UNL     1      75.022   2.701  17.035  1.00  0.00     0.014 A 
HETATM    9  C   UNL     1      76.137  -1.543  16.176  1.00  0.00     0.107 A 
HETATM   10  C   UNL     1      77.090  -0.805  16.840  1.00  0.00     0.115 A 
ENDROOT
BRANCH   6  11
HETATM   11  C   UNL     1      76.833   3.980  18.294  1.00  0.00     0.204 C 
BRANCH  11  12
HETATM   12  O   UNL     1      76.931   3.799  19.699  1.00  0.00    -0.396 OA
HETATM   13  H   UNL     1      76.045   3.665  20.070  1.00  0.00     0.209 HD
ENDBRANCH  11  12
ENDBRANCH   6  11
TORSDOF 2
ENDMDL
MODEL 8
REMARK VINA RESULT:      -4.1     25.689     26.767
REMARK  2 active torsions:
REMARK  status: ('A' for Active; 'I' for Inactive)
REMARK    1  A    between atoms: C_6  and  C_11 
REMARK    2  A    between atoms: C_11  and  O_12 
ROOT
HETATM    1  N   UNL     1      78.536  11.061  24.883  1.00  0.00    -0.317 N 
HETATM    2  C   UNL     1      79.183  11.234  26.100  1.00  0.00     0.111 A 
HETATM    3  C   UNL     1      78.969  11.629  23.687  1.00  0.00     0.107 A 
HETATM    4  N   UNL     1      78.570  10.584  27.067  1.00  0.00    -0.351 N 
ATOM      5  HN  UNL     1      78.837  10.544  28.051  1.00  0.00     0.166 HD
HETATM    6  C   UNL     1      80.075  12.402  23.680  1.00  0.00    -0.019 A 
HETATM    7  C   UNL     1      80.350  12.047  26.101  1.00  0.00     0.050 A 
HETATM    8  C   UNL     1      80.777  12.605  24.952  1.00  0.00     0.014 A 
HETATM    9  C   UNL     1      77.496   9.974  26.470  1.00  0.00     0.107 A 
HETATM   10  C   UNL     1      77.453  10.254  25.124  1.00  0.00     0.115 A 
ENDROOT
BRANCH   6  11
HETATM   11  C   UNL     1      80.634  13.043  22.444  1.00  0.00     0.204 C 
BRANCH  11  12
HETATM   12  O   UNL     1      82.001  12.690  22.289  1.00  0.00    -0.396 OA
HETATM   13  H   UNL     1      82.547  13.491  22.311  1.00  0.00     0.209 HD
ENDBRANCH  11  12
ENDBRANCH   6  11
TORSDOF 2
ENDMDL
MODEL 9
REMARK VINA RESULT:      -4.0      7.660      9.056
REMARK  2 active torsions:
REMARK  status: ('A' for Active; 'I' for Inactive)
REMARK    1  A    between atoms: C_6  and  C_11 
REMARK    2  A    between atoms: C_11  and  O_12 
ROOT
HETATM    1  N   UNL     1      68.067   3.133   9.058  1.00  0.00    -0.317 N 
HETATM    2  C   UNL     1      69.159   3.860   9.516  1.00  0.00     0.111 A 
HETATM    3  C   UNL     1      67.183   3.591   8.084  1.00  0.00     0.107 A 
HETATM    4  N   UNL     1      69.831   3.194  10.431  1.00  0.00    -0.351 N 
ATOM      5  HN  UNL     1      70.669   3.499  10.926  1.00  0.00     0.166 HD
HETATM    6  C   UNL     1      67.370   4.811   7.538  1.00  0.00    -0.019 A 
HETATM    7  C   UNL     1      69.362   5.147   8.945  1.00  0.00     0.050 A 
HETATM    8  C   UNL     1      68.512   5.603   8.004  1.00  0.00     0.014 A 
HETATM    9  C   UNL     1      69.163   2.004  10.577  1.00  0.00     0.107 A 
HETATM   10  C   UNL     1      68.071   1.944   9.742  1.00  0.00     0.115 A 
ENDROOT
BRANCH   6  11
HETATM   11  C   UNL     1      66.488   5.387   6.469  1.00  0.00     0.204 C 
BRANCH  11  12
HETATM   12  O   UNL     1      65.868   6.576   6.938  1.00  0.00    -0.396 OA
HETATM   13  H   UNL     1      66.549   7.222   7.183  1.00  0.00     0.209 HD
ENDBRANCH  11  12
ENDBRANCH   6  11
TORSDOF 2
ENDMDL
