MODEL 1
REMARK VINA RESULT:      -6.0      0.000      0.000
REMARK  1 active torsions:
REMARK  status: ('A' for Active; 'I' for Inactive)
REMARK    1  A    between atoms: C_1  and  C_5 
ROOT
HETATM    1  N   UNL     1      77.201   7.852  17.525  1.00  0.00    -0.191 NA
HETATM    2  C   UNL     1      76.824   6.756  17.463  1.00  0.00     0.099 C 
HETATM    3  C   UNL     1      75.349   2.770  17.367  1.00  0.00    -0.002 A 
HETATM    4  C   UNL     1      76.524   3.086  18.066  1.00  0.00     0.016 A 
HETATM    5  C   UNL     1      74.707   3.791  16.650  1.00  0.00     0.016 A 
HETATM    6  C   UNL     1      76.349   5.406  17.398  1.00  0.00     0.044 A 
HETATM    7  C   UNL     1      75.199   5.099  16.667  1.00  0.00     0.023 A 
HETATM    8  C   UNL     1      77.021   4.394  18.085  1.00  0.00     0.023 A 
ENDROOT
BRANCH   3   9
HETATM    9  C   UNL     1      74.779   1.426  17.416  1.00  0.00     0.085 A 
HETATM   10  O   UNL     1      74.633   0.873  18.658  1.00  0.00    -0.322 OA
HETATM   11  C   UNL     1      74.043  -0.338  18.499  1.00  0.00     0.142 A 
HETATM   12  C   UNL     1      73.809  -0.585  17.168  1.00  0.00     0.027 A 
HETATM   13  C   UNL     1      74.286   0.549  16.468  1.00  0.00     0.040 A 
ENDBRANCH   3   9
TORSDOF 1
ENDMDL
MODEL 2
REMARK VINA RESULT:      -5.4     11.592     12.499
REMARK  1 active torsions:
REMARK  status: ('A' for Active; 'I' for Inactive)
REMARK    1  A    between atoms: C_1  and  C_5 
ROOT
HETATM    1  N   UNL     1      65.709   8.885   5.716  1.00  0.00    -0.191 NA
HETATM    2  C   UNL     1      66.213   8.028   6.315  1.00  0.00     0.099 C 
HETATM    3  C   UNL     1      67.907   4.818   8.529  1.00  0.00    -0.002 A 
HETATM    4  C   UNL     1      67.524   6.009   9.166  1.00  0.00     0.016 A 
HETATM    5  C   UNL     1      67.773   4.737   7.134  1.00  0.00     0.016 A 
HETATM    6  C   UNL     1      66.819   6.962   7.055  1.00  0.00     0.044 A 
HETATM    7  C   UNL     1      67.231   5.797   6.402  1.00  0.00     0.023 A 
HETATM    8  C   UNL     1      66.981   7.073   8.437  1.00  0.00     0.023 A 
ENDROOT
BRANCH   3   9
HETATM    9  C   UNL     1      68.391   3.673   9.295  1.00  0.00     0.085 A 
HETATM   10  O   UNL     1      67.520   2.629   9.442  1.00  0.00    -0.322 OA
HETATM   11  C   UNL     1      68.166   1.651  10.127  1.00  0.00     0.142 A 
HETATM   12  C   UNL     1      69.445   2.048  10.435  1.00  0.00     0.027 A 
HETATM   13  C   UNL     1      69.590   3.353   9.904  1.00  0.00     0.040 A 
ENDBRANCH   3   9
TORSDOF 1
ENDMDL
MODEL 3
REMARK VINA RESULT:      -5.4     11.907     13.257
REMARK  1 active torsions:
REMARK  status: ('A' for Active; 'I' for Inactive)
REMARK    1  A    between atoms: C_1  and  C_5 
ROOT
HETATM    1  N   UNL     1      70.115   1.410  10.654  1.00  0.00    -0.191 NA
HETATM    2  C   UNL     1      69.735   2.247   9.944  1.00  0.00     0.099 C 
HETATM    3  C   UNL     1      68.189   5.280   7.398  1.00  0.00    -0.002 A 
HETATM    4  C   UNL     1      68.368   3.970   6.930  1.00  0.00     0.016 A 
HETATM    5  C   UNL     1      68.591   5.579   8.709  1.00  0.00     0.016 A 
HETATM    6  C   UNL     1      69.251   3.278   9.075  1.00  0.00     0.044 A 
HETATM    7  C   UNL     1      69.115   4.587   9.543  1.00  0.00     0.023 A 
HETATM    8  C   UNL     1      68.892   2.974   7.761  1.00  0.00     0.023 A 
ENDROOT
BRANCH   3   9
HETATM    9  C   UNL     1      67.562   6.303   6.564  1.00  0.00     0.085 A 
HETATM   10  O   UNL     1      66.859   7.274   7.222  1.00  0.00    -0.322 OA
HETATM   11  C   UNL     1      66.404   8.150   6.291  1.00  0.00     0.142 A 
HETATM   12  C   UNL     1      66.795   7.758   5.034  1.00  0.00     0.027 A 
HETATM   13  C   UNL     1      67.538   6.565   5.207  1.00  0.00     0.040 A 
ENDBRANCH   3   9
TORSDOF 1
ENDMDL
MODEL 4
REMARK VINA RESULT:      -5.3     13.095     14.336
REMARK  1 active torsions:
REMARK  status: ('A' for Active; 'I' for Inactive)
REMARK    1  A    between atoms: C_1  and  C_5 
ROOT
HETATM    1  N   UNL     1      70.214   3.644  10.113  1.00  0.00    -0.191 NA
HETATM    2  C   UNL     1      69.415   4.209   9.489  1.00  0.00     0.099 C 
HETATM    3  C   UNL     1      66.607   6.382   7.151  1.00  0.00    -0.002 A 
HETATM    4  C   UNL     1      66.822   6.704   8.500  1.00  0.00     0.016 A 
HETATM    5  C   UNL     1      67.296   5.286   6.610  1.00  0.00     0.016 A 
HETATM    6  C   UNL     1      68.441   4.916   8.712  1.00  0.00     0.044 A 
HETATM    7  C   UNL     1      68.209   4.559   7.382  1.00  0.00     0.023 A 
HETATM    8  C   UNL     1      67.734   5.980   9.276  1.00  0.00     0.023 A 
ENDROOT
BRANCH   3   9
HETATM    9  C   UNL     1      65.723   7.188   6.313  1.00  0.00     0.085 A 
HETATM   10  O   UNL     1      64.393   7.161   6.632  1.00  0.00    -0.322 OA
HETATM   11  C   UNL     1      63.753   8.005   5.784  1.00  0.00     0.142 A 
HETATM   12  C   UNL     1      64.647   8.576   4.912  1.00  0.00     0.027 A 
HETATM   13  C   UNL     1      65.917   8.048   5.248  1.00  0.00     0.040 A 
ENDBRANCH   3   9
TORSDOF 1
ENDMDL
MODEL 5
REMARK VINA RESULT:      -4.8      3.575      6.000
REMARK  1 active torsions:
REMARK  status: ('A' for Active; 'I' for Inactive)
REMARK    1  A    between atoms: C_1  and  C_5 
ROOT
HETATM    1  N   UNL     1      72.720  -3.201  16.679  1.00  0.00    -0.191 NA
HETATM    2  C   UNL     1      73.166  -2.135  16.790  1.00  0.00     0.099 C 
HETATM    3  C   UNL     1      74.951   1.702  17.191  1.00  0.00    -0.002 A 
HETATM    4  C   UNL     1      74.590   0.955  18.323  1.00  0.00     0.016 A 
HETATM    5  C   UNL     1      74.653   1.178  15.924  1.00  0.00     0.016 A 
HETATM    6  C   UNL     1      73.732  -0.826  16.925  1.00  0.00     0.044 A 
HETATM    7  C   UNL     1      74.051  -0.077  15.790  1.00  0.00     0.023 A 
HETATM    8  C   UNL     1      73.987  -0.301  18.193  1.00  0.00     0.023 A 
ENDROOT
BRANCH   3   9
HETATM    9  C   UNL     1      75.660   2.974  17.319  1.00  0.00     0.085 A 
HETATM   10  O   UNL     1      75.160   4.021  16.595  1.00  0.00    -0.322 OA
HETATM   11  C   UNL     1      75.912   5.113  16.887  1.00  0.00     0.142 A 
HETATM   12  C   UNL     1      76.899   4.788  17.785  1.00  0.00     0.027 A 
HETATM   13  C   UNL     1      76.741   3.409  18.061  1.00  0.00     0.040 A 
ENDBRANCH   3   9
TORSDOF 1
ENDMDL
MODEL 6
REMARK VINA RESULT:      -4.8     14.892     16.104
REMARK  1 active torsions:
REMARK  status: ('A' for Active; 'I' for Inactive)
REMARK    1  A    between atoms: C_1  and  C_5 
ROOT
HETATM    1  N   UNL     1      69.393   4.576   8.388  1.00  0.00    -0.191 NA
HETATM    2  C   UNL     1      68.575   5.224   7.876  1.00  0.00     0.099 C 
HETATM    3  C   UNL     1      65.541   7.463   5.914  1.00  0.00    -0.002 A 
HETATM    4  C   UNL     1      66.861   7.467   5.437  1.00  0.00     0.016 A 
HETATM    5  C   UNL     1      65.260   6.750   7.090  1.00  0.00     0.016 A 
HETATM    6  C   UNL     1      67.562   6.009   7.238  1.00  0.00     0.044 A 
HETATM    7  C   UNL     1      66.261   6.026   7.746  1.00  0.00     0.023 A 
HETATM    8  C   UNL     1      67.865   6.744   6.091  1.00  0.00     0.023 A 
ENDROOT
BRANCH   3   9
HETATM    9  C   UNL     1      64.472   8.143   5.187  1.00  0.00     0.085 A 
HETATM   10  O   UNL     1      64.039   9.328   5.715  1.00  0.00    -0.322 OA
HETATM   11  C   UNL     1      63.094   9.826   4.877  1.00  0.00     0.142 A 
HETATM   12  C   UNL     1      62.901   8.978   3.814  1.00  0.00     0.027 A 
HETATM   13  C   UNL     1      63.786   7.890   4.014  1.00  0.00     0.040 A 
ENDBRANCH   3   9
TORSDOF 1
ENDMDL
MODEL 7
REMARK VINA RESULT:      -4.5     31.801     33.032
REMARK  1 active torsions:
REMARK  status: ('A' for Active; 'I' for Inactive)
REMARK    1  A    between atoms: C_1  and  C_5 
ROOT
HETATM    1  N   UNL     1      47.336  12.442   7.525  1.00  0.00    -0.191 NA
HETATM    2  C   UNL     1      47.612  13.269   6.758  1.00  0.00     0.099 C 
HETATM    3  C   UNL     1      48.686  16.180   3.852  1.00  0.00    -0.002 A 
HETATM    4  C   UNL     1      49.553  15.864   4.909  1.00  0.00     0.016 A 
HETATM    5  C   UNL     1      47.430  15.555   3.812  1.00  0.00     0.016 A 
HETATM    6  C   UNL     1      47.958  14.277   5.801  1.00  0.00     0.044 A 
HETATM    7  C   UNL     1      47.068  14.609   4.776  1.00  0.00     0.023 A 
HETATM    8  C   UNL     1      49.195  14.918   5.876  1.00  0.00     0.023 A 
ENDROOT
BRANCH   3   9
HETATM    9  C   UNL     1      49.090  17.100   2.791  1.00  0.00     0.085 A 
HETATM   10  O   UNL     1      48.507  18.337   2.808  1.00  0.00    -0.322 OA
HETATM   11  C   UNL     1      49.046  19.055   1.790  1.00  0.00     0.142 A 
HETATM   12  C   UNL     1      49.966  18.299   1.105  1.00  0.00     0.027 A 
HETATM   13  C   UNL     1      49.992  17.037   1.746  1.00  0.00     0.040 A 
ENDBRANCH   3   9
TORSDOF 1
ENDMDL
MODEL 8
REMARK VINA RESULT:      -4.5     17.786     18.943
REMARK  1 active torsions:
REMARK  status: ('A' for Active; 'I' for Inactive)
REMARK    1  A    between atoms: C_1  and  C_5 
ROOT
HETATM    1  N   UNL     1      60.083   8.235   0.719  1.00  0.00    -0.191 NA
HETATM    2  C   UNL     1      60.999   8.169   1.430  1.00  0.00     0.099 C 
HETATM    3  C   UNL     1      64.259   7.838   4.139  1.00  0.00    -0.002 A 
HETATM    4  C   UNL     1      63.400   8.948   4.178  1.00  0.00     0.016 A 
HETATM    5  C   UNL     1      64.051   6.871   3.144  1.00  0.00     0.016 A 
HETATM    6  C   UNL     1      62.120   8.077   2.317  1.00  0.00     0.044 A 
HETATM    7  C   UNL     1      62.989   6.986   2.241  1.00  0.00     0.023 A 
HETATM    8  C   UNL     1      62.336   9.067   3.277  1.00  0.00     0.023 A 
ENDROOT
BRANCH   3   9
HETATM    9  C   UNL     1      65.316   7.665   5.132  1.00  0.00     0.085 A 
HETATM   10  O   UNL     1      65.657   8.774   5.855  1.00  0.00    -0.322 OA
HETATM   11  C   UNL     1      66.606   8.401   6.751  1.00  0.00     0.142 A 
HETATM   12  C   UNL     1      66.892   7.065   6.616  1.00  0.00     0.027 A 
HETATM   13  C   UNL     1      66.065   6.589   5.570  1.00  0.00     0.040 A 
ENDBRANCH   3   9
TORSDOF 1
ENDMDL
MODEL 9
REMARK VINA RESULT:      -4.4     16.927     18.250
REMARK  1 active torsions:
REMARK  status: ('A' for Active; 'I' for Inactive)
REMARK    1  A    between atoms: C_1  and  C_5 
ROOT
HETATM    1  N   UNL     1      66.291   4.213   7.687  1.00  0.00    -0.191 NA
HETATM    2  C   UNL     1      65.727   5.027   7.080  1.00  0.00     0.099 C 
HETATM    3  C   UNL     1      63.693   8.114   4.981  1.00  0.00    -0.002 A 
HETATM    4  C   UNL     1      62.997   7.243   5.833  1.00  0.00     0.016 A 
HETATM    5  C   UNL     1      65.068   7.902   4.791  1.00  0.00     0.016 A 
HETATM    6  C   UNL     1      65.036   6.042   6.343  1.00  0.00     0.044 A 
HETATM    7  C   UNL     1      65.736   6.877   5.468  1.00  0.00     0.023 A 
HETATM    8  C   UNL     1      63.661   6.216   6.512  1.00  0.00     0.023 A 
ENDROOT
BRANCH   3   9
HETATM    9  C   UNL     1      63.023   9.241   4.338  1.00  0.00     0.085 A 
HETATM   10  O   UNL     1      62.695   9.080   3.020  1.00  0.00    -0.322 OA
HETATM   11  C   UNL     1      62.039  10.200   2.623  1.00  0.00     0.142 A 
HETATM   12  C   UNL     1      61.941  11.091   3.664  1.00  0.00     0.027 A 
HETATM   13  C   UNL     1      62.578  10.477   4.769  1.00  0.00     0.040 A 
ENDBRANCH   3   9
TORSDOF 1
ENDMDL
