MODEL 1
REMARK VINA RESULT:      -5.8      0.000      0.000
REMARK  2 active torsions:
REMARK  status: ('A' for Active; 'I' for Inactive)
REMARK    1  A    between atoms: N_1  and  C_3 
REMARK    2  A    between atoms: C_2  and  C_4 
ROOT
HETATM    1  C   UNL     1      65.138   7.765   4.795  1.00  0.00     0.031 A 
HETATM    2  C   UNL     1      63.314   9.385   4.537  1.00  0.00     0.043 A 
HETATM    3  C   UNL     1      64.484   8.947   5.178  1.00  0.00     0.047 A 
HETATM    4  C   UNL     1      64.556   7.029   3.750  1.00  0.00     0.029 A 
HETATM    5  C   UNL     1      62.764   8.626   3.501  1.00  0.00     0.018 A 
HETATM    6  C   UNL     1      63.386   7.446   3.110  1.00  0.00     0.003 A 
ENDROOT
BRANCH   1   7
HETATM    7  N   UNL     1      66.309   7.355   5.405  1.00  0.00    -0.381 N 
HETATM    8  C   UNL     1      66.727   7.868   6.711  1.00  0.00     0.123 C 
HETATM    9  C   UNL     1      66.941   6.690   7.662  1.00  0.00     0.020 C 
HETATM   10  C   UNL     1      67.896   5.652   7.074  1.00  0.00     0.003 C 
HETATM   11  C   UNL     1      67.461   5.220   5.673  1.00  0.00     0.020 C 
HETATM   12  C   UNL     1      67.239   6.426   4.764  1.00  0.00     0.123 C 
ENDBRANCH   1   7
BRANCH   2  13
HETATM   13  C   UNL     1      62.642  10.653   4.903  1.00  0.00     0.209 C 
HETATM   14  O   UNL     1      61.824  11.248   4.223  1.00  0.00    -0.644 OA
HETATM   15  O   UNL     1      63.031  11.136   6.097  1.00  0.00    -0.644 OA
ENDBRANCH   2  13
TORSDOF 2
ENDMDL
MODEL 2
REMARK VINA RESULT:      -5.7      0.855      1.557
REMARK  2 active torsions:
REMARK  status: ('A' for Active; 'I' for Inactive)
REMARK    1  A    between atoms: N_1  and  C_3 
REMARK    2  A    between atoms: C_2  and  C_4 
ROOT
HETATM    1  C   UNL     1      64.316   7.575   4.705  1.00  0.00     0.031 A 
HETATM    2  C   UNL     1      63.027   9.651   4.495  1.00  0.00     0.043 A 
HETATM    3  C   UNL     1      63.901   8.817   5.212  1.00  0.00     0.047 A 
HETATM    4  C   UNL     1      63.802   7.196   3.454  1.00  0.00     0.029 A 
HETATM    5  C   UNL     1      62.535   9.241   3.254  1.00  0.00     0.018 A 
HETATM    6  C   UNL     1      62.922   8.010   2.736  1.00  0.00     0.003 A 
ENDROOT
BRANCH   1   7
HETATM    7  N   UNL     1      65.204   6.772   5.396  1.00  0.00    -0.381 N 
HETATM    8  C   UNL     1      66.101   5.837   4.713  1.00  0.00     0.123 C 
HETATM    9  C   UNL     1      67.543   6.145   5.121  1.00  0.00     0.020 C 
HETATM   10  C   UNL     1      67.712   6.163   6.639  1.00  0.00     0.003 C 
HETATM   11  C   UNL     1      66.690   7.084   7.307  1.00  0.00     0.020 C 
HETATM   12  C   UNL     1      65.268   6.756   6.857  1.00  0.00     0.123 C 
ENDBRANCH   1   7
BRANCH   2  13
HETATM   13  C   UNL     1      62.618  10.983   5.000  1.00  0.00     0.209 C 
HETATM   14  O   UNL     1      61.921  11.787   4.405  1.00  0.00    -0.644 OA
HETATM   15  O   UNL     1      63.109  11.263   6.220  1.00  0.00    -0.644 OA
ENDBRANCH   2  13
TORSDOF 2
ENDMDL
MODEL 3
REMARK VINA RESULT:      -5.6      1.971      2.966
REMARK  2 active torsions:
REMARK  status: ('A' for Active; 'I' for Inactive)
REMARK    1  A    between atoms: N_1  and  C_3 
REMARK    2  A    between atoms: C_2  and  C_4 
ROOT
HETATM    1  C   UNL     1      63.098   7.678   3.023  1.00  0.00     0.031 A 
HETATM    2  C   UNL     1      62.167   9.861   2.401  1.00  0.00     0.043 A 
HETATM    3  C   UNL     1      62.781   9.010   3.335  1.00  0.00     0.047 A 
HETATM    4  C   UNL     1      62.755   7.229   1.737  1.00  0.00     0.029 A 
HETATM    5  C   UNL     1      61.840   9.380   1.131  1.00  0.00     0.018 A 
HETATM    6  C   UNL     1      62.133   8.061   0.802  1.00  0.00     0.003 A 
ENDROOT
BRANCH   1   7
HETATM    7  N   UNL     1      63.734   6.853   3.931  1.00  0.00    -0.381 N 
HETATM    8  C   UNL     1      65.141   6.476   3.787  1.00  0.00     0.123 C 
HETATM    9  C   UNL     1      65.893   6.866   5.061  1.00  0.00     0.020 C 
HETATM   10  C   UNL     1      65.227   6.292   6.311  1.00  0.00     0.003 C 
HETATM   11  C   UNL     1      63.738   6.639   6.363  1.00  0.00     0.020 C 
HETATM   12  C   UNL     1      63.032   6.253   5.065  1.00  0.00     0.123 C 
ENDBRANCH   1   7
BRANCH   2  13
HETATM   13  C   UNL     1      61.870  11.280   2.705  1.00  0.00     0.209 C 
HETATM   14  O   UNL     1      61.782  12.180   1.888  1.00  0.00    -0.644 OA
HETATM   15  O   UNL     1      61.710  11.521   4.019  1.00  0.00    -0.644 OA
ENDBRANCH   2  13
TORSDOF 2
ENDMDL
MODEL 4
REMARK VINA RESULT:      -5.4      4.989      7.639
REMARK  2 active torsions:
REMARK  status: ('A' for Active; 'I' for Inactive)
REMARK    1  A    between atoms: N_1  and  C_3 
REMARK    2  A    between atoms: C_2  and  C_4 
ROOT
HETATM    1  C   UNL     1      67.986   5.046   7.947  1.00  0.00     0.031 A 
HETATM    2  C   UNL     1      68.428   3.150   9.438  1.00  0.00     0.043 A 
HETATM    3  C   UNL     1      67.568   3.873   8.596  1.00  0.00     0.047 A 
HETATM    4  C   UNL     1      69.301   5.474   8.194  1.00  0.00     0.029 A 
HETATM    5  C   UNL     1      69.730   3.605   9.661  1.00  0.00     0.018 A 
HETATM    6  C   UNL     1      70.164   4.770   9.038  1.00  0.00     0.003 A 
ENDROOT
BRANCH   1   7
HETATM    7  N   UNL     1      67.149   5.737   7.091  1.00  0.00    -0.381 N 
HETATM    8  C   UNL     1      66.374   6.899   7.531  1.00  0.00     0.123 C 
HETATM    9  C   UNL     1      66.708   8.089   6.631  1.00  0.00     0.020 C 
HETATM   10  C   UNL     1      66.524   7.751   5.151  1.00  0.00     0.003 C 
HETATM   11  C   UNL     1      67.282   6.479   4.769  1.00  0.00     0.020 C 
HETATM   12  C   UNL     1      66.935   5.323   5.705  1.00  0.00     0.123 C 
ENDBRANCH   1   7
BRANCH   2  13
HETATM   13  C   UNL     1      68.013   1.887  10.092  1.00  0.00     0.209 C 
HETATM   14  O   UNL     1      66.911   1.372  10.012  1.00  0.00    -0.644 OA
HETATM   15  O   UNL     1      68.985   1.326  10.833  1.00  0.00    -0.644 OA
ENDBRANCH   2  13
TORSDOF 2
ENDMDL
MODEL 5
REMARK VINA RESULT:      -5.4      2.542      5.415
REMARK  2 active torsions:
REMARK  status: ('A' for Active; 'I' for Inactive)
REMARK    1  A    between atoms: N_1  and  C_3 
REMARK    2  A    between atoms: C_2  and  C_4 
ROOT
HETATM    1  C   UNL     1      63.805   7.980   3.836  1.00  0.00     0.031 A 
HETATM    2  C   UNL     1      65.613   7.443   5.404  1.00  0.00     0.043 A 
HETATM    3  C   UNL     1      64.572   8.281   4.973  1.00  0.00     0.047 A 
HETATM    4  C   UNL     1      64.140   6.809   3.137  1.00  0.00     0.029 A 
HETATM    5  C   UNL     1      65.919   6.286   4.683  1.00  0.00     0.018 A 
HETATM    6  C   UNL     1      65.182   5.972   3.547  1.00  0.00     0.003 A 
ENDROOT
BRANCH   1   7
HETATM    7  N   UNL     1      62.758   8.788   3.434  1.00  0.00    -0.381 N 
HETATM    8  C   UNL     1      62.110   9.733   4.346  1.00  0.00     0.123 C 
HETATM    9  C   UNL     1      62.171  11.134   3.735  1.00  0.00     0.020 C 
HETATM   10  C   UNL     1      61.603  11.160   2.316  1.00  0.00     0.003 C 
HETATM   11  C   UNL     1      62.251  10.092   1.434  1.00  0.00     0.020 C 
HETATM   12  C   UNL     1      62.187   8.715   2.090  1.00  0.00     0.123 C 
ENDBRANCH   1   7
BRANCH   2  13
HETATM   13  C   UNL     1      66.398   7.728   6.628  1.00  0.00     0.209 C 
HETATM   14  O   UNL     1      66.809   6.897   7.420  1.00  0.00    -0.644 OA
HETATM   15  O   UNL     1      66.626   9.039   6.821  1.00  0.00    -0.644 OA
ENDBRANCH   2  13
TORSDOF 2
ENDMDL
MODEL 6
REMARK VINA RESULT:      -5.3      4.701      7.132
REMARK  2 active torsions:
REMARK  status: ('A' for Active; 'I' for Inactive)
REMARK    1  A    between atoms: N_1  and  C_3 
REMARK    2  A    between atoms: C_2  and  C_4 
ROOT
HETATM    1  C   UNL     1      67.733   5.366   6.896  1.00  0.00     0.031 A 
HETATM    2  C   UNL     1      69.287   4.072   8.285  1.00  0.00     0.043 A 
HETATM    3  C   UNL     1      68.618   5.269   7.983  1.00  0.00     0.047 A 
HETATM    4  C   UNL     1      67.563   4.214   6.113  1.00  0.00     0.029 A 
HETATM    5  C   UNL     1      69.093   2.945   7.483  1.00  0.00     0.018 A 
HETATM    6  C   UNL     1      68.231   3.019   6.394  1.00  0.00     0.003 A 
ENDROOT
BRANCH   1   7
HETATM    7  N   UNL     1      67.049   6.536   6.622  1.00  0.00    -0.381 N 
HETATM    8  C   UNL     1      67.571   7.543   5.696  1.00  0.00     0.123 C 
HETATM    9  C   UNL     1      66.530   7.802   4.605  1.00  0.00     0.020 C 
HETATM   10  C   UNL     1      65.166   8.156   5.195  1.00  0.00     0.003 C 
HETATM   11  C   UNL     1      64.713   7.118   6.222  1.00  0.00     0.020 C 
HETATM   12  C   UNL     1      65.788   6.875   7.279  1.00  0.00     0.123 C 
ENDBRANCH   1   7
BRANCH   2  13
HETATM   13  C   UNL     1      70.186   3.946   9.455  1.00  0.00     0.209 C 
HETATM   14  O   UNL     1      69.954   3.308  10.467  1.00  0.00    -0.644 OA
HETATM   15  O   UNL     1      71.334   4.635   9.321  1.00  0.00    -0.644 OA
ENDBRANCH   2  13
TORSDOF 2
ENDMDL
MODEL 7
REMARK VINA RESULT:      -5.2      3.642      6.041
REMARK  2 active torsions:
REMARK  status: ('A' for Active; 'I' for Inactive)
REMARK    1  A    between atoms: N_1  and  C_3 
REMARK    2  A    between atoms: C_2  and  C_4 
ROOT
HETATM    1  C   UNL     1      61.896   9.397   2.050  1.00  0.00     0.031 A 
HETATM    2  C   UNL     1      62.810   9.526   4.323  1.00  0.00     0.043 A 
HETATM    3  C   UNL     1      62.506   8.795   3.163  1.00  0.00     0.047 A 
HETATM    4  C   UNL     1      61.587  10.763   2.158  1.00  0.00     0.029 A 
HETATM    5  C   UNL     1      62.488  10.883   4.394  1.00  0.00     0.018 A 
HETATM    6  C   UNL     1      61.873  11.500   3.310  1.00  0.00     0.003 A 
ENDROOT
BRANCH   1   7
HETATM    7  N   UNL     1      61.630   8.684   0.896  1.00  0.00    -0.381 N 
HETATM    8  C   UNL     1      62.666   8.397  -0.098  1.00  0.00     0.123 C 
HETATM    9  C   UNL     1      62.738   6.885  -0.319  1.00  0.00     0.020 C 
HETATM   10  C   UNL     1      61.371   6.297  -0.667  1.00  0.00     0.003 C 
HETATM   11  C   UNL     1      60.309   6.704   0.355  1.00  0.00     0.020 C 
HETATM   12  C   UNL     1      60.285   8.217   0.560  1.00  0.00     0.123 C 
ENDBRANCH   1   7
BRANCH   2  13
HETATM   13  C   UNL     1      63.494   8.911   5.484  1.00  0.00     0.209 C 
HETATM   14  O   UNL     1      62.991   8.135   6.279  1.00  0.00    -0.644 OA
HETATM   15  O   UNL     1      64.774   9.303   5.617  1.00  0.00    -0.644 OA
ENDBRANCH   2  13
TORSDOF 2
ENDMDL
MODEL 8
REMARK VINA RESULT:      -5.2      2.380      3.539
REMARK  2 active torsions:
REMARK  status: ('A' for Active; 'I' for Inactive)
REMARK    1  A    between atoms: N_1  and  C_3 
REMARK    2  A    between atoms: C_2  and  C_4 
ROOT
HETATM    1  C   UNL     1      66.708   6.212   6.836  1.00  0.00     0.031 A 
HETATM    2  C   UNL     1      64.703   7.266   5.895  1.00  0.00     0.043 A 
HETATM    3  C   UNL     1      65.313   6.368   6.786  1.00  0.00     0.047 A 
HETATM    4  C   UNL     1      67.465   6.983   5.939  1.00  0.00     0.029 A 
HETATM    5  C   UNL     1      65.488   8.016   5.017  1.00  0.00     0.018 A 
HETATM    6  C   UNL     1      66.870   7.872   5.039  1.00  0.00     0.003 A 
ENDROOT
BRANCH   1   7
HETATM    7  N   UNL     1      67.308   5.354   7.738  1.00  0.00    -0.381 N 
HETATM    8  C   UNL     1      67.082   3.908   7.705  1.00  0.00     0.123 C 
HETATM    9  C   UNL     1      68.432   3.197   7.587  1.00  0.00     0.020 C 
HETATM   10  C   UNL     1      69.406   3.643   8.677  1.00  0.00     0.003 C 
HETATM   11  C   UNL     1      69.533   5.166   8.726  1.00  0.00     0.020 C 
HETATM   12  C   UNL     1      68.164   5.835   8.823  1.00  0.00     0.123 C 
ENDBRANCH   1   7
BRANCH   2  13
HETATM   13  C   UNL     1      63.236   7.471   5.865  1.00  0.00     0.209 C 
HETATM   14  O   UNL     1      62.519   7.348   4.888  1.00  0.00    -0.644 OA
HETATM   15  O   UNL     1      62.726   7.838   7.055  1.00  0.00    -0.644 OA
ENDBRANCH   2  13
TORSDOF 2
ENDMDL
MODEL 9
REMARK VINA RESULT:      -5.1      2.217      3.229
REMARK  2 active torsions:
REMARK  status: ('A' for Active; 'I' for Inactive)
REMARK    1  A    between atoms: N_1  and  C_3 
REMARK    2  A    between atoms: C_2  and  C_4 
ROOT
HETATM    1  C   UNL     1      63.873   8.395   4.350  1.00  0.00     0.031 A 
HETATM    2  C   UNL     1      62.249   9.063   2.638  1.00  0.00     0.043 A 
HETATM    3  C   UNL     1      63.235   8.186   3.117  1.00  0.00     0.047 A 
HETATM    4  C   UNL     1      63.492   9.535   5.076  1.00  0.00     0.029 A 
HETATM    5  C   UNL     1      61.895  10.187   3.388  1.00  0.00     0.018 A 
HETATM    6  C   UNL     1      62.520  10.423   4.607  1.00  0.00     0.003 A 
ENDROOT
BRANCH   1   7
HETATM    7  N   UNL     1      64.819   7.512   4.835  1.00  0.00    -0.381 N 
HETATM    8  C   UNL     1      65.521   6.568   3.963  1.00  0.00     0.123 C 
HETATM    9  C   UNL     1      67.029   6.777   4.116  1.00  0.00     0.020 C 
HETATM   10  C   UNL     1      67.467   6.707   5.578  1.00  0.00     0.003 C 
HETATM   11  C   UNL     1      66.639   7.646   6.457  1.00  0.00     0.020 C 
HETATM   12  C   UNL     1      65.142   7.417   6.258  1.00  0.00     0.123 C 
ENDBRANCH   1   7
BRANCH   2  13
HETATM   13  C   UNL     1      61.537   8.827   1.360  1.00  0.00     0.209 C 
HETATM   14  O   UNL     1      60.362   8.525   1.245  1.00  0.00    -0.644 OA
HETATM   15  O   UNL     1      62.326   8.963   0.279  1.00  0.00    -0.644 OA
ENDBRANCH   2  13
TORSDOF 2
ENDMDL
