MODEL 1
REMARK VINA RESULT:      -5.6      0.000      0.000
REMARK  3 active torsions:
REMARK  status: ('A' for Active; 'I' for Inactive)
REMARK    1  A    between atoms: N_1  and  C_2 
REMARK    2  A    between atoms: C_4  and  C_10 
REMARK    3  A    between atoms: N_5  and  C_10 
ROOT
HETATM    1  C   UNL     1      78.472  12.304  21.144  1.00  0.00     0.030 A 
HETATM    2  C   UNL     1      78.363  11.368  20.105  1.00  0.00     0.038 A 
HETATM    3  C   UNL     1      77.359  11.438  19.125  1.00  0.00    -0.031 A 
HETATM    4  C   UNL     1      77.537  13.351  21.149  1.00  0.00     0.029 A 
HETATM    5  C   UNL     1      76.541  13.456  20.173  1.00  0.00     0.003 A 
HETATM    6  C   UNL     1      76.452  12.501  19.167  1.00  0.00     0.009 A 
ENDROOT
BRANCH   1   7
HETATM    7  N   UNL     1      79.442  12.188  22.124  1.00  0.00    -0.381 N 
HETATM    8  C   UNL     1      79.092  12.117  23.543  1.00  0.00     0.123 C 
HETATM    9  C   UNL     1      79.776  13.260  24.291  1.00  0.00     0.020 C 
HETATM   10  C   UNL     1      81.280  13.276  24.035  1.00  0.00     0.003 C 
HETATM   11  C   UNL     1      81.588  13.286  22.538  1.00  0.00     0.020 C 
HETATM   12  C   UNL     1      80.871  12.148  21.813  1.00  0.00     0.123 C 
ENDBRANCH   1   7
BRANCH   3  13
HETATM   13  C   UNL     1      77.252  10.380  18.059  1.00  0.00     0.268 C 
BRANCH  13  14
HETATM   14  N   UNL     1      77.429   9.047  18.624  1.00  0.00    -0.075 N 
HETATM   15  H   UNL     1      76.528   8.569  18.655  1.00  0.00     0.274 HD
HETATM   16  H   UNL     1      77.805   9.125  19.569  1.00  0.00     0.274 HD
HETATM   17  H   UNL     1      78.077   8.515  18.043  1.00  0.00     0.274 HD
ENDBRANCH  13  14
ENDBRANCH   3  13
TORSDOF 3
ENDMDL
MODEL 2
REMARK VINA RESULT:      -5.2     19.116     21.557
REMARK  3 active torsions:
REMARK  status: ('A' for Active; 'I' for Inactive)
REMARK    1  A    between atoms: N_1  and  C_2 
REMARK    2  A    between atoms: C_4  and  C_10 
REMARK    3  A    between atoms: N_5  and  C_10 
ROOT
HETATM    1  C   UNL     1      65.181   7.739   4.801  1.00  0.00     0.030 A 
HETATM    2  C   UNL     1      64.480   8.896   5.174  1.00  0.00     0.038 A 
HETATM    3  C   UNL     1      63.311   9.318   4.520  1.00  0.00    -0.031 A 
HETATM    4  C   UNL     1      64.640   6.989   3.745  1.00  0.00     0.029 A 
HETATM    5  C   UNL     1      63.466   7.375   3.091  1.00  0.00     0.003 A 
HETATM    6  C   UNL     1      62.806   8.536   3.477  1.00  0.00     0.009 A 
ENDROOT
BRANCH   1   7
HETATM    7  N   UNL     1      66.356   7.370   5.431  1.00  0.00    -0.381 N 
HETATM    8  C   UNL     1      67.280   6.411   4.826  1.00  0.00     0.123 C 
HETATM    9  C   UNL     1      67.475   5.228   5.774  1.00  0.00     0.020 C 
HETATM   10  C   UNL     1      67.901   5.690   7.165  1.00  0.00     0.003 C 
HETATM   11  C   UNL     1      66.936   6.738   7.721  1.00  0.00     0.020 C 
HETATM   12  C   UNL     1      66.741   7.893   6.742  1.00  0.00     0.123 C 
ENDBRANCH   1   7
BRANCH   3  13
HETATM   13  C   UNL     1      62.623  10.594   4.924  1.00  0.00     0.268 C 
BRANCH  13  14
HETATM   14  N   UNL     1      63.359  11.274   5.983  1.00  0.00    -0.075 N 
HETATM   15  H   UNL     1      63.113  10.864   6.886  1.00  0.00     0.274 HD
HETATM   16  H   UNL     1      63.119  12.265   5.983  1.00  0.00     0.274 HD
HETATM   17  H   UNL     1      64.361  11.167   5.824  1.00  0.00     0.274 HD
ENDBRANCH  13  14
ENDBRANCH   3  13
TORSDOF 3
ENDMDL
MODEL 3
REMARK VINA RESULT:      -5.1     19.734     22.032
REMARK  3 active torsions:
REMARK  status: ('A' for Active; 'I' for Inactive)
REMARK    1  A    between atoms: N_1  and  C_2 
REMARK    2  A    between atoms: C_4  and  C_10 
REMARK    3  A    between atoms: N_5  and  C_10 
ROOT
HETATM    1  C   UNL     1      64.233   7.775   4.552  1.00  0.00     0.030 A 
HETATM    2  C   UNL     1      63.872   8.981   5.173  1.00  0.00     0.038 A 
HETATM    3  C   UNL     1      62.959   9.883   4.603  1.00  0.00    -0.031 A 
HETATM    4  C   UNL     1      63.608   7.487   3.329  1.00  0.00     0.029 A 
HETATM    5  C   UNL     1      62.679   8.357   2.751  1.00  0.00     0.003 A 
HETATM    6  C   UNL     1      62.359   9.552   3.386  1.00  0.00     0.009 A 
ENDROOT
BRANCH   1   7
HETATM    7  N   UNL     1      65.170   6.925   5.112  1.00  0.00    -0.381 N 
HETATM    8  C   UNL     1      65.133   6.573   6.532  1.00  0.00     0.123 C 
HETATM    9  C   UNL     1      66.454   6.973   7.187  1.00  0.00     0.020 C 
HETATM   10  C   UNL     1      67.649   6.384   6.444  1.00  0.00     0.003 C 
HETATM   11  C   UNL     1      67.602   6.729   4.955  1.00  0.00     0.020 C 
HETATM   12  C   UNL     1      66.263   6.340   4.334  1.00  0.00     0.123 C 
ENDBRANCH   1   7
BRANCH   3  13
HETATM   13  C   UNL     1      62.644  11.188   5.284  1.00  0.00     0.268 C 
BRANCH  13  14
HETATM   14  N   UNL     1      63.654  11.515   6.283  1.00  0.00    -0.075 N 
HETATM   15  H   UNL     1      63.322  12.288   6.862  1.00  0.00     0.274 HD
HETATM   16  H   UNL     1      64.520  11.787   5.817  1.00  0.00     0.274 HD
HETATM   17  H   UNL     1      63.826  10.700   6.872  1.00  0.00     0.274 HD
ENDBRANCH  13  14
ENDBRANCH   3  13
TORSDOF 3
ENDMDL
MODEL 4
REMARK VINA RESULT:      -5.0     21.096     23.226
REMARK  3 active torsions:
REMARK  status: ('A' for Active; 'I' for Inactive)
REMARK    1  A    between atoms: N_1  and  C_2 
REMARK    2  A    between atoms: C_4  and  C_10 
REMARK    3  A    between atoms: N_5  and  C_10 
ROOT
HETATM    1  C   UNL     1      63.410   9.008   4.719  1.00  0.00     0.030 A 
HETATM    2  C   UNL     1      62.971   8.701   3.422  1.00  0.00     0.038 A 
HETATM    3  C   UNL     1      62.188   9.582   2.659  1.00  0.00    -0.031 A 
HETATM    4  C   UNL     1      63.053  10.269   5.221  1.00  0.00     0.029 A 
HETATM    5  C   UNL     1      62.292  11.173   4.474  1.00  0.00     0.003 A 
HETATM    6  C   UNL     1      61.860  10.829   3.198  1.00  0.00     0.009 A 
ENDROOT
BRANCH   1   7
HETATM    7  N   UNL     1      64.142   8.105   5.468  1.00  0.00    -0.381 N 
HETATM    8  C   UNL     1      65.604   8.148   5.506  1.00  0.00     0.123 C 
HETATM    9  C   UNL     1      66.163   6.808   5.030  1.00  0.00     0.020 C 
HETATM   10  C   UNL     1      65.568   5.642   5.816  1.00  0.00     0.003 C 
HETATM   11  C   UNL     1      64.040   5.684   5.796  1.00  0.00     0.020 C 
HETATM   12  C   UNL     1      63.512   7.042   6.252  1.00  0.00     0.123 C 
ENDBRANCH   1   7
BRANCH   3  13
HETATM   13  C   UNL     1      61.698   9.185   1.292  1.00  0.00     0.268 C 
BRANCH  13  14
HETATM   14  N   UNL     1      60.294   8.794   1.331  1.00  0.00    -0.075 N 
HETATM   15  H   UNL     1      59.962   8.622   0.381  1.00  0.00     0.274 HD
HETATM   16  H   UNL     1      59.744   9.544   1.752  1.00  0.00     0.274 HD
HETATM   17  H   UNL     1      60.192   7.945   1.886  1.00  0.00     0.274 HD
ENDBRANCH  13  14
ENDBRANCH   3  13
TORSDOF 3
ENDMDL
MODEL 5
REMARK VINA RESULT:      -5.0     16.768     19.563
REMARK  3 active torsions:
REMARK  status: ('A' for Active; 'I' for Inactive)
REMARK    1  A    between atoms: N_1  and  C_2 
REMARK    2  A    between atoms: C_4  and  C_10 
REMARK    3  A    between atoms: N_5  and  C_10 
ROOT
HETATM    1  C   UNL     1      67.933   5.239   7.050  1.00  0.00     0.030 A 
HETATM    2  C   UNL     1      68.578   5.108   8.289  1.00  0.00     0.038 A 
HETATM    3  C   UNL     1      69.103   3.888   8.745  1.00  0.00    -0.031 A 
HETATM    4  C   UNL     1      67.859   4.085   6.254  1.00  0.00     0.029 A 
HETATM    5  C   UNL     1      68.393   2.863   6.674  1.00  0.00     0.003 A 
HETATM    6  C   UNL     1      69.010   2.766   7.917  1.00  0.00     0.009 A 
ENDROOT
BRANCH   1   7
HETATM    7  N   UNL     1      67.383   6.442   6.643  1.00  0.00    -0.381 N 
HETATM    8  C   UNL     1      66.201   7.003   7.298  1.00  0.00     0.123 C 
HETATM    9  C   UNL     1      65.094   7.198   6.262  1.00  0.00     0.020 C 
HETATM   10  C   UNL     1      65.579   8.020   5.072  1.00  0.00     0.003 C 
HETATM   11  C   UNL     1      66.851   7.424   4.468  1.00  0.00     0.020 C 
HETATM   12  C   UNL     1      67.929   7.218   5.529  1.00  0.00     0.123 C 
ENDBRANCH   1   7
BRANCH   3  13
HETATM   13  C   UNL     1      69.740   3.787  10.105  1.00  0.00     0.268 C 
BRANCH  13  14
HETATM   14  N   UNL     1      69.609   2.440  10.647  1.00  0.00    -0.075 N 
HETATM   15  H   UNL     1      68.703   2.345  11.108  1.00  0.00     0.274 HD
HETATM   16  H   UNL     1      70.354   2.272  11.324  1.00  0.00     0.274 HD
HETATM   17  H   UNL     1      69.678   1.760   9.889  1.00  0.00     0.274 HD
ENDBRANCH  13  14
ENDBRANCH   3  13
TORSDOF 3
ENDMDL
MODEL 6
REMARK VINA RESULT:      -4.8     17.173     19.200
REMARK  3 active torsions:
REMARK  status: ('A' for Active; 'I' for Inactive)
REMARK    1  A    between atoms: N_1  and  C_2 
REMARK    2  A    between atoms: C_4  and  C_10 
REMARK    3  A    between atoms: N_5  and  C_10 
ROOT
HETATM    1  C   UNL     1      68.004   4.925   8.029  1.00  0.00     0.030 A 
HETATM    2  C   UNL     1      67.594   3.761   8.696  1.00  0.00     0.038 A 
HETATM    3  C   UNL     1      68.450   3.025   9.531  1.00  0.00    -0.031 A 
HETATM    4  C   UNL     1      69.323   5.349   8.257  1.00  0.00     0.029 A 
HETATM    5  C   UNL     1      70.189   4.647   9.100  1.00  0.00     0.003 A 
HETATM    6  C   UNL     1      69.753   3.488   9.732  1.00  0.00     0.009 A 
ENDROOT
BRANCH   1   7
HETATM    7  N   UNL     1      67.156   5.607   7.175  1.00  0.00    -0.381 N 
HETATM    8  C   UNL     1      67.005   5.217   5.773  1.00  0.00     0.123 C 
HETATM    9  C   UNL     1      67.368   6.401   4.877  1.00  0.00     0.020 C 
HETATM   10  C   UNL     1      66.576   7.651   5.251  1.00  0.00     0.003 C 
HETATM   11  C   UNL     1      66.718   7.973   6.738  1.00  0.00     0.020 C 
HETATM   12  C   UNL     1      66.373   6.766   7.607  1.00  0.00     0.123 C 
ENDBRANCH   1   7
BRANCH   3  13
HETATM   13  C   UNL     1      67.978   1.753  10.184  1.00  0.00     0.268 C 
BRANCH  13  14
HETATM   14  N   UNL     1      66.810   1.214   9.499  1.00  0.00    -0.075 N 
HETATM   15  H   UNL     1      66.554   0.318   9.916  1.00  0.00     0.274 HD
HETATM   16  H   UNL     1      67.027   1.079   8.511  1.00  0.00     0.274 HD
HETATM   17  H   UNL     1      66.031   1.866   9.590  1.00  0.00     0.274 HD
ENDBRANCH  13  14
ENDBRANCH   3  13
TORSDOF 3
ENDMDL
MODEL 7
REMARK VINA RESULT:      -4.7     17.355     19.813
REMARK  3 active torsions:
REMARK  status: ('A' for Active; 'I' for Inactive)
REMARK    1  A    between atoms: N_1  and  C_2 
REMARK    2  A    between atoms: C_4  and  C_10 
REMARK    3  A    between atoms: N_5  and  C_10 
ROOT
HETATM    1  C   UNL     1      66.738   6.206   6.813  1.00  0.00     0.030 A 
HETATM    2  C   UNL     1      65.353   6.433   6.812  1.00  0.00     0.038 A 
HETATM    3  C   UNL     1      64.732   7.324   5.922  1.00  0.00    -0.031 A 
HETATM    4  C   UNL     1      67.489   6.896   5.849  1.00  0.00     0.029 A 
HETATM    5  C   UNL     1      66.893   7.772   4.937  1.00  0.00     0.003 A 
HETATM    6  C   UNL     1      65.519   7.986   4.976  1.00  0.00     0.009 A 
ENDROOT
BRANCH   1   7
HETATM    7  N   UNL     1      67.332   5.358   7.731  1.00  0.00    -0.381 N 
HETATM    8  C   UNL     1      68.127   5.873   8.847  1.00  0.00     0.123 C 
HETATM    9  C   UNL     1      69.538   5.292   8.773  1.00  0.00     0.020 C 
HETATM   10  C   UNL     1      69.513   3.768   8.695  1.00  0.00     0.003 C 
HETATM   11  C   UNL     1      68.618   3.285   7.554  1.00  0.00     0.020 C 
HETATM   12  C   UNL     1      67.223   3.902   7.640  1.00  0.00     0.123 C 
ENDBRANCH   1   7
BRANCH   3  13
HETATM   13  C   UNL     1      63.249   7.572   5.995  1.00  0.00     0.268 C 
BRANCH  13  14
HETATM   14  N   UNL     1      62.948   8.992   5.856  1.00  0.00    -0.075 N 
HETATM   15  H   UNL     1      62.045   9.192   6.289  1.00  0.00     0.274 HD
HETATM   16  H   UNL     1      62.912   9.236   4.866  1.00  0.00     0.274 HD
HETATM   17  H   UNL     1      63.674   9.541   6.315  1.00  0.00     0.274 HD
ENDBRANCH  13  14
ENDBRANCH   3  13
TORSDOF 3
ENDMDL
MODEL 8
REMARK VINA RESULT:      -4.5     20.514     23.531
REMARK  3 active torsions:
REMARK  status: ('A' for Active; 'I' for Inactive)
REMARK    1  A    between atoms: N_1  and  C_2 
REMARK    2  A    between atoms: C_4  and  C_10 
REMARK    3  A    between atoms: N_5  and  C_10 
ROOT
HETATM    1  C   UNL     1      63.159   8.011   4.549  1.00  0.00     0.030 A 
HETATM    2  C   UNL     1      64.547   8.197   4.462  1.00  0.00     0.038 A 
HETATM    3  C   UNL     1      65.452   7.567   5.332  1.00  0.00    -0.031 A 
HETATM    4  C   UNL     1      62.704   7.129   5.541  1.00  0.00     0.029 A 
HETATM    5  C   UNL     1      63.584   6.472   6.406  1.00  0.00     0.003 A 
HETATM    6  C   UNL     1      64.953   6.694   6.302  1.00  0.00     0.009 A 
ENDROOT
BRANCH   1   7
HETATM    7  N   UNL     1      62.285   8.678   3.710  1.00  0.00    -0.381 N 
HETATM    8  C   UNL     1      61.934   8.148   2.391  1.00  0.00     0.123 C 
HETATM    9  C   UNL     1      62.301   9.175   1.320  1.00  0.00     0.020 C 
HETATM   10  C   UNL     1      61.680  10.537   1.613  1.00  0.00     0.003 C 
HETATM   11  C   UNL     1      62.025  11.011   3.025  1.00  0.00     0.020 C 
HETATM   12  C   UNL     1      61.671   9.957   4.071  1.00  0.00     0.123 C 
ENDBRANCH   1   7
BRANCH   3  13
HETATM   13  C   UNL     1      66.929   7.840   5.231  1.00  0.00     0.268 C 
BRANCH  13  14
HETATM   14  N   UNL     1      67.553   6.984   4.229  1.00  0.00    -0.075 N 
HETATM   15  H   UNL     1      67.533   7.451   3.322  1.00  0.00     0.274 HD
HETATM   16  H   UNL     1      67.042   6.103   4.169  1.00  0.00     0.274 HD
HETATM   17  H   UNL     1      68.520   6.799   4.495  1.00  0.00     0.274 HD
ENDBRANCH  13  14
ENDBRANCH   3  13
TORSDOF 3
ENDMDL
MODEL 9
REMARK VINA RESULT:      -4.5     17.493     19.739
REMARK  3 active torsions:
REMARK  status: ('A' for Active; 'I' for Inactive)
REMARK    1  A    between atoms: N_1  and  C_2 
REMARK    2  A    between atoms: C_4  and  C_10 
REMARK    3  A    between atoms: N_5  and  C_10 
ROOT
HETATM    1  C   UNL     1      68.035   5.423   7.420  1.00  0.00     0.030 A 
HETATM    2  C   UNL     1      68.063   4.144   6.845  1.00  0.00     0.038 A 
HETATM    3  C   UNL     1      68.708   3.054   7.452  1.00  0.00    -0.031 A 
HETATM    4  C   UNL     1      68.665   5.566   8.666  1.00  0.00     0.029 A 
HETATM    5  C   UNL     1      69.296   4.493   9.302  1.00  0.00     0.003 A 
HETATM    6  C   UNL     1      69.319   3.242   8.694  1.00  0.00     0.009 A 
ENDROOT
BRANCH   1   7
HETATM    7  N   UNL     1      67.432   6.492   6.781  1.00  0.00    -0.381 N 
HETATM    8  C   UNL     1      66.190   7.082   7.282  1.00  0.00     0.123 C 
HETATM    9  C   UNL     1      65.120   7.009   6.193  1.00  0.00     0.020 C 
HETATM   10  C   UNL     1      65.607   7.631   4.887  1.00  0.00     0.003 C 
HETATM   11  C   UNL     1      66.938   7.022   4.445  1.00  0.00     0.020 C 
HETATM   12  C   UNL     1      67.979   7.087   5.561  1.00  0.00     0.123 C 
ENDBRANCH   1   7
BRANCH   3  13
HETATM   13  C   UNL     1      68.754   1.713   6.769  1.00  0.00     0.268 C 
BRANCH  13  14
HETATM   14  N   UNL     1      69.137   1.850   5.369  1.00  0.00    -0.075 N 
HETATM   15  H   UNL     1      69.221   0.924   4.947  1.00  0.00     0.274 HD
HETATM   16  H   UNL     1      70.033   2.334   5.307  1.00  0.00     0.274 HD
HETATM   17  H   UNL     1      68.425   2.386   4.872  1.00  0.00     0.274 HD
ENDBRANCH  13  14
ENDBRANCH   3  13
TORSDOF 3
ENDMDL
