MODEL 1
REMARK VINA RESULT:      -5.9      0.000      0.000
REMARK  2 active torsions:
REMARK  status: ('A' for Active; 'I' for Inactive)
REMARK    1  A    between atoms: C_1  and  C_3 
REMARK    2  A    between atoms: C_9  and  N_10 
ROOT
HETATM    1  C   UNL     1      77.348   9.858  17.609  1.00  0.00    -0.002 A 
HETATM    2  C   UNL     1      77.627  10.037  16.248  1.00  0.00     0.016 A 
HETATM    3  C   UNL     1      77.024   8.567  18.046  1.00  0.00     0.016 A 
HETATM    4  C   UNL     1      77.275   7.675  15.798  1.00  0.00     0.025 A 
HETATM    5  C   UNL     1      77.568   8.963  15.350  1.00  0.00     0.030 A 
HETATM    6  C   UNL     1      76.966   7.495  17.147  1.00  0.00     0.030 A 
ENDROOT
BRANCH   1   7
HETATM    7  C   UNL     1      77.343  10.985  18.539  1.00  0.00     0.085 A 
HETATM    8  O   UNL     1      76.855  12.169  18.057  1.00  0.00    -0.322 OA
HETATM    9  C   UNL     1      76.890  13.069  19.073  1.00  0.00     0.142 A 
HETATM   10  C   UNL     1      77.400  12.490  20.209  1.00  0.00     0.027 A 
HETATM   11  C   UNL     1      77.699  11.149  19.865  1.00  0.00     0.040 A 
ENDBRANCH   1   7
BRANCH   4  12
HETATM   12  N   UNL     1      77.058   6.642  14.881  1.00  0.00    -0.399 N 
HETATM   13  H   UNL     1      77.800   6.049  14.620  1.00  0.00     0.156 HD
HETATM   14  H   UNL     1      76.163   6.508  14.493  1.00  0.00     0.156 HD
ENDBRANCH   4  12
TORSDOF 2
ENDMDL
MODEL 2
REMARK VINA RESULT:      -5.5      3.570      5.956
REMARK  2 active torsions:
REMARK  status: ('A' for Active; 'I' for Inactive)
REMARK    1  A    between atoms: C_1  and  C_3 
REMARK    2  A    between atoms: C_9  and  N_10 
ROOT
HETATM    1  C   UNL     1      76.746   6.295  16.625  1.00  0.00    -0.002 A 
HETATM    2  C   UNL     1      76.984   7.297  17.574  1.00  0.00     0.016 A 
HETATM    3  C   UNL     1      76.871   6.633  15.271  1.00  0.00     0.016 A 
HETATM    4  C   UNL     1      77.474   8.920  15.832  1.00  0.00     0.025 A 
HETATM    5  C   UNL     1      77.321   8.600  17.181  1.00  0.00     0.030 A 
HETATM    6  C   UNL     1      77.208   7.934  14.881  1.00  0.00     0.030 A 
ENDROOT
BRANCH   1   7
HETATM    7  C   UNL     1      76.330   4.953  17.025  1.00  0.00     0.085 A 
HETATM    8  O   UNL     1      75.168   4.486  16.471  1.00  0.00    -0.322 OA
HETATM    9  C   UNL     1      74.979   3.221  16.925  1.00  0.00     0.142 A 
HETATM   10  C   UNL     1      75.997   2.858  17.772  1.00  0.00     0.027 A 
HETATM   11  C   UNL     1      76.865   3.976  17.844  1.00  0.00     0.040 A 
ENDBRANCH   1   7
BRANCH   4  12
HETATM   12  N   UNL     1      77.649  10.251  15.440  1.00  0.00    -0.399 N 
HETATM   13  H   UNL     1      78.027  10.905  16.070  1.00  0.00     0.156 HD
HETATM   14  H   UNL     1      77.393  10.534  14.532  1.00  0.00     0.156 HD
ENDBRANCH   4  12
TORSDOF 2
ENDMDL
MODEL 3
REMARK VINA RESULT:      -5.2      6.485      8.994
REMARK  2 active torsions:
REMARK  status: ('A' for Active; 'I' for Inactive)
REMARK    1  A    between atoms: C_1  and  C_3 
REMARK    2  A    between atoms: C_9  and  N_10 
ROOT
HETATM    1  C   UNL     1      75.170   2.555  17.418  1.00  0.00    -0.002 A 
HETATM    2  C   UNL     1      74.521   3.576  16.712  1.00  0.00     0.016 A 
HETATM    3  C   UNL     1      76.404   2.851  18.011  1.00  0.00     0.016 A 
HETATM    4  C   UNL     1      76.310   5.145  17.210  1.00  0.00     0.025 A 
HETATM    5  C   UNL     1      75.096   4.848  16.590  1.00  0.00     0.030 A 
HETATM    6  C   UNL     1      76.976   4.123  17.889  1.00  0.00     0.030 A 
ENDROOT
BRANCH   1   7
HETATM    7  C   UNL     1      74.609   1.208  17.494  1.00  0.00     0.085 A 
HETATM    8  O   UNL     1      74.420   0.697  18.749  1.00  0.00    -0.322 OA
HETATM    9  C   UNL     1      73.855  -0.529  18.611  1.00  0.00     0.142 A 
HETATM   10  C   UNL     1      73.678  -0.829  17.283  1.00  0.00     0.027 A 
HETATM   11  C   UNL     1      74.171   0.286  16.561  1.00  0.00     0.040 A 
ENDBRANCH   1   7
BRANCH   4  12
HETATM   12  N   UNL     1      76.955   6.358  16.951  1.00  0.00    -0.399 N 
HETATM   13  H   UNL     1      76.786   7.139  17.526  1.00  0.00     0.156 HD
HETATM   14  H   UNL     1      77.579   6.431  16.193  1.00  0.00     0.156 HD
ENDBRANCH   4  12
TORSDOF 2
ENDMDL
MODEL 4
REMARK VINA RESULT:      -5.2     17.670     18.984
REMARK  2 active torsions:
REMARK  status: ('A' for Active; 'I' for Inactive)
REMARK    1  A    between atoms: C_1  and  C_3 
REMARK    2  A    between atoms: C_9  and  N_10 
ROOT
HETATM    1  C   UNL     1      63.649   8.917   4.787  1.00  0.00    -0.002 A 
HETATM    2  C   UNL     1      63.263   8.446   3.527  1.00  0.00     0.016 A 
HETATM    3  C   UNL     1      63.169  10.169   5.194  1.00  0.00     0.016 A 
HETATM    4  C   UNL     1      61.935  10.440   3.117  1.00  0.00     0.025 A 
HETATM    5  C   UNL     1      62.435   9.209   2.692  1.00  0.00     0.030 A 
HETATM    6  C   UNL     1      62.341  10.929   4.359  1.00  0.00     0.030 A 
ENDROOT
BRANCH   1   7
HETATM    7  C   UNL     1      64.566   8.157   5.635  1.00  0.00     0.085 A 
HETATM    8  O   UNL     1      65.773   8.743   5.905  1.00  0.00    -0.322 OA
HETATM    9  C   UNL     1      66.454   7.913   6.734  1.00  0.00     0.142 A 
HETATM   10  C   UNL     1      65.712   6.790   7.005  1.00  0.00     0.027 A 
HETATM   11  C   UNL     1      64.497   6.942   6.292  1.00  0.00     0.040 A 
ENDBRANCH   1   7
BRANCH   4  12
HETATM   12  N   UNL     1      61.247  11.266   2.224  1.00  0.00    -0.399 N 
HETATM   13  H   UNL     1      60.831  12.100   2.543  1.00  0.00     0.156 HD
HETATM   14  H   UNL     1      61.177  11.014   1.274  1.00  0.00     0.156 HD
ENDBRANCH   4  12
TORSDOF 2
ENDMDL
MODEL 5
REMARK VINA RESULT:      -5.1     19.877     21.387
REMARK  2 active torsions:
REMARK  status: ('A' for Active; 'I' for Inactive)
REMARK    1  A    between atoms: C_1  and  C_3 
REMARK    2  A    between atoms: C_9  and  N_10 
ROOT
HETATM    1  C   UNL     1      62.331   9.211   3.115  1.00  0.00    -0.002 A 
HETATM    2  C   UNL     1      61.889  10.532   3.258  1.00  0.00     0.016 A 
HETATM    3  C   UNL     1      63.148   8.682   4.123  1.00  0.00     0.016 A 
HETATM    4  C   UNL     1      63.051  10.760   5.381  1.00  0.00     0.025 A 
HETATM    5  C   UNL     1      62.263  11.304   4.366  1.00  0.00     0.030 A 
HETATM    6  C   UNL     1      63.521   9.455   5.229  1.00  0.00     0.030 A 
ENDROOT
BRANCH   1   7
HETATM    7  C   UNL     1      61.999   8.422   1.931  1.00  0.00     0.085 A 
HETATM    8  O   UNL     1      61.252   7.294   2.141  1.00  0.00    -0.322 OA
HETATM    9  C   UNL     1      61.013   6.732   0.930  1.00  0.00     0.142 A 
HETATM   10  C   UNL     1      61.598   7.471  -0.068  1.00  0.00     0.027 A 
HETATM   11  C   UNL     1      62.241   8.557   0.577  1.00  0.00     0.040 A 
ENDBRANCH   1   7
BRANCH   4  12
HETATM   12  N   UNL     1      63.554  11.579   6.396  1.00  0.00    -0.399 N 
HETATM   13  H   UNL     1      64.256  11.242   6.999  1.00  0.00     0.156 HD
HETATM   14  H   UNL     1      63.206  12.493   6.510  1.00  0.00     0.156 HD
ENDBRANCH   4  12
TORSDOF 2
ENDMDL
MODEL 6
REMARK VINA RESULT:      -5.1     21.744     23.299
REMARK  2 active torsions:
REMARK  status: ('A' for Active; 'I' for Inactive)
REMARK    1  A    between atoms: C_1  and  C_3 
REMARK    2  A    between atoms: C_9  and  N_10 
ROOT
HETATM    1  C   UNL     1      57.784  18.738  26.133  1.00  0.00    -0.002 A 
HETATM    2  C   UNL     1      58.441  17.985  25.153  1.00  0.00     0.016 A 
HETATM    3  C   UNL     1      58.415  18.891  27.375  1.00  0.00     0.016 A 
HETATM    4  C   UNL     1      60.320  17.572  26.639  1.00  0.00     0.025 A 
HETATM    5  C   UNL     1      59.683  17.389  25.411  1.00  0.00     0.030 A 
HETATM    6  C   UNL     1      59.656  18.296  27.630  1.00  0.00     0.030 A 
ENDROOT
BRANCH   1   7
HETATM    7  C   UNL     1      56.459  19.306  25.894  1.00  0.00     0.085 A 
HETATM    8  O   UNL     1      55.459  18.418  25.604  1.00  0.00    -0.322 OA
HETATM    9  C   UNL     1      54.311  19.127  25.463  1.00  0.00     0.142 A 
HETATM   10  C   UNL     1      54.547  20.466  25.649  1.00  0.00     0.027 A 
HETATM   11  C   UNL     1      55.933  20.585  25.920  1.00  0.00     0.040 A 
ENDBRANCH   1   7
BRANCH   4  12
HETATM   12  N   UNL     1      61.475  16.847  26.948  1.00  0.00    -0.399 N 
HETATM   13  H   UNL     1      62.274  17.313  27.286  1.00  0.00     0.156 HD
HETATM   14  H   UNL     1      61.490  15.870  26.826  1.00  0.00     0.156 HD
ENDBRANCH   4  12
TORSDOF 2
ENDMDL
MODEL 7
REMARK VINA RESULT:      -4.9     12.675     14.363
REMARK  2 active torsions:
REMARK  status: ('A' for Active; 'I' for Inactive)
REMARK    1  A    between atoms: C_1  and  C_3 
REMARK    2  A    between atoms: C_9  and  N_10 
ROOT
HETATM    1  C   UNL     1      68.275   5.079   7.999  1.00  0.00    -0.002 A 
HETATM    2  C   UNL     1      67.517   3.980   8.423  1.00  0.00     0.016 A 
HETATM    3  C   UNL     1      69.573   5.215   8.508  1.00  0.00     0.016 A 
HETATM    4  C   UNL     1      69.340   3.180   9.817  1.00  0.00     0.025 A 
HETATM    5  C   UNL     1      68.035   3.055   9.339  1.00  0.00     0.030 A 
HETATM    6  C   UNL     1      70.089   4.289   9.422  1.00  0.00     0.030 A 
ENDROOT
BRANCH   1   7
HETATM    7  C   UNL     1      67.718   6.083   7.095  1.00  0.00     0.085 A 
HETATM    8  O   UNL     1      67.006   7.098   7.677  1.00  0.00    -0.322 OA
HETATM    9  C   UNL     1      66.616   7.942   6.689  1.00  0.00     0.142 A 
HETATM   10  C   UNL     1      67.057   7.491   5.470  1.00  0.00     0.027 A 
HETATM   11  C   UNL     1      67.761   6.289   5.729  1.00  0.00     0.040 A 
ENDBRANCH   1   7
BRANCH   4  12
HETATM   12  N   UNL     1      69.794   2.353  10.849  1.00  0.00    -0.399 N 
HETATM   13  H   UNL     1      70.683   2.501  11.245  1.00  0.00     0.156 HD
HETATM   14  H   UNL     1      69.224   1.621  11.180  1.00  0.00     0.156 HD
ENDBRANCH   4  12
TORSDOF 2
ENDMDL
MODEL 8
REMARK VINA RESULT:      -4.8     13.418     14.634
REMARK  2 active torsions:
REMARK  status: ('A' for Active; 'I' for Inactive)
REMARK    1  A    between atoms: C_1  and  C_3 
REMARK    2  A    between atoms: C_9  and  N_10 
ROOT
HETATM    1  C   UNL     1      67.912   4.969   8.562  1.00  0.00    -0.002 A 
HETATM    2  C   UNL     1      67.378   6.066   9.248  1.00  0.00     0.016 A 
HETATM    3  C   UNL     1      67.909   5.007   7.161  1.00  0.00     0.016 A 
HETATM    4  C   UNL     1      66.873   7.207   7.162  1.00  0.00     0.025 A 
HETATM    5  C   UNL     1      66.843   7.161   8.556  1.00  0.00     0.030 A 
HETATM    6  C   UNL     1      67.376   6.103   6.472  1.00  0.00     0.030 A 
ENDROOT
BRANCH   1   7
HETATM    7  C   UNL     1      68.410   3.794   9.275  1.00  0.00     0.085 A 
HETATM    8  O   UNL     1      67.521   2.769   9.456  1.00  0.00    -0.322 OA
HETATM    9  C   UNL     1      68.179   1.765  10.089  1.00  0.00     0.142 A 
HETATM   10  C   UNL     1      69.482   2.123  10.331  1.00  0.00     0.027 A 
HETATM   11  C   UNL     1      69.631   3.433   9.813  1.00  0.00     0.040 A 
ENDBRANCH   1   7
BRANCH   4  12
HETATM   12  N   UNL     1      66.196   8.220   6.476  1.00  0.00    -0.399 N 
HETATM   13  H   UNL     1      66.098   9.111   6.883  1.00  0.00     0.156 HD
HETATM   14  H   UNL     1      65.817   8.042   5.585  1.00  0.00     0.156 HD
ENDBRANCH   4  12
TORSDOF 2
ENDMDL
MODEL 9
REMARK VINA RESULT:      -4.6      6.743      8.545
REMARK  2 active torsions:
REMARK  status: ('A' for Active; 'I' for Inactive)
REMARK    1  A    between atoms: C_1  and  C_3 
REMARK    2  A    between atoms: C_9  and  N_10 
ROOT
HETATM    1  C   UNL     1      74.967   1.937  17.017  1.00  0.00    -0.002 A 
HETATM    2  C   UNL     1      74.761   1.335  15.769  1.00  0.00     0.016 A 
HETATM    3  C   UNL     1      74.625   1.204  18.161  1.00  0.00     0.016 A 
HETATM    4  C   UNL     1      73.907  -0.687  16.812  1.00  0.00     0.025 A 
HETATM    5  C   UNL     1      74.216   0.048  15.668  1.00  0.00     0.030 A 
HETATM    6  C   UNL     1      74.081  -0.082  18.057  1.00  0.00     0.030 A 
ENDROOT
BRANCH   1   7
HETATM    7  C   UNL     1      75.472   3.303  17.128  1.00  0.00     0.085 A 
HETATM    8  O   UNL     1      76.578   3.481  17.915  1.00  0.00    -0.322 OA
HETATM    9  C   UNL     1      76.917   4.793  17.854  1.00  0.00     0.142 A 
HETATM   10  C   UNL     1      76.044   5.477  17.044  1.00  0.00     0.027 A 
HETATM   11  C   UNL     1      75.107   4.519  16.581  1.00  0.00     0.040 A 
ENDBRANCH   1   7
BRANCH   4  12
HETATM   12  N   UNL     1      73.217  -1.898  16.706  1.00  0.00    -0.399 N 
HETATM   13  H   UNL     1      73.705  -2.751  16.762  1.00  0.00     0.156 HD
HETATM   14  H   UNL     1      72.241  -1.898  16.574  1.00  0.00     0.156 HD
ENDBRANCH   4  12
TORSDOF 2
ENDMDL
