MODEL 1
REMARK VINA RESULT:      -6.2      0.000      0.000
REMARK  3 active torsions:
REMARK  status: ('A' for Active; 'I' for Inactive)
REMARK    1  A    between atoms: N_1  and  C_2 
REMARK    2  A    between atoms: C_4  and  C_10 
REMARK    3  A    between atoms: N_5  and  C_10 
ROOT
HETATM    1  C   UNL     1      77.362  10.032  17.628  1.00  0.00     0.030 A 
HETATM    2  C   UNL     1      76.977   8.780  18.138  1.00  0.00     0.038 A 
HETATM    3  C   UNL     1      76.910   7.622  17.340  1.00  0.00    -0.031 A 
HETATM    4  C   UNL     1      77.699  10.073  16.267  1.00  0.00     0.029 A 
HETATM    5  C   UNL     1      77.642   8.938  15.451  1.00  0.00     0.003 A 
HETATM    6  C   UNL     1      77.240   7.719  15.986  1.00  0.00     0.009 A 
ENDROOT
BRANCH   1   7
HETATM    7  N   UNL     1      77.391  11.166  18.420  1.00  0.00    -0.381 N 
HETATM    8  C   UNL     1      78.199  11.252  19.638  1.00  0.00     0.123 C 
HETATM    9  C   UNL     1      77.293  11.570  20.826  1.00  0.00     0.020 C 
HETATM   10  C   UNL     1      76.465  12.828  20.566  1.00  0.00     0.003 C 
HETATM   11  C   UNL     1      75.706  12.729  19.243  1.00  0.00     0.020 C 
HETATM   12  C   UNL     1      76.633  12.372  18.080  1.00  0.00     0.123 C 
ENDBRANCH   1   7
BRANCH   3  13
HETATM   13  C   UNL     1      76.454   6.308  17.935  1.00  0.00     0.270 C 
BRANCH  13  14
HETATM   14  N   UNL     1      77.256   5.188  17.441  1.00  0.00    -0.075 N 
HETATM   15  C   UNL     1      76.778   3.924  17.976  1.00  0.00     0.267 C 
HETATM   16  H   UNL     1      78.227   5.325  17.724  1.00  0.00     0.277 HD
HETATM   17  H   UNL     1      77.178   5.159  16.425  1.00  0.00     0.277 HD
ENDBRANCH  13  14
ENDBRANCH   3  13
TORSDOF 3
ENDMDL
MODEL 2
REMARK VINA RESULT:      -6.1      1.941      3.286
REMARK  3 active torsions:
REMARK  status: ('A' for Active; 'I' for Inactive)
REMARK    1  A    between atoms: N_1  and  C_2 
REMARK    2  A    between atoms: C_4  and  C_10 
REMARK    3  A    between atoms: N_5  and  C_10 
ROOT
HETATM    1  C   UNL     1      77.346  10.127  17.887  1.00  0.00     0.030 A 
HETATM    2  C   UNL     1      77.575  10.118  16.500  1.00  0.00     0.038 A 
HETATM    3  C   UNL     1      77.544   8.938  15.733  1.00  0.00    -0.031 A 
HETATM    4  C   UNL     1      77.062   8.887  18.479  1.00  0.00     0.029 A 
HETATM    5  C   UNL     1      77.024   7.700  17.740  1.00  0.00     0.003 A 
HETATM    6  C   UNL     1      77.273   7.726  16.372  1.00  0.00     0.009 A 
ENDROOT
BRANCH   1   7
HETATM    7  N   UNL     1      77.413  11.292  18.631  1.00  0.00    -0.381 N 
HETATM    8  C   UNL     1      78.238  11.409  19.834  1.00  0.00     0.123 C 
HETATM    9  C   UNL     1      77.355  11.798  21.018  1.00  0.00     0.020 C 
HETATM   10  C   UNL     1      76.555  13.064  20.715  1.00  0.00     0.003 C 
HETATM   11  C   UNL     1      75.777  12.929  19.407  1.00  0.00     0.020 C 
HETATM   12  C   UNL     1      76.680  12.501  18.249  1.00  0.00     0.123 C 
ENDBRANCH   1   7
BRANCH   3  13
HETATM   13  C   UNL     1      77.835   8.983  14.248  1.00  0.00     0.270 C 
BRANCH  13  14
HETATM   14  N   UNL     1      77.556  10.306  13.687  1.00  0.00    -0.075 N 
HETATM   15  C   UNL     1      77.818  10.336  12.257  1.00  0.00     0.267 C 
HETATM   16  H   UNL     1      78.149  10.995  14.150  1.00  0.00     0.277 HD
HETATM   17  H   UNL     1      76.570  10.520  13.839  1.00  0.00     0.277 HD
ENDBRANCH  13  14
ENDBRANCH   3  13
TORSDOF 3
ENDMDL
MODEL 3
REMARK VINA RESULT:      -6.0      2.954      5.093
REMARK  3 active torsions:
REMARK  status: ('A' for Active; 'I' for Inactive)
REMARK    1  A    between atoms: N_1  and  C_2 
REMARK    2  A    between atoms: C_4  and  C_10 
REMARK    3  A    between atoms: N_5  and  C_10 
ROOT
HETATM    1  C   UNL     1      78.478  12.326  21.197  1.00  0.00     0.030 A 
HETATM    2  C   UNL     1      78.346  11.388  20.158  1.00  0.00     0.038 A 
HETATM    3  C   UNL     1      77.336  11.473  19.182  1.00  0.00    -0.031 A 
HETATM    4  C   UNL     1      77.552  13.380  21.206  1.00  0.00     0.029 A 
HETATM    5  C   UNL     1      76.539  13.489  20.247  1.00  0.00     0.003 A 
HETATM    6  C   UNL     1      76.427  12.533  19.244  1.00  0.00     0.009 A 
ENDROOT
BRANCH   1   7
HETATM    7  N   UNL     1      79.458  12.209  22.167  1.00  0.00    -0.381 N 
HETATM    8  C   UNL     1      79.142  12.085  23.592  1.00  0.00     0.123 C 
HETATM    9  C   UNL     1      79.818  13.218  24.361  1.00  0.00     0.020 C 
HETATM   10  C   UNL     1      81.319  13.254  24.082  1.00  0.00     0.003 C 
HETATM   11  C   UNL     1      81.604  13.297  22.581  1.00  0.00     0.020 C 
HETATM   12  C   UNL     1      80.883  12.174  21.833  1.00  0.00     0.123 C 
ENDBRANCH   1   7
BRANCH   3  13
HETATM   13  C   UNL     1      77.219  10.413  18.108  1.00  0.00     0.270 C 
BRANCH  13  14
HETATM   14  N   UNL     1      77.521   9.081  18.635  1.00  0.00    -0.075 N 
HETATM   15  C   UNL     1      77.069   8.042  17.723  1.00  0.00     0.267 C 
HETATM   16  H   UNL     1      77.052   8.965  19.533  1.00  0.00     0.277 HD
HETATM   17  H   UNL     1      78.532   8.998  18.743  1.00  0.00     0.277 HD
ENDBRANCH  13  14
ENDBRANCH   3  13
TORSDOF 3
ENDMDL
MODEL 4
REMARK VINA RESULT:      -5.4      3.997      7.083
REMARK  3 active torsions:
REMARK  status: ('A' for Active; 'I' for Inactive)
REMARK    1  A    between atoms: N_1  and  C_2 
REMARK    2  A    between atoms: C_4  and  C_10 
REMARK    3  A    between atoms: N_5  and  C_10 
ROOT
HETATM    1  C   UNL     1      78.967  12.550  22.031  1.00  0.00     0.030 A 
HETATM    2  C   UNL     1      78.889  12.211  23.394  1.00  0.00     0.038 A 
HETATM    3  C   UNL     1      79.990  12.307  24.264  1.00  0.00    -0.031 A 
HETATM    4  C   UNL     1      80.210  13.012  21.575  1.00  0.00     0.029 A 
HETATM    5  C   UNL     1      81.321  13.118  22.419  1.00  0.00     0.003 A 
HETATM    6  C   UNL     1      81.212  12.757  23.757  1.00  0.00     0.009 A 
ENDROOT
BRANCH   1   7
HETATM    7  N   UNL     1      77.882  12.419  21.183  1.00  0.00    -0.381 N 
HETATM    8  C   UNL     1      77.498  11.136  20.590  1.00  0.00     0.123 C 
HETATM    9  C   UNL     1      77.498  11.262  19.068  1.00  0.00     0.020 C 
HETATM   10  C   UNL     1      76.614  12.421  18.610  1.00  0.00     0.003 C 
HETATM   11  C   UNL     1      76.994  13.721  19.318  1.00  0.00     0.020 C 
HETATM   12  C   UNL     1      77.023  13.554  20.838  1.00  0.00     0.123 C 
ENDBRANCH   1   7
BRANCH   3  13
HETATM   13  C   UNL     1      79.858  11.893  25.713  1.00  0.00     0.270 C 
BRANCH  13  14
HETATM   14  N   UNL     1      78.777  10.923  25.897  1.00  0.00    -0.075 N 
HETATM   15  C   UNL     1      78.282  10.942  27.265  1.00  0.00     0.267 C 
HETATM   16  H   UNL     1      79.128   9.990  25.682  1.00  0.00     0.277 HD
HETATM   17  H   UNL     1      78.010  11.172  25.273  1.00  0.00     0.277 HD
ENDBRANCH  13  14
ENDBRANCH   3  13
TORSDOF 3
ENDMDL
MODEL 5
REMARK VINA RESULT:      -5.4      4.803      7.826
REMARK  3 active torsions:
REMARK  status: ('A' for Active; 'I' for Inactive)
REMARK    1  A    between atoms: N_1  and  C_2 
REMARK    2  A    between atoms: C_4  and  C_10 
REMARK    3  A    between atoms: N_5  and  C_10 
ROOT
HETATM    1  C   UNL     1      78.981  11.451  24.635  1.00  0.00     0.030 A 
HETATM    2  C   UNL     1      78.565  11.682  23.312  1.00  0.00     0.038 A 
HETATM    3  C   UNL     1      79.293  12.487  22.416  1.00  0.00    -0.031 A 
HETATM    4  C   UNL     1      80.185  12.058  25.023  1.00  0.00     0.029 A 
HETATM    5  C   UNL     1      80.928  12.863  24.153  1.00  0.00     0.003 A 
HETATM    6  C   UNL     1      80.477  13.083  22.856  1.00  0.00     0.009 A 
ENDROOT
BRANCH   1   7
HETATM    7  N   UNL     1      78.237  10.682  25.512  1.00  0.00    -0.381 N 
HETATM    8  C   UNL     1      77.092   9.881  25.075  1.00  0.00     0.123 C 
HETATM    9  C   UNL     1      75.848  10.311  25.850  1.00  0.00     0.020 C 
HETATM   10  C   UNL     1      76.087  10.242  27.358  1.00  0.00     0.003 C 
HETATM   11  C   UNL     1      77.339  11.021  27.757  1.00  0.00     0.020 C 
HETATM   12  C   UNL     1      78.559  10.596  26.937  1.00  0.00     0.123 C 
ENDBRANCH   1   7
BRANCH   3  13
HETATM   13  C   UNL     1      78.777  12.730  21.015  1.00  0.00     0.270 C 
BRANCH  13  14
HETATM   14  N   UNL     1      78.430  11.475  20.346  1.00  0.00    -0.075 N 
HETATM   15  C   UNL     1      77.322  11.661  19.423  1.00  0.00     0.267 C 
HETATM   16  H   UNL     1      78.167  10.786  21.050  1.00  0.00     0.277 HD
HETATM   17  H   UNL     1      79.241  11.156  19.816  1.00  0.00     0.277 HD
ENDBRANCH  13  14
ENDBRANCH   3  13
TORSDOF 3
ENDMDL
MODEL 6
REMARK VINA RESULT:      -5.2      4.045      7.017
REMARK  3 active torsions:
REMARK  status: ('A' for Active; 'I' for Inactive)
REMARK    1  A    between atoms: N_1  and  C_2 
REMARK    2  A    between atoms: C_4  and  C_10 
REMARK    3  A    between atoms: N_5  and  C_10 
ROOT
HETATM    1  C   UNL     1      79.029  12.300  22.551  1.00  0.00     0.030 A 
HETATM    2  C   UNL     1      78.362  11.521  23.513  1.00  0.00     0.038 A 
HETATM    3  C   UNL     1      78.851  11.347  24.821  1.00  0.00    -0.031 A 
HETATM    4  C   UNL     1      80.216  12.922  22.967  1.00  0.00     0.029 A 
HETATM    5  C   UNL     1      80.723  12.766  24.261  1.00  0.00     0.003 A 
HETATM    6  C   UNL     1      80.047  11.974  25.182  1.00  0.00     0.009 A 
ENDROOT
BRANCH   1   7
HETATM    7  N   UNL     1      78.551  12.434  21.259  1.00  0.00    -0.381 N 
HETATM    8  C   UNL     1      77.615  13.492  20.875  1.00  0.00     0.123 C 
HETATM    9  C   UNL     1      76.352  12.864  20.290  1.00  0.00     0.020 C 
HETATM   10  C   UNL     1      76.689  11.915  19.140  1.00  0.00     0.003 C 
HETATM   11  C   UNL     1      77.732  10.882  19.562  1.00  0.00     0.020 C 
HETATM   12  C   UNL     1      78.968  11.539  20.178  1.00  0.00     0.123 C 
ENDBRANCH   1   7
BRANCH   3  13
HETATM   13  C   UNL     1      78.110  10.467  25.803  1.00  0.00     0.270 C 
BRANCH  13  14
HETATM   14  N   UNL     1      76.774  10.123  25.313  1.00  0.00    -0.075 N 
HETATM   15  C   UNL     1      75.762  10.379  26.325  1.00  0.00     0.267 C 
HETATM   16  H   UNL     1      76.756   9.134  25.065  1.00  0.00     0.277 HD
HETATM   17  H   UNL     1      76.570  10.702  24.499  1.00  0.00     0.277 HD
ENDBRANCH  13  14
ENDBRANCH   3  13
TORSDOF 3
ENDMDL
MODEL 7
REMARK VINA RESULT:      -5.2     17.740     19.152
REMARK  3 active torsions:
REMARK  status: ('A' for Active; 'I' for Inactive)
REMARK    1  A    between atoms: N_1  and  C_2 
REMARK    2  A    between atoms: C_4  and  C_10 
REMARK    3  A    between atoms: N_5  and  C_10 
ROOT
HETATM    1  C   UNL     1      64.012   7.951   3.882  1.00  0.00     0.030 A 
HETATM    2  C   UNL     1      64.791   8.402   4.962  1.00  0.00     0.038 A 
HETATM    3  C   UNL     1      65.921   7.704   5.428  1.00  0.00    -0.031 A 
HETATM    4  C   UNL     1      64.430   6.761   3.267  1.00  0.00     0.029 A 
HETATM    5  C   UNL     1      65.549   6.048   3.710  1.00  0.00     0.003 A 
HETATM    6  C   UNL     1      66.286   6.515   4.792  1.00  0.00     0.009 A 
ENDROOT
BRANCH   1   7
HETATM    7  N   UNL     1      62.885   8.634   3.459  1.00  0.00    -0.381 N 
HETATM    8  C   UNL     1      62.272   8.401   2.150  1.00  0.00     0.123 C 
HETATM    9  C   UNL     1      62.228   9.713   1.370  1.00  0.00     0.020 C 
HETATM   10  C   UNL     1      61.528  10.809   2.174  1.00  0.00     0.003 C 
HETATM   11  C   UNL     1      62.146  10.958   3.563  1.00  0.00     0.020 C 
HETATM   12  C   UNL     1      62.211   9.621   4.304  1.00  0.00     0.123 C 
ENDBRANCH   1   7
BRANCH   3  13
HETATM   13  C   UNL     1      66.700   8.218   6.618  1.00  0.00     0.270 C 
BRANCH  13  14
HETATM   14  N   UNL     1      67.410   7.136   7.302  1.00  0.00    -0.075 N 
HETATM   15  C   UNL     1      66.696   6.712   8.496  1.00  0.00     0.267 C 
HETATM   16  H   UNL     1      68.339   7.463   7.567  1.00  0.00     0.277 HD
HETATM   17  H   UNL     1      67.476   6.341   6.667  1.00  0.00     0.277 HD
ENDBRANCH  13  14
ENDBRANCH   3  13
TORSDOF 3
ENDMDL
MODEL 8
REMARK VINA RESULT:      -5.1     18.862     20.325
REMARK  3 active torsions:
REMARK  status: ('A' for Active; 'I' for Inactive)
REMARK    1  A    between atoms: N_1  and  C_2 
REMARK    2  A    between atoms: C_4  and  C_10 
REMARK    3  A    between atoms: N_5  and  C_10 
ROOT
HETATM    1  C   UNL     1      63.432   8.993   4.713  1.00  0.00     0.030 A 
HETATM    2  C   UNL     1      62.966   8.689   3.421  1.00  0.00     0.038 A 
HETATM    3  C   UNL     1      62.182   9.581   2.667  1.00  0.00    -0.031 A 
HETATM    4  C   UNL     1      63.087  10.256   5.218  1.00  0.00     0.029 A 
HETATM    5  C   UNL     1      62.309  11.162   4.489  1.00  0.00     0.003 A 
HETATM    6  C   UNL     1      61.851  10.821   3.221  1.00  0.00     0.009 A 
ENDROOT
BRANCH   1   7
HETATM    7  N   UNL     1      64.175   8.091   5.453  1.00  0.00    -0.381 N 
HETATM    8  C   UNL     1      65.637   8.140   5.513  1.00  0.00     0.123 C 
HETATM    9  C   UNL     1      66.209   6.807   5.035  1.00  0.00     0.020 C 
HETATM   10  C   UNL     1      65.617   5.640   5.823  1.00  0.00     0.003 C 
HETATM   11  C   UNL     1      64.090   5.676   5.805  1.00  0.00     0.020 C 
HETATM   12  C   UNL     1      63.548   7.035   6.251  1.00  0.00     0.123 C 
ENDBRANCH   1   7
BRANCH   3  13
HETATM   13  C   UNL     1      61.678   9.186   1.297  1.00  0.00     0.270 C 
BRANCH  13  14
HETATM   14  N   UNL     1      60.244   8.894   1.316  1.00  0.00    -0.075 N 
HETATM   15  C   UNL     1      59.917   7.806   0.408  1.00  0.00     0.267 C 
HETATM   16  H   UNL     1      59.731   9.729   1.035  1.00  0.00     0.277 HD
HETATM   17  H   UNL     1      59.984   8.613   2.262  1.00  0.00     0.277 HD
ENDBRANCH  13  14
ENDBRANCH   3  13
TORSDOF 3
ENDMDL
MODEL 9
REMARK VINA RESULT:      -5.0     18.614     20.135
REMARK  3 active torsions:
REMARK  status: ('A' for Active; 'I' for Inactive)
REMARK    1  A    between atoms: N_1  and  C_2 
REMARK    2  A    between atoms: C_4  and  C_10 
REMARK    3  A    between atoms: N_5  and  C_10 
ROOT
HETATM    1  C   UNL     1      63.840   8.664   4.486  1.00  0.00     0.030 A 
HETATM    2  C   UNL     1      63.124   8.550   3.281  1.00  0.00     0.038 A 
HETATM    3  C   UNL     1      62.176   9.505   2.867  1.00  0.00    -0.031 A 
HETATM    4  C   UNL     1      63.575   9.801   5.263  1.00  0.00     0.029 A 
HETATM    5  C   UNL     1      62.638  10.766   4.875  1.00  0.00     0.003 A 
HETATM    6  C   UNL     1      61.936  10.613   3.685  1.00  0.00     0.009 A 
ENDROOT
BRANCH   1   7
HETATM    7  N   UNL     1      64.744   7.699   4.892  1.00  0.00    -0.381 N 
HETATM    8  C   UNL     1      65.548   7.837   6.108  1.00  0.00     0.123 C 
HETATM    9  C   UNL     1      67.030   7.754   5.748  1.00  0.00     0.020 C 
HETATM   10  C   UNL     1      67.337   6.475   4.970  1.00  0.00     0.003 C 
HETATM   11  C   UNL     1      66.418   6.329   3.759  1.00  0.00     0.020 C 
HETATM   12  C   UNL     1      64.943   6.455   4.144  1.00  0.00     0.123 C 
ENDBRANCH   1   7
BRANCH   3  13
HETATM   13  C   UNL     1      61.409   9.312   1.578  1.00  0.00     0.270 C 
BRANCH  13  14
HETATM   14  N   UNL     1      60.162   8.579   1.801  1.00  0.00    -0.075 N 
HETATM   15  C   UNL     1      59.572   8.152   0.542  1.00  0.00     0.267 C 
HETATM   16  H   UNL     1      59.503   9.184   2.290  1.00  0.00     0.277 HD
HETATM   17  H   UNL     1      60.370   7.749   2.357  1.00  0.00     0.277 HD
ENDBRANCH  13  14
ENDBRANCH   3  13
TORSDOF 3
ENDMDL
