MODEL 1
REMARK VINA RESULT:      -5.5      0.000      0.000
REMARK  3 active torsions:
REMARK  status: ('A' for Active; 'I' for Inactive)
REMARK    1  A    between atoms: C_1  and  C_5 
REMARK    2  A    between atoms: C_6  and  C_12 
REMARK    3  A    between atoms: O_7  and  C_12 
ROOT
HETATM    1  C   UNL     1      64.223   8.061   4.180  1.00  0.00    -0.025 A 
HETATM    2  C   UNL     1      64.135   9.156   5.063  1.00  0.00     0.021 A 
HETATM    3  C   UNL     1      63.084  10.090   5.000  1.00  0.00    -0.034 A 
HETATM    4  C   UNL     1      63.190   7.922   3.236  1.00  0.00     0.012 A 
HETATM    5  C   UNL     1      62.128   8.831   3.174  1.00  0.00     0.002 A 
HETATM    6  C   UNL     1      62.079   9.914   4.047  1.00  0.00     0.009 A 
ENDROOT
BRANCH   1   7
HETATM    7  C   UNL     1      65.364   7.114   4.237  1.00  0.00    -0.023 A 
HETATM    8  C   UNL     1      66.440   7.298   5.116  1.00  0.00     0.029 A 
HETATM    9  C   UNL     1      67.479   6.376   5.130  1.00  0.00     0.088 A 
HETATM   10  N   UNL     1      67.535   5.290   4.333  1.00  0.00    -0.375 N 
HETATM   11  C   UNL     1      66.500   5.119   3.488  1.00  0.00     0.088 A 
ATOM     12  HN  UNL     1      68.316   4.635   4.368  1.00  0.00     0.164 HD
HETATM   13  C   UNL     1      65.415   5.980   3.410  1.00  0.00     0.029 A 
ENDBRANCH   1   7
BRANCH   3  14
HETATM   14  C   UNL     1      63.069  11.268   5.937  1.00  0.00     0.202 C 
BRANCH  14  15
HETATM   15  O   UNL     1      64.365  11.502   6.471  1.00  0.00    -0.396 OA
HETATM   16  H   UNL     1      64.330  11.447   7.439  1.00  0.00     0.209 HD
ENDBRANCH  14  15
ENDBRANCH   3  14
TORSDOF 3
ENDMDL
MODEL 2
REMARK VINA RESULT:      -5.5      3.099      4.991
REMARK  3 active torsions:
REMARK  status: ('A' for Active; 'I' for Inactive)
REMARK    1  A    between atoms: C_1  and  C_5 
REMARK    2  A    between atoms: C_6  and  C_12 
REMARK    3  A    between atoms: O_7  and  C_12 
ROOT
HETATM    1  C   UNL     1      63.379   8.422   4.768  1.00  0.00    -0.025 A 
HETATM    2  C   UNL     1      64.754   8.500   5.067  1.00  0.00     0.021 A 
HETATM    3  C   UNL     1      65.376   7.624   5.976  1.00  0.00    -0.034 A 
HETATM    4  C   UNL     1      62.647   7.404   5.405  1.00  0.00     0.012 A 
HETATM    5  C   UNL     1      63.255   6.514   6.297  1.00  0.00     0.002 A 
HETATM    6  C   UNL     1      64.612   6.628   6.587  1.00  0.00     0.009 A 
ENDROOT
BRANCH   1   7
HETATM    7  C   UNL     1      62.736   9.384   3.839  1.00  0.00    -0.023 A 
HETATM    8  C   UNL     1      62.389  10.684   4.235  1.00  0.00     0.029 A 
HETATM    9  C   UNL     1      61.795  11.544   3.321  1.00  0.00     0.088 A 
HETATM   10  N   UNL     1      61.510  11.211   2.046  1.00  0.00    -0.375 N 
HETATM   11  C   UNL     1      61.842   9.960   1.671  1.00  0.00     0.088 A 
ATOM     12  HN  UNL     1      61.069  11.868   1.403  1.00  0.00     0.164 HD
HETATM   13  C   UNL     1      62.448   9.036   2.509  1.00  0.00     0.029 A 
ENDBRANCH   1   7
BRANCH   3  14
HETATM   14  C   UNL     1      66.838   7.787   6.294  1.00  0.00     0.202 C 
BRANCH  14  15
HETATM   15  O   UNL     1      67.023   8.728   7.342  1.00  0.00    -0.396 OA
HETATM   16  H   UNL     1      66.368   9.438   7.259  1.00  0.00     0.209 HD
ENDBRANCH  14  15
ENDBRANCH   3  14
TORSDOF 3
ENDMDL
MODEL 3
REMARK VINA RESULT:      -5.3      2.230      3.111
REMARK  3 active torsions:
REMARK  status: ('A' for Active; 'I' for Inactive)
REMARK    1  A    between atoms: C_1  and  C_5 
REMARK    2  A    between atoms: C_6  and  C_12 
REMARK    3  A    between atoms: O_7  and  C_12 
ROOT
HETATM    1  C   UNL     1      62.658   8.935   2.686  1.00  0.00    -0.025 A 
HETATM    2  C   UNL     1      62.865   9.408   3.997  1.00  0.00     0.021 A 
HETATM    3  C   UNL     1      62.518  10.714   4.389  1.00  0.00    -0.034 A 
HETATM    4  C   UNL     1      62.057   9.825   1.778  1.00  0.00     0.012 A 
HETATM    5  C   UNL     1      61.689  11.120   2.157  1.00  0.00     0.002 A 
HETATM    6  C   UNL     1      61.925  11.566   3.455  1.00  0.00     0.009 A 
ENDROOT
BRANCH   1   7
HETATM    7  C   UNL     1      63.072   7.568   2.284  1.00  0.00    -0.023 A 
HETATM    8  C   UNL     1      62.630   6.977   1.092  1.00  0.00     0.029 A 
HETATM    9  C   UNL     1      63.055   5.696   0.764  1.00  0.00     0.088 A 
HETATM   10  N   UNL     1      63.878   4.954   1.531  1.00  0.00    -0.375 N 
HETATM   11  C   UNL     1      64.298   5.525   2.677  1.00  0.00     0.088 A 
ATOM     12  HN  UNL     1      64.167   4.014   1.260  1.00  0.00     0.164 HD
HETATM   13  C   UNL     1      63.936   6.801   3.083  1.00  0.00     0.029 A 
ENDBRANCH   1   7
BRANCH   3  14
HETATM   14  C   UNL     1      62.810  11.180   5.791  1.00  0.00     0.202 C 
BRANCH  14  15
HETATM   15  O   UNL     1      64.207  11.157   6.048  1.00  0.00    -0.396 OA
HETATM   16  H   UNL     1      64.366  11.348   6.985  1.00  0.00     0.209 HD
ENDBRANCH  14  15
ENDBRANCH   3  14
TORSDOF 3
ENDMDL
MODEL 4
REMARK VINA RESULT:      -5.3      1.901      2.315
REMARK  3 active torsions:
REMARK  status: ('A' for Active; 'I' for Inactive)
REMARK    1  A    between atoms: C_1  and  C_5 
REMARK    2  A    between atoms: C_6  and  C_12 
REMARK    3  A    between atoms: O_7  and  C_12 
ROOT
HETATM    1  C   UNL     1      64.522   7.939   4.577  1.00  0.00    -0.025 A 
HETATM    2  C   UNL     1      63.853   9.157   4.806  1.00  0.00     0.021 A 
HETATM    3  C   UNL     1      62.769   9.580   4.015  1.00  0.00    -0.034 A 
HETATM    4  C   UNL     1      64.041   7.138   3.526  1.00  0.00     0.012 A 
HETATM    5  C   UNL     1      62.952   7.536   2.742  1.00  0.00     0.002 A 
HETATM    6  C   UNL     1      62.323   8.755   2.981  1.00  0.00     0.009 A 
ENDROOT
BRANCH   1   7
HETATM    7  C   UNL     1      65.691   7.534   5.397  1.00  0.00    -0.023 A 
HETATM    8  C   UNL     1      67.001   7.580   4.900  1.00  0.00     0.029 A 
HETATM    9  C   UNL     1      68.057   7.195   5.715  1.00  0.00     0.088 A 
HETATM   10  N   UNL     1      67.913   6.759   6.983  1.00  0.00    -0.375 N 
HETATM   11  C   UNL     1      66.652   6.713   7.455  1.00  0.00     0.088 A 
ATOM     12  HN  UNL     1      68.712   6.481   7.551  1.00  0.00     0.164 HD
HETATM   13  C   UNL     1      65.537   7.088   6.720  1.00  0.00     0.029 A 
ENDBRANCH   1   7
BRANCH   3  14
HETATM   14  C   UNL     1      62.124  10.915   4.275  1.00  0.00     0.202 C 
BRANCH  14  15
HETATM   15  O   UNL     1      61.445  11.381   3.117  1.00  0.00    -0.396 OA
HETATM   16  H   UNL     1      61.966  11.164   2.328  1.00  0.00     0.209 HD
ENDBRANCH  14  15
ENDBRANCH   3  14
TORSDOF 3
ENDMDL
MODEL 5
REMARK VINA RESULT:      -5.3      2.634      3.431
REMARK  3 active torsions:
REMARK  status: ('A' for Active; 'I' for Inactive)
REMARK    1  A    between atoms: C_1  and  C_5 
REMARK    2  A    between atoms: C_6  and  C_12 
REMARK    3  A    between atoms: O_7  and  C_12 
ROOT
HETATM    1  C   UNL     1      63.446   9.048   4.665  1.00  0.00    -0.025 A 
HETATM    2  C   UNL     1      62.972   8.750   3.372  1.00  0.00     0.021 A 
HETATM    3  C   UNL     1      62.155   9.637   2.647  1.00  0.00    -0.034 A 
HETATM    4  C   UNL     1      63.085  10.297   5.201  1.00  0.00     0.012 A 
HETATM    5  C   UNL     1      62.289  11.198   4.486  1.00  0.00     0.002 A 
HETATM    6  C   UNL     1      61.820  10.867   3.217  1.00  0.00     0.009 A 
ENDROOT
BRANCH   1   7
HETATM    7  C   UNL     1      64.270   8.078   5.428  1.00  0.00    -0.023 A 
HETATM    8  C   UNL     1      63.710   6.954   6.052  1.00  0.00     0.029 A 
HETATM    9  C   UNL     1      64.531   6.076   6.747  1.00  0.00     0.088 A 
HETATM   10  N   UNL     1      65.864   6.232   6.878  1.00  0.00    -0.375 N 
HETATM   11  C   UNL     1      66.397   7.315   6.280  1.00  0.00     0.088 A 
ATOM     12  HN  UNL     1      66.435   5.569   7.400  1.00  0.00     0.164 HD
HETATM   13  C   UNL     1      65.659   8.240   5.556  1.00  0.00     0.029 A 
ENDBRANCH   1   7
BRANCH   3  14
HETATM   14  C   UNL     1      61.638   9.244   1.289  1.00  0.00     0.202 C 
BRANCH  14  15
HETATM   15  O   UNL     1      60.261   8.897   1.357  1.00  0.00    -0.396 OA
HETATM   16  H   UNL     1      59.753   9.656   1.684  1.00  0.00     0.209 HD
ENDBRANCH  14  15
ENDBRANCH   3  14
TORSDOF 3
ENDMDL
MODEL 6
REMARK VINA RESULT:      -5.1      4.530      6.338
REMARK  3 active torsions:
REMARK  status: ('A' for Active; 'I' for Inactive)
REMARK    1  A    between atoms: C_1  and  C_5 
REMARK    2  A    between atoms: C_6  and  C_12 
REMARK    3  A    between atoms: O_7  and  C_12 
ROOT
HETATM    1  C   UNL     1      67.912   4.424   6.794  1.00  0.00    -0.025 A 
HETATM    2  C   UNL     1      68.007   5.816   6.597  1.00  0.00     0.021 A 
HETATM    3  C   UNL     1      67.672   6.427   5.375  1.00  0.00    -0.034 A 
HETATM    4  C   UNL     1      67.438   3.660   5.713  1.00  0.00     0.012 A 
HETATM    5  C   UNL     1      67.083   4.255   4.497  1.00  0.00     0.002 A 
HETATM    6  C   UNL     1      67.206   5.631   4.327  1.00  0.00     0.009 A 
ENDROOT
BRANCH   1   7
HETATM    7  C   UNL     1      68.313   3.797   8.078  1.00  0.00    -0.023 A 
HETATM    8  C   UNL     1      67.660   2.667   8.590  1.00  0.00     0.029 A 
HETATM    9  C   UNL     1      68.082   2.118   9.794  1.00  0.00     0.088 A 
HETATM   10  N   UNL     1      69.096   2.611  10.534  1.00  0.00    -0.375 N 
HETATM   11  C   UNL     1      69.718   3.699  10.040  1.00  0.00     0.088 A 
ATOM     12  HN  UNL     1      69.377   2.184  11.417  1.00  0.00     0.164 HD
HETATM   13  C   UNL     1      69.375   4.308   8.842  1.00  0.00     0.029 A 
ENDBRANCH   1   7
BRANCH   3  14
HETATM   14  C   UNL     1      67.840   7.913   5.207  1.00  0.00     0.202 C 
BRANCH  14  15
HETATM   15  O   UNL     1      69.218   8.263   5.183  1.00  0.00    -0.396 OA
HETATM   16  H   UNL     1      69.321   9.141   4.784  1.00  0.00     0.209 HD
ENDBRANCH  14  15
ENDBRANCH   3  14
TORSDOF 3
ENDMDL
MODEL 7
REMARK VINA RESULT:      -5.1      5.012      7.767
REMARK  3 active torsions:
REMARK  status: ('A' for Active; 'I' for Inactive)
REMARK    1  A    between atoms: C_1  and  C_5 
REMARK    2  A    between atoms: C_6  and  C_12 
REMARK    3  A    between atoms: O_7  and  C_12 
ROOT
HETATM    1  C   UNL     1      68.084   5.115   8.102  1.00  0.00    -0.025 A 
HETATM    2  C   UNL     1      67.628   3.940   8.732  1.00  0.00     0.021 A 
HETATM    3  C   UNL     1      68.484   3.103   9.473  1.00  0.00    -0.034 A 
HETATM    4  C   UNL     1      69.443   5.437   8.266  1.00  0.00     0.012 A 
HETATM    5  C   UNL     1      70.302   4.626   9.015  1.00  0.00     0.002 A 
HETATM    6  C   UNL     1      69.826   3.460   9.610  1.00  0.00     0.009 A 
ENDROOT
BRANCH   1   7
HETATM    7  C   UNL     1      67.173   5.958   7.290  1.00  0.00    -0.023 A 
HETATM    8  C   UNL     1      67.646   6.805   6.277  1.00  0.00     0.029 A 
HETATM    9  C   UNL     1      66.747   7.567   5.544  1.00  0.00     0.088 A 
HETATM   10  N   UNL     1      65.413   7.561   5.744  1.00  0.00    -0.375 N 
HETATM   11  C   UNL     1      64.963   6.748   6.720  1.00  0.00     0.088 A 
ATOM     12  HN  UNL     1      64.782   8.137   5.188  1.00  0.00     0.164 HD
HETATM   13  C   UNL     1      65.784   5.943   7.496  1.00  0.00     0.029 A 
ENDBRANCH   1   7
BRANCH   3  14
HETATM   14  C   UNL     1      67.951   1.834  10.082  1.00  0.00     0.202 C 
BRANCH  14  15
HETATM   15  O   UNL     1      68.570   1.579  11.335  1.00  0.00    -0.396 OA
HETATM   16  H   UNL     1      69.515   1.407  11.200  1.00  0.00     0.209 HD
ENDBRANCH  14  15
ENDBRANCH   3  14
TORSDOF 3
ENDMDL
MODEL 8
REMARK VINA RESULT:      -5.1      2.068      2.747
REMARK  3 active torsions:
REMARK  status: ('A' for Active; 'I' for Inactive)
REMARK    1  A    between atoms: C_1  and  C_5 
REMARK    2  A    between atoms: C_6  and  C_12 
REMARK    3  A    between atoms: O_7  and  C_12 
ROOT
HETATM    1  C   UNL     1      63.114   7.982   3.123  1.00  0.00    -0.025 A 
HETATM    2  C   UNL     1      62.720   9.333   3.205  1.00  0.00     0.021 A 
HETATM    3  C   UNL     1      62.069   9.991   2.146  1.00  0.00    -0.034 A 
HETATM    4  C   UNL     1      62.803   7.301   1.933  1.00  0.00     0.012 A 
HETATM    5  C   UNL     1      62.138   7.937   0.879  1.00  0.00     0.002 A 
HETATM    6  C   UNL     1      61.779   9.278   0.982  1.00  0.00     0.009 A 
ENDROOT
BRANCH   1   7
HETATM    7  C   UNL     1      63.840   7.321   4.236  1.00  0.00    -0.023 A 
HETATM    8  C   UNL     1      63.356   7.334   5.552  1.00  0.00     0.029 A 
HETATM    9  C   UNL     1      64.074   6.694   6.553  1.00  0.00     0.088 A 
HETATM   10  N   UNL     1      65.240   6.047   6.350  1.00  0.00    -0.375 N 
HETATM   11  C   UNL     1      65.702   6.039   5.085  1.00  0.00     0.088 A 
ATOM     12  HN  UNL     1      65.742   5.590   7.111  1.00  0.00     0.164 HD
HETATM   13  C   UNL     1      65.050   6.642   4.019  1.00  0.00     0.029 A 
ENDBRANCH   1   7
BRANCH   3  14
HETATM   14  C   UNL     1      61.716  11.449   2.272  1.00  0.00     0.202 C 
BRANCH  14  15
HETATM   15  O   UNL     1      61.897  11.897   3.609  1.00  0.00    -0.396 OA
HETATM   16  H   UNL     1      61.051  11.854   4.081  1.00  0.00     0.209 HD
ENDBRANCH  14  15
ENDBRANCH   3  14
TORSDOF 3
ENDMDL
MODEL 9
REMARK VINA RESULT:      -5.0      3.157      5.006
REMARK  3 active torsions:
REMARK  status: ('A' for Active; 'I' for Inactive)
REMARK    1  A    between atoms: C_1  and  C_5 
REMARK    2  A    between atoms: C_6  and  C_12 
REMARK    3  A    between atoms: O_7  and  C_12 
ROOT
HETATM    1  C   UNL     1      62.110   8.931   2.824  1.00  0.00    -0.025 A 
HETATM    2  C   UNL     1      63.145   8.329   3.568  1.00  0.00     0.021 A 
HETATM    3  C   UNL     1      63.765   8.977   4.653  1.00  0.00    -0.034 A 
HETATM    4  C   UNL     1      61.698  10.212   3.231  1.00  0.00     0.012 A 
HETATM    5  C   UNL     1      62.291  10.860   4.319  1.00  0.00     0.002 A 
HETATM    6  C   UNL     1      63.325  10.248   5.023  1.00  0.00     0.009 A 
ENDROOT
BRANCH   1   7
HETATM    7  C   UNL     1      61.502   8.247   1.657  1.00  0.00    -0.023 A 
HETATM    8  C   UNL     1      60.114   8.205   1.458  1.00  0.00     0.029 A 
HETATM    9  C   UNL     1      59.600   7.555   0.344  1.00  0.00     0.088 A 
HETATM   10  N   UNL     1      60.356   6.937  -0.585  1.00  0.00    -0.375 N 
HETATM   11  C   UNL     1      61.689   6.977  -0.389  1.00  0.00     0.088 A 
ATOM     12  HN  UNL     1      59.943   6.466  -1.390  1.00  0.00     0.164 HD
HETATM   13  C   UNL     1      62.293   7.610   0.687  1.00  0.00     0.029 A 
ENDBRANCH   1   7
BRANCH   3  14
HETATM   14  C   UNL     1      64.900   8.305   5.379  1.00  0.00     0.202 C 
BRANCH  14  15
HETATM   15  O   UNL     1      65.621   9.245   6.165  1.00  0.00    -0.396 OA
HETATM   16  H   UNL     1      65.678  10.088   5.688  1.00  0.00     0.209 HD
ENDBRANCH  14  15
ENDBRANCH   3  14
TORSDOF 3
ENDMDL
