MODEL 1
REMARK VINA RESULT:      -6.6      0.000      0.000
REMARK  3 active torsions:
REMARK  status: ('A' for Active; 'I' for Inactive)
REMARK    1  A    between atoms: C_1  and  C_4 
REMARK    2  A    between atoms: C_9  and  C_13 
REMARK    3  A    between atoms: O_10  and  C_13 
ROOT
HETATM    1  C   UNL     1      77.752   9.922  17.815  1.00  0.00    -0.026 A 
HETATM    2  C   UNL     1      76.843  10.954  18.116  1.00  0.00     0.013 A 
HETATM    3  C   UNL     1      78.870   9.796  18.660  1.00  0.00     0.013 A 
HETATM    4  C   UNL     1      77.040  11.817  19.201  1.00  0.00     0.010 A 
HETATM    5  C   UNL     1      79.065  10.648  19.753  1.00  0.00     0.010 A 
HETATM    6  C   UNL     1      78.152  11.670  20.033  1.00  0.00    -0.035 A 
ENDROOT
BRANCH   1   7
HETATM    7  C   UNL     1      77.538   9.009  16.665  1.00  0.00    -0.023 A 
HETATM    8  C   UNL     1      77.116   7.683  16.844  1.00  0.00     0.029 A 
HETATM    9  C   UNL     1      76.944   6.863  15.737  1.00  0.00     0.088 A 
HETATM   10  N   UNL     1      77.147   7.261  14.467  1.00  0.00    -0.375 N 
HETATM   11  C   UNL     1      77.545   8.537  14.298  1.00  0.00     0.088 A 
ATOM     12  HN  UNL     1      77.008   6.631  13.676  1.00  0.00     0.164 HD
HETATM   13  C   UNL     1      77.753   9.427  15.343  1.00  0.00     0.029 A 
ENDBRANCH   1   7
BRANCH   6  14
HETATM   14  C   UNL     1      78.375  12.588  21.204  1.00  0.00     0.202 C 
BRANCH  14  15
HETATM   15  O   UNL     1      78.776  11.849  22.350  1.00  0.00    -0.396 OA
HETATM   16  H   UNL     1      79.742  11.764  22.358  1.00  0.00     0.209 HD
ENDBRANCH  14  15
ENDBRANCH   6  14
TORSDOF 3
ENDMDL
MODEL 2
REMARK VINA RESULT:      -5.8      4.739      6.970
REMARK  3 active torsions:
REMARK  status: ('A' for Active; 'I' for Inactive)
REMARK    1  A    between atoms: C_1  and  C_4 
REMARK    2  A    between atoms: C_9  and  C_13 
REMARK    3  A    between atoms: O_10  and  C_13 
ROOT
HETATM    1  C   UNL     1      78.500  12.492  21.248  1.00  0.00    -0.026 A 
HETATM    2  C   UNL     1      77.600  13.546  21.002  1.00  0.00     0.013 A 
HETATM    3  C   UNL     1      78.518  11.442  20.312  1.00  0.00     0.013 A 
HETATM    4  C   UNL     1      76.758  13.551  19.882  1.00  0.00     0.010 A 
HETATM    5  C   UNL     1      77.688  11.448  19.184  1.00  0.00     0.010 A 
HETATM    6  C   UNL     1      76.797  12.502  18.960  1.00  0.00    -0.035 A 
ENDROOT
BRANCH   1   7
HETATM    7  C   UNL     1      79.391  12.492  22.435  1.00  0.00    -0.023 A 
HETATM    8  C   UNL     1      78.966  12.000  23.677  1.00  0.00     0.029 A 
HETATM    9  C   UNL     1      79.833  12.036  24.761  1.00  0.00     0.088 A 
HETATM   10  N   UNL     1      81.091  12.512  24.704  1.00  0.00    -0.375 N 
HETATM   11  C   UNL     1      81.498  12.978  23.507  1.00  0.00     0.088 A 
ATOM     12  HN  UNL     1      81.702  12.521  25.522  1.00  0.00     0.164 HD
HETATM   13  C   UNL     1      80.701  12.992  22.370  1.00  0.00     0.029 A 
ENDBRANCH   1   7
BRANCH   6  14
HETATM   14  C   UNL     1      75.901  12.496  17.751  1.00  0.00     0.202 C 
BRANCH  14  15
HETATM   15  O   UNL     1      76.611  12.936  16.601  1.00  0.00    -0.396 OA
HETATM   16  H   UNL     1      75.988  13.073  15.870  1.00  0.00     0.209 HD
ENDBRANCH  14  15
ENDBRANCH   6  14
TORSDOF 3
ENDMDL
MODEL 3
REMARK VINA RESULT:      -5.6      3.458      5.536
REMARK  3 active torsions:
REMARK  status: ('A' for Active; 'I' for Inactive)
REMARK    1  A    between atoms: C_1  and  C_4 
REMARK    2  A    between atoms: C_9  and  C_13 
REMARK    3  A    between atoms: O_10  and  C_13 
ROOT
HETATM    1  C   UNL     1      78.913  12.379  22.000  1.00  0.00    -0.026 A 
HETATM    2  C   UNL     1      80.160  13.030  22.042  1.00  0.00     0.013 A 
HETATM    3  C   UNL     1      78.463  11.793  23.197  1.00  0.00     0.013 A 
HETATM    4  C   UNL     1      80.921  13.091  23.217  1.00  0.00     0.010 A 
HETATM    5  C   UNL     1      79.214  11.860  24.377  1.00  0.00     0.010 A 
HETATM    6  C   UNL     1      80.454  12.508  24.397  1.00  0.00    -0.035 A 
ENDROOT
BRANCH   1   7
HETATM    7  C   UNL     1      78.109  12.320  20.754  1.00  0.00    -0.023 A 
HETATM    8  C   UNL     1      77.314  13.396  20.337  1.00  0.00     0.029 A 
HETATM    9  C   UNL     1      76.568  13.287  19.171  1.00  0.00     0.088 A 
HETATM   10  N   UNL     1      76.560  12.196  18.382  1.00  0.00    -0.375 N 
HETATM   11  C   UNL     1      77.332  11.165  18.782  1.00  0.00     0.088 A 
ATOM     12  HN  UNL     1      76.002  12.151  17.530  1.00  0.00     0.164 HD
HETATM   13  C   UNL     1      78.103  11.179  19.937  1.00  0.00     0.029 A 
ENDBRANCH   1   7
BRANCH   6  14
HETATM   14  C   UNL     1      81.259  12.568  25.666  1.00  0.00     0.202 C 
BRANCH  14  15
HETATM   15  O   UNL     1      81.270  11.302  26.312  1.00  0.00    -0.396 OA
HETATM   16  H   UNL     1      80.869  11.384  27.192  1.00  0.00     0.209 HD
ENDBRANCH  14  15
ENDBRANCH   6  14
TORSDOF 3
ENDMDL
MODEL 4
REMARK VINA RESULT:      -5.5      4.289      7.197
REMARK  3 active torsions:
REMARK  status: ('A' for Active; 'I' for Inactive)
REMARK    1  A    between atoms: C_1  and  C_4 
REMARK    2  A    between atoms: C_9  and  C_13 
REMARK    3  A    between atoms: O_10  and  C_13 
ROOT
HETATM    1  C   UNL     1      79.300  11.875  21.238  1.00  0.00    -0.026 A 
HETATM    2  C   UNL     1      77.955  12.190  20.972  1.00  0.00     0.013 A 
HETATM    3  C   UNL     1      79.916  10.946  20.380  1.00  0.00     0.013 A 
HETATM    4  C   UNL     1      77.258  11.605  19.906  1.00  0.00     0.010 A 
HETATM    5  C   UNL     1      79.228  10.368  19.307  1.00  0.00     0.010 A 
HETATM    6  C   UNL     1      77.890  10.690  19.062  1.00  0.00    -0.035 A 
ENDROOT
BRANCH   1   7
HETATM    7  C   UNL     1      80.035  12.500  22.366  1.00  0.00    -0.023 A 
HETATM    8  C   UNL     1      81.206  13.245  22.163  1.00  0.00     0.029 A 
HETATM    9  C   UNL     1      81.865  13.797  23.252  1.00  0.00     0.088 A 
HETATM   10  N   UNL     1      81.447  13.675  24.527  1.00  0.00    -0.375 N 
HETATM   11  C   UNL     1      80.318  12.964  24.718  1.00  0.00     0.088 A 
ATOM     12  HN  UNL     1      81.956  14.097  25.304  1.00  0.00     0.164 HD
HETATM   13  C   UNL     1      79.596  12.368  23.693  1.00  0.00     0.029 A 
ENDBRANCH   1   7
BRANCH   6  14
HETATM   14  C   UNL     1      77.154  10.056  17.912  1.00  0.00     0.202 C 
BRANCH  14  15
HETATM   15  O   UNL     1      77.678  10.511  16.671  1.00  0.00    -0.396 OA
HETATM   16  H   UNL     1      77.063  10.281  15.957  1.00  0.00     0.209 HD
ENDBRANCH  14  15
ENDBRANCH   6  14
TORSDOF 3
ENDMDL
MODEL 5
REMARK VINA RESULT:      -5.4     13.835     15.476
REMARK  3 active torsions:
REMARK  status: ('A' for Active; 'I' for Inactive)
REMARK    1  A    between atoms: C_1  and  C_4 
REMARK    2  A    between atoms: C_9  and  C_13 
REMARK    3  A    between atoms: O_10  and  C_13 
ROOT
HETATM    1  C   UNL     1      68.137   4.886   7.501  1.00  0.00    -0.026 A 
HETATM    2  C   UNL     1      68.268   3.564   7.034  1.00  0.00     0.013 A 
HETATM    3  C   UNL     1      68.590   5.145   8.807  1.00  0.00     0.013 A 
HETATM    4  C   UNL     1      68.818   2.552   7.831  1.00  0.00     0.010 A 
HETATM    5  C   UNL     1      69.152   4.140   9.603  1.00  0.00     0.010 A 
HETATM    6  C   UNL     1      69.269   2.832   9.123  1.00  0.00    -0.035 A 
ENDROOT
BRANCH   1   7
HETATM    7  C   UNL     1      67.555   5.955   6.652  1.00  0.00    -0.023 A 
HETATM    8  C   UNL     1      67.571   5.877   5.252  1.00  0.00     0.029 A 
HETATM    9  C   UNL     1      67.027   6.910   4.501  1.00  0.00     0.088 A 
HETATM   10  N   UNL     1      66.460   8.010   5.033  1.00  0.00    -0.375 N 
HETATM   11  C   UNL     1      66.440   8.079   6.379  1.00  0.00     0.088 A 
ATOM     12  HN  UNL     1      66.067   8.749   4.450  1.00  0.00     0.164 HD
HETATM   13  C   UNL     1      66.967   7.100   7.211  1.00  0.00     0.029 A 
ENDBRANCH   1   7
BRANCH   6  14
HETATM   14  C   UNL     1      69.865   1.755   9.989  1.00  0.00     0.202 C 
BRANCH  14  15
HETATM   15  O   UNL     1      69.821   2.133  11.359  1.00  0.00    -0.396 OA
HETATM   16  H   UNL     1      68.896   2.203  11.645  1.00  0.00     0.209 HD
ENDBRANCH  14  15
ENDBRANCH   6  14
TORSDOF 3
ENDMDL
MODEL 6
REMARK VINA RESULT:      -5.4      6.053      8.166
REMARK  3 active torsions:
REMARK  status: ('A' for Active; 'I' for Inactive)
REMARK    1  A    between atoms: C_1  and  C_4 
REMARK    2  A    between atoms: C_9  and  C_13 
REMARK    3  A    between atoms: O_10  and  C_13 
ROOT
HETATM    1  C   UNL     1      75.263   2.531  17.259  1.00  0.00    -0.026 A 
HETATM    2  C   UNL     1      74.642   3.602  16.591  1.00  0.00     0.013 A 
HETATM    3  C   UNL     1      76.461   2.817  17.939  1.00  0.00     0.013 A 
HETATM    4  C   UNL     1      75.188   4.892  16.596  1.00  0.00     0.010 A 
HETATM    5  C   UNL     1      77.005   4.107  17.958  1.00  0.00     0.010 A 
HETATM    6  C   UNL     1      76.375   5.157  17.284  1.00  0.00    -0.035 A 
ENDROOT
BRANCH   1   7
HETATM    7  C   UNL     1      74.679   1.167  17.253  1.00  0.00    -0.023 A 
HETATM    8  C   UNL     1      74.404   0.475  18.441  1.00  0.00     0.029 A 
HETATM    9  C   UNL     1      73.871  -0.805  18.382  1.00  0.00     0.088 A 
HETATM   10  N   UNL     1      73.580  -1.447  17.235  1.00  0.00    -0.375 N 
HETATM   11  C   UNL     1      73.838  -0.777  16.094  1.00  0.00     0.088 A 
ATOM     12  HN  UNL     1      73.186  -2.388  17.229  1.00  0.00     0.164 HD
HETATM   13  C   UNL     1      74.379   0.501  16.054  1.00  0.00     0.029 A 
ENDBRANCH   1   7
BRANCH   6  14
HETATM   14  C   UNL     1      76.971   6.538  17.301  1.00  0.00     0.202 C 
BRANCH  14  15
HETATM   15  O   UNL     1      76.391   7.321  18.336  1.00  0.00    -0.396 OA
HETATM   16  H   UNL     1      77.013   8.016  18.603  1.00  0.00     0.209 HD
ENDBRANCH  14  15
ENDBRANCH   6  14
TORSDOF 3
ENDMDL
MODEL 7
REMARK VINA RESULT:      -5.3     19.447     21.411
REMARK  3 active torsions:
REMARK  status: ('A' for Active; 'I' for Inactive)
REMARK    1  A    between atoms: C_1  and  C_4 
REMARK    2  A    between atoms: C_9  and  C_13 
REMARK    3  A    between atoms: O_10  and  C_13 
ROOT
HETATM    1  C   UNL     1      62.524   8.638   2.814  1.00  0.00    -0.026 A 
HETATM    2  C   UNL     1      61.886   9.891   2.864  1.00  0.00     0.013 A 
HETATM    3  C   UNL     1      63.365   8.310   3.892  1.00  0.00     0.013 A 
HETATM    4  C   UNL     1      62.079  10.774   3.934  1.00  0.00     0.010 A 
HETATM    5  C   UNL     1      63.553   9.184   4.970  1.00  0.00     0.010 A 
HETATM    6  C   UNL     1      62.913  10.427   5.000  1.00  0.00    -0.035 A 
ENDROOT
BRANCH   1   7
HETATM    7  C   UNL     1      62.314   7.704   1.679  1.00  0.00    -0.023 A 
HETATM    8  C   UNL     1      61.964   6.361   1.883  1.00  0.00     0.029 A 
HETATM    9  C   UNL     1      61.793   5.524   0.789  1.00  0.00     0.088 A 
HETATM   10  N   UNL     1      61.931   5.919  -0.491  1.00  0.00    -0.375 N 
HETATM   11  C   UNL     1      62.259   7.212  -0.683  1.00  0.00     0.088 A 
ATOM     12  HN  UNL     1      61.795   5.276  -1.271  1.00  0.00     0.164 HD
HETATM   13  C   UNL     1      62.461   8.121   0.347  1.00  0.00     0.029 A 
ENDBRANCH   1   7
BRANCH   6  14
HETATM   14  C   UNL     1      63.128  11.365   6.157  1.00  0.00     0.202 C 
BRANCH  14  15
HETATM   15  O   UNL     1      64.514  11.491   6.448  1.00  0.00    -0.396 OA
HETATM   16  H   UNL     1      64.653  12.250   7.036  1.00  0.00     0.209 HD
ENDBRANCH  14  15
ENDBRANCH   6  14
TORSDOF 3
ENDMDL
MODEL 8
REMARK VINA RESULT:      -5.2     13.460     15.856
REMARK  3 active torsions:
REMARK  status: ('A' for Active; 'I' for Inactive)
REMARK    1  A    between atoms: C_1  and  C_4 
REMARK    2  A    between atoms: C_9  and  C_13 
REMARK    3  A    between atoms: O_10  and  C_13 
ROOT
HETATM    1  C   UNL     1      67.425   5.815   7.474  1.00  0.00    -0.026 A 
HETATM    2  C   UNL     1      67.914   6.479   6.334  1.00  0.00     0.013 A 
HETATM    3  C   UNL     1      66.073   6.027   7.801  1.00  0.00     0.013 A 
HETATM    4  C   UNL     1      67.099   7.314   5.560  1.00  0.00     0.010 A 
HETATM    5  C   UNL     1      65.250   6.852   7.024  1.00  0.00     0.010 A 
HETATM    6  C   UNL     1      65.757   7.506   5.897  1.00  0.00    -0.035 A 
ENDROOT
BRANCH   1   7
HETATM    7  C   UNL     1      68.293   4.929   8.289  1.00  0.00    -0.023 A 
HETATM    8  C   UNL     1      67.806   3.747   8.866  1.00  0.00     0.029 A 
HETATM    9  C   UNL     1      68.653   2.958   9.632  1.00  0.00     0.088 A 
HETATM   10  N   UNL     1      69.949   3.247   9.861  1.00  0.00    -0.375 N 
HETATM   11  C   UNL     1      70.415   4.380   9.299  1.00  0.00     0.088 A 
ATOM     12  HN  UNL     1      70.544   2.643  10.428  1.00  0.00     0.164 HD
HETATM   13  C   UNL     1      69.641   5.235   8.526  1.00  0.00     0.029 A 
ENDBRANCH   1   7
BRANCH   6  14
HETATM   14  C   UNL     1      64.868   8.399   5.073  1.00  0.00     0.202 C 
BRANCH  14  15
HETATM   15  O   UNL     1      64.701   9.661   5.707  1.00  0.00    -0.396 OA
HETATM   16  H   UNL     1      65.179   9.664   6.551  1.00  0.00     0.209 HD
ENDBRANCH  14  15
ENDBRANCH   6  14
TORSDOF 3
ENDMDL
MODEL 9
REMARK VINA RESULT:      -5.1     13.794     16.112
REMARK  3 active torsions:
REMARK  status: ('A' for Active; 'I' for Inactive)
REMARK    1  A    between atoms: C_1  and  C_4 
REMARK    2  A    between atoms: C_9  and  C_13 
REMARK    3  A    between atoms: O_10  and  C_13 
ROOT
HETATM    1  C   UNL     1      66.867   6.093   7.319  1.00  0.00    -0.026 A 
HETATM    2  C   UNL     1      67.527   4.994   6.738  1.00  0.00     0.013 A 
HETATM    3  C   UNL     1      67.291   6.481   8.603  1.00  0.00     0.013 A 
HETATM    4  C   UNL     1      68.554   4.314   7.405  1.00  0.00     0.010 A 
HETATM    5  C   UNL     1      68.325   5.812   9.269  1.00  0.00     0.010 A 
HETATM    6  C   UNL     1      68.965   4.719   8.677  1.00  0.00    -0.035 A 
ENDROOT
BRANCH   1   7
HETATM    7  C   UNL     1      65.781   6.812   6.607  1.00  0.00    -0.023 A 
HETATM    8  C   UNL     1      66.044   7.912   5.778  1.00  0.00     0.029 A 
HETATM    9  C   UNL     1      64.992   8.560   5.145  1.00  0.00     0.088 A 
HETATM   10  N   UNL     1      63.702   8.195   5.264  1.00  0.00    -0.375 N 
HETATM   11  C   UNL     1      63.453   7.133   6.056  1.00  0.00     0.088 A 
ATOM     12  HN  UNL     1      62.954   8.694   4.782  1.00  0.00     0.164 HD
HETATM   13  C   UNL     1      64.438   6.428   6.736  1.00  0.00     0.029 A 
ENDBRANCH   1   7
BRANCH   6  14
HETATM   14  C   UNL     1      70.069   3.999   9.403  1.00  0.00     0.202 C 
BRANCH  14  15
HETATM   15  O   UNL     1      69.604   3.500  10.651  1.00  0.00    -0.396 OA
HETATM   16  H   UNL     1      70.363   3.294  11.219  1.00  0.00     0.209 HD
ENDBRANCH  14  15
ENDBRANCH   6  14
TORSDOF 3
ENDMDL
