MODEL 1
REMARK VINA RESULT:      -5.8      0.000      0.000
REMARK  3 active torsions:
REMARK  status: ('A' for Active; 'I' for Inactive)
REMARK    1  A    between atoms: C_1  and  C_5 
REMARK    2  A    between atoms: C_6  and  C_12 
REMARK    3  A    between atoms: N_7  and  C_12 
ROOT
HETATM    1  C   UNL     1      71.702  22.991  13.005  1.00  0.00    -0.025 A 
HETATM    2  C   UNL     1      70.526  23.374  13.678  1.00  0.00     0.021 A 
HETATM    3  C   UNL     1      70.519  24.367  14.679  1.00  0.00    -0.032 A 
HETATM    4  C   UNL     1      72.883  23.671  13.349  1.00  0.00     0.012 A 
HETATM    5  C   UNL     1      72.896  24.664  14.335  1.00  0.00     0.001 A 
HETATM    6  C   UNL     1      71.721  25.006  15.001  1.00  0.00     0.009 A 
ENDROOT
BRANCH   1   7
HETATM    7  C   UNL     1      71.694  21.895  12.006  1.00  0.00    -0.023 A 
HETATM    8  C   UNL     1      70.835  20.792  12.125  1.00  0.00     0.029 A 
HETATM    9  C   UNL     1      70.896  19.769  11.185  1.00  0.00     0.088 A 
HETATM   10  N   UNL     1      71.737  19.767  10.134  1.00  0.00    -0.375 N 
HETATM   11  C   UNL     1      72.553  20.831  10.018  1.00  0.00     0.088 A 
ATOM     12  HN  UNL     1      71.754  19.001   9.461  1.00  0.00     0.164 HD
HETATM   13  C   UNL     1      72.572  21.894  10.912  1.00  0.00     0.029 A 
ENDBRANCH   1   7
BRANCH   3  14
HETATM   14  C   UNL     1      69.235  24.733  15.388  1.00  0.00     0.270 C 
BRANCH  14  15
HETATM   15  N   UNL     1      68.063  24.377  14.586  1.00  0.00    -0.075 N 
HETATM   16  C   UNL     1      67.177  25.517  14.408  1.00  0.00     0.267 C 
HETATM   17  H   UNL     1      67.553  23.630  15.058  1.00  0.00     0.277 HD
HETATM   18  H   UNL     1      68.383  24.070  13.667  1.00  0.00     0.277 HD
ENDBRANCH  14  15
ENDBRANCH   3  14
TORSDOF 3
ENDMDL
MODEL 2
REMARK VINA RESULT:      -5.6     19.238     21.560
REMARK  3 active torsions:
REMARK  status: ('A' for Active; 'I' for Inactive)
REMARK    1  A    between atoms: C_1  and  C_5 
REMARK    2  A    between atoms: C_6  and  C_12 
REMARK    3  A    between atoms: N_7  and  C_12 
ROOT
HETATM    1  C   UNL     1      76.452   2.551  17.674  1.00  0.00    -0.025 A 
HETATM    2  C   UNL     1      76.997   3.848  17.639  1.00  0.00     0.021 A 
HETATM    3  C   UNL     1      76.288   4.951  17.120  1.00  0.00    -0.032 A 
HETATM    4  C   UNL     1      75.139   2.398  17.196  1.00  0.00     0.012 A 
HETATM    5  C   UNL     1      74.417   3.481  16.682  1.00  0.00     0.001 A 
HETATM    6  C   UNL     1      74.991   4.749  16.639  1.00  0.00     0.009 A 
ENDROOT
BRANCH   1   7
HETATM    7  C   UNL     1      77.245   1.395  18.161  1.00  0.00    -0.023 A 
HETATM    8  C   UNL     1      78.200   1.531  19.179  1.00  0.00     0.029 A 
HETATM    9  C   UNL     1      78.949   0.428  19.571  1.00  0.00     0.088 A 
HETATM   10  N   UNL     1      78.811  -0.800  19.035  1.00  0.00    -0.375 N 
HETATM   11  C   UNL     1      77.887  -0.928  18.064  1.00  0.00     0.088 A 
ATOM     12  HN  UNL     1      79.376  -1.590  19.348  1.00  0.00     0.164 HD
HETATM   13  C   UNL     1      77.101   0.119  17.600  1.00  0.00     0.029 A 
ENDBRANCH   1   7
BRANCH   3  14
HETATM   14  C   UNL     1      76.922   6.323  17.086  1.00  0.00     0.270 C 
BRANCH  14  15
HETATM   15  N   UNL     1      76.273   7.234  18.029  1.00  0.00    -0.075 N 
HETATM   16  C   UNL     1      76.931   8.531  18.050  1.00  0.00     0.267 C 
HETATM   17  H   UNL     1      76.311   6.827  18.963  1.00  0.00     0.277 HD
HETATM   18  H   UNL     1      75.306   7.368  17.733  1.00  0.00     0.277 HD
ENDBRANCH  14  15
ENDBRANCH   3  14
TORSDOF 3
ENDMDL
MODEL 3
REMARK VINA RESULT:      -5.4     17.294     18.964
REMARK  3 active torsions:
REMARK  status: ('A' for Active; 'I' for Inactive)
REMARK    1  A    between atoms: C_1  and  C_5 
REMARK    2  A    between atoms: C_6  and  C_12 
REMARK    3  A    between atoms: N_7  and  C_12 
ROOT
HETATM    1  C   UNL     1      63.484   9.015   4.664  1.00  0.00    -0.025 A 
HETATM    2  C   UNL     1      62.971   8.700   3.391  1.00  0.00     0.021 A 
HETATM    3  C   UNL     1      62.131   9.580   2.678  1.00  0.00    -0.032 A 
HETATM    4  C   UNL     1      63.152  10.274   5.192  1.00  0.00     0.012 A 
HETATM    5  C   UNL     1      62.324  11.163   4.497  1.00  0.00     0.001 A 
HETATM    6  C   UNL     1      61.812  10.815   3.250  1.00  0.00     0.009 A 
ENDROOT
BRANCH   1   7
HETATM    7  C   UNL     1      64.309   8.042   5.423  1.00  0.00    -0.023 A 
HETATM    8  C   UNL     1      63.756   6.880   5.981  1.00  0.00     0.029 A 
HETATM    9  C   UNL     1      64.561   6.022   6.720  1.00  0.00     0.088 A 
HETATM   10  N   UNL     1      65.875   6.227   6.935  1.00  0.00    -0.375 N 
HETATM   11  C   UNL     1      66.404   7.339   6.390  1.00  0.00     0.088 A 
ATOM     12  HN  UNL     1      66.438   5.575   7.481  1.00  0.00     0.164 HD
HETATM   13  C   UNL     1      65.676   8.259   5.647  1.00  0.00     0.029 A 
ENDBRANCH   1   7
BRANCH   3  14
HETATM   14  C   UNL     1      61.588   9.190   1.321  1.00  0.00     0.270 C 
BRANCH  14  15
HETATM   15  N   UNL     1      60.175   8.819   1.398  1.00  0.00    -0.075 N 
HETATM   16  C   UNL     1      59.819   7.872   0.354  1.00  0.00     0.267 C 
HETATM   17  H   UNL     1      59.606   9.659   1.293  1.00  0.00     0.277 HD
HETATM   18  H   UNL     1      60.007   8.380   2.303  1.00  0.00     0.277 HD
ENDBRANCH  14  15
ENDBRANCH   3  14
TORSDOF 3
ENDMDL
MODEL 4
REMARK VINA RESULT:      -5.1     17.451     18.811
REMARK  3 active torsions:
REMARK  status: ('A' for Active; 'I' for Inactive)
REMARK    1  A    between atoms: C_1  and  C_5 
REMARK    2  A    between atoms: C_6  and  C_12 
REMARK    3  A    between atoms: N_7  and  C_12 
ROOT
HETATM    1  C   UNL     1      64.784   7.665   4.571  1.00  0.00    -0.025 A 
HETATM    2  C   UNL     1      65.289   7.765   5.882  1.00  0.00     0.021 A 
HETATM    3  C   UNL     1      66.317   6.927   6.360  1.00  0.00    -0.032 A 
HETATM    4  C   UNL     1      65.376   6.707   3.731  1.00  0.00     0.012 A 
HETATM    5  C   UNL     1      66.402   5.869   4.186  1.00  0.00     0.001 A 
HETATM    6  C   UNL     1      66.865   5.975   5.495  1.00  0.00     0.009 A 
ENDROOT
BRANCH   1   7
HETATM    7  C   UNL     1      63.654   8.512   4.116  1.00  0.00    -0.023 A 
HETATM    8  C   UNL     1      63.259   9.658   4.821  1.00  0.00     0.029 A 
HETATM    9  C   UNL     1      62.166  10.395   4.377  1.00  0.00     0.088 A 
HETATM   10  N   UNL     1      61.448  10.084   3.281  1.00  0.00    -0.375 N 
HETATM   11  C   UNL     1      61.837   8.988   2.603  1.00  0.00     0.088 A 
ATOM     12  HN  UNL     1      60.653  10.648   2.982  1.00  0.00     0.164 HD
HETATM   13  C   UNL     1      62.907   8.185   2.976  1.00  0.00     0.029 A 
ENDBRANCH   1   7
BRANCH   3  14
HETATM   14  C   UNL     1      66.814   7.058   7.782  1.00  0.00     0.270 C 
BRANCH  14  15
HETATM   15  N   UNL     1      68.137   6.455   7.942  1.00  0.00    -0.075 N 
HETATM   16  C   UNL     1      68.188   5.591   9.111  1.00  0.00     0.267 C 
HETATM   17  H   UNL     1      68.830   7.197   8.047  1.00  0.00     0.277 HD
HETATM   18  H   UNL     1      68.337   5.891   7.116  1.00  0.00     0.277 HD
ENDBRANCH  14  15
ENDBRANCH   3  14
TORSDOF 3
ENDMDL
MODEL 5
REMARK VINA RESULT:      -5.0     21.650     24.061
REMARK  3 active torsions:
REMARK  status: ('A' for Active; 'I' for Inactive)
REMARK    1  A    between atoms: C_1  and  C_5 
REMARK    2  A    between atoms: C_6  and  C_12 
REMARK    3  A    between atoms: N_7  and  C_12 
ROOT
HETATM    1  C   UNL     1      76.426   0.890  16.593  1.00  0.00    -0.025 A 
HETATM    2  C   UNL     1      77.216   0.004  15.836  1.00  0.00     0.021 A 
HETATM    3  C   UNL     1      76.702  -0.711  14.735  1.00  0.00    -0.032 A 
HETATM    4  C   UNL     1      75.093   1.066  16.183  1.00  0.00     0.012 A 
HETATM    5  C   UNL     1      74.567   0.369  15.090  1.00  0.00     0.001 A 
HETATM    6  C   UNL     1      75.365  -0.519  14.374  1.00  0.00     0.009 A 
ENDROOT
BRANCH   1   7
HETATM    7  C   UNL     1      76.972   1.578  17.790  1.00  0.00    -0.023 A 
HETATM    8  C   UNL     1      76.636   2.904  18.098  1.00  0.00     0.029 A 
HETATM    9  C   UNL     1      77.209   3.518  19.207  1.00  0.00     0.088 A 
HETATM   10  N   UNL     1      78.078   2.908  20.034  1.00  0.00    -0.375 N 
HETATM   11  C   UNL     1      78.391   1.633  19.740  1.00  0.00     0.088 A 
ATOM     12  HN  UNL     1      78.478   3.387  20.841  1.00  0.00     0.164 HD
HETATM   13  C   UNL     1      77.879   0.941  18.649  1.00  0.00     0.029 A 
ENDBRANCH   1   7
BRANCH   3  14
HETATM   14  C   UNL     1      77.584  -1.667  13.963  1.00  0.00     0.270 C 
BRANCH  14  15
HETATM   15  N   UNL     1      79.002  -1.397  14.203  1.00  0.00    -0.075 N 
HETATM   16  C   UNL     1      79.756  -1.385  12.959  1.00  0.00     0.267 C 
HETATM   17  H   UNL     1      79.379  -2.122  14.813  1.00  0.00     0.277 HD
HETATM   18  H   UNL     1      79.085  -0.478  14.639  1.00  0.00     0.277 HD
ENDBRANCH  14  15
ENDBRANCH   3  14
TORSDOF 3
ENDMDL
MODEL 6
REMARK VINA RESULT:      -5.0     17.387     19.635
REMARK  3 active torsions:
REMARK  status: ('A' for Active; 'I' for Inactive)
REMARK    1  A    between atoms: C_1  and  C_5 
REMARK    2  A    between atoms: C_6  and  C_12 
REMARK    3  A    between atoms: N_7  and  C_12 
ROOT
HETATM    1  C   UNL     1      67.858   4.420   6.897  1.00  0.00    -0.025 A 
HETATM    2  C   UNL     1      67.651   5.809   6.799  1.00  0.00     0.021 A 
HETATM    3  C   UNL     1      67.307   6.437   5.585  1.00  0.00    -0.032 A 
HETATM    4  C   UNL     1      67.671   3.664   5.727  1.00  0.00     0.012 A 
HETATM    5  C   UNL     1      67.325   4.267   4.513  1.00  0.00     0.001 A 
HETATM    6  C   UNL     1      67.149   5.647   4.441  1.00  0.00     0.009 A 
ENDROOT
BRANCH   1   7
HETATM    7  C   UNL     1      68.287   3.794   8.172  1.00  0.00    -0.023 A 
HETATM    8  C   UNL     1      69.348   4.312   8.929  1.00  0.00     0.029 A 
HETATM    9  C   UNL     1      69.741   3.664  10.095  1.00  0.00     0.088 A 
HETATM   10  N   UNL     1      69.151   2.550  10.568  1.00  0.00    -0.375 N 
HETATM   11  C   UNL     1      68.127   2.061   9.843  1.00  0.00     0.088 A 
ATOM     12  HN  UNL     1      69.462   2.101  11.429  1.00  0.00     0.164 HD
HETATM   13  C   UNL     1      67.672   2.633   8.662  1.00  0.00     0.029 A 
ENDBRANCH   1   7
BRANCH   3  14
HETATM   14  C   UNL     1      67.113   7.935   5.524  1.00  0.00     0.270 C 
BRANCH  14  15
HETATM   15  N   UNL     1      65.866   8.338   6.173  1.00  0.00    -0.075 N 
HETATM   16  C   UNL     1      64.802   8.533   5.201  1.00  0.00     0.267 C 
HETATM   17  H   UNL     1      66.021   9.213   6.675  1.00  0.00     0.277 HD
HETATM   18  H   UNL     1      65.584   7.598   6.816  1.00  0.00     0.277 HD
ENDBRANCH  14  15
ENDBRANCH   3  14
TORSDOF 3
ENDMDL
MODEL 7
REMARK VINA RESULT:      -4.9     17.356     19.905
REMARK  3 active torsions:
REMARK  status: ('A' for Active; 'I' for Inactive)
REMARK    1  A    between atoms: C_1  and  C_5 
REMARK    2  A    between atoms: C_6  and  C_12 
REMARK    3  A    between atoms: N_7  and  C_12 
ROOT
HETATM    1  C   UNL     1      68.186   4.883   7.939  1.00  0.00    -0.025 A 
HETATM    2  C   UNL     1      67.600   3.633   8.217  1.00  0.00     0.021 A 
HETATM    3  C   UNL     1      68.207   2.689   9.069  1.00  0.00    -0.032 A 
HETATM    4  C   UNL     1      69.402   5.174   8.582  1.00  0.00     0.012 A 
HETATM    5  C   UNL     1      70.017   4.252   9.436  1.00  0.00     0.001 A 
HETATM    6  C   UNL     1      69.426   3.014   9.673  1.00  0.00     0.009 A 
ENDROOT
BRANCH   1   7
HETATM    7  C   UNL     1      67.561   5.831   6.984  1.00  0.00    -0.023 A 
HETATM    8  C   UNL     1      67.574   5.602   5.600  1.00  0.00     0.029 A 
HETATM    9  C   UNL     1      67.013   6.542   4.743  1.00  0.00     0.088 A 
HETATM   10  N   UNL     1      66.430   7.682   5.160  1.00  0.00    -0.375 N 
HETATM   11  C   UNL     1      66.411   7.893   6.489  1.00  0.00     0.088 A 
ATOM     12  HN  UNL     1      66.025   8.350   4.503  1.00  0.00     0.164 HD
HETATM   13  C   UNL     1      66.956   7.018   7.420  1.00  0.00     0.029 A 
ENDBRANCH   1   7
BRANCH   3  14
HETATM   14  C   UNL     1      67.550   1.351   9.323  1.00  0.00     0.270 C 
BRANCH  14  15
HETATM   15  N   UNL     1      67.123   1.222  10.717  1.00  0.00    -0.075 N 
HETATM   16  C   UNL     1      66.338   0.015  10.921  1.00  0.00     0.267 C 
HETATM   17  H   UNL     1      66.557   2.033  10.967  1.00  0.00     0.277 HD
HETATM   18  H   UNL     1      67.955   1.168  11.305  1.00  0.00     0.277 HD
ENDBRANCH  14  15
ENDBRANCH   3  14
TORSDOF 3
ENDMDL
MODEL 8
REMARK VINA RESULT:      -4.7     17.666     18.940
REMARK  3 active torsions:
REMARK  status: ('A' for Active; 'I' for Inactive)
REMARK    1  A    between atoms: C_1  and  C_5 
REMARK    2  A    between atoms: C_6  and  C_12 
REMARK    3  A    between atoms: N_7  and  C_12 
ROOT
HETATM    1  C   UNL     1      63.959   7.626   5.186  1.00  0.00    -0.025 A 
HETATM    2  C   UNL     1      63.608   8.760   4.428  1.00  0.00     0.021 A 
HETATM    3  C   UNL     1      62.322   8.931   3.878  1.00  0.00    -0.032 A 
HETATM    4  C   UNL     1      62.952   6.671   5.407  1.00  0.00     0.012 A 
HETATM    5  C   UNL     1      61.667   6.825   4.873  1.00  0.00     0.001 A 
HETATM    6  C   UNL     1      61.356   7.946   4.108  1.00  0.00     0.009 A 
ENDROOT
BRANCH   1   7
HETATM    7  C   UNL     1      65.340   7.438   5.695  1.00  0.00    -0.023 A 
HETATM    8  C   UNL     1      66.463   7.785   4.930  1.00  0.00     0.029 A 
HETATM    9  C   UNL     1      67.737   7.549   5.435  1.00  0.00     0.088 A 
HETATM   10  N   UNL     1      67.975   7.007   6.644  1.00  0.00    -0.375 N 
HETATM   11  C   UNL     1      66.895   6.684   7.378  1.00  0.00     0.088 A 
ATOM     12  HN  UNL     1      68.924   6.849   6.985  1.00  0.00     0.164 HD
HETATM   13  C   UNL     1      65.586   6.872   6.954  1.00  0.00     0.029 A 
ENDBRANCH   1   7
BRANCH   3  14
HETATM   14  C   UNL     1      61.997  10.157   3.055  1.00  0.00     0.270 C 
BRANCH  14  15
HETATM   15  N   UNL     1      61.283   9.802   1.828  1.00  0.00    -0.075 N 
HETATM   16  C   UNL     1      62.183   9.229   0.839  1.00  0.00     0.267 C 
HETATM   17  H   UNL     1      60.854  10.642   1.439  1.00  0.00     0.277 HD
HETATM   18  H   UNL     1      60.572   9.108   2.058  1.00  0.00     0.277 HD
ENDBRANCH  14  15
ENDBRANCH   3  14
TORSDOF 3
ENDMDL
MODEL 9
REMARK VINA RESULT:      -4.7     17.442     21.140
REMARK  3 active torsions:
REMARK  status: ('A' for Active; 'I' for Inactive)
REMARK    1  A    between atoms: C_1  and  C_5 
REMARK    2  A    between atoms: C_6  and  C_12 
REMARK    3  A    between atoms: N_7  and  C_12 
ROOT
HETATM    1  C   UNL     1      68.551   3.276   7.481  1.00  0.00    -0.025 A 
HETATM    2  C   UNL     1      68.938   2.485   8.580  1.00  0.00     0.021 A 
HETATM    3  C   UNL     1      69.326   1.138   8.440  1.00  0.00    -0.032 A 
HETATM    4  C   UNL     1      68.601   2.672   6.213  1.00  0.00     0.012 A 
HETATM    5  C   UNL     1      68.990   1.337   6.053  1.00  0.00     0.001 A 
HETATM    6  C   UNL     1      69.345   0.572   7.161  1.00  0.00     0.009 A 
ENDROOT
BRANCH   1   7
HETATM    7  C   UNL     1      68.080   4.671   7.664  1.00  0.00    -0.023 A 
HETATM    8  C   UNL     1      67.897   5.228   8.938  1.00  0.00     0.029 A 
HETATM    9  C   UNL     1      67.412   6.525   9.058  1.00  0.00     0.088 A 
HETATM   10  N   UNL     1      67.107   7.311   8.008  1.00  0.00    -0.375 N 
HETATM   11  C   UNL     1      67.292   6.775   6.787  1.00  0.00     0.088 A 
ATOM     12  HN  UNL     1      66.755   8.260   8.131  1.00  0.00     0.164 HD
HETATM   13  C   UNL     1      67.761   5.486   6.569  1.00  0.00     0.029 A 
ENDBRANCH   1   7
BRANCH   3  14
HETATM   14  C   UNL     1      69.716   0.322   9.653  1.00  0.00     0.270 C 
BRANCH  14  15
HETATM   15  N   UNL     1      70.983   0.783  10.221  1.00  0.00    -0.075 N 
HETATM   16  C   UNL     1      72.030  -0.212  10.055  1.00  0.00     0.267 C 
HETATM   17  H   UNL     1      70.853   0.966  11.216  1.00  0.00     0.277 HD
HETATM   18  H   UNL     1      71.265   1.633   9.732  1.00  0.00     0.277 HD
ENDBRANCH  14  15
ENDBRANCH   3  14
TORSDOF 3
ENDMDL
