MODEL 1
REMARK VINA RESULT:      -5.8      0.000      0.000
REMARK  3 active torsions:
REMARK  status: ('A' for Active; 'I' for Inactive)
REMARK    1  A    between atoms: N_1  and  C_2 
REMARK    2  A    between atoms: C_4  and  C_9 
REMARK    3  A    between atoms: C_9  and  O_11 
ROOT
HETATM    1  C   UNL     1      63.423   9.065   4.364  1.00  0.00     0.038 A 
HETATM    2  C   UNL     1      62.914  10.323   4.787  1.00  0.00    -0.008 A 
HETATM    3  C   UNL     1      62.981   8.610   3.098  1.00  0.00     0.030 A 
HETATM    4  C   UNL     1      62.103  11.087   3.912  1.00  0.00     0.011 A 
HETATM    5  C   UNL     1      62.129   9.352   2.272  1.00  0.00     0.002 A 
HETATM    6  C   UNL     1      61.710  10.606   2.667  1.00  0.00     0.001 A 
ENDROOT
BRANCH   1   7
HETATM    7  N   UNL     1      64.246   8.245   5.145  1.00  0.00    -0.377 N 
HETATM    8  C   UNL     1      65.718   8.277   5.039  1.00  0.00     0.150 C 
HETATM    9  C   UNL     1      66.312   8.042   6.448  1.00  0.00     0.254 C 
HETATM   10  N   UNL     1      65.943   6.709   6.979  1.00  0.00    -0.072 N 
HETATM   11  C   UNL     1      64.470   6.565   6.966  1.00  0.00     0.254 C 
HETATM   12  C   UNL     1      66.458   6.537   8.337  1.00  0.00     0.269 C 
HETATM   13  H   UNL     1      66.358   5.989   6.387  1.00  0.00     0.279 HD
HETATM   14  C   UNL     1      63.806   6.905   5.603  1.00  0.00     0.150 C 
ENDBRANCH   1   7
BRANCH   2  15
HETATM   15  C   UNL     1      63.187  10.907   6.159  1.00  0.00     0.205 C 
BRANCH  15  16
HETATM   16  O   UNL     1      64.518  11.399   6.326  1.00  0.00    -0.396 OA
HETATM   17  H   UNL     1      65.147  10.665   6.234  1.00  0.00     0.209 HD
ENDBRANCH  15  16
ENDBRANCH   2  15
TORSDOF 3
ENDMDL
MODEL 2
REMARK VINA RESULT:      -5.6      1.321      1.988
REMARK  3 active torsions:
REMARK  status: ('A' for Active; 'I' for Inactive)
REMARK    1  A    between atoms: N_1  and  C_2 
REMARK    2  A    between atoms: C_4  and  C_9 
REMARK    3  A    between atoms: C_9  and  O_11 
ROOT
HETATM    1  C   UNL     1      63.046   8.581   3.575  1.00  0.00     0.038 A 
HETATM    2  C   UNL     1      62.427   9.854   3.439  1.00  0.00    -0.008 A 
HETATM    3  C   UNL     1      62.939   7.716   2.461  1.00  0.00     0.030 A 
HETATM    4  C   UNL     1      61.844  10.226   2.203  1.00  0.00     0.011 A 
HETATM    5  C   UNL     1      62.304   8.078   1.267  1.00  0.00     0.002 A 
HETATM    6  C   UNL     1      61.778   9.346   1.127  1.00  0.00     0.001 A 
ENDROOT
BRANCH   1   7
HETATM    7  N   UNL     1      63.666   8.129   4.746  1.00  0.00    -0.377 N 
HETATM    8  C   UNL     1      62.898   7.579   5.882  1.00  0.00     0.150 C 
HETATM    9  C   UNL     1      63.729   6.443   6.525  1.00  0.00     0.254 C 
HETATM   10  N   UNL     1      65.010   6.949   7.072  1.00  0.00    -0.072 N 
HETATM   11  C   UNL     1      65.759   7.647   6.002  1.00  0.00     0.254 C 
HETATM   12  C   UNL     1      65.807   5.849   7.613  1.00  0.00     0.269 C 
HETATM   13  H   UNL     1      64.814   7.603   7.829  1.00  0.00     0.279 HD
HETATM   14  C   UNL     1      64.933   8.720   5.239  1.00  0.00     0.150 C 
ENDBRANCH   1   7
BRANCH   2  15
HETATM   15  C   UNL     1      62.343  10.859   4.571  1.00  0.00     0.205 C 
BRANCH  15  16
HETATM   16  O   UNL     1      62.038  12.188   4.145  1.00  0.00    -0.396 OA
HETATM   17  H   UNL     1      61.737  12.710   4.905  1.00  0.00     0.209 HD
ENDBRANCH  15  16
ENDBRANCH   2  15
TORSDOF 3
ENDMDL
MODEL 3
REMARK VINA RESULT:      -4.9      2.136      3.060
REMARK  3 active torsions:
REMARK  status: ('A' for Active; 'I' for Inactive)
REMARK    1  A    between atoms: N_1  and  C_2 
REMARK    2  A    between atoms: C_4  and  C_9 
REMARK    3  A    between atoms: C_9  and  O_11 
ROOT
HETATM    1  C   UNL     1      62.862   9.043   3.883  1.00  0.00     0.038 A 
HETATM    2  C   UNL     1      62.652   8.596   2.550  1.00  0.00    -0.008 A 
HETATM    3  C   UNL     1      62.504  10.386   4.151  1.00  0.00     0.030 A 
HETATM    4  C   UNL     1      62.019   9.448   1.611  1.00  0.00     0.011 A 
HETATM    5  C   UNL     1      61.936  11.234   3.193  1.00  0.00     0.002 A 
HETATM    6  C   UNL     1      61.667  10.757   1.927  1.00  0.00     0.001 A 
ENDROOT
BRANCH   1   7
HETATM    7  N   UNL     1      63.459   8.272   4.886  1.00  0.00    -0.377 N 
HETATM    8  C   UNL     1      62.679   7.663   5.982  1.00  0.00     0.150 C 
HETATM    9  C   UNL     1      63.314   6.295   6.329  1.00  0.00     0.254 C 
HETATM   10  N   UNL     1      64.703   6.448   6.819  1.00  0.00    -0.072 N 
HETATM   11  C   UNL     1      65.499   7.192   5.815  1.00  0.00     0.254 C 
HETATM   12  C   UNL     1      65.305   5.141   7.075  1.00  0.00     0.269 C 
HETATM   13  H   UNL     1      64.691   6.971   7.695  1.00  0.00     0.279 HD
HETATM   14  C   UNL     1      64.849   8.520   5.341  1.00  0.00     0.150 C 
ENDBRANCH   1   7
BRANCH   2  15
HETATM   15  C   UNL     1      63.085   7.229   2.057  1.00  0.00     0.205 C 
BRANCH  15  16
HETATM   16  O   UNL     1      62.211   6.168   2.447  1.00  0.00    -0.396 OA
HETATM   17  H   UNL     1      62.389   5.386   1.901  1.00  0.00     0.209 HD
ENDBRANCH  15  16
ENDBRANCH   2  15
TORSDOF 3
ENDMDL
MODEL 4
REMARK VINA RESULT:      -4.8      3.007      6.896
REMARK  3 active torsions:
REMARK  status: ('A' for Active; 'I' for Inactive)
REMARK    1  A    between atoms: N_1  and  C_2 
REMARK    2  A    between atoms: C_4  and  C_9 
REMARK    3  A    between atoms: C_9  and  O_11 
ROOT
HETATM    1  C   UNL     1      67.526   5.540   7.335  1.00  0.00     0.038 A 
HETATM    2  C   UNL     1      67.883   4.356   6.633  1.00  0.00    -0.008 A 
HETATM    3  C   UNL     1      68.127   5.714   8.605  1.00  0.00     0.030 A 
HETATM    4  C   UNL     1      68.867   3.488   7.167  1.00  0.00     0.011 A 
HETATM    5  C   UNL     1      69.052   4.813   9.144  1.00  0.00     0.002 A 
HETATM    6  C   UNL     1      69.445   3.711   8.413  1.00  0.00     0.001 A 
ENDROOT
BRANCH   1   7
HETATM    7  N   UNL     1      66.582   6.468   6.883  1.00  0.00    -0.377 N 
HETATM    8  C   UNL     1      66.960   7.825   6.440  1.00  0.00     0.150 C 
HETATM    9  C   UNL     1      66.032   8.231   5.270  1.00  0.00     0.254 C 
HETATM   10  N   UNL     1      64.614   8.293   5.696  1.00  0.00    -0.072 N 
HETATM   11  C   UNL     1      64.223   6.994   6.290  1.00  0.00     0.254 C 
HETATM   12  C   UNL     1      63.751   8.611   4.560  1.00  0.00     0.269 C 
HETATM   13  H   UNL     1      64.508   9.029   6.394  1.00  0.00     0.279 HD
HETATM   14  C   UNL     1      65.189   6.478   7.392  1.00  0.00     0.150 C 
ENDBRANCH   1   7
BRANCH   2  15
HETATM   15  C   UNL     1      67.249   3.951   5.316  1.00  0.00     0.205 C 
BRANCH  15  16
HETATM   16  O   UNL     1      67.498   4.866   4.247  1.00  0.00    -0.396 OA
HETATM   17  H   UNL     1      68.332   5.334   4.411  1.00  0.00     0.209 HD
ENDBRANCH  15  16
ENDBRANCH   2  15
TORSDOF 3
ENDMDL
MODEL 5
REMARK VINA RESULT:      -4.7      2.658      4.253
REMARK  3 active torsions:
REMARK  status: ('A' for Active; 'I' for Inactive)
REMARK    1  A    between atoms: N_1  and  C_2 
REMARK    2  A    between atoms: C_4  and  C_9 
REMARK    3  A    between atoms: C_9  and  O_11 
ROOT
HETATM    1  C   UNL     1      65.392   6.778   6.502  1.00  0.00     0.038 A 
HETATM    2  C   UNL     1      65.873   7.673   5.507  1.00  0.00    -0.008 A 
HETATM    3  C   UNL     1      63.988   6.737   6.674  1.00  0.00     0.030 A 
HETATM    4  C   UNL     1      64.956   8.378   4.690  1.00  0.00     0.011 A 
HETATM    5  C   UNL     1      63.098   7.490   5.897  1.00  0.00     0.002 A 
HETATM    6  C   UNL     1      63.581   8.292   4.884  1.00  0.00     0.001 A 
ENDROOT
BRANCH   1   7
HETATM    7  N   UNL     1      66.215   6.023   7.345  1.00  0.00    -0.377 N 
HETATM    8  C   UNL     1      66.401   4.568   7.168  1.00  0.00     0.150 C 
HETATM    9  C   UNL     1      67.861   4.217   7.542  1.00  0.00     0.254 C 
HETATM   10  N   UNL     1      68.147   4.521   8.963  1.00  0.00    -0.072 N 
HETATM   11  C   UNL     1      67.832   5.942   9.234  1.00  0.00     0.254 C 
HETATM   12  C   UNL     1      69.549   4.245   9.275  1.00  0.00     0.269 C 
HETATM   13  H   UNL     1      67.566   3.927   9.554  1.00  0.00     0.279 HD
HETATM   14  C   UNL     1      66.417   6.383   8.769  1.00  0.00     0.150 C 
ENDBRANCH   1   7
BRANCH   2  15
HETATM   15  C   UNL     1      67.348   7.931   5.269  1.00  0.00     0.205 C 
BRANCH  15  16
HETATM   16  O   UNL     1      68.021   6.868   4.592  1.00  0.00    -0.396 OA
HETATM   17  H   UNL     1      67.520   6.622   3.798  1.00  0.00     0.209 HD
ENDBRANCH  15  16
ENDBRANCH   2  15
TORSDOF 3
ENDMDL
MODEL 6
REMARK VINA RESULT:      -4.6     17.465     19.804
REMARK  3 active torsions:
REMARK  status: ('A' for Active; 'I' for Inactive)
REMARK    1  A    between atoms: N_1  and  C_2 
REMARK    2  A    between atoms: C_4  and  C_9 
REMARK    3  A    between atoms: C_9  and  O_11 
ROOT
HETATM    1  C   UNL     1      76.621   0.275  16.677  1.00  0.00     0.038 A 
HETATM    2  C   UNL     1      75.336   0.719  16.263  1.00  0.00    -0.008 A 
HETATM    3  C   UNL     1      77.412  -0.351  15.684  1.00  0.00     0.030 A 
HETATM    4  C   UNL     1      74.958   0.615  14.901  1.00  0.00     0.011 A 
HETATM    5  C   UNL     1      76.996  -0.501  14.356  1.00  0.00     0.002 A 
HETATM    6  C   UNL     1      75.778   0.007  13.956  1.00  0.00     0.001 A 
ENDROOT
BRANCH   1   7
HETATM    7  N   UNL     1      77.094   0.352  17.992  1.00  0.00    -0.377 N 
HETATM    8  C   UNL     1      76.568  -0.510  19.070  1.00  0.00     0.150 C 
HETATM    9  C   UNL     1      77.735  -0.858  20.026  1.00  0.00     0.254 C 
HETATM   10  N   UNL     1      78.289   0.355  20.671  1.00  0.00    -0.072 N 
HETATM   11  C   UNL     1      78.696   1.324  19.628  1.00  0.00     0.254 C 
HETATM   12  C   UNL     1      79.431   0.011  21.516  1.00  0.00     0.269 C 
HETATM   13  H   UNL     1      77.572   0.776  21.262  1.00  0.00     0.279 HD
HETATM   14  C   UNL     1      77.600   1.621  18.568  1.00  0.00     0.150 C 
ENDBRANCH   1   7
BRANCH   2  15
HETATM   15  C   UNL     1      74.314   1.304  17.218  1.00  0.00     0.205 C 
BRANCH  15  16
HETATM   16  O   UNL     1      74.489   2.699  17.472  1.00  0.00    -0.396 OA
HETATM   17  H   UNL     1      75.273   2.829  18.029  1.00  0.00     0.209 HD
ENDBRANCH  15  16
ENDBRANCH   2  15
TORSDOF 3
ENDMDL
MODEL 7
REMARK VINA RESULT:      -4.6      2.856      6.892
REMARK  3 active torsions:
REMARK  status: ('A' for Active; 'I' for Inactive)
REMARK    1  A    between atoms: N_1  and  C_2 
REMARK    2  A    between atoms: C_4  and  C_9 
REMARK    3  A    between atoms: C_9  and  O_11 
ROOT
HETATM    1  C   UNL     1      67.579   5.014   7.282  1.00  0.00     0.038 A 
HETATM    2  C   UNL     1      67.953   5.329   8.617  1.00  0.00    -0.008 A 
HETATM    3  C   UNL     1      68.190   3.867   6.720  1.00  0.00     0.030 A 
HETATM    4  C   UNL     1      68.807   4.456   9.335  1.00  0.00     0.011 A 
HETATM    5  C   UNL     1      69.082   3.050   7.426  1.00  0.00     0.002 A 
HETATM    6  C   UNL     1      69.370   3.329   8.745  1.00  0.00     0.001 A 
ENDROOT
BRANCH   1   7
HETATM    7  N   UNL     1      66.728   5.799   6.497  1.00  0.00    -0.377 N 
HETATM    8  C   UNL     1      65.281   5.526   6.388  1.00  0.00     0.150 C 
HETATM    9  C   UNL     1      64.537   6.879   6.278  1.00  0.00     0.254 C 
HETATM   10  N   UNL     1      64.932   7.619   5.057  1.00  0.00    -0.072 N 
HETATM   11  C   UNL     1      66.403   7.791   5.041  1.00  0.00     0.254 C 
HETATM   12  C   UNL     1      64.270   8.921   5.009  1.00  0.00     0.269 C 
HETATM   13  H   UNL     1      64.646   7.085   4.237  1.00  0.00     0.279 HD
HETATM   14  C   UNL     1      67.202   6.478   5.267  1.00  0.00     0.150 C 
ENDBRANCH   1   7
BRANCH   2  15
HETATM   15  C   UNL     1      67.488   6.582   9.333  1.00  0.00     0.205 C 
BRANCH  15  16
HETATM   16  O   UNL     1      66.118   6.545   9.736  1.00  0.00    -0.396 OA
HETATM   17  H   UNL     1      65.588   6.125   9.040  1.00  0.00     0.209 HD
ENDBRANCH  15  16
ENDBRANCH   2  15
TORSDOF 3
ENDMDL
MODEL 8
REMARK VINA RESULT:      -4.6      3.623      6.913
REMARK  3 active torsions:
REMARK  status: ('A' for Active; 'I' for Inactive)
REMARK    1  A    between atoms: N_1  and  C_2 
REMARK    2  A    between atoms: C_4  and  C_9 
REMARK    3  A    between atoms: C_9  and  O_11 
ROOT
HETATM    1  C   UNL     1      67.532   4.514   6.445  1.00  0.00     0.038 A 
HETATM    2  C   UNL     1      68.369   4.152   7.535  1.00  0.00    -0.008 A 
HETATM    3  C   UNL     1      67.493   3.604   5.361  1.00  0.00     0.030 A 
HETATM    4  C   UNL     1      69.020   2.894   7.537  1.00  0.00     0.011 A 
HETATM    5  C   UNL     1      68.194   2.392   5.354  1.00  0.00     0.002 A 
HETATM    6  C   UNL     1      68.938   2.022   6.455  1.00  0.00     0.001 A 
ENDROOT
BRANCH   1   7
HETATM    7  N   UNL     1      66.831   5.723   6.358  1.00  0.00    -0.377 N 
HETATM    8  C   UNL     1      67.486   6.987   5.967  1.00  0.00     0.150 C 
HETATM    9  C   UNL     1      66.480   7.819   5.136  1.00  0.00     0.254 C 
HETATM   10  N   UNL     1      65.283   8.178   5.931  1.00  0.00    -0.072 N 
HETATM   11  C   UNL     1      64.668   6.946   6.477  1.00  0.00     0.254 C 
HETATM   12  C   UNL     1      64.318   8.904   5.107  1.00  0.00     0.269 C 
HETATM   13  H   UNL     1      65.564   8.785   6.701  1.00  0.00     0.279 HD
HETATM   14  C   UNL     1      65.661   6.012   7.222  1.00  0.00     0.150 C 
ENDBRANCH   1   7
BRANCH   2  15
HETATM   15  C   UNL     1      68.620   5.060   8.723  1.00  0.00     0.205 C 
BRANCH  15  16
HETATM   16  O   UNL     1      69.734   5.939   8.556  1.00  0.00    -0.396 OA
HETATM   17  H   UNL     1      69.759   6.572   9.291  1.00  0.00     0.209 HD
ENDBRANCH  15  16
ENDBRANCH   2  15
TORSDOF 3
ENDMDL
MODEL 9
REMARK VINA RESULT:      -4.3      2.114      5.684
REMARK  3 active torsions:
REMARK  status: ('A' for Active; 'I' for Inactive)
REMARK    1  A    between atoms: N_1  and  C_2 
REMARK    2  A    between atoms: C_4  and  C_9 
REMARK    3  A    between atoms: C_9  and  O_11 
ROOT
HETATM    1  C   UNL     1      65.761   6.849   6.088  1.00  0.00     0.038 A 
HETATM    2  C   UNL     1      67.176   6.933   5.982  1.00  0.00    -0.008 A 
HETATM    3  C   UNL     1      65.264   5.993   7.099  1.00  0.00     0.030 A 
HETATM    4  C   UNL     1      67.995   6.264   6.924  1.00  0.00     0.011 A 
HETATM    5  C   UNL     1      66.091   5.290   7.983  1.00  0.00     0.002 A 
HETATM    6  C   UNL     1      67.460   5.447   7.914  1.00  0.00     0.001 A 
ENDROOT
BRANCH   1   7
HETATM    7  N   UNL     1      64.867   7.487   5.220  1.00  0.00    -0.377 N 
HETATM    8  C   UNL     1      64.589   6.979   3.862  1.00  0.00     0.150 C 
HETATM    9  C   UNL     1      63.100   7.246   3.539  1.00  0.00     0.254 C 
HETATM   10  N   UNL     1      62.796   8.696   3.530  1.00  0.00    -0.072 N 
HETATM   11  C   UNL     1      63.198   9.289   4.826  1.00  0.00     0.254 C 
HETATM   12  C   UNL     1      61.371   8.920   3.290  1.00  0.00     0.269 C 
HETATM   13  H   UNL     1      63.320   9.141   2.777  1.00  0.00     0.279 HD
HETATM   14  C   UNL     1      64.652   8.954   5.259  1.00  0.00     0.150 C 
ENDBRANCH   1   7
BRANCH   2  15
HETATM   15  C   UNL     1      67.879   7.708   4.885  1.00  0.00     0.205 C 
BRANCH  15  16
HETATM   16  O   UNL     1      69.166   8.204   5.258  1.00  0.00    -0.396 OA
HETATM   17  H   UNL     1      69.267   9.114   4.938  1.00  0.00     0.209 HD
ENDBRANCH  15  16
ENDBRANCH   2  15
TORSDOF 3
ENDMDL
