MODEL 1
REMARK VINA RESULT:      -5.3      0.000      0.000
REMARK  1 active torsions:
REMARK  status: ('A' for Active; 'I' for Inactive)
REMARK    1  A    between atoms: N_1  and  C_3 
ROOT
HETATM    1  C   UNL     1      62.501  10.380   3.984  1.00  0.00     0.140 A 
HETATM    2  C   UNL     1      62.744   9.067   3.523  1.00  0.00     0.068 A 
HETATM    3  N   UNL     1      63.158  11.168   6.378  1.00  0.00    -0.190 NA
HETATM    4  C   UNL     1      62.869  10.824   5.303  1.00  0.00     0.120 C 
HETATM    5  N   UNL     1      61.960  11.389   3.233  1.00  0.00    -0.356 N 
ATOM      6  HN  UNL     1      61.799  12.315   3.628  1.00  0.00     0.166 HD
HETATM    7  C   UNL     1      62.404   8.864   2.171  1.00  0.00     0.034 A 
HETATM    8  C   UNL     1      61.649  11.111   1.956  1.00  0.00     0.089 A 
HETATM    9  C   UNL     1      61.859   9.877   1.380  1.00  0.00     0.019 A 
ENDROOT
BRANCH   2  10
HETATM   10  N   UNL     1      63.251   8.012   4.263  1.00  0.00    -0.378 N 
HETATM   11  C   UNL     1      64.681   7.689   4.322  1.00  0.00     0.123 C 
HETATM   12  C   UNL     1      65.126   7.607   5.784  1.00  0.00     0.020 C 
HETATM   13  C   UNL     1      64.248   6.664   6.600  1.00  0.00     0.003 C 
HETATM   14  C   UNL     1      62.769   7.020   6.447  1.00  0.00     0.020 C 
HETATM   15  C   UNL     1      62.370   7.076   4.973  1.00  0.00     0.123 C 
ENDBRANCH   2  10
TORSDOF 1
ENDMDL
MODEL 2
REMARK VINA RESULT:      -5.2      1.211      1.979
REMARK  1 active torsions:
REMARK  status: ('A' for Active; 'I' for Inactive)
REMARK    1  A    between atoms: N_1  and  C_3 
ROOT
HETATM    1  C   UNL     1      62.144   9.741   3.017  1.00  0.00     0.140 A 
HETATM    2  C   UNL     1      62.809   8.559   3.410  1.00  0.00     0.068 A 
HETATM    3  N   UNL     1      61.969  11.830   4.563  1.00  0.00    -0.190 NA
HETATM    4  C   UNL     1      62.051  10.902   3.864  1.00  0.00     0.120 C 
HETATM    5  N   UNL     1      61.578   9.952   1.788  1.00  0.00    -0.356 N 
ATOM      6  HN  UNL     1      61.102  10.827   1.568  1.00  0.00     0.166 HD
HETATM    7  C   UNL     1      62.877   7.578   2.401  1.00  0.00     0.034 A 
HETATM    8  C   UNL     1      61.674   8.964   0.884  1.00  0.00     0.089 A 
HETATM    9  C   UNL     1      62.316   7.771   1.137  1.00  0.00     0.019 A 
ENDROOT
BRANCH   2  10
HETATM   10  N   UNL     1      63.358   8.294   4.655  1.00  0.00    -0.378 N 
HETATM   11  C   UNL     1      62.598   7.683   5.751  1.00  0.00     0.123 C 
HETATM   12  C   UNL     1      63.354   6.461   6.278  1.00  0.00     0.020 C 
HETATM   13  C   UNL     1      64.799   6.792   6.639  1.00  0.00     0.003 C 
HETATM   14  C   UNL     1      65.513   7.477   5.474  1.00  0.00     0.020 C 
HETATM   15  C   UNL     1      64.729   8.697   4.993  1.00  0.00     0.123 C 
ENDBRANCH   2  10
TORSDOF 1
ENDMDL
MODEL 3
REMARK VINA RESULT:      -5.1     18.861     20.152
REMARK  1 active torsions:
REMARK  status: ('A' for Active; 'I' for Inactive)
REMARK    1  A    between atoms: N_1  and  C_3 
ROOT
HETATM    1  C   UNL     1      76.982   2.679  18.212  1.00  0.00     0.140 A 
HETATM    2  C   UNL     1      75.909   2.174  17.445  1.00  0.00     0.068 A 
HETATM    3  N   UNL     1      78.676   1.129  19.442  1.00  0.00    -0.190 NA
HETATM    4  C   UNL     1      77.927   1.827  18.887  1.00  0.00     0.120 C 
HETATM    5  N   UNL     1      77.292   4.005  18.351  1.00  0.00    -0.356 N 
ATOM      6  HN  UNL     1      78.076   4.308  18.929  1.00  0.00     0.166 HD
HETATM    7  C   UNL     1      75.163   3.168  16.781  1.00  0.00     0.034 A 
HETATM    8  C   UNL     1      76.524   4.892  17.697  1.00  0.00     0.089 A 
HETATM    9  C   UNL     1      75.463   4.526  16.899  1.00  0.00     0.019 A 
ENDROOT
BRANCH   2  10
HETATM   10  N   UNL     1      75.541   0.845  17.313  1.00  0.00    -0.378 N 
HETATM   11  C   UNL     1      74.809   0.111  18.350  1.00  0.00     0.123 C 
HETATM   12  C   UNL     1      73.562  -0.532  17.738  1.00  0.00     0.020 C 
HETATM   13  C   UNL     1      73.894  -1.371  16.507  1.00  0.00     0.003 C 
HETATM   14  C   UNL     1      74.706  -0.564  15.495  1.00  0.00     0.020 C 
HETATM   15  C   UNL     1      75.945   0.045  16.149  1.00  0.00     0.123 C 
ENDBRANCH   2  10
TORSDOF 1
ENDMDL
MODEL 4
REMARK VINA RESULT:      -4.9      1.722      4.174
REMARK  1 active torsions:
REMARK  status: ('A' for Active; 'I' for Inactive)
REMARK    1  A    between atoms: N_1  and  C_3 
ROOT
HETATM    1  C   UNL     1      63.318   9.423   4.512  1.00  0.00     0.140 A 
HETATM    2  C   UNL     1      62.977   8.420   3.578  1.00  0.00     0.068 A 
HETATM    3  N   UNL     1      62.016  11.671   4.691  1.00  0.00    -0.190 NA
HETATM    4  C   UNL     1      62.597  10.664   4.622  1.00  0.00     0.120 C 
HETATM    5  N   UNL     1      64.308   9.317   5.453  1.00  0.00    -0.356 N 
ATOM      6  HN  UNL     1      64.513  10.082   6.094  1.00  0.00     0.166 HD
HETATM    7  C   UNL     1      63.738   7.241   3.701  1.00  0.00     0.034 A 
HETATM    8  C   UNL     1      64.998   8.165   5.497  1.00  0.00     0.089 A 
HETATM    9  C   UNL     1      64.747   7.103   4.656  1.00  0.00     0.019 A 
ENDROOT
BRANCH   2  10
HETATM   10  N   UNL     1      62.011   8.506   2.588  1.00  0.00    -0.378 N 
HETATM   11  C   UNL     1      62.257   9.127   1.282  1.00  0.00     0.123 C 
HETATM   12  C   UNL     1      61.866   8.151   0.171  1.00  0.00     0.020 C 
HETATM   13  C   UNL     1      60.445   7.623   0.344  1.00  0.00     0.003 C 
HETATM   14  C   UNL     1      60.241   7.044   1.743  1.00  0.00     0.020 C 
HETATM   15  C   UNL     1      60.631   8.059   2.817  1.00  0.00     0.123 C 
ENDBRANCH   2  10
TORSDOF 1
ENDMDL
MODEL 5
REMARK VINA RESULT:      -4.8      3.231      5.053
REMARK  1 active torsions:
REMARK  status: ('A' for Active; 'I' for Inactive)
REMARK    1  A    between atoms: N_1  and  C_3 
ROOT
HETATM    1  C   UNL     1      65.833   7.690   5.672  1.00  0.00     0.140 A 
HETATM    2  C   UNL     1      65.338   6.709   6.560  1.00  0.00     0.068 A 
HETATM    3  N   UNL     1      68.374   7.983   5.183  1.00  0.00    -0.190 NA
HETATM    4  C   UNL     1      67.236   7.851   5.391  1.00  0.00     0.120 C 
HETATM    5  N   UNL     1      65.058   8.543   4.933  1.00  0.00    -0.356 N 
ATOM      6  HN  UNL     1      65.476   9.238   4.315  1.00  0.00     0.166 HD
HETATM    7  C   UNL     1      63.932   6.647   6.617  1.00  0.00     0.034 A 
HETATM    8  C   UNL     1      63.725   8.429   5.053  1.00  0.00     0.089 A 
HETATM    9  C   UNL     1      63.118   7.499   5.869  1.00  0.00     0.019 A 
ENDROOT
BRANCH   2  10
HETATM   10  N   UNL     1      66.090   5.857   7.352  1.00  0.00    -0.378 N 
HETATM   11  C   UNL     1      66.616   4.574   6.874  1.00  0.00     0.123 C 
HETATM   12  C   UNL     1      68.122   4.510   7.135  1.00  0.00     0.020 C 
HETATM   13  C   UNL     1      68.467   4.812   8.591  1.00  0.00     0.003 C 
HETATM   14  C   UNL     1      67.840   6.132   9.040  1.00  0.00     0.020 C 
HETATM   15  C   UNL     1      66.336   6.142   8.772  1.00  0.00     0.123 C 
ENDBRANCH   2  10
TORSDOF 1
ENDMDL
MODEL 6
REMARK VINA RESULT:      -4.7      4.739      6.676
REMARK  1 active torsions:
REMARK  status: ('A' for Active; 'I' for Inactive)
REMARK    1  A    between atoms: N_1  and  C_3 
ROOT
HETATM    1  C   UNL     1      66.687   6.759   7.459  1.00  0.00     0.140 A 
HETATM    2  C   UNL     1      67.596   5.897   6.806  1.00  0.00     0.068 A 
HETATM    3  N   UNL     1      66.301   6.695  10.033  1.00  0.00    -0.190 NA
HETATM    4  C   UNL     1      66.476   6.734   8.883  1.00  0.00     0.120 C 
HETATM    5  N   UNL     1      65.962   7.746   6.847  1.00  0.00    -0.356 N 
ATOM      6  HN  UNL     1      65.313   8.330   7.373  1.00  0.00     0.166 HD
HETATM    7  C   UNL     1      67.733   6.150   5.426  1.00  0.00     0.034 A 
HETATM    8  C   UNL     1      66.140   7.915   5.526  1.00  0.00     0.089 A 
HETATM    9  C   UNL     1      67.013   7.155   4.779  1.00  0.00     0.019 A 
ENDROOT
BRANCH   2  10
HETATM   10  N   UNL     1      68.315   4.863   7.383  1.00  0.00    -0.378 N 
HETATM   11  C   UNL     1      69.424   5.083   8.318  1.00  0.00     0.123 C 
HETATM   12  C   UNL     1      69.181   4.279   9.596  1.00  0.00     0.020 C 
HETATM   13  C   UNL     1      68.903   2.807   9.306  1.00  0.00     0.003 C 
HETATM   14  C   UNL     1      67.779   2.652   8.282  1.00  0.00     0.020 C 
HETATM   15  C   UNL     1      68.073   3.460   7.019  1.00  0.00     0.123 C 
ENDBRANCH   2  10
TORSDOF 1
ENDMDL
MODEL 7
REMARK VINA RESULT:      -4.6      1.579      3.097
REMARK  1 active torsions:
REMARK  status: ('A' for Active; 'I' for Inactive)
REMARK    1  A    between atoms: N_1  and  C_3 
ROOT
HETATM    1  C   UNL     1      62.933   8.691   3.412  1.00  0.00     0.140 A 
HETATM    2  C   UNL     1      63.399   8.931   4.723  1.00  0.00     0.068 A 
HETATM    3  N   UNL     1      63.302   6.421   2.189  1.00  0.00    -0.190 NA
HETATM    4  C   UNL     1      63.126   7.435   2.734  1.00  0.00     0.120 C 
HETATM    5  N   UNL     1      62.199   9.573   2.665  1.00  0.00    -0.356 N 
ATOM      6  HN  UNL     1      61.900   9.343   1.717  1.00  0.00     0.166 HD
HETATM    7  C   UNL     1      63.019  10.183   5.245  1.00  0.00     0.034 A 
HETATM    8  C   UNL     1      61.888  10.751   3.229  1.00  0.00     0.089 A 
HETATM    9  C   UNL     1      62.264  11.098   4.508  1.00  0.00     0.019 A 
ENDROOT
BRANCH   2  10
HETATM   10  N   UNL     1      64.177   8.081   5.493  1.00  0.00    -0.378 N 
HETATM   11  C   UNL     1      63.609   7.063   6.383  1.00  0.00     0.123 C 
HETATM   12  C   UNL     1      64.231   5.701   6.064  1.00  0.00     0.020 C 
HETATM   13  C   UNL     1      65.756   5.749   6.076  1.00  0.00     0.003 C 
HETATM   14  C   UNL     1      66.277   6.867   5.175  1.00  0.00     0.020 C 
HETATM   15  C   UNL     1      65.640   8.207   5.541  1.00  0.00     0.123 C 
ENDBRANCH   2  10
TORSDOF 1
ENDMDL
MODEL 8
REMARK VINA RESULT:      -4.6      1.320      2.664
REMARK  1 active torsions:
REMARK  status: ('A' for Active; 'I' for Inactive)
REMARK    1  A    between atoms: N_1  and  C_3 
ROOT
HETATM    1  C   UNL     1      62.298   9.227   2.116  1.00  0.00     0.140 A 
HETATM    2  C   UNL     1      62.533   9.109   3.504  1.00  0.00     0.068 A 
HETATM    3  N   UNL     1      62.448   7.196   0.493  1.00  0.00    -0.190 NA
HETATM    4  C   UNL     1      62.371   8.106   1.215  1.00  0.00     0.120 C 
HETATM    5  N   UNL     1      61.914  10.377   1.479  1.00  0.00    -0.356 N 
ATOM      6  HN  UNL     1      61.770  10.400   0.470  1.00  0.00     0.166 HD
HETATM    7  C   UNL     1      62.311  10.300   4.225  1.00  0.00     0.034 A 
HETATM    8  C   UNL     1      61.736  11.473   2.235  1.00  0.00     0.089 A 
HETATM    9  C   UNL     1      61.911  11.483   3.601  1.00  0.00     0.019 A 
ENDROOT
BRANCH   2  10
HETATM   10  N   UNL     1      62.960   7.976   4.177  1.00  0.00    -0.378 N 
HETATM   11  C   UNL     1      64.368   7.569   4.246  1.00  0.00     0.123 C 
HETATM   12  C   UNL     1      64.767   7.358   5.708  1.00  0.00     0.020 C 
HETATM   13  C   UNL     1      63.816   6.410   6.432  1.00  0.00     0.003 C 
HETATM   14  C   UNL     1      62.364   6.860   6.271  1.00  0.00     0.020 C 
HETATM   15  C   UNL     1      62.009   7.044   4.796  1.00  0.00     0.123 C 
ENDBRANCH   2  10
TORSDOF 1
ENDMDL
MODEL 9
REMARK VINA RESULT:      -4.5      4.307      7.620
REMARK  1 active torsions:
REMARK  status: ('A' for Active; 'I' for Inactive)
REMARK    1  A    between atoms: N_1  and  C_3 
ROOT
HETATM    1  C   UNL     1      67.929   4.462   6.635  1.00  0.00     0.140 A 
HETATM    2  C   UNL     1      67.603   5.636   7.350  1.00  0.00     0.068 A 
HETATM    3  N   UNL     1      67.035   3.991   4.235  1.00  0.00    -0.190 NA
HETATM    4  C   UNL     1      67.445   4.200   5.304  1.00  0.00     0.120 C 
HETATM    5  N   UNL     1      68.778   3.483   7.077  1.00  0.00    -0.356 N 
ATOM      6  HN  UNL     1      68.966   2.652   6.517  1.00  0.00     0.166 HD
HETATM    7  C   UNL     1      68.259   5.751   8.591  1.00  0.00     0.034 A 
HETATM    8  C   UNL     1      69.355   3.660   8.277  1.00  0.00     0.089 A 
HETATM    9  C   UNL     1      69.136   4.772   9.062  1.00  0.00     0.019 A 
ENDROOT
BRANCH   2  10
HETATM   10  N   UNL     1      66.719   6.627   6.954  1.00  0.00    -0.378 N 
HETATM   11  C   UNL     1      67.124   7.789   6.156  1.00  0.00     0.123 C 
HETATM   12  C   UNL     1      66.224   7.901   4.923  1.00  0.00     0.020 C 
HETATM   13  C   UNL     1      64.743   7.892   5.290  1.00  0.00     0.003 C 
HETATM   14  C   UNL     1      64.403   6.688   6.168  1.00  0.00     0.020 C 
HETATM   15  C   UNL     1      65.317   6.628   7.391  1.00  0.00     0.123 C 
ENDBRANCH   2  10
TORSDOF 1
ENDMDL
