MODEL 1
REMARK VINA RESULT:      -5.4      0.000      0.000
REMARK  3 active torsions:
REMARK  status: ('A' for Active; 'I' for Inactive)
REMARK    1  A    between atoms: C_1  and  N_4 
REMARK    2  A    between atoms: C_5  and  C_11 
REMARK    3  A    between atoms: N_6  and  C_11 
ROOT
HETATM    1  C   UNL     1      76.455   5.236  17.052  1.00  0.00     0.103 A 
HETATM    2  N   UNL     1      77.242   4.443  17.811  1.00  0.00    -0.344 N 
ATOM      3  HN  UNL     1      78.107   4.805  18.214  1.00  0.00     0.167 HD
HETATM    4  C   UNL     1      76.866   3.157  18.028  1.00  0.00     0.036 A 
HETATM    5  C   UNL     1      75.268   4.745  16.503  1.00  0.00     0.048 A 
HETATM    6  C   UNL     1      74.869   3.436  16.750  1.00  0.00     0.006 A 
HETATM    7  C   UNL     1      75.680   2.624  17.527  1.00  0.00     0.027 A 
ENDROOT
BRANCH   1   8
HETATM    8  N   UNL     1      76.758   6.581  16.912  1.00  0.00    -0.367 N 
HETATM    9  C   UNL     1      76.662   7.165  15.578  1.00  0.00     0.124 C 
HETATM   10  C   UNL     1      77.717   8.275  15.495  1.00  0.00     0.020 C 
HETATM   11  C   UNL     1      77.574   9.288  16.636  1.00  0.00     0.003 C 
HETATM   12  C   UNL     1      77.481   8.604  18.004  1.00  0.00     0.020 C 
HETATM   13  C   UNL     1      76.426   7.497  18.001  1.00  0.00     0.124 C 
ENDBRANCH   1   8
BRANCH   4  14
HETATM   14  C   UNL     1      77.770   2.302  18.890  1.00  0.00     0.286 C 
BRANCH  14  15
HETATM   15  N   UNL     1      78.082   2.927  20.179  1.00  0.00    -0.074 N 
HETATM   16  H   UNL     1      78.687   2.308  20.720  1.00  0.00     0.274 HD
HETATM   17  H   UNL     1      77.218   3.094  20.695  1.00  0.00     0.274 HD
HETATM   18  H   UNL     1      78.560   3.814  20.021  1.00  0.00     0.274 HD
ENDBRANCH  14  15
ENDBRANCH   4  14
TORSDOF 3
ENDMDL
MODEL 2
REMARK VINA RESULT:      -5.3     15.954     17.640
REMARK  3 active torsions:
REMARK  status: ('A' for Active; 'I' for Inactive)
REMARK    1  A    between atoms: C_1  and  N_4 
REMARK    2  A    between atoms: C_5  and  C_11 
REMARK    3  A    between atoms: N_6  and  C_11 
ROOT
HETATM    1  C   UNL     1      64.722   7.865   4.978  1.00  0.00     0.103 A 
HETATM    2  N   UNL     1      64.288   9.033   5.496  1.00  0.00    -0.344 N 
ATOM      3  HN  UNL     1      64.711   9.413   6.343  1.00  0.00     0.167 HD
HETATM    4  C   UNL     1      63.279   9.695   4.872  1.00  0.00     0.036 A 
HETATM    5  C   UNL     1      64.150   7.344   3.815  1.00  0.00     0.048 A 
HETATM    6  C   UNL     1      63.137   8.037   3.161  1.00  0.00     0.006 A 
HETATM    7  C   UNL     1      62.692   9.235   3.696  1.00  0.00     0.027 A 
ENDROOT
BRANCH   1   8
HETATM    8  N   UNL     1      65.825   7.230   5.530  1.00  0.00    -0.367 N 
HETATM    9  C   UNL     1      66.733   6.533   4.625  1.00  0.00     0.124 C 
HETATM   10  C   UNL     1      67.318   5.347   5.400  1.00  0.00     0.020 C 
HETATM   11  C   UNL     1      67.960   5.785   6.721  1.00  0.00     0.003 C 
HETATM   12  C   UNL     1      67.029   6.680   7.543  1.00  0.00     0.020 C 
HETATM   13  C   UNL     1      66.469   7.826   6.698  1.00  0.00     0.124 C 
ENDBRANCH   1   8
BRANCH   4  14
HETATM   14  C   UNL     1      62.826  11.006   5.478  1.00  0.00     0.286 C 
BRANCH  14  15
HETATM   15  N   UNL     1      63.804  11.566   6.417  1.00  0.00    -0.074 N 
HETATM   16  H   UNL     1      63.512  12.505   6.691  1.00  0.00     0.274 HD
HETATM   17  H   UNL     1      64.719  11.612   5.968  1.00  0.00     0.274 HD
HETATM   18  H   UNL     1      63.860  10.972   7.244  1.00  0.00     0.274 HD
ENDBRANCH  14  15
ENDBRANCH   4  14
TORSDOF 3
ENDMDL
MODEL 3
REMARK VINA RESULT:      -4.9     12.026     13.275
REMARK  3 active torsions:
REMARK  status: ('A' for Active; 'I' for Inactive)
REMARK    1  A    between atoms: C_1  and  N_4 
REMARK    2  A    between atoms: C_5  and  C_11 
REMARK    3  A    between atoms: N_6  and  C_11 
ROOT
HETATM    1  C   UNL     1      68.177   4.941   8.000  1.00  0.00     0.103 A 
HETATM    2  N   UNL     1      67.604   3.746   8.260  1.00  0.00    -0.344 N 
ATOM      3  HN  UNL     1      66.691   3.513   7.869  1.00  0.00     0.167 HD
HETATM    4  C   UNL     1      68.262   2.860   9.051  1.00  0.00     0.036 A 
HETATM    5  C   UNL     1      69.429   5.261   8.529  1.00  0.00     0.048 A 
HETATM    6  C   UNL     1      70.115   4.341   9.315  1.00  0.00     0.006 A 
HETATM    7  C   UNL     1      69.524   3.117   9.582  1.00  0.00     0.027 A 
ENDROOT
BRANCH   1   8
HETATM    8  N   UNL     1      67.578   5.815   7.105  1.00  0.00    -0.367 N 
HETATM    9  C   UNL     1      67.292   5.322   5.761  1.00  0.00     0.124 C 
HETATM   10  C   UNL     1      67.412   6.517   4.808  1.00  0.00     0.020 C 
HETATM   11  C   UNL     1      66.531   7.691   5.248  1.00  0.00     0.003 C 
HETATM   12  C   UNL     1      66.731   8.038   6.726  1.00  0.00     0.020 C 
HETATM   13  C   UNL     1      66.619   6.794   7.609  1.00  0.00     0.124 C 
ENDBRANCH   1   8
BRANCH   4  14
HETATM   14  C   UNL     1      67.592   1.528   9.312  1.00  0.00     0.286 C 
BRANCH  14  15
HETATM   15  N   UNL     1      67.252   1.331  10.725  1.00  0.00    -0.074 N 
HETATM   16  H   UNL     1      68.093   1.076  11.244  1.00  0.00     0.274 HD
HETATM   17  H   UNL     1      66.563   0.584  10.808  1.00  0.00     0.274 HD
HETATM   18  H   UNL     1      66.866   2.194  11.106  1.00  0.00     0.274 HD
ENDBRANCH  14  15
ENDBRANCH   4  14
TORSDOF 3
ENDMDL
MODEL 4
REMARK VINA RESULT:      -4.8     15.963     17.271
REMARK  3 active torsions:
REMARK  status: ('A' for Active; 'I' for Inactive)
REMARK    1  A    between atoms: C_1  and  N_4 
REMARK    2  A    between atoms: C_5  and  C_11 
REMARK    3  A    between atoms: N_6  and  C_11 
ROOT
HETATM    1  C   UNL     1      65.208   7.736   5.026  1.00  0.00     0.103 A 
HETATM    2  N   UNL     1      65.441   7.719   6.357  1.00  0.00    -0.344 N 
ATOM      3  HN  UNL     1      64.824   8.219   6.997  1.00  0.00     0.167 HD
HETATM    4  C   UNL     1      66.509   7.026   6.828  1.00  0.00     0.036 A 
HETATM    5  C   UNL     1      66.046   7.048   4.147  1.00  0.00     0.048 A 
HETATM    6  C   UNL     1      67.123   6.315   4.633  1.00  0.00     0.006 A 
HETATM    7  C   UNL     1      67.362   6.301   5.998  1.00  0.00     0.027 A 
ENDROOT
BRANCH   1   8
HETATM    8  N   UNL     1      64.061   8.340   4.533  1.00  0.00    -0.367 N 
HETATM    9  C   UNL     1      63.323   7.643   3.484  1.00  0.00     0.124 C 
HETATM   10  C   UNL     1      62.676   8.717   2.601  1.00  0.00     0.020 C 
HETATM   11  C   UNL     1      61.830   9.698   3.419  1.00  0.00     0.003 C 
HETATM   12  C   UNL     1      62.594  10.249   4.625  1.00  0.00     0.020 C 
HETATM   13  C   UNL     1      63.229   9.123   5.443  1.00  0.00     0.124 C 
ENDBRANCH   1   8
BRANCH   4  14
HETATM   14  C   UNL     1      66.732   7.023   8.325  1.00  0.00     0.286 C 
BRANCH  14  15
HETATM   15  N   UNL     1      68.037   6.470   8.703  1.00  0.00    -0.074 N 
HETATM   16  H   UNL     1      67.937   5.916   9.555  1.00  0.00     0.274 HD
HETATM   17  H   UNL     1      68.695   7.231   8.868  1.00  0.00     0.274 HD
HETATM   18  H   UNL     1      68.386   5.875   7.952  1.00  0.00     0.274 HD
ENDBRANCH  14  15
ENDBRANCH   4  14
TORSDOF 3
ENDMDL
MODEL 5
REMARK VINA RESULT:      -4.8     17.825     19.584
REMARK  3 active torsions:
REMARK  status: ('A' for Active; 'I' for Inactive)
REMARK    1  A    between atoms: C_1  and  N_4 
REMARK    2  A    between atoms: C_5  and  C_11 
REMARK    3  A    between atoms: N_6  and  C_11 
ROOT
HETATM    1  C   UNL     1      63.425   8.934   4.554  1.00  0.00     0.103 A 
HETATM    2  N   UNL     1      62.971   8.671   3.309  1.00  0.00    -0.344 N 
ATOM      3  HN  UNL     1      63.187   7.784   2.856  1.00  0.00     0.167 HD
HETATM    4  C   UNL     1      62.222   9.607   2.671  1.00  0.00     0.036 A 
HETATM    5  C   UNL     1      63.126  10.146   5.180  1.00  0.00     0.048 A 
HETATM    6  C   UNL     1      62.335  11.092   4.537  1.00  0.00     0.006 A 
HETATM    7  C   UNL     1      61.873  10.821   3.260  1.00  0.00     0.027 A 
ENDROOT
BRANCH   1   8
HETATM    8  N   UNL     1      64.092   7.951   5.269  1.00  0.00    -0.367 N 
HETATM    9  C   UNL     1      65.495   8.182   5.596  1.00  0.00     0.124 C 
HETATM   10  C   UNL     1      66.183   6.812   5.623  1.00  0.00     0.020 C 
HETATM   11  C   UNL     1      65.471   5.832   6.562  1.00  0.00     0.003 C 
HETATM   12  C   UNL     1      63.963   5.778   6.301  1.00  0.00     0.020 C 
HETATM   13  C   UNL     1      63.355   7.181   6.266  1.00  0.00     0.124 C 
ENDBRANCH   1   8
BRANCH   4  14
HETATM   14  C   UNL     1      61.724   9.273   1.282  1.00  0.00     0.286 C 
BRANCH  14  15
HETATM   15  N   UNL     1      60.337   8.797   1.275  1.00  0.00    -0.074 N 
HETATM   16  H   UNL     1      59.703   9.596   1.311  1.00  0.00     0.274 HD
HETATM   17  H   UNL     1      60.178   8.201   2.087  1.00  0.00     0.274 HD
HETATM   18  H   UNL     1      60.164   8.264   0.424  1.00  0.00     0.274 HD
ENDBRANCH  14  15
ENDBRANCH   4  14
TORSDOF 3
ENDMDL
MODEL 6
REMARK VINA RESULT:      -4.7     17.459     18.801
REMARK  3 active torsions:
REMARK  status: ('A' for Active; 'I' for Inactive)
REMARK    1  A    between atoms: C_1  and  N_4 
REMARK    2  A    between atoms: C_5  and  C_11 
REMARK    3  A    between atoms: N_6  and  C_11 
ROOT
HETATM    1  C   UNL     1      63.642   8.270   4.586  1.00  0.00     0.103 A 
HETATM    2  N   UNL     1      64.986   8.394   4.627  1.00  0.00    -0.344 N 
ATOM      3  HN  UNL     1      65.472   8.990   3.956  1.00  0.00     0.167 HD
HETATM    4  C   UNL     1      65.681   7.715   5.575  1.00  0.00     0.036 A 
HETATM    5  C   UNL     1      62.973   7.460   5.507  1.00  0.00     0.048 A 
HETATM    6  C   UNL     1      63.683   6.787   6.495  1.00  0.00     0.006 A 
HETATM    7  C   UNL     1      65.062   6.915   6.534  1.00  0.00     0.027 A 
ENDROOT
BRANCH   1   8
HETATM    8  N   UNL     1      62.903   9.042   3.703  1.00  0.00    -0.367 N 
HETATM    9  C   UNL     1      62.386   8.395   2.502  1.00  0.00     0.124 C 
HETATM   10  C   UNL     1      62.346   9.459   1.399  1.00  0.00     0.020 C 
HETATM   11  C   UNL     1      61.561  10.702   1.830  1.00  0.00     0.003 C 
HETATM   12  C   UNL     1      62.016  11.224   3.196  1.00  0.00     0.020 C 
HETATM   13  C   UNL     1      62.051  10.103   4.235  1.00  0.00     0.124 C 
ENDBRANCH   1   8
BRANCH   4  14
HETATM   14  C   UNL     1      67.185   7.887   5.595  1.00  0.00     0.286 C 
BRANCH  14  15
HETATM   15  N   UNL     1      67.885   6.853   4.825  1.00  0.00    -0.074 N 
HETATM   16  H   UNL     1      68.789   7.212   4.518  1.00  0.00     0.274 HD
HETATM   17  H   UNL     1      67.326   6.598   4.011  1.00  0.00     0.274 HD
HETATM   18  H   UNL     1      68.027   6.031   5.411  1.00  0.00     0.274 HD
ENDBRANCH  14  15
ENDBRANCH   4  14
TORSDOF 3
ENDMDL
MODEL 7
REMARK VINA RESULT:      -4.6     13.250     15.144
REMARK  3 active torsions:
REMARK  status: ('A' for Active; 'I' for Inactive)
REMARK    1  A    between atoms: C_1  and  N_4 
REMARK    2  A    between atoms: C_5  and  C_11 
REMARK    3  A    between atoms: N_6  and  C_11 
ROOT
HETATM    1  C   UNL     1      67.121   5.930   6.735  1.00  0.00     0.103 A 
HETATM    2  N   UNL     1      65.779   5.984   6.873  1.00  0.00    -0.344 N 
ATOM      3  HN  UNL     1      65.296   5.343   7.503  1.00  0.00     0.167 HD
HETATM    4  C   UNL     1      65.081   6.905   6.159  1.00  0.00     0.036 A 
HETATM    5  C   UNL     1      67.785   6.810   5.877  1.00  0.00     0.048 A 
HETATM    6  C   UNL     1      67.073   7.772   5.169  1.00  0.00     0.006 A 
HETATM    7  C   UNL     1      65.696   7.823   5.311  1.00  0.00     0.027 A 
ENDROOT
BRANCH   1   8
HETATM    8  N   UNL     1      67.865   5.078   7.537  1.00  0.00    -0.367 N 
HETATM    9  C   UNL     1      68.651   5.672   8.614  1.00  0.00     0.124 C 
HETATM   10  C   UNL     1      69.892   4.790   8.803  1.00  0.00     0.020 C 
HETATM   11  C   UNL     1      69.521   3.321   9.032  1.00  0.00     0.003 C 
HETATM   12  C   UNL     1      68.535   2.806   7.979  1.00  0.00     0.020 C 
HETATM   13  C   UNL     1      67.338   3.748   7.832  1.00  0.00     0.124 C 
ENDBRANCH   1   8
BRANCH   4  14
HETATM   14  C   UNL     1      63.580   6.941   6.348  1.00  0.00     0.286 C 
BRANCH  14  15
HETATM   15  N   UNL     1      63.019   8.286   6.181  1.00  0.00    -0.074 N 
HETATM   16  H   UNL     1      63.069   8.556   5.198  1.00  0.00     0.274 HD
HETATM   17  H   UNL     1      63.552   8.949   6.743  1.00  0.00     0.274 HD
HETATM   18  H   UNL     1      62.045   8.288   6.485  1.00  0.00     0.274 HD
ENDBRANCH  14  15
ENDBRANCH   4  14
TORSDOF 3
ENDMDL
MODEL 8
REMARK VINA RESULT:      -4.6     12.583     13.858
REMARK  3 active torsions:
REMARK  status: ('A' for Active; 'I' for Inactive)
REMARK    1  A    between atoms: C_1  and  N_4 
REMARK    2  A    between atoms: C_5  and  C_11 
REMARK    3  A    between atoms: N_6  and  C_11 
ROOT
HETATM    1  C   UNL     1      67.835   4.891   6.873  1.00  0.00     0.103 A 
HETATM    2  N   UNL     1      68.376   4.934   8.109  1.00  0.00    -0.344 N 
ATOM      3  HN  UNL     1      68.354   5.796   8.655  1.00  0.00     0.167 HD
HETATM    4  C   UNL     1      68.951   3.813   8.615  1.00  0.00     0.036 A 
HETATM    5  C   UNL     1      67.858   3.711   6.125  1.00  0.00     0.048 A 
HETATM    6  C   UNL     1      68.422   2.555   6.656  1.00  0.00     0.006 A 
HETATM    7  C   UNL     1      68.978   2.603   7.924  1.00  0.00     0.027 A 
ENDROOT
BRANCH   1   8
HETATM    8  N   UNL     1      67.142   5.987   6.383  1.00  0.00    -0.367 N 
HETATM    9  C   UNL     1      66.045   6.514   7.187  1.00  0.00     0.124 C 
HETATM   10  C   UNL     1      65.009   7.089   6.214  1.00  0.00     0.020 C 
HETATM   11  C   UNL     1      65.629   8.109   5.253  1.00  0.00     0.003 C 
HETATM   12  C   UNL     1      66.896   7.569   4.582  1.00  0.00     0.020 C 
HETATM   13  C   UNL     1      67.868   6.994   5.612  1.00  0.00     0.124 C 
ENDBRANCH   1   8
BRANCH   4  14
HETATM   14  C   UNL     1      69.539   3.898  10.007  1.00  0.00     0.286 C 
BRANCH  14  15
HETATM   15  N   UNL     1      69.681   2.586  10.645  1.00  0.00    -0.074 N 
HETATM   16  H   UNL     1      68.824   2.048  10.510  1.00  0.00     0.274 HD
HETATM   17  H   UNL     1      69.850   2.709  11.643  1.00  0.00     0.274 HD
HETATM   18  H   UNL     1      70.465   2.086  10.226  1.00  0.00     0.274 HD
ENDBRANCH  14  15
ENDBRANCH   4  14
TORSDOF 3
ENDMDL
MODEL 9
REMARK VINA RESULT:      -4.4     34.255     35.571
REMARK  3 active torsions:
REMARK  status: ('A' for Active; 'I' for Inactive)
REMARK    1  A    between atoms: C_1  and  N_4 
REMARK    2  A    between atoms: C_5  and  C_11 
REMARK    3  A    between atoms: N_6  and  C_11 
ROOT
HETATM    1  C   UNL     1      49.070  21.536   2.115  1.00  0.00     0.103 A 
HETATM    2  N   UNL     1      48.479  21.548   3.329  1.00  0.00    -0.344 N 
ATOM      3  HN  UNL     1      47.882  20.775   3.623  1.00  0.00     0.167 HD
HETATM    4  C   UNL     1      48.691  22.607   4.153  1.00  0.00     0.036 A 
HETATM    5  C   UNL     1      49.892  22.591   1.712  1.00  0.00     0.048 A 
HETATM    6  C   UNL     1      50.131  23.660   2.568  1.00  0.00     0.006 A 
HETATM    7  C   UNL     1      49.522  23.671   3.812  1.00  0.00     0.027 A 
ENDROOT
BRANCH   1   8
HETATM    8  N   UNL     1      48.961  20.416   1.304  1.00  0.00    -0.367 N 
HETATM    9  C   UNL     1      49.161  19.109   1.920  1.00  0.00     0.124 C 
HETATM   10  C   UNL     1      49.768  18.195   0.849  1.00  0.00     0.020 C 
HETATM   11  C   UNL     1      48.920  18.165  -0.427  1.00  0.00     0.003 C 
HETATM   12  C   UNL     1      48.574  19.573  -0.920  1.00  0.00     0.020 C 
HETATM   13  C   UNL     1      47.996  20.430   0.208  1.00  0.00     0.124 C 
ENDBRANCH   1   8
BRANCH   4  14
HETATM   14  C   UNL     1      48.019  22.580   5.509  1.00  0.00     0.286 C 
BRANCH  14  15
HETATM   15  N   UNL     1      48.748  21.768   6.488  1.00  0.00    -0.074 N 
HETATM   16  H   UNL     1      48.396  20.810   6.465  1.00  0.00     0.274 HD
HETATM   17  H   UNL     1      48.614  22.157   7.421  1.00  0.00     0.274 HD
HETATM   18  H   UNL     1      49.742  21.769   6.260  1.00  0.00     0.274 HD
ENDBRANCH  14  15
ENDBRANCH   4  14
TORSDOF 3
ENDMDL
