MODEL 1
REMARK VINA RESULT:      -5.3      0.000      0.000
REMARK  3 active torsions:
REMARK  status: ('A' for Active; 'I' for Inactive)
REMARK    1  A    between atoms: N_1  and  C_2 
REMARK    2  A    between atoms: C_4  and  C_10 
REMARK    3  A    between atoms: O_8  and  C_10 
ROOT
HETATM    1  C   UNL     1      70.554  23.984  14.290  1.00  0.00     0.030 A 
HETATM    2  C   UNL     1      71.784  23.838  14.947  1.00  0.00     0.038 A 
HETATM    3  C   UNL     1      72.724  22.848  14.586  1.00  0.00    -0.033 A 
HETATM    4  C   UNL     1      70.332  23.127  13.196  1.00  0.00     0.029 A 
HETATM    5  C   UNL     1      71.256  22.152  12.809  1.00  0.00     0.003 A 
HETATM    6  C   UNL     1      72.446  22.006  13.508  1.00  0.00     0.009 A 
ENDROOT
BRANCH   1   7
HETATM    7  N   UNL     1      69.595  24.915  14.659  1.00  0.00    -0.381 N 
HETATM    8  C   UNL     1      69.707  25.828  15.798  1.00  0.00     0.123 C 
HETATM    9  C   UNL     1      68.351  25.729  16.486  1.00  0.00     0.021 C 
HETATM   10  C   UNL     1      67.394  25.517  15.330  1.00  0.00     0.021 C 
HETATM   11  C   UNL     1      68.181  24.618  14.380  1.00  0.00     0.123 C 
ENDBRANCH   1   7
BRANCH   3  12
HETATM   12  C   UNL     1      73.997  22.696  15.373  1.00  0.00     0.203 C 
BRANCH  12  13
HETATM   13  O   UNL     1      74.010  21.466  16.086  1.00  0.00    -0.396 OA
HETATM   14  H   UNL     1      73.345  20.869  15.711  1.00  0.00     0.209 HD
ENDBRANCH  12  13
ENDBRANCH   3  12
TORSDOF 3
ENDMDL
MODEL 2
REMARK VINA RESULT:      -5.1      2.153      4.789
REMARK  3 active torsions:
REMARK  status: ('A' for Active; 'I' for Inactive)
REMARK    1  A    between atoms: N_1  and  C_2 
REMARK    2  A    between atoms: C_4  and  C_10 
REMARK    3  A    between atoms: O_8  and  C_10 
ROOT
HETATM    1  C   UNL     1      71.293  22.289  12.810  1.00  0.00     0.030 A 
HETATM    2  C   UNL     1      72.406  22.236  13.662  1.00  0.00     0.038 A 
HETATM    3  C   UNL     1      72.521  23.047  14.811  1.00  0.00    -0.033 A 
HETATM    4  C   UNL     1      70.256  23.154  13.203  1.00  0.00     0.029 A 
HETATM    5  C   UNL     1      70.339  23.953  14.347  1.00  0.00     0.003 A 
HETATM    6  C   UNL     1      71.474  23.908  15.145  1.00  0.00     0.009 A 
ENDROOT
BRANCH   1   7
HETATM    7  N   UNL     1      71.181  21.539  11.649  1.00  0.00    -0.381 N 
HETATM    8  C   UNL     1      70.381  20.320  11.512  1.00  0.00     0.123 C 
HETATM    9  C   UNL     1      71.307  19.350  10.790  1.00  0.00     0.021 C 
HETATM   10  C   UNL     1      72.107  20.256   9.874  1.00  0.00     0.021 C 
HETATM   11  C   UNL     1      72.317  21.511  10.716  1.00  0.00     0.123 C 
ENDBRANCH   1   7
BRANCH   3  12
HETATM   12  C   UNL     1      73.770  22.995  15.649  1.00  0.00     0.203 C 
BRANCH  12  13
HETATM   13  O   UNL     1      74.064  21.660  16.040  1.00  0.00    -0.396 OA
HETATM   14  H   UNL     1      73.905  21.561  16.991  1.00  0.00     0.209 HD
ENDBRANCH  12  13
ENDBRANCH   3  12
TORSDOF 3
ENDMDL
MODEL 3
REMARK VINA RESULT:      -5.1     17.870     19.880
REMARK  3 active torsions:
REMARK  status: ('A' for Active; 'I' for Inactive)
REMARK    1  A    between atoms: N_1  and  C_2 
REMARK    2  A    between atoms: C_4  and  C_10 
REMARK    3  A    between atoms: O_8  and  C_10 
ROOT
HETATM    1  C   UNL     1      64.584   7.910   4.485  1.00  0.00     0.030 A 
HETATM    2  C   UNL     1      64.358   9.057   5.259  1.00  0.00     0.038 A 
HETATM    3  C   UNL     1      63.258   9.914   5.041  1.00  0.00    -0.033 A 
HETATM    4  C   UNL     1      63.609   7.618   3.514  1.00  0.00     0.029 A 
HETATM    5  C   UNL     1      62.502   8.442   3.292  1.00  0.00     0.003 A 
HETATM    6  C   UNL     1      62.331   9.594   4.048  1.00  0.00     0.009 A 
ENDROOT
BRANCH   1   7
HETATM    7  N   UNL     1      65.684   7.081   4.648  1.00  0.00    -0.381 N 
HETATM    8  C   UNL     1      65.619   5.655   4.973  1.00  0.00     0.123 C 
HETATM    9  C   UNL     1      66.654   5.480   6.077  1.00  0.00     0.021 C 
HETATM   10  C   UNL     1      67.729   6.480   5.701  1.00  0.00     0.021 C 
HETATM   11  C   UNL     1      66.936   7.664   5.154  1.00  0.00     0.123 C 
ENDBRANCH   1   7
BRANCH   3  12
HETATM   12  C   UNL     1      63.106  11.168   5.860  1.00  0.00     0.203 C 
BRANCH  12  13
HETATM   13  O   UNL     1      64.341  11.539   6.457  1.00  0.00    -0.396 OA
HETATM   14  H   UNL     1      64.912  10.758   6.529  1.00  0.00     0.209 HD
ENDBRANCH  12  13
ENDBRANCH   3  12
TORSDOF 3
ENDMDL
MODEL 4
REMARK VINA RESULT:      -5.0     18.912     20.810
REMARK  3 active torsions:
REMARK  status: ('A' for Active; 'I' for Inactive)
REMARK    1  A    between atoms: N_1  and  C_2 
REMARK    2  A    between atoms: C_4  and  C_10 
REMARK    3  A    between atoms: O_8  and  C_10 
ROOT
HETATM    1  C   UNL     1      62.411   8.887   2.894  1.00  0.00     0.030 A 
HETATM    2  C   UNL     1      62.642   9.385   4.184  1.00  0.00     0.038 A 
HETATM    3  C   UNL     1      62.476  10.748   4.512  1.00  0.00    -0.033 A 
HETATM    4  C   UNL     1      61.934   9.815   1.950  1.00  0.00     0.029 A 
HETATM    5  C   UNL     1      61.745  11.166   2.257  1.00  0.00     0.003 A 
HETATM    6  C   UNL     1      62.025  11.635   3.533  1.00  0.00     0.009 A 
ENDROOT
BRANCH   1   7
HETATM    7  N   UNL     1      62.615   7.563   2.536  1.00  0.00    -0.381 N 
HETATM    8  C   UNL     1      63.336   6.578   3.345  1.00  0.00     0.123 C 
HETATM    9  C   UNL     1      64.257   5.884   2.348  1.00  0.00     0.021 C 
HETATM   10  C   UNL     1      63.439   5.882   1.071  1.00  0.00     0.021 C 
HETATM   11  C   UNL     1      62.721   7.227   1.108  1.00  0.00     0.123 C 
ENDBRANCH   1   7
BRANCH   3  12
HETATM   12  C   UNL     1      62.806  11.235   5.897  1.00  0.00     0.203 C 
BRANCH  12  13
HETATM   13  O   UNL     1      64.212  11.304   6.091  1.00  0.00    -0.396 OA
HETATM   14  H   UNL     1      64.554  12.119   5.692  1.00  0.00     0.209 HD
ENDBRANCH  12  13
ENDBRANCH   3  12
TORSDOF 3
ENDMDL
MODEL 5
REMARK VINA RESULT:      -5.0     18.903     20.385
REMARK  3 active torsions:
REMARK  status: ('A' for Active; 'I' for Inactive)
REMARK    1  A    between atoms: N_1  and  C_2 
REMARK    2  A    between atoms: C_4  and  C_10 
REMARK    3  A    between atoms: O_8  and  C_10 
ROOT
HETATM    1  C   UNL     1      68.152   5.028   8.055  1.00  0.00     0.030 A 
HETATM    2  C   UNL     1      67.654   3.870   8.669  1.00  0.00     0.038 A 
HETATM    3  C   UNL     1      68.451   3.045   9.491  1.00  0.00    -0.033 A 
HETATM    4  C   UNL     1      69.484   5.364   8.360  1.00  0.00     0.029 A 
HETATM    5  C   UNL     1      70.287   4.572   9.186  1.00  0.00     0.003 A 
HETATM    6  C   UNL     1      69.774   3.408   9.744  1.00  0.00     0.009 A 
ENDROOT
BRANCH   1   7
HETATM    7  N   UNL     1      67.403   5.826   7.204  1.00  0.00    -0.381 N 
HETATM    8  C   UNL     1      67.626   5.955   5.763  1.00  0.00     0.123 C 
HETATM    9  C   UNL     1      67.559   7.457   5.511  1.00  0.00     0.021 C 
HETATM   10  C   UNL     1      66.526   7.927   6.517  1.00  0.00     0.021 C 
HETATM   11  C   UNL     1      66.802   7.057   7.740  1.00  0.00     0.123 C 
ENDBRANCH   1   7
BRANCH   3  12
HETATM   12  C   UNL     1      67.878   1.777  10.067  1.00  0.00     0.203 C 
BRANCH  12  13
HETATM   13  O   UNL     1      68.416   1.517  11.357  1.00  0.00    -0.396 OA
HETATM   14  H   UNL     1      69.216   2.049  11.487  1.00  0.00     0.209 HD
ENDBRANCH  12  13
ENDBRANCH   3  12
TORSDOF 3
ENDMDL
MODEL 6
REMARK VINA RESULT:      -4.8     18.844     20.380
REMARK  3 active torsions:
REMARK  status: ('A' for Active; 'I' for Inactive)
REMARK    1  A    between atoms: N_1  and  C_2 
REMARK    2  A    between atoms: C_4  and  C_10 
REMARK    3  A    between atoms: O_8  and  C_10 
ROOT
HETATM    1  C   UNL     1      63.369   9.113   4.774  1.00  0.00     0.030 A 
HETATM    2  C   UNL     1      62.957   8.794   3.472  1.00  0.00     0.038 A 
HETATM    3  C   UNL     1      62.175   9.670   2.688  1.00  0.00    -0.033 A 
HETATM    4  C   UNL     1      63.016  10.394   5.237  1.00  0.00     0.029 A 
HETATM    5  C   UNL     1      62.259  11.285   4.471  1.00  0.00     0.003 A 
HETATM    6  C   UNL     1      61.830  10.921   3.202  1.00  0.00     0.009 A 
ENDROOT
BRANCH   1   7
HETATM    7  N   UNL     1      64.093   8.250   5.581  1.00  0.00    -0.381 N 
HETATM    8  C   UNL     1      65.521   7.963   5.433  1.00  0.00     0.123 C 
HETATM    9  C   UNL     1      65.607   6.445   5.544  1.00  0.00     0.021 C 
HETATM   10  C   UNL     1      64.509   6.112   6.536  1.00  0.00     0.021 C 
HETATM   11  C   UNL     1      63.401   7.099   6.181  1.00  0.00     0.123 C 
ENDBRANCH   1   7
BRANCH   3  12
HETATM   12  C   UNL     1      61.706   9.243   1.323  1.00  0.00     0.203 C 
BRANCH  12  13
HETATM   13  O   UNL     1      60.320   8.929   1.338  1.00  0.00    -0.396 OA
HETATM   14  H   UNL     1      60.078   8.496   0.505  1.00  0.00     0.209 HD
ENDBRANCH  12  13
ENDBRANCH   3  12
TORSDOF 3
ENDMDL
MODEL 7
REMARK VINA RESULT:      -4.7     18.384     19.588
REMARK  3 active torsions:
REMARK  status: ('A' for Active; 'I' for Inactive)
REMARK    1  A    between atoms: N_1  and  C_2 
REMARK    2  A    between atoms: C_4  and  C_10 
REMARK    3  A    between atoms: O_8  and  C_10 
ROOT
HETATM    1  C   UNL     1      63.735   8.465   4.103  1.00  0.00     0.030 A 
HETATM    2  C   UNL     1      64.692   8.706   5.099  1.00  0.00     0.038 A 
HETATM    3  C   UNL     1      65.713   7.782   5.409  1.00  0.00    -0.033 A 
HETATM    4  C   UNL     1      63.890   7.272   3.374  1.00  0.00     0.029 A 
HETATM    5  C   UNL     1      64.904   6.350   3.651  1.00  0.00     0.003 A 
HETATM    6  C   UNL     1      65.809   6.600   4.673  1.00  0.00     0.009 A 
ENDROOT
BRANCH   1   7
HETATM    7  N   UNL     1      62.694   9.334   3.815  1.00  0.00    -0.381 N 
HETATM    8  C   UNL     1      62.014   9.429   2.522  1.00  0.00     0.123 C 
HETATM    9  C   UNL     1      61.933  10.928   2.256  1.00  0.00     0.021 C 
HETATM   10  C   UNL     1      61.757  11.513   3.644  1.00  0.00     0.021 C 
HETATM   11  C   UNL     1      62.641  10.626   4.516  1.00  0.00     0.123 C 
ENDBRANCH   1   7
BRANCH   3  12
HETATM   12  C   UNL     1      66.670   8.066   6.536  1.00  0.00     0.203 C 
BRANCH  12  13
HETATM   13  O   UNL     1      67.943   7.490   6.279  1.00  0.00    -0.396 OA
HETATM   14  H   UNL     1      67.827   6.624   5.859  1.00  0.00     0.209 HD
ENDBRANCH  12  13
ENDBRANCH   3  12
TORSDOF 3
ENDMDL
MODEL 8
REMARK VINA RESULT:      -4.7     19.232     20.139
REMARK  3 active torsions:
REMARK  status: ('A' for Active; 'I' for Inactive)
REMARK    1  A    between atoms: N_1  and  C_2 
REMARK    2  A    between atoms: C_4  and  C_10 
REMARK    3  A    between atoms: O_8  and  C_10 
ROOT
HETATM    1  C   UNL     1      66.497   6.279   7.182  1.00  0.00     0.030 A 
HETATM    2  C   UNL     1      65.121   6.478   6.996  1.00  0.00     0.038 A 
HETATM    3  C   UNL     1      64.606   7.320   5.987  1.00  0.00    -0.033 A 
HETATM    4  C   UNL     1      67.344   6.916   6.257  1.00  0.00     0.029 A 
HETATM    5  C   UNL     1      66.856   7.739   5.238  1.00  0.00     0.003 A 
HETATM    6  C   UNL     1      65.489   7.949   5.108  1.00  0.00     0.009 A 
ENDROOT
BRANCH   1   7
HETATM    7  N   UNL     1      67.027   5.498   8.198  1.00  0.00    -0.381 N 
HETATM    8  C   UNL     1      68.081   5.924   9.121  1.00  0.00     0.123 C 
HETATM    9  C   UNL     1      69.045   4.745   9.150  1.00  0.00     0.021 C 
HETATM   10  C   UNL     1      68.128   3.548   8.997  1.00  0.00     0.021 C 
HETATM   11  C   UNL     1      67.067   4.039   8.016  1.00  0.00     0.123 C 
ENDBRANCH   1   7
BRANCH   3  12
HETATM   12  C   UNL     1      63.122   7.548   5.880  1.00  0.00     0.203 C 
BRANCH  12  13
HETATM   13  O   UNL     1      62.593   8.034   7.106  1.00  0.00    -0.396 OA
HETATM   14  H   UNL     1      62.741   7.377   7.804  1.00  0.00     0.209 HD
ENDBRANCH  12  13
ENDBRANCH   3  12
TORSDOF 3
ENDMDL
MODEL 9
REMARK VINA RESULT:      -4.6     19.381     21.146
REMARK  3 active torsions:
REMARK  status: ('A' for Active; 'I' for Inactive)
REMARK    1  A    between atoms: N_1  and  C_2 
REMARK    2  A    between atoms: C_4  and  C_10 
REMARK    3  A    between atoms: O_8  and  C_10 
ROOT
HETATM    1  C   UNL     1      62.201   9.105   2.582  1.00  0.00     0.030 A 
HETATM    2  C   UNL     1      63.103   8.402   3.393  1.00  0.00     0.038 A 
HETATM    3  C   UNL     1      63.592   8.922   4.611  1.00  0.00    -0.033 A 
HETATM    4  C   UNL     1      61.751  10.340   3.084  1.00  0.00     0.029 A 
HETATM    5  C   UNL     1      62.207  10.866   4.296  1.00  0.00     0.003 A 
HETATM    6  C   UNL     1      63.133  10.163   5.055  1.00  0.00     0.009 A 
ENDROOT
BRANCH   1   7
HETATM    7  N   UNL     1      61.747   8.637   1.358  1.00  0.00    -0.381 N 
HETATM    8  C   UNL     1      60.339   8.534   0.970  1.00  0.00     0.123 C 
HETATM    9  C   UNL     1      60.230   7.148   0.345  1.00  0.00     0.021 C 
HETATM   10  C   UNL     1      61.578   6.967  -0.325  1.00  0.00     0.021 C 
HETATM   11  C   UNL     1      62.548   7.628   0.648  1.00  0.00     0.123 C 
ENDBRANCH   1   7
BRANCH   3  12
HETATM   12  C   UNL     1      64.611   8.150   5.405  1.00  0.00     0.203 C 
BRANCH  12  13
HETATM   13  O   UNL     1      65.578   9.022   5.975  1.00  0.00    -0.396 OA
HETATM   14  H   UNL     1      65.704   8.796   6.910  1.00  0.00     0.209 HD
ENDBRANCH  12  13
ENDBRANCH   3  12
TORSDOF 3
ENDMDL
