MODEL 1
REMARK VINA RESULT:      -5.1      0.000      0.000
REMARK  1 active torsions:
REMARK  status: ('A' for Active; 'I' for Inactive)
REMARK    1  A    between atoms: CA_1  and  C_6 
ROOT
HETATM    1  CA  UNL     1      76.486   5.613  17.386  1.00  0.00     0.111 A 
HETATM    2  N   UNL     1      77.262   4.668  18.023  1.00  0.00    -0.350 N 
HETATM    3  C   UNL     1      75.433   4.957  16.764  1.00  0.00     0.057 A 
HETATM    4  C   UNL     1      76.713   3.428  17.821  1.00  0.00     0.050 A 
HETATM    5  C   UNL     1      75.598   3.573  17.053  1.00  0.00     0.034 A 
HETATM    6  S   UNL     1      74.824   2.057  16.729  1.00  0.00    -0.100 SA
HETATM    7  C   UNL     1      76.991   2.083  18.187  1.00  0.00     0.038 A 
HETATM    8  C   UNL     1      76.031   1.248  17.654  1.00  0.00     0.053 A 
HETATM    9  H   UNL     1      78.078   4.855  18.541  1.00  0.00     0.166 HD
ENDROOT
BRANCH   1  10
HETATM   10  C   UNL     1      76.805   7.015  17.426  1.00  0.00     0.226 C 
HETATM   11  O   UNL     1      76.820   7.736  18.411  1.00  0.00    -0.643 OA
HETATM   12  OXT UNL     1      77.105   7.495  16.203  1.00  0.00    -0.643 OA
ENDBRANCH   1  10
TORSDOF 1
ENDMDL
MODEL 2
REMARK VINA RESULT:      -4.8      2.564      3.408
REMARK  1 active torsions:
REMARK  status: ('A' for Active; 'I' for Inactive)
REMARK    1  A    between atoms: CA_1  and  C_6 
ROOT
HETATM    1  CA  UNL     1      76.629   2.652  18.177  1.00  0.00     0.111 A 
HETATM    2  N   UNL     1      75.407   2.674  17.539  1.00  0.00    -0.350 N 
HETATM    3  C   UNL     1      77.295   1.497  17.793  1.00  0.00     0.057 A 
HETATM    4  C   UNL     1      75.293   1.557  16.753  1.00  0.00     0.050 A 
HETATM    5  C   UNL     1      76.429   0.818  16.891  1.00  0.00     0.034 A 
HETATM    6  S   UNL     1      76.389  -0.629  15.939  1.00  0.00    -0.100 SA
HETATM    7  C   UNL     1      74.339   0.987  15.866  1.00  0.00     0.038 A 
HETATM    8  C   UNL     1      74.825  -0.201  15.360  1.00  0.00     0.053 A 
HETATM    9  H   UNL     1      74.727   3.379  17.632  1.00  0.00     0.166 HD
ENDROOT
BRANCH   1  10
HETATM   10  C   UNL     1      77.042   3.703  19.068  1.00  0.00     0.226 C 
HETATM   11  O   UNL     1      77.420   3.580  20.222  1.00  0.00    -0.643 OA
HETATM   12  OXT UNL     1      76.969   4.914  18.482  1.00  0.00    -0.643 OA
ENDBRANCH   1  10
TORSDOF 1
ENDMDL
MODEL 3
REMARK VINA RESULT:      -4.6      2.591      3.383
REMARK  1 active torsions:
REMARK  status: ('A' for Active; 'I' for Inactive)
REMARK    1  A    between atoms: CA_1  and  C_6 
ROOT
HETATM    1  CA  UNL     1      76.951   2.940  18.040  1.00  0.00     0.111 A 
HETATM    2  N   UNL     1      77.800   2.818  19.119  1.00  0.00    -0.350 N 
HETATM    3  C   UNL     1      76.751   1.676  17.504  1.00  0.00     0.057 A 
HETATM    4  C   UNL     1      78.133   1.497  19.278  1.00  0.00     0.050 A 
HETATM    5  C   UNL     1      77.510   0.777  18.304  1.00  0.00     0.034 A 
HETATM    6  S   UNL     1      77.869  -0.914  18.410  1.00  0.00    -0.100 SA
HETATM    7  C   UNL     1      78.927   0.712  20.158  1.00  0.00     0.038 A 
HETATM    8  C   UNL     1      78.859  -0.615  19.786  1.00  0.00     0.053 A 
HETATM    9  H   UNL     1      78.115   3.559  19.685  1.00  0.00     0.166 HD
ENDROOT
BRANCH   1  10
HETATM   10  C   UNL     1      76.420   4.212  17.628  1.00  0.00     0.226 C 
HETATM   11  O   UNL     1      75.552   4.408  16.792  1.00  0.00    -0.643 OA
HETATM   12  OXT UNL     1      77.001   5.234  18.286  1.00  0.00    -0.643 OA
ENDBRANCH   1  10
TORSDOF 1
ENDMDL
MODEL 4
REMARK VINA RESULT:      -4.6     19.962     20.898
REMARK  1 active torsions:
REMARK  status: ('A' for Active; 'I' for Inactive)
REMARK    1  A    between atoms: CA_1  and  C_6 
ROOT
HETATM    1  CA  UNL     1      62.400  10.004   3.890  1.00  0.00     0.111 A 
HETATM    2  N   UNL     1      61.501  10.114   2.851  1.00  0.00    -0.350 N 
HETATM    3  C   UNL     1      63.093   8.812   3.736  1.00  0.00     0.057 A 
HETATM    4  C   UNL     1      61.619   9.016   2.040  1.00  0.00     0.050 A 
HETATM    5  C   UNL     1      62.581   8.202   2.557  1.00  0.00     0.034 A 
HETATM    6  S   UNL     1      62.810   6.772   1.606  1.00  0.00    -0.100 SA
HETATM    7  C   UNL     1      61.026   8.521   0.847  1.00  0.00     0.038 A 
HETATM    8  C   UNL     1      61.594   7.310   0.512  1.00  0.00     0.053 A 
HETATM    9  H   UNL     1      60.875  10.862   2.714  1.00  0.00     0.166 HD
ENDROOT
BRANCH   1  10
HETATM   10  C   UNL     1      62.518  11.015   4.907  1.00  0.00     0.226 C 
HETATM   11  O   UNL     1      63.093  10.914   5.979  1.00  0.00    -0.643 OA
HETATM   12  OXT UNL     1      61.896  12.157   4.552  1.00  0.00    -0.643 OA
ENDBRANCH   1  10
TORSDOF 1
ENDMDL
MODEL 5
REMARK VINA RESULT:      -4.5     12.483     13.319
REMARK  1 active torsions:
REMARK  status: ('A' for Active; 'I' for Inactive)
REMARK    1  A    between atoms: CA_1  and  C_6 
ROOT
HETATM    1  CA  UNL     1      66.657   6.430   7.536  1.00  0.00     0.111 A 
HETATM    2  N   UNL     1      68.011   6.613   7.727  1.00  0.00    -0.350 N 
HETATM    3  C   UNL     1      66.328   5.157   7.978  1.00  0.00     0.057 A 
HETATM    4  C   UNL     1      68.540   5.479   8.288  1.00  0.00     0.050 A 
HETATM    5  C   UNL     1      67.537   4.572   8.449  1.00  0.00     0.034 A 
HETATM    6  S   UNL     1      68.099   3.091   9.150  1.00  0.00    -0.100 SA
HETATM    7  C   UNL     1      69.810   5.018   8.729  1.00  0.00     0.038 A 
HETATM    8  C   UNL     1      69.695   3.735   9.220  1.00  0.00     0.053 A 
HETATM    9  H   UNL     1      68.515   7.426   7.498  1.00  0.00     0.166 HD
ENDROOT
BRANCH   1  10
HETATM   10  C   UNL     1      65.823   7.455   6.969  1.00  0.00     0.226 C 
HETATM   11  O   UNL     1      66.192   8.468   6.395  1.00  0.00    -0.643 OA
HETATM   12  OXT UNL     1      64.513   7.185   7.138  1.00  0.00    -0.643 OA
ENDBRANCH   1  10
TORSDOF 1
ENDMDL
MODEL 6
REMARK VINA RESULT:      -4.4     19.895     20.589
REMARK  1 active torsions:
REMARK  status: ('A' for Active; 'I' for Inactive)
REMARK    1  A    between atoms: CA_1  and  C_6 
ROOT
HETATM    1  CA  UNL     1      61.841   9.989   3.590  1.00  0.00     0.111 A 
HETATM    2  N   UNL     1      60.802   9.164   3.214  1.00  0.00    -0.350 N 
HETATM    3  C   UNL     1      62.701   9.258   4.396  1.00  0.00     0.057 A 
HETATM    4  C   UNL     1      60.995   7.923   3.763  1.00  0.00     0.050 A 
HETATM    5  C   UNL     1      62.145   7.951   4.493  1.00  0.00     0.034 A 
HETATM    6  S   UNL     1      62.484   6.426   5.240  1.00  0.00    -0.100 SA
HETATM    7  C   UNL     1      60.338   6.663   3.772  1.00  0.00     0.038 A 
HETATM    8  C   UNL     1      61.055   5.769   4.539  1.00  0.00     0.053 A 
HETATM    9  H   UNL     1      60.044   9.425   2.642  1.00  0.00     0.166 HD
ENDROOT
BRANCH   1  10
HETATM   10  C   UNL     1      61.921  11.359   3.159  1.00  0.00     0.226 C 
HETATM   11  O   UNL     1      61.963  11.765   2.008  1.00  0.00    -0.643 OA
HETATM   12  OXT UNL     1      61.948  12.211   4.202  1.00  0.00    -0.643 OA
ENDBRANCH   1  10
TORSDOF 1
ENDMDL
MODEL 7
REMARK VINA RESULT:      -4.3     17.295     18.375
REMARK  1 active torsions:
REMARK  status: ('A' for Active; 'I' for Inactive)
REMARK    1  A    between atoms: CA_1  and  C_6 
ROOT
HETATM    1  CA  UNL     1      64.988   8.223   5.390  1.00  0.00     0.111 A 
HETATM    2  N   UNL     1      64.282   9.380   5.642  1.00  0.00    -0.350 N 
HETATM    3  C   UNL     1      64.459   7.635   4.250  1.00  0.00     0.057 A 
HETATM    4  C   UNL     1      63.321   9.536   4.676  1.00  0.00     0.050 A 
HETATM    5  C   UNL     1      63.403   8.484   3.815  1.00  0.00     0.034 A 
HETATM    6  S   UNL     1      62.223   8.579   2.551  1.00  0.00    -0.100 SA
HETATM    7  C   UNL     1      62.301  10.471   4.349  1.00  0.00     0.038 A 
HETATM    8  C   UNL     1      61.639  10.058   3.211  1.00  0.00     0.053 A 
HETATM    9  H   UNL     1      64.443   9.995   6.393  1.00  0.00     0.166 HD
ENDROOT
BRANCH   1  10
HETATM   10  C   UNL     1      66.073   7.794   6.231  1.00  0.00     0.226 C 
HETATM   11  O   UNL     1      66.454   6.648   6.409  1.00  0.00    -0.643 OA
HETATM   12  OXT UNL     1      66.670   8.833   6.847  1.00  0.00    -0.643 OA
ENDBRANCH   1  10
TORSDOF 1
ENDMDL
MODEL 8
REMARK VINA RESULT:      -4.2     13.985     14.885
REMARK  1 active torsions:
REMARK  status: ('A' for Active; 'I' for Inactive)
REMARK    1  A    between atoms: CA_1  and  C_6 
ROOT
HETATM    1  CA  UNL     1      65.950   7.366   6.058  1.00  0.00     0.111 A 
HETATM    2  N   UNL     1      66.211   7.590   7.393  1.00  0.00    -0.350 N 
HETATM    3  C   UNL     1      66.597   6.198   5.682  1.00  0.00     0.057 A 
HETATM    4  C   UNL     1      67.006   6.580   7.868  1.00  0.00     0.050 A 
HETATM    5  C   UNL     1      67.261   5.717   6.846  1.00  0.00     0.034 A 
HETATM    6  S   UNL     1      68.268   4.396   7.338  1.00  0.00    -0.100 SA
HETATM    7  C   UNL     1      67.612   6.209   9.099  1.00  0.00     0.038 A 
HETATM    8  C   UNL     1      68.321   5.037   8.935  1.00  0.00     0.053 A 
HETATM    9  H   UNL     1      65.880   8.353   7.919  1.00  0.00     0.166 HD
ENDROOT
BRANCH   1  10
HETATM   10  C   UNL     1      65.130   8.258   5.282  1.00  0.00     0.226 C 
HETATM   11  O   UNL     1      64.509   7.986   4.266  1.00  0.00    -0.643 OA
HETATM   12  OXT UNL     1      65.106   9.499   5.805  1.00  0.00    -0.643 OA
ENDBRANCH   1  10
TORSDOF 1
ENDMDL
MODEL 9
REMARK VINA RESULT:      -4.2      3.869      4.655
REMARK  1 active torsions:
REMARK  status: ('A' for Active; 'I' for Inactive)
REMARK    1  A    between atoms: CA_1  and  C_6 
ROOT
HETATM    1  CA  UNL     1      77.483   1.145  18.560  1.00  0.00     0.111 A 
HETATM    2  N   UNL     1      76.371   1.921  18.311  1.00  0.00    -0.350 N 
HETATM    3  C   UNL     1      77.500   0.108  17.639  1.00  0.00     0.057 A 
HETATM    4  C   UNL     1      75.689   1.395  17.244  1.00  0.00     0.050 A 
HETATM    5  C   UNL     1      76.353   0.286  16.816  1.00  0.00     0.034 A 
HETATM    6  S   UNL     1      75.570  -0.466  15.465  1.00  0.00    -0.100 SA
HETATM    7  C   UNL     1      74.518   1.691  16.496  1.00  0.00     0.038 A 
HETATM    8  C   UNL     1      74.351   0.750  15.501  1.00  0.00     0.053 A 
HETATM    9  H   UNL     1      76.110   2.723  18.817  1.00  0.00     0.166 HD
ENDROOT
BRANCH   1  10
HETATM   10  C   UNL     1      78.405   1.453  19.620  1.00  0.00     0.226 C 
HETATM   11  O   UNL     1      79.388   0.807  19.949  1.00  0.00    -0.643 OA
HETATM   12  OXT UNL     1      78.068   2.589  20.263  1.00  0.00    -0.643 OA
ENDBRANCH   1  10
TORSDOF 1
ENDMDL
