MODEL 1
REMARK VINA RESULT:      -5.3      0.000      0.000
REMARK  2 active torsions:
REMARK  status: ('A' for Active; 'I' for Inactive)
REMARK    1  A    between atoms: C_1  and  C_5 
REMARK    2  A    between atoms: C_6  and  N_7 
ROOT
HETATM    1  C   UNL     1      74.914   1.548  17.080  1.00  0.00    -0.022 A 
HETATM    2  C   UNL     1      74.453   0.775  18.166  1.00  0.00     0.041 A 
HETATM    3  C   UNL     1      73.816  -0.459  17.987  1.00  0.00     0.026 A 
HETATM    4  C   UNL     1      74.737   1.009  15.792  1.00  0.00     0.012 A 
HETATM    5  C   UNL     1      74.143  -0.240  15.602  1.00  0.00     0.003 A 
HETATM    6  C   UNL     1      73.708  -0.980  16.698  1.00  0.00     0.029 A 
ENDROOT
BRANCH   1   7
HETATM    7  C   UNL     1      75.566   2.862  17.286  1.00  0.00    -0.011 A 
HETATM    8  C   UNL     1      76.667   3.026  18.132  1.00  0.00     0.099 A 
HETATM    9  N   UNL     1      77.308   4.199  18.372  1.00  0.00    -0.374 N 
HETATM   10  C   UNL     1      76.840   5.284  17.726  1.00  0.00     0.087 A 
ATOM     11  HN  UNL     1      78.103   4.254  19.007  1.00  0.00     0.164 HD
HETATM   12  C   UNL     1      75.764   5.250  16.859  1.00  0.00     0.018 A 
HETATM   13  C   UNL     1      75.123   4.029  16.645  1.00  0.00     0.015 A 
ENDBRANCH   1   7
BRANCH   3  14
HETATM   14  N   UNL     1      73.504  -1.258  19.096  1.00  0.00    -0.399 N 
HETATM   15  H   UNL     1      73.405  -2.232  18.988  1.00  0.00     0.156 HD
HETATM   16  H   UNL     1      73.386  -0.845  19.982  1.00  0.00     0.156 HD
ENDBRANCH   3  14
TORSDOF 2
ENDMDL
MODEL 2
REMARK VINA RESULT:      -5.3     12.039     12.845
REMARK  2 active torsions:
REMARK  status: ('A' for Active; 'I' for Inactive)
REMARK    1  A    between atoms: C_1  and  C_5 
REMARK    2  A    between atoms: C_6  and  N_7 
ROOT
HETATM    1  C   UNL     1      68.104   5.095   8.116  1.00  0.00    -0.022 A 
HETATM    2  C   UNL     1      67.481   3.923   8.594  1.00  0.00     0.041 A 
HETATM    3  C   UNL     1      68.167   2.972   9.360  1.00  0.00     0.026 A 
HETATM    4  C   UNL     1      69.452   5.292   8.470  1.00  0.00     0.012 A 
HETATM    5  C   UNL     1      70.134   4.374   9.271  1.00  0.00     0.003 A 
HETATM    6  C   UNL     1      69.485   3.232   9.732  1.00  0.00     0.029 A 
ENDROOT
BRANCH   1   7
HETATM    7  C   UNL     1      67.370   6.079   7.287  1.00  0.00    -0.011 A 
HETATM    8  C   UNL     1      66.105   6.558   7.640  1.00  0.00     0.099 A 
HETATM    9  N   UNL     1      65.375   7.454   6.928  1.00  0.00    -0.374 N 
HETATM   10  C   UNL     1      65.932   7.918   5.793  1.00  0.00     0.087 A 
ATOM     11  HN  UNL     1      64.452   7.759   7.237  1.00  0.00     0.164 HD
HETATM   12  C   UNL     1      67.178   7.527   5.340  1.00  0.00     0.018 A 
HETATM   13  C   UNL     1      67.896   6.596   6.094  1.00  0.00     0.015 A 
ENDBRANCH   1   7
BRANCH   3  14
HETATM   14  N   UNL     1      67.474   1.898   9.934  1.00  0.00    -0.399 N 
HETATM   15  H   UNL     1      67.887   1.377  10.661  1.00  0.00     0.156 HD
HETATM   16  H   UNL     1      66.573   1.664   9.611  1.00  0.00     0.156 HD
ENDBRANCH   3  14
TORSDOF 2
ENDMDL
MODEL 3
REMARK VINA RESULT:      -5.2      2.522      5.029
REMARK  2 active torsions:
REMARK  status: ('A' for Active; 'I' for Inactive)
REMARK    1  A    between atoms: C_1  and  C_5 
REMARK    2  A    between atoms: C_6  and  N_7 
ROOT
HETATM    1  C   UNL     1      76.606   2.673  17.811  1.00  0.00    -0.022 A 
HETATM    2  C   UNL     1      77.033   4.017  17.854  1.00  0.00     0.041 A 
HETATM    3  C   UNL     1      76.281   5.058  17.296  1.00  0.00     0.026 A 
HETATM    4  C   UNL     1      75.361   2.418  17.206  1.00  0.00     0.012 A 
HETATM    5  C   UNL     1      74.580   3.452  16.686  1.00  0.00     0.003 A 
HETATM    6  C   UNL     1      75.030   4.769  16.754  1.00  0.00     0.029 A 
ENDROOT
BRANCH   1   7
HETATM    7  C   UNL     1      77.425   1.582  18.385  1.00  0.00    -0.011 A 
HETATM    8  C   UNL     1      77.467   0.302  17.823  1.00  0.00     0.099 A 
HETATM    9  N   UNL     1      78.189  -0.744  18.299  1.00  0.00    -0.374 N 
HETATM   10  C   UNL     1      78.930  -0.514  19.400  1.00  0.00     0.087 A 
ATOM     11  HN  UNL     1      78.172  -1.657  17.846  1.00  0.00     0.164 HD
HETATM   12  C   UNL     1      78.978   0.709  20.044  1.00  0.00     0.018 A 
HETATM   13  C   UNL     1      78.214   1.759  19.532  1.00  0.00     0.015 A 
ENDBRANCH   1   7
BRANCH   3  14
HETATM   14  N   UNL     1      76.671   6.391  17.489  1.00  0.00    -0.399 N 
HETATM   15  H   UNL     1      76.153   6.974  18.089  1.00  0.00     0.156 HD
HETATM   16  H   UNL     1      77.465   6.743  17.024  1.00  0.00     0.156 HD
ENDBRANCH   3  14
TORSDOF 2
ENDMDL
MODEL 4
REMARK VINA RESULT:      -5.2     12.049     12.958
REMARK  2 active torsions:
REMARK  status: ('A' for Active; 'I' for Inactive)
REMARK    1  A    between atoms: C_1  and  C_5 
REMARK    2  A    between atoms: C_6  and  N_7 
ROOT
HETATM    1  C   UNL     1      68.181   5.258   8.100  1.00  0.00    -0.022 A 
HETATM    2  C   UNL     1      69.551   5.535   8.288  1.00  0.00     0.041 A 
HETATM    3  C   UNL     1      70.380   4.714   9.063  1.00  0.00     0.026 A 
HETATM    4  C   UNL     1      67.677   4.090   8.703  1.00  0.00     0.012 A 
HETATM    5  C   UNL     1      68.502   3.240   9.441  1.00  0.00     0.003 A 
HETATM    6  C   UNL     1      69.852   3.540   9.598  1.00  0.00     0.029 A 
ENDROOT
BRANCH   1   7
HETATM    7  C   UNL     1      67.314   6.149   7.296  1.00  0.00    -0.011 A 
HETATM    8  C   UNL     1      66.018   6.493   7.695  1.00  0.00     0.099 A 
HETATM    9  N   UNL     1      65.169   7.298   7.007  1.00  0.00    -0.374 N 
HETATM   10  C   UNL     1      65.629   7.808   5.849  1.00  0.00     0.087 A 
ATOM     11  HN  UNL     1      64.231   7.505   7.350  1.00  0.00     0.164 HD
HETATM   12  C   UNL     1      66.893   7.550   5.351  1.00  0.00     0.018 A 
HETATM   13  C   UNL     1      67.734   6.710   6.081  1.00  0.00     0.015 A 
ENDBRANCH   1   7
BRANCH   3  14
HETATM   14  N   UNL     1      71.761   4.947   9.104  1.00  0.00    -0.399 N 
HETATM   15  H   UNL     1      72.117   5.838   8.882  1.00  0.00     0.156 HD
HETATM   16  H   UNL     1      72.375   4.220   9.357  1.00  0.00     0.156 HD
ENDBRANCH   3  14
TORSDOF 2
ENDMDL
MODEL 5
REMARK VINA RESULT:      -5.0     17.844     18.886
REMARK  2 active torsions:
REMARK  status: ('A' for Active; 'I' for Inactive)
REMARK    1  A    between atoms: C_1  and  C_5 
REMARK    2  A    between atoms: C_6  and  N_7 
ROOT
HETATM    1  C   UNL     1      63.359   9.087   4.619  1.00  0.00    -0.022 A 
HETATM    2  C   UNL     1      62.918   8.800   3.310  1.00  0.00     0.041 A 
HETATM    3  C   UNL     1      62.122   9.689   2.578  1.00  0.00     0.026 A 
HETATM    4  C   UNL     1      62.992  10.334   5.157  1.00  0.00     0.012 A 
HETATM    5  C   UNL     1      62.236  11.249   4.422  1.00  0.00     0.003 A 
HETATM    6  C   UNL     1      61.825  10.935   3.129  1.00  0.00     0.029 A 
ENDROOT
BRANCH   1   7
HETATM    7  C   UNL     1      64.182   8.124   5.387  1.00  0.00    -0.011 A 
HETATM    8  C   UNL     1      63.631   7.003   6.015  1.00  0.00     0.099 A 
HETATM    9  N   UNL     1      64.323   6.086   6.738  1.00  0.00    -0.374 N 
HETATM   10  C   UNL     1      65.652   6.279   6.843  1.00  0.00     0.087 A 
ATOM     11  HN  UNL     1      63.860   5.291   7.179  1.00  0.00     0.164 HD
HETATM   12  C   UNL     1      66.315   7.344   6.262  1.00  0.00     0.018 A 
HETATM   13  C   UNL     1      65.569   8.273   5.535  1.00  0.00     0.015 A 
ENDBRANCH   1   7
BRANCH   3  14
HETATM   14  N   UNL     1      61.827   9.427   1.233  1.00  0.00    -0.399 N 
HETATM   15  H   UNL     1      62.558   9.286   0.588  1.00  0.00     0.156 HD
HETATM   16  H   UNL     1      60.890   9.384   0.934  1.00  0.00     0.156 HD
ENDBRANCH   3  14
TORSDOF 2
ENDMDL
MODEL 6
REMARK VINA RESULT:      -5.0     17.120     18.014
REMARK  2 active torsions:
REMARK  status: ('A' for Active; 'I' for Inactive)
REMARK    1  A    between atoms: C_1  and  C_5 
REMARK    2  A    between atoms: C_6  and  N_7 
ROOT
HETATM    1  C   UNL     1      64.300   8.095   5.390  1.00  0.00    -0.022 A 
HETATM    2  C   UNL     1      65.697   8.273   5.482  1.00  0.00     0.041 A 
HETATM    3  C   UNL     1      66.519   7.380   6.181  1.00  0.00     0.026 A 
HETATM    4  C   UNL     1      63.760   6.952   6.007  1.00  0.00     0.012 A 
HETATM    5  C   UNL     1      64.574   6.030   6.669  1.00  0.00     0.003 A 
HETATM    6  C   UNL     1      65.950   6.234   6.733  1.00  0.00     0.029 A 
ENDROOT
BRANCH   1   7
HETATM    7  C   UNL     1      63.443   9.061   4.666  1.00  0.00    -0.011 A 
HETATM    8  C   UNL     1      63.109  10.310   5.198  1.00  0.00     0.099 A 
HETATM    9  N   UNL     1      62.325  11.240   4.594  1.00  0.00    -0.374 N 
HETATM   10  C   UNL     1      61.844  10.923   3.376  1.00  0.00     0.087 A 
ATOM     11  HN  UNL     1      62.112  12.132   5.039  1.00  0.00     0.164 HD
HETATM   12  C   UNL     1      62.109   9.724   2.741  1.00  0.00     0.018 A 
HETATM   13  C   UNL     1      62.910   8.789   3.397  1.00  0.00     0.015 A 
ENDBRANCH   1   7
BRANCH   3  14
HETATM   14  N   UNL     1      67.913   7.516   6.125  1.00  0.00    -0.399 N 
HETATM   15  H   UNL     1      68.368   8.162   6.713  1.00  0.00     0.156 HD
HETATM   16  H   UNL     1      68.436   6.965   5.500  1.00  0.00     0.156 HD
ENDBRANCH   3  14
TORSDOF 2
ENDMDL
MODEL 7
REMARK VINA RESULT:      -4.9     17.075     17.937
REMARK  2 active torsions:
REMARK  status: ('A' for Active; 'I' for Inactive)
REMARK    1  A    between atoms: C_1  and  C_5 
REMARK    2  A    between atoms: C_6  and  N_7 
ROOT
HETATM    1  C   UNL     1      64.087   7.939   4.465  1.00  0.00    -0.022 A 
HETATM    2  C   UNL     1      63.291   9.104   4.449  1.00  0.00     0.041 A 
HETATM    3  C   UNL     1      62.443   9.414   3.379  1.00  0.00     0.026 A 
HETATM    4  C   UNL     1      63.971   7.071   3.363  1.00  0.00     0.012 A 
HETATM    5  C   UNL     1      63.096   7.346   2.310  1.00  0.00     0.003 A 
HETATM    6  C   UNL     1      62.319   8.502   2.333  1.00  0.00     0.029 A 
ENDROOT
BRANCH   1   7
HETATM    7  C   UNL     1      64.996   7.638   5.594  1.00  0.00    -0.011 A 
HETATM    8  C   UNL     1      66.228   8.279   5.755  1.00  0.00     0.099 A 
HETATM    9  N   UNL     1      67.111   8.049   6.761  1.00  0.00    -0.374 N 
HETATM   10  C   UNL     1      66.753   7.129   7.678  1.00  0.00     0.087 A 
ATOM     11  HN  UNL     1      67.999   8.547   6.818  1.00  0.00     0.164 HD
HETATM   12  C   UNL     1      65.559   6.433   7.633  1.00  0.00     0.018 A 
HETATM   13  C   UNL     1      64.681   6.689   6.579  1.00  0.00     0.015 A 
ENDBRANCH   1   7
BRANCH   3  14
HETATM   14  N   UNL     1      61.566  10.503   3.469  1.00  0.00    -0.399 N 
HETATM   15  H   UNL     1      61.884  11.410   3.254  1.00  0.00     0.156 HD
HETATM   16  H   UNL     1      60.632  10.361   3.746  1.00  0.00     0.156 HD
ENDBRANCH   3  14
TORSDOF 2
ENDMDL
MODEL 8
REMARK VINA RESULT:      -4.8     13.071     14.114
REMARK  2 active torsions:
REMARK  status: ('A' for Active; 'I' for Inactive)
REMARK    1  A    between atoms: C_1  and  C_5 
REMARK    2  A    between atoms: C_6  and  N_7 
ROOT
HETATM    1  C   UNL     1      67.222   6.128   6.695  1.00  0.00    -0.022 A 
HETATM    2  C   UNL     1      65.871   6.437   6.959  1.00  0.00     0.041 A 
HETATM    3  C   UNL     1      65.165   7.392   6.218  1.00  0.00     0.026 A 
HETATM    4  C   UNL     1      67.833   6.802   5.621  1.00  0.00     0.012 A 
HETATM    5  C   UNL     1      67.127   7.724   4.846  1.00  0.00     0.003 A 
HETATM    6  C   UNL     1      65.792   7.998   5.130  1.00  0.00     0.029 A 
ENDROOT
BRANCH   1   7
HETATM    7  C   UNL     1      67.961   5.131   7.503  1.00  0.00    -0.011 A 
HETATM    8  C   UNL     1      68.335   5.372   8.829  1.00  0.00     0.099 A 
HETATM    9  N   UNL     1      69.016   4.508   9.625  1.00  0.00    -0.374 N 
HETATM   10  C   UNL     1      69.344   3.320   9.082  1.00  0.00     0.087 A 
ATOM     11  HN  UNL     1      69.265   4.747  10.584  1.00  0.00     0.164 HD
HETATM   12  C   UNL     1      69.025   2.960   7.786  1.00  0.00     0.018 A 
HETATM   13  C   UNL     1      68.334   3.878   6.994  1.00  0.00     0.015 A 
ENDBRANCH   1   7
BRANCH   3  14
HETATM   14  N   UNL     1      63.789   7.563   6.420  1.00  0.00    -0.399 N 
HETATM   15  H   UNL     1      63.326   7.047   7.120  1.00  0.00     0.156 HD
HETATM   16  H   UNL     1      63.285   8.200   5.862  1.00  0.00     0.156 HD
ENDBRANCH   3  14
TORSDOF 2
ENDMDL
MODEL 9
REMARK VINA RESULT:      -4.8      1.949      2.120
REMARK  2 active torsions:
REMARK  status: ('A' for Active; 'I' for Inactive)
REMARK    1  A    between atoms: C_1  and  C_5 
REMARK    2  A    between atoms: C_6  and  N_7 
ROOT
HETATM    1  C   UNL     1      75.848   1.354  17.383  1.00  0.00    -0.022 A 
HETATM    2  C   UNL     1      76.991   0.540  17.234  1.00  0.00     0.041 A 
HETATM    3  C   UNL     1      76.923  -0.858  17.279  1.00  0.00     0.026 A 
HETATM    4  C   UNL     1      74.614   0.697  17.547  1.00  0.00     0.012 A 
HETATM    5  C   UNL     1      74.527  -0.696  17.548  1.00  0.00     0.003 A 
HETATM    6  C   UNL     1      75.675  -1.468  17.390  1.00  0.00     0.029 A 
ENDROOT
BRANCH   1   7
HETATM    7  C   UNL     1      75.941   2.831  17.356  1.00  0.00    -0.011 A 
HETATM    8  C   UNL     1      76.987   3.526  17.971  1.00  0.00     0.099 A 
HETATM    9  N   UNL     1      77.132   4.876  17.991  1.00  0.00    -0.374 N 
HETATM   10  C   UNL     1      76.187   5.593  17.352  1.00  0.00     0.087 A 
ATOM     11  HN  UNL     1      77.916   5.324  18.464  1.00  0.00     0.164 HD
HETATM   12  C   UNL     1      75.109   5.023  16.700  1.00  0.00     0.018 A 
HETATM   13  C   UNL     1      74.988   3.632  16.710  1.00  0.00     0.015 A 
ENDBRANCH   1   7
BRANCH   3  14
HETATM   14  N   UNL     1      78.057  -1.628  16.983  1.00  0.00    -0.399 N 
HETATM   15  H   UNL     1      78.634  -1.953  17.712  1.00  0.00     0.156 HD
HETATM   16  H   UNL     1      78.275  -1.843  16.048  1.00  0.00     0.156 HD
ENDBRANCH   3  14
TORSDOF 2
ENDMDL
