MODEL 1
REMARK VINA RESULT:      -5.5      0.000      0.000
REMARK  4 active torsions:
REMARK  status: ('A' for Active; 'I' for Inactive)
REMARK    1  A    between atoms: N_1  and  C_2 
REMARK    2  A    between atoms: C_2  and  C_4 
REMARK    3  A    between atoms: N_6  and  C_13 
REMARK    4  A    between atoms: C_7  and  C_13 
ROOT
HETATM    1  C   UNL     1      63.706   8.785   4.477  1.00  0.00    -0.032 A 
HETATM    2  C   UNL     1      63.009   8.538   3.285  1.00  0.00     0.017 A 
HETATM    3  C   UNL     1      62.096   9.469   2.760  1.00  0.00    -0.032 A 
HETATM    4  C   UNL     1      62.486  10.876   4.703  1.00  0.00     0.001 A 
HETATM    5  C   UNL     1      63.422   9.960   5.190  1.00  0.00     0.009 A 
HETATM    6  C   UNL     1      61.838  10.637   3.486  1.00  0.00     0.009 A 
ENDROOT
BRANCH   1   7
HETATM    7  C   UNL     1      64.872   7.887   4.850  1.00  0.00     0.273 C 
BRANCH   7   8
HETATM    8  N   UNL     1      65.247   7.877   6.269  1.00  0.00    -0.063 N 
HETATM    9  C   UNL     1      64.889   6.618   6.959  1.00  0.00     0.261 C 
HETATM   10  C   UNL     1      65.819   5.422   6.678  1.00  0.00     0.195 C 
HETATM   11  O   UNL     1      67.195   5.750   6.907  1.00  0.00    -0.388 OA
HETATM   12  C   UNL     1      67.579   6.870   6.104  1.00  0.00     0.195 C 
HETATM   13  C   UNL     1      66.707   8.098   6.420  1.00  0.00     0.261 C 
HETATM   14  H   UNL     1      64.719   8.634   6.702  1.00  0.00     0.280 HD
ENDBRANCH   7   8
ENDBRANCH   1   7
BRANCH   3  15
HETATM   15  C   UNL     1      61.518   9.275   1.376  1.00  0.00     0.270 C 
BRANCH  15  16
HETATM   16  N   UNL     1      60.154   8.746   1.397  1.00  0.00    -0.075 N 
HETATM   17  C   UNL     1      59.961   7.793   0.312  1.00  0.00     0.267 C 
HETATM   18  H   UNL     1      59.494   9.516   1.289  1.00  0.00     0.277 HD
HETATM   19  H   UNL     1      59.997   8.271   2.286  1.00  0.00     0.277 HD
ENDBRANCH  15  16
ENDBRANCH   3  15
TORSDOF 4
ENDMDL
MODEL 2
REMARK VINA RESULT:      -5.2      4.387      8.677
REMARK  4 active torsions:
REMARK  status: ('A' for Active; 'I' for Inactive)
REMARK    1  A    between atoms: N_1  and  C_2 
REMARK    2  A    between atoms: C_2  and  C_4 
REMARK    3  A    between atoms: N_6  and  C_13 
REMARK    4  A    between atoms: C_7  and  C_13 
ROOT
HETATM    1  C   UNL     1      68.441   4.804   7.676  1.00  0.00    -0.032 A 
HETATM    2  C   UNL     1      67.846   3.543   7.830  1.00  0.00     0.017 A 
HETATM    3  C   UNL     1      68.231   2.668   8.860  1.00  0.00    -0.032 A 
HETATM    4  C   UNL     1      69.918   4.282   9.536  1.00  0.00     0.001 A 
HETATM    5  C   UNL     1      69.495   5.158   8.533  1.00  0.00     0.009 A 
HETATM    6  C   UNL     1      69.278   3.049   9.706  1.00  0.00     0.009 A 
ENDROOT
BRANCH   1   7
HETATM    7  C   UNL     1      67.805   5.811   6.735  1.00  0.00     0.273 C 
BRANCH   7   8
HETATM    8  N   UNL     1      67.215   6.997   7.366  1.00  0.00    -0.063 N 
HETATM    9  C   UNL     1      67.027   8.126   6.428  1.00  0.00     0.261 C 
HETATM   10  C   UNL     1      65.823   8.002   5.476  1.00  0.00     0.195 C 
HETATM   11  O   UNL     1      64.608   7.727   6.185  1.00  0.00    -0.388 OA
HETATM   12  C   UNL     1      64.746   6.533   6.961  1.00  0.00     0.195 C 
HETATM   13  C   UNL     1      65.901   6.663   7.969  1.00  0.00     0.261 C 
HETATM   14  H   UNL     1      67.879   7.291   8.082  1.00  0.00     0.280 HD
ENDBRANCH   7   8
ENDBRANCH   1   7
BRANCH   3  15
HETATM   15  C   UNL     1      67.436   1.411   9.132  1.00  0.00     0.270 C 
BRANCH  15  16
HETATM   16  N   UNL     1      67.176   1.197  10.555  1.00  0.00    -0.075 N 
HETATM   17  C   UNL     1      66.393  -0.016  10.754  1.00  0.00     0.267 C 
HETATM   18  H   UNL     1      66.659   1.995  10.926  1.00  0.00     0.277 HD
HETATM   19  H   UNL     1      68.066   1.099  11.043  1.00  0.00     0.277 HD
ENDBRANCH  15  16
ENDBRANCH   3  15
TORSDOF 4
ENDMDL
MODEL 3
REMARK VINA RESULT:      -5.0      4.335      8.510
REMARK  4 active torsions:
REMARK  status: ('A' for Active; 'I' for Inactive)
REMARK    1  A    between atoms: N_1  and  C_2 
REMARK    2  A    between atoms: C_2  and  C_4 
REMARK    3  A    between atoms: N_6  and  C_13 
REMARK    4  A    between atoms: C_7  and  C_13 
ROOT
HETATM    1  C   UNL     1      68.532   4.992   7.488  1.00  0.00    -0.032 A 
HETATM    2  C   UNL     1      68.260   3.651   7.182  1.00  0.00     0.017 A 
HETATM    3  C   UNL     1      68.640   2.605   8.041  1.00  0.00    -0.032 A 
HETATM    4  C   UNL     1      69.691   4.248   9.493  1.00  0.00     0.001 A 
HETATM    5  C   UNL     1      69.268   5.278   8.649  1.00  0.00     0.009 A 
HETATM    6  C   UNL     1      69.365   2.920   9.196  1.00  0.00     0.009 A 
ENDROOT
BRANCH   1   7
HETATM    7  C   UNL     1      67.863   6.086   6.677  1.00  0.00     0.273 C 
BRANCH   7   8
HETATM    8  N   UNL     1      67.126   7.096   7.446  1.00  0.00    -0.063 N 
HETATM    9  C   UNL     1      66.819   8.316   6.666  1.00  0.00     0.261 C 
HETATM   10  C   UNL     1      65.652   8.186   5.668  1.00  0.00     0.195 C 
HETATM   11  O   UNL     1      64.469   7.675   6.294  1.00  0.00    -0.388 OA
HETATM   12  C   UNL     1      64.736   6.409   6.904  1.00  0.00     0.195 C 
HETATM   13  C   UNL     1      65.852   6.531   7.956  1.00  0.00     0.261 C 
HETATM   14  H   UNL     1      67.739   7.363   8.216  1.00  0.00     0.280 HD
ENDBRANCH   7   8
ENDBRANCH   1   7
BRANCH   3  15
HETATM   15  C   UNL     1      68.154   1.196   7.793  1.00  0.00     0.270 C 
BRANCH  15  16
HETATM   16  N   UNL     1      69.245   0.244   7.587  1.00  0.00    -0.075 N 
HETATM   17  C   UNL     1      69.672   0.251   6.193  1.00  0.00     0.267 C 
HETATM   18  H   UNL     1      68.926  -0.693   7.835  1.00  0.00     0.277 HD
HETATM   19  H   UNL     1      70.034   0.513   8.175  1.00  0.00     0.277 HD
ENDBRANCH  15  16
ENDBRANCH   3  15
TORSDOF 4
ENDMDL
MODEL 4
REMARK VINA RESULT:      -4.6     18.030     19.233
REMARK  4 active torsions:
REMARK  status: ('A' for Active; 'I' for Inactive)
REMARK    1  A    between atoms: N_1  and  C_2 
REMARK    2  A    between atoms: C_2  and  C_4 
REMARK    3  A    between atoms: N_6  and  C_13 
REMARK    4  A    between atoms: C_7  and  C_13 
ROOT
HETATM    1  C   UNL     1      75.060   0.837  17.428  1.00  0.00    -0.032 A 
HETATM    2  C   UNL     1      74.816   2.195  17.175  1.00  0.00     0.017 A 
HETATM    3  C   UNL     1      75.812   3.169  17.360  1.00  0.00    -0.032 A 
HETATM    4  C   UNL     1      77.297   1.426  18.176  1.00  0.00     0.001 A 
HETATM    5  C   UNL     1      76.310   0.465  17.947  1.00  0.00     0.009 A 
HETATM    6  C   UNL     1      77.053   2.770  17.869  1.00  0.00     0.009 A 
ENDROOT
BRANCH   1   7
HETATM    7  C   UNL     1      74.053  -0.195  16.953  1.00  0.00     0.273 C 
BRANCH   7   8
HETATM    8  N   UNL     1      73.972  -1.427  17.747  1.00  0.00    -0.063 N 
HETATM    9  C   UNL     1      72.622  -1.679  18.299  1.00  0.00     0.261 C 
HETATM   10  C   UNL     1      71.589  -2.227  17.296  1.00  0.00     0.195 C 
HETATM   11  O   UNL     1      72.077  -3.384  16.605  1.00  0.00    -0.388 OA
HETATM   12  C   UNL     1      73.302  -3.081  15.932  1.00  0.00     0.195 C 
HETATM   13  C   UNL     1      74.372  -2.598  16.928  1.00  0.00     0.261 C 
HETATM   14  H   UNL     1      74.612  -1.296  18.530  1.00  0.00     0.280 HD
ENDBRANCH   7   8
ENDBRANCH   1   7
BRANCH   3  15
HETATM   15  C   UNL     1      75.592   4.587  16.884  1.00  0.00     0.270 C 
BRANCH  15  16
HETATM   16  N   UNL     1      75.911   5.587  17.903  1.00  0.00    -0.075 N 
HETATM   17  C   UNL     1      76.872   6.553  17.386  1.00  0.00     0.267 C 
HETATM   18  H   UNL     1      76.309   5.120  18.719  1.00  0.00     0.277 HD
HETATM   19  H   UNL     1      75.056   6.078  18.164  1.00  0.00     0.277 HD
ENDBRANCH  15  16
ENDBRANCH   3  15
TORSDOF 4
ENDMDL
MODEL 5
REMARK VINA RESULT:      -4.4     16.960     19.839
REMARK  4 active torsions:
REMARK  status: ('A' for Active; 'I' for Inactive)
REMARK    1  A    between atoms: N_1  and  C_2 
REMARK    2  A    between atoms: C_2  and  C_4 
REMARK    3  A    between atoms: N_6  and  C_13 
REMARK    4  A    between atoms: C_7  and  C_13 
ROOT
HETATM    1  C   UNL     1      48.502  19.396   2.209  1.00  0.00    -0.032 A 
HETATM    2  C   UNL     1      48.177  18.328   3.057  1.00  0.00     0.017 A 
HETATM    3  C   UNL     1      48.873  17.108   3.007  1.00  0.00    -0.032 A 
HETATM    4  C   UNL     1      50.172  17.983   1.148  1.00  0.00     0.001 A 
HETATM    5  C   UNL     1      49.500  19.204   1.240  1.00  0.00     0.009 A 
HETATM    6  C   UNL     1      49.869  16.946   2.037  1.00  0.00     0.009 A 
ENDROOT
BRANCH   1   7
HETATM    7  C   UNL     1      47.916  20.768   2.490  1.00  0.00     0.273 C 
BRANCH   7   8
HETATM    8  N   UNL     1      48.527  21.512   3.598  1.00  0.00    -0.063 N 
HETATM    9  C   UNL     1      49.204  22.755   3.165  1.00  0.00     0.261 C 
HETATM   10  C   UNL     1      48.272  23.940   2.847  1.00  0.00     0.195 C 
HETATM   11  O   UNL     1      47.364  24.208   3.923  1.00  0.00    -0.388 OA
HETATM   12  C   UNL     1      46.591  23.043   4.223  1.00  0.00     0.195 C 
HETATM   13  C   UNL     1      47.501  21.865   4.612  1.00  0.00     0.261 C 
HETATM   14  H   UNL     1      49.232  20.892   3.996  1.00  0.00     0.280 HD
ENDBRANCH   7   8
ENDBRANCH   1   7
BRANCH   3  15
HETATM   15  C   UNL     1      48.646  16.053   4.066  1.00  0.00     0.270 C 
BRANCH  15  16
HETATM   16  N   UNL     1      49.734  15.980   5.040  1.00  0.00    -0.075 N 
HETATM   17  C   UNL     1      49.679  14.721   5.772  1.00  0.00     0.267 C 
HETATM   18  H   UNL     1      49.649  16.755   5.698  1.00  0.00     0.277 HD
HETATM   19  H   UNL     1      50.625  16.036   4.546  1.00  0.00     0.277 HD
ENDBRANCH  15  16
ENDBRANCH   3  15
TORSDOF 4
ENDMDL
MODEL 6
REMARK VINA RESULT:      -4.4     17.989     20.289
REMARK  4 active torsions:
REMARK  status: ('A' for Active; 'I' for Inactive)
REMARK    1  A    between atoms: N_1  and  C_2 
REMARK    2  A    between atoms: C_2  and  C_4 
REMARK    3  A    between atoms: N_6  and  C_13 
REMARK    4  A    between atoms: C_7  and  C_13 
ROOT
HETATM    1  C   UNL     1      76.585   0.417  16.858  1.00  0.00    -0.032 A 
HETATM    2  C   UNL     1      77.326  -0.144  15.807  1.00  0.00     0.017 A 
HETATM    3  C   UNL     1      76.798  -0.254  14.509  1.00  0.00    -0.032 A 
HETATM    4  C   UNL     1      74.704   0.664  15.336  1.00  0.00     0.001 A 
HETATM    5  C   UNL     1      75.259   0.806  16.610  1.00  0.00     0.009 A 
HETATM    6  C   UNL     1      75.476   0.150  14.288  1.00  0.00     0.009 A 
ENDROOT
BRANCH   1   7
HETATM    7  C   UNL     1      77.290   0.765  18.156  1.00  0.00     0.273 C 
BRANCH   7   8
HETATM    8  N   UNL     1      78.263  -0.221  18.643  1.00  0.00    -0.063 N 
HETATM    9  C   UNL     1      79.174   0.319  19.676  1.00  0.00     0.261 C 
HETATM   10  C   UNL     1      78.568   0.458  21.086  1.00  0.00     0.195 C 
HETATM   11  O   UNL     1      77.968  -0.764  21.531  1.00  0.00    -0.388 OA
HETATM   12  C   UNL     1      76.964  -1.191  20.605  1.00  0.00     0.195 C 
HETATM   13  C   UNL     1      77.564  -1.403  19.204  1.00  0.00     0.261 C 
HETATM   14  H   UNL     1      78.825  -0.481  17.834  1.00  0.00     0.280 HD
ENDBRANCH   7   8
ENDBRANCH   1   7
BRANCH   3  15
HETATM   15  C   UNL     1      77.684  -0.666  13.356  1.00  0.00     0.270 C 
BRANCH  15  16
HETATM   16  N   UNL     1      77.068  -0.428  12.050  1.00  0.00    -0.075 N 
HETATM   17  C   UNL     1      77.826  -1.096  11.000  1.00  0.00     0.267 C 
HETATM   18  H   UNL     1      77.051   0.576  11.865  1.00  0.00     0.277 HD
HETATM   19  H   UNL     1      76.118  -0.799  12.060  1.00  0.00     0.277 HD
ENDBRANCH  15  16
ENDBRANCH   3  15
TORSDOF 4
ENDMDL
MODEL 7
REMARK VINA RESULT:      -4.2      5.495      8.912
REMARK  4 active torsions:
REMARK  status: ('A' for Active; 'I' for Inactive)
REMARK    1  A    between atoms: N_1  and  C_2 
REMARK    2  A    between atoms: C_2  and  C_4 
REMARK    3  A    between atoms: N_6  and  C_13 
REMARK    4  A    between atoms: C_7  and  C_13 
ROOT
HETATM    1  C   UNL     1      68.343   2.692   8.757  1.00  0.00    -0.032 A 
HETATM    2  C   UNL     1      67.752   3.716   8.003  1.00  0.00     0.017 A 
HETATM    3  C   UNL     1      68.349   4.982   7.883  1.00  0.00    -0.032 A 
HETATM    4  C   UNL     1      70.108   4.241   9.388  1.00  0.00     0.001 A 
HETATM    5  C   UNL     1      69.524   2.975   9.462  1.00  0.00     0.009 A 
HETATM    6  C   UNL     1      69.530   5.235   8.590  1.00  0.00     0.009 A 
ENDROOT
BRANCH   1   7
HETATM    7  C   UNL     1      67.810   1.276   8.628  1.00  0.00     0.273 C 
BRANCH   7   8
HETATM    8  N   UNL     1      66.522   1.014   9.282  1.00  0.00    -0.063 N 
HETATM    9  C   UNL     1      65.537   0.361   8.391  1.00  0.00     0.261 C 
HETATM   10  C   UNL     1      65.755  -1.146   8.155  1.00  0.00     0.195 C 
HETATM   11  O   UNL     1      65.877  -1.867   9.388  1.00  0.00    -0.388 OA
HETATM   12  C   UNL     1      66.947  -1.332  10.172  1.00  0.00     0.195 C 
HETATM   13  C   UNL     1      66.714   0.157  10.478  1.00  0.00     0.261 C 
HETATM   14  H   UNL     1      66.151   1.927   9.544  1.00  0.00     0.280 HD
ENDBRANCH   7   8
ENDBRANCH   1   7
BRANCH   3  15
HETATM   15  C   UNL     1      67.803   5.995   6.902  1.00  0.00     0.270 C 
BRANCH  15  16
HETATM   16  N   UNL     1      67.272   7.191   7.554  1.00  0.00    -0.075 N 
HETATM   17  C   UNL     1      66.729   8.113   6.564  1.00  0.00     0.267 C 
HETATM   18  H   UNL     1      68.021   7.655   8.069  1.00  0.00     0.277 HD
HETATM   19  H   UNL     1      66.526   6.916   8.193  1.00  0.00     0.277 HD
ENDBRANCH  15  16
ENDBRANCH   3  15
TORSDOF 4
ENDMDL
MODEL 8
REMARK VINA RESULT:      -4.2     18.297     20.686
REMARK  4 active torsions:
REMARK  status: ('A' for Active; 'I' for Inactive)
REMARK    1  A    between atoms: N_1  and  C_2 
REMARK    2  A    between atoms: C_2  and  C_4 
REMARK    3  A    between atoms: N_6  and  C_13 
REMARK    4  A    between atoms: C_7  and  C_13 
ROOT
HETATM    1  C   UNL     1      76.735   0.932  17.764  1.00  0.00    -0.032 A 
HETATM    2  C   UNL     1      76.870   0.172  16.593  1.00  0.00     0.017 A 
HETATM    3  C   UNL     1      75.942   0.267  15.541  1.00  0.00    -0.032 A 
HETATM    4  C   UNL     1      74.648   1.822  16.888  1.00  0.00     0.001 A 
HETATM    5  C   UNL     1      75.602   1.749  17.906  1.00  0.00     0.009 A 
HETATM    6  C   UNL     1      74.826   1.095  15.706  1.00  0.00     0.009 A 
ENDROOT
BRANCH   1   7
HETATM    7  C   UNL     1      77.897   1.002  18.738  1.00  0.00     0.273 C 
BRANCH   7   8
HETATM    8  N   UNL     1      77.656   0.431  20.068  1.00  0.00    -0.063 N 
HETATM    9  C   UNL     1      77.015  -0.902  20.024  1.00  0.00     0.261 C 
HETATM   10  C   UNL     1      77.949  -2.073  19.661  1.00  0.00     0.195 C 
HETATM   11  O   UNL     1      79.117  -2.101  20.490  1.00  0.00    -0.388 OA
HETATM   12  C   UNL     1      79.824  -0.861  20.394  1.00  0.00     0.195 C 
HETATM   13  C   UNL     1      78.930   0.316  20.820  1.00  0.00     0.261 C 
HETATM   14  H   UNL     1      77.015   1.072  20.535  1.00  0.00     0.280 HD
ENDBRANCH   7   8
ENDBRANCH   1   7
BRANCH   3  15
HETATM   15  C   UNL     1      76.221  -0.401  14.214  1.00  0.00     0.270 C 
BRANCH  15  16
HETATM   16  N   UNL     1      77.650  -0.511  13.920  1.00  0.00    -0.075 N 
HETATM   17  C   UNL     1      78.000  -1.890  13.602  1.00  0.00     0.267 C 
HETATM   18  H   UNL     1      78.185  -0.207  14.734  1.00  0.00     0.277 HD
HETATM   19  H   UNL     1      77.869   0.079  13.117  1.00  0.00     0.277 HD
ENDBRANCH  15  16
ENDBRANCH   3  15
TORSDOF 4
ENDMDL
MODEL 9
REMARK VINA RESULT:      -4.1     15.760     17.924
REMARK  4 active torsions:
REMARK  status: ('A' for Active; 'I' for Inactive)
REMARK    1  A    between atoms: N_1  and  C_2 
REMARK    2  A    between atoms: C_2  and  C_4 
REMARK    3  A    between atoms: N_6  and  C_13 
REMARK    4  A    between atoms: C_7  and  C_13 
ROOT
HETATM    1  C   UNL     1      48.964  16.721   2.835  1.00  0.00    -0.032 A 
HETATM    2  C   UNL     1      48.209  17.785   3.349  1.00  0.00     0.017 A 
HETATM    3  C   UNL     1      48.261  19.069   2.781  1.00  0.00    -0.032 A 
HETATM    4  C   UNL     1      49.940  18.257   1.222  1.00  0.00     0.001 A 
HETATM    5  C   UNL     1      49.844  16.976   1.772  1.00  0.00     0.009 A 
HETATM    6  C   UNL     1      49.141  19.294   1.716  1.00  0.00     0.009 A 
ENDROOT
BRANCH   1   7
HETATM    7  C   UNL     1      48.664  15.308   3.302  1.00  0.00     0.273 C 
BRANCH   7   8
HETATM    8  N   UNL     1      48.229  15.172   4.697  1.00  0.00    -0.063 N 
HETATM    9  C   UNL     1      47.030  14.318   4.855  1.00  0.00     0.261 C 
HETATM   10  C   UNL     1      47.280  12.801   4.757  1.00  0.00     0.195 C 
HETATM   11  O   UNL     1      48.324  12.374   5.640  1.00  0.00    -0.388 OA
HETATM   12  C   UNL     1      49.532  13.090   5.365  1.00  0.00     0.195 C 
HETATM   13  C   UNL     1      49.322  14.605   5.527  1.00  0.00     0.261 C 
HETATM   14  H   UNL     1      47.988  16.112   5.008  1.00  0.00     0.280 HD
ENDBRANCH   7   8
ENDBRANCH   1   7
BRANCH   3  15
HETATM   15  C   UNL     1      47.287  20.140   3.218  1.00  0.00     0.270 C 
BRANCH  15  16
HETATM   16  N   UNL     1      47.771  20.920   4.357  1.00  0.00    -0.075 N 
HETATM   17  C   UNL     1      48.075  22.285   3.947  1.00  0.00     0.267 C 
HETATM   18  H   UNL     1      48.617  20.485   4.727  1.00  0.00     0.277 HD
HETATM   19  H   UNL     1      47.046  20.943   5.074  1.00  0.00     0.277 HD
ENDBRANCH  15  16
ENDBRANCH   3  15
TORSDOF 4
ENDMDL
