MODEL 1
REMARK VINA RESULT:      -5.6      0.000      0.000
REMARK  3 active torsions:
REMARK  status: ('A' for Active; 'I' for Inactive)
REMARK    1  A    between atoms: C_1  and  C_4 
REMARK    2  A    between atoms: C_9  and  C_13 
REMARK    3  A    between atoms: O_11  and  C_13 
ROOT
HETATM    1  C   UNL     1      68.105   4.968   7.560  1.00  0.00    -0.025 A 
HETATM    2  C   UNL     1      68.280   3.671   7.045  1.00  0.00     0.013 A 
HETATM    3  C   UNL     1      68.538   5.192   8.879  1.00  0.00     0.013 A 
HETATM    4  C   UNL     1      68.864   2.648   7.803  1.00  0.00     0.010 A 
HETATM    5  C   UNL     1      69.111   4.170   9.646  1.00  0.00     0.010 A 
HETATM    6  C   UNL     1      69.283   2.888   9.114  1.00  0.00    -0.035 A 
ENDROOT
BRANCH   1   7
HETATM    7  C   UNL     1      67.496   6.049   6.750  1.00  0.00    -0.011 A 
HETATM    8  C   UNL     1      66.786   7.107   7.326  1.00  0.00     0.099 A 
HETATM    9  N   UNL     1      66.218   8.136   6.645  1.00  0.00    -0.374 N 
HETATM   10  C   UNL     1      66.349   8.118   5.305  1.00  0.00     0.087 A 
ATOM     11  HN  UNL     1      65.718   8.885   7.124  1.00  0.00     0.164 HD
HETATM   12  C   UNL     1      67.017   7.122   4.618  1.00  0.00     0.018 A 
HETATM   13  C   UNL     1      67.596   6.085   5.351  1.00  0.00     0.015 A 
ENDBRANCH   1   7
BRANCH   6  14
HETATM   14  C   UNL     1      69.898   1.796   9.946  1.00  0.00     0.202 C 
BRANCH  14  15
HETATM   15  O   UNL     1      69.820   2.114  11.329  1.00  0.00    -0.396 OA
HETATM   16  H   UNL     1      70.052   3.046  11.461  1.00  0.00     0.209 HD
ENDBRANCH  14  15
ENDBRANCH   6  14
TORSDOF 3
ENDMDL
MODEL 2
REMARK VINA RESULT:      -5.2      3.308      5.947
REMARK  3 active torsions:
REMARK  status: ('A' for Active; 'I' for Inactive)
REMARK    1  A    between atoms: C_1  and  C_4 
REMARK    2  A    between atoms: C_9  and  C_13 
REMARK    3  A    between atoms: O_11  and  C_13 
ROOT
HETATM    1  C   UNL     1      68.061   4.702   7.868  1.00  0.00    -0.025 A 
HETATM    2  C   UNL     1      67.603   5.890   8.467  1.00  0.00     0.013 A 
HETATM    3  C   UNL     1      67.917   4.597   6.473  1.00  0.00     0.013 A 
HETATM    4  C   UNL     1      67.036   6.925   7.713  1.00  0.00     0.010 A 
HETATM    5  C   UNL     1      67.340   5.623   5.716  1.00  0.00     0.010 A 
HETATM    6  C   UNL     1      66.896   6.800   6.329  1.00  0.00    -0.035 A 
ENDROOT
BRANCH   1   7
HETATM    7  C   UNL     1      68.668   3.614   8.669  1.00  0.00    -0.011 A 
HETATM    8  C   UNL     1      69.254   3.841   9.919  1.00  0.00     0.099 A 
HETATM    9  N   UNL     1      69.813   2.889  10.711  1.00  0.00    -0.374 N 
HETATM   10  C   UNL     1      69.804   1.628  10.237  1.00  0.00     0.087 A 
ATOM     11  HN  UNL     1      70.218   3.117  11.619  1.00  0.00     0.164 HD
HETATM   12  C   UNL     1      69.266   1.279   9.013  1.00  0.00     0.018 A 
HETATM   13  C   UNL     1      68.692   2.281   8.229  1.00  0.00     0.015 A 
ENDBRANCH   1   7
BRANCH   6  14
HETATM   14  C   UNL     1      66.276   7.898   5.507  1.00  0.00     0.202 C 
BRANCH  14  15
HETATM   15  O   UNL     1      65.924   9.002   6.329  1.00  0.00    -0.396 OA
HETATM   16  H   UNL     1      65.937   9.816   5.801  1.00  0.00     0.209 HD
ENDBRANCH  14  15
ENDBRANCH   6  14
TORSDOF 3
ENDMDL
MODEL 3
REMARK VINA RESULT:      -5.2      3.543      6.052
REMARK  3 active torsions:
REMARK  status: ('A' for Active; 'I' for Inactive)
REMARK    1  A    between atoms: C_1  and  C_4 
REMARK    2  A    between atoms: C_9  and  C_13 
REMARK    3  A    between atoms: O_11  and  C_13 
ROOT
HETATM    1  C   UNL     1      67.253   5.846   7.421  1.00  0.00    -0.025 A 
HETATM    2  C   UNL     1      65.874   5.985   7.662  1.00  0.00     0.013 A 
HETATM    3  C   UNL     1      67.795   6.609   6.371  1.00  0.00     0.013 A 
HETATM    4  C   UNL     1      65.075   6.846   6.899  1.00  0.00     0.010 A 
HETATM    5  C   UNL     1      66.998   7.462   5.597  1.00  0.00     0.010 A 
HETATM    6  C   UNL     1      65.630   7.592   5.856  1.00  0.00    -0.035 A 
ENDROOT
BRANCH   1   7
HETATM    7  C   UNL     1      68.095   4.941   8.236  1.00  0.00    -0.011 A 
HETATM    8  C   UNL     1      67.611   3.741   8.765  1.00  0.00     0.099 A 
HETATM    9  N   UNL     1      68.332   2.859   9.506  1.00  0.00    -0.374 N 
HETATM   10  C   UNL     1      69.615   3.185   9.751  1.00  0.00     0.087 A 
ATOM     11  HN  UNL     1      67.923   1.994   9.858  1.00  0.00     0.164 HD
HETATM   12  C   UNL     1      70.207   4.347   9.294  1.00  0.00     0.018 A 
HETATM   13  C   UNL     1      69.438   5.226   8.528  1.00  0.00     0.015 A 
ENDBRANCH   1   7
BRANCH   6  14
HETATM   14  C   UNL     1      64.781   8.511   5.019  1.00  0.00     0.202 C 
BRANCH  14  15
HETATM   15  O   UNL     1      64.589   9.755   5.678  1.00  0.00    -0.396 OA
HETATM   16  H   UNL     1      64.070   9.617   6.485  1.00  0.00     0.209 HD
ENDBRANCH  14  15
ENDBRANCH   6  14
TORSDOF 3
ENDMDL
MODEL 4
REMARK VINA RESULT:      -5.1      1.767      2.471
REMARK  3 active torsions:
REMARK  status: ('A' for Active; 'I' for Inactive)
REMARK    1  A    between atoms: C_1  and  C_4 
REMARK    2  A    between atoms: C_9  and  C_13 
REMARK    3  A    between atoms: O_11  and  C_13 
ROOT
HETATM    1  C   UNL     1      66.616   6.254   7.283  1.00  0.00    -0.025 A 
HETATM    2  C   UNL     1      67.328   5.232   6.629  1.00  0.00     0.013 A 
HETATM    3  C   UNL     1      67.009   6.561   8.598  1.00  0.00     0.013 A 
HETATM    4  C   UNL     1      68.383   4.553   7.251  1.00  0.00     0.010 A 
HETATM    5  C   UNL     1      68.055   5.877   9.229  1.00  0.00     0.010 A 
HETATM    6  C   UNL     1      68.755   4.867   8.560  1.00  0.00    -0.035 A 
ENDROOT
BRANCH   1   7
HETATM    7  C   UNL     1      65.508   6.976   6.617  1.00  0.00    -0.011 A 
HETATM    8  C   UNL     1      65.694   8.200   5.968  1.00  0.00     0.099 A 
HETATM    9  N   UNL     1      64.727   8.906   5.324  1.00  0.00    -0.374 N 
HETATM   10  C   UNL     1      63.489   8.374   5.329  1.00  0.00     0.087 A 
ATOM     11  HN  UNL     1      64.928   9.792   4.862  1.00  0.00     0.164 HD
HETATM   12  C   UNL     1      63.176   7.178   5.945  1.00  0.00     0.018 A 
HETATM   13  C   UNL     1      64.196   6.476   6.589  1.00  0.00     0.015 A 
ENDBRANCH   1   7
BRANCH   6  14
HETATM   14  C   UNL     1      69.877   4.137   9.247  1.00  0.00     0.202 C 
BRANCH  14  15
HETATM   15  O   UNL     1      69.474   3.696  10.537  1.00  0.00    -0.396 OA
HETATM   16  H   UNL     1      68.832   4.322  10.907  1.00  0.00     0.209 HD
ENDBRANCH  14  15
ENDBRANCH   6  14
TORSDOF 3
ENDMDL
MODEL 5
REMARK VINA RESULT:      -5.1      4.681      7.657
REMARK  3 active torsions:
REMARK  status: ('A' for Active; 'I' for Inactive)
REMARK    1  A    between atoms: C_1  and  C_4 
REMARK    2  A    between atoms: C_9  and  C_13 
REMARK    3  A    between atoms: O_11  and  C_13 
ROOT
HETATM    1  C   UNL     1      64.913   7.604   4.895  1.00  0.00    -0.025 A 
HETATM    2  C   UNL     1      64.368   8.832   5.311  1.00  0.00     0.013 A 
HETATM    3  C   UNL     1      64.372   7.030   3.730  1.00  0.00     0.013 A 
HETATM    4  C   UNL     1      63.340   9.462   4.598  1.00  0.00     0.010 A 
HETATM    5  C   UNL     1      63.336   7.649   3.021  1.00  0.00     0.010 A 
HETATM    6  C   UNL     1      62.812   8.875   3.446  1.00  0.00    -0.035 A 
ENDROOT
BRANCH   1   7
HETATM    7  C   UNL     1      66.007   6.946   5.647  1.00  0.00    -0.011 A 
HETATM    8  C   UNL     1      66.535   7.484   6.825  1.00  0.00     0.099 A 
HETATM    9  N   UNL     1      67.524   6.926   7.571  1.00  0.00    -0.374 N 
HETATM   10  C   UNL     1      68.036   5.764   7.122  1.00  0.00     0.087 A 
ATOM     11  HN  UNL     1      67.861   7.365   8.428  1.00  0.00     0.164 HD
HETATM   12  C   UNL     1      67.607   5.139   5.966  1.00  0.00     0.018 A 
HETATM   13  C   UNL     1      66.583   5.736   5.229  1.00  0.00     0.015 A 
ENDBRANCH   1   7
BRANCH   6  14
HETATM   14  C   UNL     1      61.697   9.532   2.678  1.00  0.00     0.202 C 
BRANCH  14  15
HETATM   15  O   UNL     1      61.172  10.636   3.402  1.00  0.00    -0.396 OA
HETATM   16  H   UNL     1      61.891  11.087   3.872  1.00  0.00     0.209 HD
ENDBRANCH  14  15
ENDBRANCH   6  14
TORSDOF 3
ENDMDL
MODEL 6
REMARK VINA RESULT:      -5.0      4.107      6.117
REMARK  3 active torsions:
REMARK  status: ('A' for Active; 'I' for Inactive)
REMARK    1  A    between atoms: C_1  and  C_4 
REMARK    2  A    between atoms: C_9  and  C_13 
REMARK    3  A    between atoms: O_11  and  C_13 
ROOT
HETATM    1  C   UNL     1      63.888   8.124   4.814  1.00  0.00    -0.025 A 
HETATM    2  C   UNL     1      63.381   7.084   5.615  1.00  0.00     0.013 A 
HETATM    3  C   UNL     1      65.198   8.556   5.086  1.00  0.00     0.013 A 
HETATM    4  C   UNL     1      64.145   6.498   6.632  1.00  0.00     0.010 A 
HETATM    5  C   UNL     1      65.961   7.982   6.110  1.00  0.00     0.010 A 
HETATM    6  C   UNL     1      65.443   6.944   6.892  1.00  0.00    -0.035 A 
ENDROOT
BRANCH   1   7
HETATM    7  C   UNL     1      63.079   8.734   3.733  1.00  0.00    -0.011 A 
HETATM    8  C   UNL     1      62.422   9.959   3.888  1.00  0.00     0.099 A 
HETATM    9  N   UNL     1      61.681  10.581   2.934  1.00  0.00    -0.374 N 
HETATM   10  C   UNL     1      61.569   9.949   1.750  1.00  0.00     0.087 A 
ATOM     11  HN  UNL     1      61.232  11.480   3.107  1.00  0.00     0.164 HD
HETATM   12  C   UNL     1      62.161   8.730   1.478  1.00  0.00     0.018 A 
HETATM   13  C   UNL     1      62.923   8.124   2.478  1.00  0.00     0.015 A 
ENDBRANCH   1   7
BRANCH   6  14
HETATM   14  C   UNL     1      66.270   6.334   7.991  1.00  0.00     0.202 C 
BRANCH  14  15
HETATM   15  O   UNL     1      67.387   7.159   8.296  1.00  0.00    -0.396 OA
HETATM   16  H   UNL     1      67.108   7.876   8.886  1.00  0.00     0.209 HD
ENDBRANCH  14  15
ENDBRANCH   6  14
TORSDOF 3
ENDMDL
MODEL 7
REMARK VINA RESULT:      -4.9     12.263     14.660
REMARK  3 active torsions:
REMARK  status: ('A' for Active; 'I' for Inactive)
REMARK    1  A    between atoms: C_1  and  C_4 
REMARK    2  A    between atoms: C_9  and  C_13 
REMARK    3  A    between atoms: O_11  and  C_13 
ROOT
HETATM    1  C   UNL     1      77.326   1.584  18.357  1.00  0.00    -0.025 A 
HETATM    2  C   UNL     1      77.226   0.274  17.853  1.00  0.00     0.013 A 
HETATM    3  C   UNL     1      78.231   1.791  19.412  1.00  0.00     0.013 A 
HETATM    4  C   UNL     1      77.995  -0.776  18.369  1.00  0.00     0.010 A 
HETATM    5  C   UNL     1      78.995   0.743  19.941  1.00  0.00     0.010 A 
HETATM    6  C   UNL     1      78.886  -0.552  19.422  1.00  0.00    -0.035 A 
ENDROOT
BRANCH   1   7
HETATM    7  C   UNL     1      76.517   2.692  17.800  1.00  0.00    -0.011 A 
HETATM    8  C   UNL     1      75.214   2.506  17.327  1.00  0.00     0.099 A 
HETATM    9  N   UNL     1      74.412   3.479  16.821  1.00  0.00    -0.374 N 
HETATM   10  C   UNL     1      74.932   4.721  16.767  1.00  0.00     0.087 A 
ATOM     11  HN  UNL     1      73.466   3.280  16.499  1.00  0.00     0.164 HD
HETATM   12  C   UNL     1      76.210   5.031  17.192  1.00  0.00     0.018 A 
HETATM   13  C   UNL     1      77.002   4.007  17.715  1.00  0.00     0.015 A 
ENDBRANCH   1   7
BRANCH   6  14
HETATM   14  C   UNL     1      79.709  -1.672  19.997  1.00  0.00     0.202 C 
BRANCH  14  15
HETATM   15  O   UNL     1      80.646  -1.173  20.943  1.00  0.00    -0.396 OA
HETATM   16  H   UNL     1      81.005  -0.329  20.628  1.00  0.00     0.209 HD
ENDBRANCH  14  15
ENDBRANCH   6  14
TORSDOF 3
ENDMDL
MODEL 8
REMARK VINA RESULT:      -4.8     26.456     27.703
REMARK  3 active torsions:
REMARK  status: ('A' for Active; 'I' for Inactive)
REMARK    1  A    between atoms: C_1  and  C_4 
REMARK    2  A    between atoms: C_9  and  C_13 
REMARK    3  A    between atoms: O_11  and  C_13 
ROOT
HETATM    1  C   UNL     1      51.893  20.057  23.567  1.00  0.00    -0.025 A 
HETATM    2  C   UNL     1      50.499  20.141  23.741  1.00  0.00     0.013 A 
HETATM    3  C   UNL     1      52.361  19.891  22.252  1.00  0.00     0.013 A 
HETATM    4  C   UNL     1      49.616  20.071  22.656  1.00  0.00     0.010 A 
HETATM    5  C   UNL     1      51.482  19.808  21.165  1.00  0.00     0.010 A 
HETATM    6  C   UNL     1      50.099  19.900  21.357  1.00  0.00    -0.035 A 
ENDROOT
BRANCH   1   7
HETATM    7  C   UNL     1      52.824  20.142  24.716  1.00  0.00    -0.011 A 
HETATM    8  C   UNL     1      52.614  21.015  25.788  1.00  0.00     0.099 A 
HETATM    9  N   UNL     1      53.416  21.131  26.878  1.00  0.00    -0.374 N 
HETATM   10  C   UNL     1      54.506  20.341  26.912  1.00  0.00     0.087 A 
ATOM     11  HN  UNL     1      53.204  21.783  27.633  1.00  0.00     0.164 HD
HETATM   12  C   UNL     1      54.830  19.446  25.909  1.00  0.00     0.018 A 
HETATM   13  C   UNL     1      53.977  19.347  24.808  1.00  0.00     0.015 A 
ENDBRANCH   1   7
BRANCH   6  14
HETATM   14  C   UNL     1      49.161  19.808  20.184  1.00  0.00     0.202 C 
BRANCH  14  15
HETATM   15  O   UNL     1      49.224  18.518  19.591  1.00  0.00    -0.396 OA
HETATM   16  H   UNL     1      48.624  17.917  20.058  1.00  0.00     0.209 HD
ENDBRANCH  14  15
ENDBRANCH   6  14
TORSDOF 3
ENDMDL
MODEL 9
REMARK VINA RESULT:      -4.8      5.477      8.396
REMARK  3 active torsions:
REMARK  status: ('A' for Active; 'I' for Inactive)
REMARK    1  A    between atoms: C_1  and  C_4 
REMARK    2  A    between atoms: C_9  and  C_13 
REMARK    3  A    between atoms: O_11  and  C_13 
ROOT
HETATM    1  C   UNL     1      63.890   7.890   4.037  1.00  0.00    -0.025 A 
HETATM    2  C   UNL     1      63.738   6.957   2.995  1.00  0.00     0.013 A 
HETATM    3  C   UNL     1      63.100   9.052   3.970  1.00  0.00     0.013 A 
HETATM    4  C   UNL     1      62.840   7.167   1.942  1.00  0.00     0.010 A 
HETATM    5  C   UNL     1      62.209   9.272   2.913  1.00  0.00     0.010 A 
HETATM    6  C   UNL     1      62.067   8.330   1.889  1.00  0.00    -0.035 A 
ENDROOT
BRANCH   1   7
HETATM    7  C   UNL     1      64.835   7.658   5.154  1.00  0.00    -0.011 A 
HETATM    8  C   UNL     1      64.426   7.137   6.386  1.00  0.00     0.099 A 
HETATM    9  N   UNL     1      65.241   6.885   7.444  1.00  0.00    -0.374 N 
HETATM   10  C   UNL     1      66.546   7.175   7.282  1.00  0.00     0.087 A 
ATOM     11  HN  UNL     1      64.882   6.496   8.315  1.00  0.00     0.164 HD
HETATM   12  C   UNL     1      67.071   7.704   6.118  1.00  0.00     0.018 A 
HETATM   13  C   UNL     1      66.206   7.942   5.049  1.00  0.00     0.015 A 
ENDBRANCH   1   7
BRANCH   6  14
HETATM   14  C   UNL     1      61.108   8.576   0.756  1.00  0.00     0.202 C 
BRANCH  14  15
HETATM   15  O   UNL     1      59.772   8.640   1.235  1.00  0.00    -0.396 OA
HETATM   16  H   UNL     1      59.221   8.011   0.744  1.00  0.00     0.209 HD
ENDBRANCH  14  15
ENDBRANCH   6  14
TORSDOF 3
ENDMDL
