MODEL 1
REMARK VINA RESULT:      -6.6      0.000      0.000
REMARK  2 active torsions:
REMARK  status: ('A' for Active; 'I' for Inactive)
REMARK    1  A    between atoms: C_1  and  C_2 
REMARK    2  A    between atoms: C_3  and  C_11 
ROOT
HETATM    1  C   UNL     1      75.514   2.829  17.516  1.00  0.00     0.040 A 
HETATM    2  C   UNL     1      76.366   5.467  16.911  1.00  0.00    -0.025 A 
HETATM    3  C   UNL     1      74.747   3.640  16.678  1.00  0.00     0.019 A 
HETATM    4  C   UNL     1      76.710   3.318  18.042  1.00  0.00     0.019 A 
HETATM    5  C   UNL     1      75.171   4.939  16.381  1.00  0.00     0.013 A 
HETATM    6  C   UNL     1      77.116   4.628  17.756  1.00  0.00     0.013 A 
ENDROOT
BRANCH   2   7
HETATM    7  C   UNL     1      76.829   6.828  16.556  1.00  0.00    -0.011 A 
HETATM    8  C   UNL     1      77.017   7.233  15.230  1.00  0.00     0.099 A 
HETATM    9  N   UNL     1      77.402   8.472  14.833  1.00  0.00    -0.374 N 
HETATM   10  C   UNL     1      77.602   9.382  15.804  1.00  0.00     0.087 A 
ATOM     11  HN  UNL     1      77.532   8.703  13.847  1.00  0.00     0.164 HD
HETATM   12  C   UNL     1      77.457   9.103  17.150  1.00  0.00     0.018 A 
HETATM   13  C   UNL     1      77.077   7.814  17.523  1.00  0.00     0.015 A 
ENDBRANCH   2   7
BRANCH   1  14
HETATM   14  C   UNL     1      75.047   1.444  17.776  1.00  0.00     0.209 C 
HETATM   15  O   UNL     1      74.307   1.155  18.699  1.00  0.00    -0.644 OA
HETATM   16  O   UNL     1      75.557   0.531  16.922  1.00  0.00    -0.644 OA
ENDBRANCH   1  14
TORSDOF 2
ENDMDL
MODEL 2
REMARK VINA RESULT:      -5.9      3.885      6.545
REMARK  2 active torsions:
REMARK  status: ('A' for Active; 'I' for Inactive)
REMARK    1  A    between atoms: C_1  and  C_2 
REMARK    2  A    between atoms: C_3  and  C_11 
ROOT
HETATM    1  C   UNL     1      76.309   5.478  17.293  1.00  0.00     0.040 A 
HETATM    2  C   UNL     1      75.338   2.815  17.165  1.00  0.00    -0.025 A 
HETATM    3  C   UNL     1      75.164   5.183  16.553  1.00  0.00     0.019 A 
HETATM    4  C   UNL     1      76.966   4.458  17.982  1.00  0.00     0.019 A 
HETATM    5  C   UNL     1      74.687   3.869  16.494  1.00  0.00     0.013 A 
HETATM    6  C   UNL     1      76.494   3.141  17.900  1.00  0.00     0.013 A 
ENDROOT
BRANCH   2   7
HETATM    7  C   UNL     1      74.802   1.435  17.132  1.00  0.00    -0.011 A 
HETATM    8  C   UNL     1      74.526   0.711  18.297  1.00  0.00     0.099 A 
HETATM    9  N   UNL     1      74.000  -0.539  18.341  1.00  0.00    -0.374 N 
HETATM   10  C   UNL     1      73.712  -1.114  17.158  1.00  0.00     0.087 A 
ATOM     11  HN  UNL     1      73.831  -1.019  19.225  1.00  0.00     0.164 HD
HETATM   12  C   UNL     1      73.945  -0.506  15.940  1.00  0.00     0.018 A 
HETATM   13  C   UNL     1      74.504   0.772  15.932  1.00  0.00     0.015 A 
ENDBRANCH   2   7
BRANCH   1  14
HETATM   14  C   UNL     1      76.760   6.891  17.361  1.00  0.00     0.209 C 
HETATM   15  O   UNL     1      76.789   7.530  18.396  1.00  0.00    -0.644 OA
HETATM   16  O   UNL     1      77.090   7.412  16.159  1.00  0.00    -0.644 OA
ENDBRANCH   1  14
TORSDOF 2
ENDMDL
MODEL 3
REMARK VINA RESULT:      -5.7     11.500     12.563
REMARK  2 active torsions:
REMARK  status: ('A' for Active; 'I' for Inactive)
REMARK    1  A    between atoms: C_1  and  C_2 
REMARK    2  A    between atoms: C_3  and  C_11 
ROOT
HETATM    1  C   UNL     1      69.068   2.941   9.233  1.00  0.00     0.040 A 
HETATM    2  C   UNL     1      68.036   4.998   7.575  1.00  0.00    -0.025 A 
HETATM    3  C   UNL     1      68.995   4.252   9.704  1.00  0.00     0.019 A 
HETATM    4  C   UNL     1      68.617   2.644   7.946  1.00  0.00     0.019 A 
HETATM    5  C   UNL     1      68.484   5.263   8.884  1.00  0.00     0.013 A 
HETATM    6  C   UNL     1      68.126   3.668   7.124  1.00  0.00     0.013 A 
ENDROOT
BRANCH   2   7
HETATM    7  C   UNL     1      67.456   6.067   6.729  1.00  0.00    -0.011 A 
HETATM    8  C   UNL     1      66.757   7.153   7.269  1.00  0.00     0.099 A 
HETATM    9  N   UNL     1      66.234   8.184   6.560  1.00  0.00    -0.374 N 
HETATM   10  C   UNL     1      66.422   8.155   5.227  1.00  0.00     0.087 A 
ATOM     11  HN  UNL     1      65.724   8.942   7.013  1.00  0.00     0.164 HD
HETATM   12  C   UNL     1      67.088   7.136   4.574  1.00  0.00     0.018 A 
HETATM   13  C   UNL     1      67.598   6.082   5.333  1.00  0.00     0.015 A 
ENDBRANCH   2   7
BRANCH   1  14
HETATM   14  C   UNL     1      69.583   1.890  10.148  1.00  0.00     0.209 C 
HETATM   15  O   UNL     1      70.742   1.517  10.146  1.00  0.00    -0.644 OA
HETATM   16  O   UNL     1      68.635   1.358  10.949  1.00  0.00    -0.644 OA
ENDBRANCH   1  14
TORSDOF 2
ENDMDL
MODEL 4
REMARK VINA RESULT:      -5.7     12.059     13.593
REMARK  2 active torsions:
REMARK  status: ('A' for Active; 'I' for Inactive)
REMARK    1  A    between atoms: C_1  and  C_2 
REMARK    2  A    between atoms: C_3  and  C_11 
ROOT
HETATM    1  C   UNL     1      66.951   6.840   6.614  1.00  0.00     0.040 A 
HETATM    2  C   UNL     1      68.193   4.694   7.993  1.00  0.00    -0.025 A 
HETATM    3  C   UNL     1      67.369   5.706   5.916  1.00  0.00     0.019 A 
HETATM    4  C   UNL     1      67.134   6.907   7.996  1.00  0.00     0.019 A 
HETATM    5  C   UNL     1      67.979   4.649   6.601  1.00  0.00     0.013 A 
HETATM    6  C   UNL     1      67.765   5.852   8.669  1.00  0.00     0.013 A 
ENDROOT
BRANCH   2   7
HETATM    7  C   UNL     1      68.800   3.552   8.715  1.00  0.00    -0.011 A 
HETATM    8  C   UNL     1      69.322   3.676  10.007  1.00  0.00     0.099 A 
HETATM    9  N   UNL     1      69.857   2.667  10.740  1.00  0.00    -0.374 N 
HETATM   10  C   UNL     1      69.868   1.448  10.169  1.00  0.00     0.087 A 
ATOM     11  HN  UNL     1      70.232   2.825  11.675  1.00  0.00     0.164 HD
HETATM   12  C   UNL     1      69.390   1.198   8.897  1.00  0.00     0.018 A 
HETATM   13  C   UNL     1      68.863   2.263   8.166  1.00  0.00     0.015 A 
ENDBRANCH   2   7
BRANCH   1  14
HETATM   14  C   UNL     1      66.274   7.923   5.856  1.00  0.00     0.209 C 
HETATM   15  O   UNL     1      65.986   8.999   6.349  1.00  0.00    -0.644 OA
HETATM   16  O   UNL     1      65.969   7.585   4.585  1.00  0.00    -0.644 OA
ENDBRANCH   1  14
TORSDOF 2
ENDMDL
MODEL 5
REMARK VINA RESULT:      -5.6     13.156     14.447
REMARK  2 active torsions:
REMARK  status: ('A' for Active; 'I' for Inactive)
REMARK    1  A    between atoms: C_1  and  C_2 
REMARK    2  A    between atoms: C_3  and  C_11 
ROOT
HETATM    1  C   UNL     1      65.645   7.598   5.935  1.00  0.00     0.040 A 
HETATM    2  C   UNL     1      67.254   5.819   7.448  1.00  0.00    -0.025 A 
HETATM    3  C   UNL     1      65.066   6.787   6.912  1.00  0.00     0.019 A 
HETATM    4  C   UNL     1      67.022   7.540   5.716  1.00  0.00     0.019 A 
HETATM    5  C   UNL     1      65.864   5.913   7.657  1.00  0.00     0.013 A 
HETATM    6  C   UNL     1      67.809   6.645   6.453  1.00  0.00     0.013 A 
ENDROOT
BRANCH   2   7
HETATM    7  C   UNL     1      68.097   4.922   8.272  1.00  0.00    -0.011 A 
HETATM    8  C   UNL     1      67.612   3.724   8.810  1.00  0.00     0.099 A 
HETATM    9  N   UNL     1      68.337   2.839   9.539  1.00  0.00    -0.374 N 
HETATM   10  C   UNL     1      69.632   3.143   9.744  1.00  0.00     0.087 A 
ATOM     11  HN  UNL     1      67.921   1.986   9.913  1.00  0.00     0.164 HD
HETATM   12  C   UNL     1      70.226   4.298   9.272  1.00  0.00     0.018 A 
HETATM   13  C   UNL     1      69.447   5.194   8.541  1.00  0.00     0.015 A 
ENDBRANCH   2   7
BRANCH   1  14
HETATM   14  C   UNL     1      64.768   8.539   5.191  1.00  0.00     0.209 C 
HETATM   15  O   UNL     1      64.547   9.676   5.565  1.00  0.00    -0.644 OA
HETATM   16  O   UNL     1      64.207   7.999   4.088  1.00  0.00    -0.644 OA
ENDBRANCH   1  14
TORSDOF 2
ENDMDL
MODEL 6
REMARK VINA RESULT:      -5.4     20.673     21.804
REMARK  2 active torsions:
REMARK  status: ('A' for Active; 'I' for Inactive)
REMARK    1  A    between atoms: C_1  and  C_2 
REMARK    2  A    between atoms: C_3  and  C_11 
ROOT
HETATM    1  C   UNL     1      62.379   9.980   3.578  1.00  0.00     0.040 A 
HETATM    2  C   UNL     1      62.069   8.375   1.260  1.00  0.00    -0.025 A 
HETATM    3  C   UNL     1      61.889  10.540   2.397  1.00  0.00     0.019 A 
HETATM    4  C   UNL     1      62.703   8.623   3.616  1.00  0.00     0.019 A 
HETATM    5  C   UNL     1      61.736   9.744   1.257  1.00  0.00     0.013 A 
HETATM    6  C   UNL     1      62.566   7.839   2.463  1.00  0.00     0.013 A 
ENDROOT
BRANCH   2   7
HETATM    7  C   UNL     1      61.863   7.531   0.060  1.00  0.00    -0.011 A 
HETATM    8  C   UNL     1      62.911   7.183  -0.799  1.00  0.00     0.099 A 
HETATM    9  N   UNL     1      62.801   6.385  -1.892  1.00  0.00    -0.374 N 
HETATM   10  C   UNL     1      61.580   5.882  -2.150  1.00  0.00     0.087 A 
ATOM     11  HN  UNL     1      63.603   6.177  -2.486  1.00  0.00     0.164 HD
HETATM   12  C   UNL     1      60.465   6.157  -1.382  1.00  0.00     0.018 A 
HETATM   13  C   UNL     1      60.611   6.995  -0.277  1.00  0.00     0.015 A 
ENDBRANCH   2   7
BRANCH   1  14
HETATM   14  C   UNL     1      62.492  10.851   4.776  1.00  0.00     0.209 C 
HETATM   15  O   UNL     1      62.042  11.981   4.820  1.00  0.00    -0.644 OA
HETATM   16  O   UNL     1      63.178  10.286   5.793  1.00  0.00    -0.644 OA
ENDBRANCH   1  14
TORSDOF 2
ENDMDL
MODEL 7
REMARK VINA RESULT:      -5.2      4.486      5.711
REMARK  2 active torsions:
REMARK  status: ('A' for Active; 'I' for Inactive)
REMARK    1  A    between atoms: C_1  and  C_2 
REMARK    2  A    between atoms: C_3  and  C_11 
ROOT
HETATM    1  C   UNL     1      75.457  -0.408  14.334  1.00  0.00     0.040 A 
HETATM    2  C   UNL     1      76.490   0.866  16.649  1.00  0.00    -0.025 A 
HETATM    3  C   UNL     1      74.670   0.497  15.048  1.00  0.00     0.019 A 
HETATM    4  C   UNL     1      76.761  -0.672  14.757  1.00  0.00     0.019 A 
HETATM    5  C   UNL     1      75.184   1.124  16.188  1.00  0.00     0.013 A 
HETATM    6  C   UNL     1      77.259  -0.054  15.912  1.00  0.00     0.013 A 
ENDROOT
BRANCH   2   7
HETATM    7  C   UNL     1      77.041   1.568  17.831  1.00  0.00    -0.011 A 
HETATM    8  C   UNL     1      76.657   2.868  18.176  1.00  0.00     0.099 A 
HETATM    9  N   UNL     1      77.091   3.555  19.263  1.00  0.00    -0.374 N 
HETATM   10  C   UNL     1      77.951   2.915  20.076  1.00  0.00     0.087 A 
ATOM     11  HN  UNL     1      76.780   4.508  19.454  1.00  0.00     0.164 HD
HETATM   12  C   UNL     1      78.412   1.634  19.841  1.00  0.00     0.018 A 
HETATM   13  C   UNL     1      77.958   0.964  18.704  1.00  0.00     0.015 A 
ENDBRANCH   2   7
BRANCH   1  14
HETATM   14  C   UNL     1      74.887  -1.024  13.109  1.00  0.00     0.209 C 
HETATM   15  O   UNL     1      73.917  -0.572  12.528  1.00  0.00    -0.644 OA
HETATM   16  O   UNL     1      75.517  -2.156  12.729  1.00  0.00    -0.644 OA
ENDBRANCH   1  14
TORSDOF 2
ENDMDL
MODEL 8
REMARK VINA RESULT:      -5.2     16.563     17.756
REMARK  2 active torsions:
REMARK  status: ('A' for Active; 'I' for Inactive)
REMARK    1  A    between atoms: C_1  and  C_2 
REMARK    2  A    between atoms: C_3  and  C_11 
ROOT
HETATM    1  C   UNL     1      62.933   9.176   3.726  1.00  0.00     0.040 A 
HETATM    2  C   UNL     1      64.949   7.647   5.007  1.00  0.00    -0.025 A 
HETATM    3  C   UNL     1      63.567   9.667   4.868  1.00  0.00     0.019 A 
HETATM    4  C   UNL     1      63.307   7.935   3.209  1.00  0.00     0.019 A 
HETATM    5  C   UNL     1      64.562   8.910   5.496  1.00  0.00     0.013 A 
HETATM    6  C   UNL     1      64.289   7.175   3.857  1.00  0.00     0.013 A 
ENDROOT
BRANCH   2   7
HETATM    7  C   UNL     1      66.034   6.872   5.654  1.00  0.00    -0.011 A 
HETATM    8  C   UNL     1      66.599   7.251   6.876  1.00  0.00     0.099 A 
HETATM    9  N   UNL     1      67.566   6.570   7.542  1.00  0.00    -0.374 N 
HETATM   10  C   UNL     1      67.999   5.429   6.974  1.00  0.00     0.087 A 
ATOM     11  HN  UNL     1      67.945   6.906   8.427  1.00  0.00     0.164 HD
HETATM   12  C   UNL     1      67.525   4.952   5.766  1.00  0.00     0.018 A 
HETATM   13  C   UNL     1      66.544   5.687   5.101  1.00  0.00     0.015 A 
ENDBRANCH   2   7
BRANCH   1  14
HETATM   14  C   UNL     1      61.909  10.027   3.068  1.00  0.00     0.209 C 
HETATM   15  O   UNL     1      61.479   9.805   1.951  1.00  0.00    -0.644 OA
HETATM   16  O   UNL     1      61.534  11.093   3.808  1.00  0.00    -0.644 OA
ENDBRANCH   1  14
TORSDOF 2
ENDMDL
MODEL 9
REMARK VINA RESULT:      -5.1      2.974      4.682
REMARK  2 active torsions:
REMARK  status: ('A' for Active; 'I' for Inactive)
REMARK    1  A    between atoms: C_1  and  C_2 
REMARK    2  A    between atoms: C_3  and  C_11 
ROOT
HETATM    1  C   UNL     1      74.198  -1.282  16.637  1.00  0.00     0.040 A 
HETATM    2  C   UNL     1      75.217   1.326  17.091  1.00  0.00    -0.025 A 
HETATM    3  C   UNL     1      73.737  -0.527  17.716  1.00  0.00     0.019 A 
HETATM    4  C   UNL     1      75.153  -0.743  15.775  1.00  0.00     0.019 A 
HETATM    5  C   UNL     1      74.241   0.760  17.935  1.00  0.00     0.013 A 
HETATM    6  C   UNL     1      75.667   0.538  16.015  1.00  0.00     0.013 A 
ENDROOT
BRANCH   2   7
HETATM    7  C   UNL     1      75.713   2.705  17.306  1.00  0.00    -0.011 A 
HETATM    8  C   UNL     1      76.832   2.983  18.098  1.00  0.00     0.099 A 
HETATM    9  N   UNL     1      77.362   4.215  18.307  1.00  0.00    -0.374 N 
HETATM   10  C   UNL     1      76.760   5.244  17.683  1.00  0.00     0.087 A 
ATOM     11  HN  UNL     1      78.176   4.354  18.906  1.00  0.00     0.164 HD
HETATM   12  C   UNL     1      75.644   5.100  16.880  1.00  0.00     0.018 A 
HETATM   13  C   UNL     1      75.115   3.822  16.703  1.00  0.00     0.015 A 
ENDBRANCH   2   7
BRANCH   1  14
HETATM   14  C   UNL     1      73.611  -2.629  16.418  1.00  0.00     0.209 C 
HETATM   15  O   UNL     1      72.835  -2.876  15.514  1.00  0.00    -0.644 OA
HETATM   16  O   UNL     1      73.984  -3.539  17.344  1.00  0.00    -0.644 OA
ENDBRANCH   1  14
TORSDOF 2
ENDMDL
