MODEL 1
REMARK VINA RESULT:      -4.5      0.000      0.000
REMARK  2 active torsions:
REMARK  status: ('A' for Active; 'I' for Inactive)
REMARK    1  A    between atoms: C_5  and  C_10 
REMARK    2  A    between atoms: C_10  and  O_11 
ROOT
HETATM    1  N   UNL     1      62.608   9.856   3.798  1.00  0.00    -0.352 N 
HETATM    2  C   UNL     1      62.932   8.631   3.254  1.00  0.00     0.052 A 
HETATM    3  C   UNL     1      63.741   7.972   4.131  1.00  0.00     0.033 A 
HETATM    4  C   UNL     1      63.941   8.806   5.264  1.00  0.00     0.048 A 
HETATM    5  C   UNL     1      63.242   9.977   5.017  1.00  0.00     0.036 A 
HETATM    6  S   UNL     1      64.211   6.410   3.548  1.00  0.00    -0.100 SA
HETATM    7  C   UNL     1      62.663   7.897   2.065  1.00  0.00     0.038 A 
HETATM    8  C   UNL     1      63.308   6.680   2.108  1.00  0.00     0.053 A 
HETATM    9  C   UNL     1      61.759  10.800   3.110  1.00  0.00     0.156 C 
ENDROOT
BRANCH   5  10
HETATM   10  C   UNL     1      63.144  11.188   5.878  1.00  0.00     0.221 C 
BRANCH  10  11
HETATM   11  O   UNL     1      64.435  11.423   6.420  1.00  0.00    -0.395 OA
HETATM   12  H   UNL     1      64.456  11.129   7.344  1.00  0.00     0.209 HD
ENDBRANCH  10  11
ENDBRANCH   5  10
TORSDOF 2
ENDMDL
MODEL 2
REMARK VINA RESULT:      -4.4      1.574      2.341
REMARK  2 active torsions:
REMARK  status: ('A' for Active; 'I' for Inactive)
REMARK    1  A    between atoms: C_5  and  C_10 
REMARK    2  A    between atoms: C_10  and  O_11 
ROOT
HETATM    1  N   UNL     1      63.380   9.163   4.745  1.00  0.00    -0.352 N 
HETATM    2  C   UNL     1      62.962   8.766   3.493  1.00  0.00     0.052 A 
HETATM    3  C   UNL     1      62.210   9.767   2.953  1.00  0.00     0.033 A 
HETATM    4  C   UNL     1      62.144  10.830   3.893  1.00  0.00     0.048 A 
HETATM    5  C   UNL     1      62.862  10.416   5.004  1.00  0.00     0.036 A 
HETATM    6  S   UNL     1      61.630   9.374   1.369  1.00  0.00    -0.100 SA
HETATM    7  C   UNL     1      63.095   7.632   2.644  1.00  0.00     0.038 A 
HETATM    8  C   UNL     1      62.410   7.843   1.467  1.00  0.00     0.053 A 
HETATM    9  C   UNL     1      64.199   8.321   5.583  1.00  0.00     0.156 C 
ENDROOT
BRANCH   5  10
HETATM   10  C   UNL     1      63.083  11.149   6.281  1.00  0.00     0.221 C 
BRANCH  10  11
HETATM   11  O   UNL     1      64.446  11.547   6.306  1.00  0.00    -0.395 OA
HETATM   12  H   UNL     1      64.516  12.436   6.686  1.00  0.00     0.209 HD
ENDBRANCH  10  11
ENDBRANCH   5  10
TORSDOF 2
ENDMDL
MODEL 3
REMARK VINA RESULT:      -4.0      7.978      9.101
REMARK  2 active torsions:
REMARK  status: ('A' for Active; 'I' for Inactive)
REMARK    1  A    between atoms: C_5  and  C_10 
REMARK    2  A    between atoms: C_10  and  O_11 
ROOT
HETATM    1  N   UNL     1      67.820   2.975   8.459  1.00  0.00    -0.352 N 
HETATM    2  C   UNL     1      67.197   4.189   8.258  1.00  0.00     0.052 A 
HETATM    3  C   UNL     1      67.839   5.129   9.008  1.00  0.00     0.033 A 
HETATM    4  C   UNL     1      68.898   4.492   9.710  1.00  0.00     0.048 A 
HETATM    5  C   UNL     1      68.846   3.151   9.364  1.00  0.00     0.036 A 
HETATM    6  S   UNL     1      67.138   6.703   8.831  1.00  0.00    -0.100 SA
HETATM    7  C   UNL     1      66.103   4.706   7.511  1.00  0.00     0.038 A 
HETATM    8  C   UNL     1      65.969   6.057   7.746  1.00  0.00     0.053 A 
HETATM    9  C   UNL     1      67.375   1.768   7.803  1.00  0.00     0.156 C 
ENDROOT
BRANCH   5  10
HETATM   10  C   UNL     1      69.720   2.044   9.842  1.00  0.00     0.221 C 
BRANCH  10  11
HETATM   11  O   UNL     1      69.764   2.126  11.258  1.00  0.00    -0.395 OA
HETATM   12  H   UNL     1      68.965   1.721  11.631  1.00  0.00     0.209 HD
ENDBRANCH  10  11
ENDBRANCH   5  10
TORSDOF 2
ENDMDL
MODEL 4
REMARK VINA RESULT:      -3.9      6.911      7.964
REMARK  2 active torsions:
REMARK  status: ('A' for Active; 'I' for Inactive)
REMARK    1  A    between atoms: C_5  and  C_10 
REMARK    2  A    between atoms: C_10  and  O_11 
ROOT
HETATM    1  N   UNL     1      68.507   4.128   7.491  1.00  0.00    -0.352 N 
HETATM    2  C   UNL     1      67.822   5.102   6.796  1.00  0.00     0.052 A 
HETATM    3  C   UNL     1      67.552   6.129   7.652  1.00  0.00     0.033 A 
HETATM    4  C   UNL     1      68.077   5.794   8.929  1.00  0.00     0.048 A 
HETATM    5  C   UNL     1      68.645   4.537   8.801  1.00  0.00     0.036 A 
HETATM    6  S   UNL     1      66.689   7.418   6.881  1.00  0.00    -0.100 SA
HETATM    7  C   UNL     1      67.334   5.316   5.477  1.00  0.00     0.038 A 
HETATM    8  C   UNL     1      66.696   6.535   5.404  1.00  0.00     0.053 A 
HETATM    9  C   UNL     1      68.941   2.902   6.864  1.00  0.00     0.156 C 
ENDROOT
BRANCH   5  10
HETATM   10  C   UNL     1      69.311   3.718   9.852  1.00  0.00     0.221 C 
BRANCH  10  11
HETATM   11  O   UNL     1      70.706   3.963   9.754  1.00  0.00    -0.395 OA
HETATM   12  H   UNL     1      71.106   3.916  10.636  1.00  0.00     0.209 HD
ENDBRANCH  10  11
ENDBRANCH   5  10
TORSDOF 2
ENDMDL
MODEL 5
REMARK VINA RESULT:      -3.9      1.750      2.432
REMARK  2 active torsions:
REMARK  status: ('A' for Active; 'I' for Inactive)
REMARK    1  A    between atoms: C_5  and  C_10 
REMARK    2  A    between atoms: C_10  and  O_11 
ROOT
HETATM    1  N   UNL     1      63.105   8.568   3.411  1.00  0.00    -0.352 N 
HETATM    2  C   UNL     1      64.121   7.858   4.014  1.00  0.00     0.052 A 
HETATM    3  C   UNL     1      64.505   8.528   5.138  1.00  0.00     0.033 A 
HETATM    4  C   UNL     1      63.711   9.701   5.249  1.00  0.00     0.048 A 
HETATM    5  C   UNL     1      62.866   9.708   4.151  1.00  0.00     0.036 A 
HETATM    6  S   UNL     1      65.785   7.720   5.981  1.00  0.00    -0.100 SA
HETATM    7  C   UNL     1      64.856   6.661   3.785  1.00  0.00     0.038 A 
HETATM    8  C   UNL     1      65.790   6.485   4.782  1.00  0.00     0.053 A 
HETATM    9  C   UNL     1      62.476   8.121   2.191  1.00  0.00     0.156 C 
ENDROOT
BRANCH   5  10
HETATM   10  C   UNL     1      61.850  10.732   3.780  1.00  0.00     0.221 C 
BRANCH  10  11
HETATM   11  O   UNL     1      62.203  11.934   4.446  1.00  0.00    -0.395 OA
HETATM   12  H   UNL     1      62.152  12.676   3.824  1.00  0.00     0.209 HD
ENDBRANCH  10  11
ENDBRANCH   5  10
TORSDOF 2
ENDMDL
MODEL 6
REMARK VINA RESULT:      -3.8      2.372      3.246
REMARK  2 active torsions:
REMARK  status: ('A' for Active; 'I' for Inactive)
REMARK    1  A    between atoms: C_5  and  C_10 
REMARK    2  A    between atoms: C_10  and  O_11 
ROOT
HETATM    1  N   UNL     1      63.900   7.511   3.703  1.00  0.00    -0.352 N 
HETATM    2  C   UNL     1      63.077   8.405   3.051  1.00  0.00     0.052 A 
HETATM    3  C   UNL     1      62.858   9.468   3.877  1.00  0.00     0.033 A 
HETATM    4  C   UNL     1      63.559   9.239   5.091  1.00  0.00     0.048 A 
HETATM    5  C   UNL     1      64.179   8.007   4.960  1.00  0.00     0.036 A 
HETATM    6  S   UNL     1      61.831  10.661   3.155  1.00  0.00    -0.100 SA
HETATM    7  C   UNL     1      62.414   8.512   1.797  1.00  0.00     0.038 A 
HETATM    8  C   UNL     1      61.702   9.690   1.740  1.00  0.00     0.053 A 
HETATM    9  C   UNL     1      64.322   6.273   3.093  1.00  0.00     0.156 C 
ENDROOT
BRANCH   5  10
HETATM   10  C   UNL     1      65.020   7.290   5.959  1.00  0.00     0.221 C 
BRANCH  10  11
HETATM   11  O   UNL     1      64.262   7.196   7.155  1.00  0.00    -0.395 OA
HETATM   12  H   UNL     1      64.829   6.878   7.874  1.00  0.00     0.209 HD
ENDBRANCH  10  11
ENDBRANCH   5  10
TORSDOF 2
ENDMDL
MODEL 7
REMARK VINA RESULT:      -3.8      6.284      7.246
REMARK  2 active torsions:
REMARK  status: ('A' for Active; 'I' for Inactive)
REMARK    1  A    between atoms: C_5  and  C_10 
REMARK    2  A    between atoms: C_10  and  O_11 
ROOT
HETATM    1  N   UNL     1      67.487   5.350   6.543  1.00  0.00    -0.352 N 
HETATM    2  C   UNL     1      68.177   4.474   7.354  1.00  0.00     0.052 A 
HETATM    3  C   UNL     1      68.215   4.995   8.614  1.00  0.00     0.033 A 
HETATM    4  C   UNL     1      67.531   6.241   8.601  1.00  0.00     0.048 A 
HETATM    5  C   UNL     1      67.110   6.442   7.297  1.00  0.00     0.036 A 
HETATM    6  S   UNL     1      69.062   3.971   9.725  1.00  0.00    -0.100 SA
HETATM    7  C   UNL     1      68.842   3.222   7.235  1.00  0.00     0.038 A 
HETATM    8  C   UNL     1      69.367   2.851   8.454  1.00  0.00     0.053 A 
HETATM    9  C   UNL     1      67.271   5.087   5.140  1.00  0.00     0.156 C 
ENDROOT
BRANCH   5  10
HETATM   10  C   UNL     1      66.368   7.608   6.740  1.00  0.00     0.221 C 
BRANCH  10  11
HETATM   11  O   UNL     1      67.184   8.754   6.931  1.00  0.00    -0.395 OA
HETATM   12  H   UNL     1      66.630   9.506   7.192  1.00  0.00     0.209 HD
ENDBRANCH  10  11
ENDBRANCH   5  10
TORSDOF 2
ENDMDL
MODEL 8
REMARK VINA RESULT:      -3.7      1.927      2.685
REMARK  2 active torsions:
REMARK  status: ('A' for Active; 'I' for Inactive)
REMARK    1  A    between atoms: C_5  and  C_10 
REMARK    2  A    between atoms: C_10  and  O_11 
ROOT
HETATM    1  N   UNL     1      63.155   9.009   4.280  1.00  0.00    -0.352 N 
HETATM    2  C   UNL     1      62.637   8.895   3.008  1.00  0.00     0.052 A 
HETATM    3  C   UNL     1      62.976   7.670   2.514  1.00  0.00     0.033 A 
HETATM    4  C   UNL     1      63.736   6.988   3.501  1.00  0.00     0.048 A 
HETATM    5  C   UNL     1      63.848   7.854   4.577  1.00  0.00     0.036 A 
HETATM    6  S   UNL     1      62.372   7.417   0.910  1.00  0.00    -0.100 SA
HETATM    7  C   UNL     1      61.876   9.684   2.101  1.00  0.00     0.038 A 
HETATM    8  C   UNL     1      61.675   8.990   0.927  1.00  0.00     0.053 A 
HETATM    9  C   UNL     1      62.971  10.197   5.080  1.00  0.00     0.156 C 
ENDROOT
BRANCH   5  10
HETATM   10  C   UNL     1      64.568   7.634   5.863  1.00  0.00     0.221 C 
BRANCH  10  11
HETATM   11  O   UNL     1      63.596   7.271   6.832  1.00  0.00    -0.395 OA
HETATM   12  H   UNL     1      63.866   6.450   7.269  1.00  0.00     0.209 HD
ENDBRANCH  10  11
ENDBRANCH   5  10
TORSDOF 2
ENDMDL
MODEL 9
REMARK VINA RESULT:      -3.7      4.019      5.081
REMARK  2 active torsions:
REMARK  status: ('A' for Active; 'I' for Inactive)
REMARK    1  A    between atoms: C_5  and  C_10 
REMARK    2  A    between atoms: C_10  and  O_11 
ROOT
HETATM    1  N   UNL     1      66.818   7.245   5.975  1.00  0.00    -0.352 N 
HETATM    2  C   UNL     1      65.508   7.575   5.694  1.00  0.00     0.052 A 
HETATM    3  C   UNL     1      64.697   6.832   6.499  1.00  0.00     0.033 A 
HETATM    4  C   UNL     1      65.516   6.002   7.312  1.00  0.00     0.048 A 
HETATM    5  C   UNL     1      66.826   6.267   6.947  1.00  0.00     0.036 A 
HETATM    6  S   UNL     1      63.019   7.167   6.232  1.00  0.00    -0.100 SA
HETATM    7  C   UNL     1      64.801   8.446   4.820  1.00  0.00     0.038 A 
HETATM    8  C   UNL     1      63.443   8.308   5.016  1.00  0.00     0.053 A 
HETATM    9  C   UNL     1      67.927   7.862   5.287  1.00  0.00     0.156 C 
ENDROOT
BRANCH   5  10
HETATM   10  C   UNL     1      68.071   5.646   7.478  1.00  0.00     0.221 C 
BRANCH  10  11
HETATM   11  O   UNL     1      68.425   6.356   8.655  1.00  0.00    -0.395 OA
HETATM   12  H   UNL     1      69.386   6.322   8.777  1.00  0.00     0.209 HD
ENDBRANCH  10  11
ENDBRANCH   5  10
TORSDOF 2
ENDMDL
