MODEL 1
REMARK VINA RESULT:      -4.3      0.000      0.000
REMARK  2 active torsions:
REMARK  status: ('A' for Active; 'I' for Inactive)
REMARK    1  A    between atoms: C_5  and  C_9 
REMARK    2  A    between atoms: C_9  and  N_11 
ROOT
HETATM    1  N   UNL     1      72.283  23.215  13.264  1.00  0.00    -0.352 N 
HETATM    2  C   UNL     1      71.360  23.881  13.978  1.00  0.00     0.052 A 
HETATM    3  C   UNL     1      70.119  23.545  13.609  1.00  0.00     0.033 A 
HETATM    4  C   UNL     1      70.190  22.619  12.601  1.00  0.00     0.048 A 
HETATM    5  C   UNL     1      71.564  22.423  12.413  1.00  0.00     0.038 A 
HETATM    6  S   UNL     1      68.971  24.357  14.515  1.00  0.00    -0.100 SA
HETATM    7  C   UNL     1      71.449  24.817  15.001  1.00  0.00     0.038 A 
HETATM    8  C   UNL     1      70.164  25.193  15.419  1.00  0.00     0.053 A 
HETATM    9  C   UNL     1      73.732  23.322  13.412  1.00  0.00     0.156 C 
ENDROOT
BRANCH   5  10
HETATM   10  C   UNL     1      72.152  21.445  11.434  1.00  0.00     0.288 C 
BRANCH  10  11
HETATM   11  N   UNL     1      71.102  20.843  10.602  1.00  0.00    -0.074 N 
HETATM   12  C   UNL     1      71.020  19.388  10.777  1.00  0.00     0.267 C 
HETATM   13  H   UNL     1      71.303  21.045   9.622  1.00  0.00     0.277 HD
HETATM   14  H   UNL     1      70.209  21.244  10.887  1.00  0.00     0.277 HD
ENDBRANCH  10  11
ENDBRANCH   5  10
TORSDOF 2
ENDMDL
MODEL 2
REMARK VINA RESULT:      -4.3      1.757      3.490
REMARK  2 active torsions:
REMARK  status: ('A' for Active; 'I' for Inactive)
REMARK    1  A    between atoms: C_5  and  C_9 
REMARK    2  A    between atoms: C_9  and  N_11 
ROOT
HETATM    1  N   UNL     1      71.536  22.746  13.542  1.00  0.00    -0.352 N 
HETATM    2  C   UNL     1      70.498  23.490  13.956  1.00  0.00     0.052 A 
HETATM    3  C   UNL     1      70.849  24.310  14.953  1.00  0.00     0.033 A 
HETATM    4  C   UNL     1      72.176  24.119  15.239  1.00  0.00     0.048 A 
HETATM    5  C   UNL     1      72.584  23.137  14.328  1.00  0.00     0.038 A 
HETATM    6  S   UNL     1      69.560  25.253  15.452  1.00  0.00    -0.100 SA
HETATM    7  C   UNL     1      69.170  23.571  13.552  1.00  0.00     0.038 A 
HETATM    8  C   UNL     1      68.496  24.537  14.314  1.00  0.00     0.053 A 
HETATM    9  C   UNL     1      71.518  21.760  12.465  1.00  0.00     0.156 C 
ENDROOT
BRANCH   5  10
HETATM   10  C   UNL     1      73.993  22.623  14.214  1.00  0.00     0.288 C 
BRANCH  10  11
HETATM   11  N   UNL     1      74.654  22.616  15.527  1.00  0.00    -0.074 N 
HETATM   12  C   UNL     1      75.205  21.298  15.863  1.00  0.00     0.267 C 
HETATM   13  H   UNL     1      73.973  22.879  16.239  1.00  0.00     0.277 HD
HETATM   14  H   UNL     1      75.428  23.279  15.490  1.00  0.00     0.277 HD
ENDBRANCH  10  11
ENDBRANCH   5  10
TORSDOF 2
ENDMDL
MODEL 3
REMARK VINA RESULT:      -4.2     18.337     19.559
REMARK  2 active torsions:
REMARK  status: ('A' for Active; 'I' for Inactive)
REMARK    1  A    between atoms: C_5  and  C_9 
REMARK    2  A    between atoms: C_9  and  N_11 
ROOT
HETATM    1  N   UNL     1      68.570   4.004   7.425  1.00  0.00    -0.352 N 
HETATM    2  C   UNL     1      67.621   4.862   7.015  1.00  0.00     0.052 A 
HETATM    3  C   UNL     1      67.503   5.897   7.854  1.00  0.00     0.033 A 
HETATM    4  C   UNL     1      68.397   5.742   8.881  1.00  0.00     0.048 A 
HETATM    5  C   UNL     1      69.061   4.547   8.578  1.00  0.00     0.038 A 
HETATM    6  S   UNL     1      66.337   6.978   7.330  1.00  0.00    -0.100 SA
HETATM    7  C   UNL     1      66.773   4.881   5.914  1.00  0.00     0.038 A 
HETATM    8  C   UNL     1      65.970   6.031   5.949  1.00  0.00     0.053 A 
HETATM    9  C   UNL     1      68.977   2.777   6.744  1.00  0.00     0.156 C 
ENDROOT
BRANCH   5  10
HETATM   10  C   UNL     1      70.186   3.976   9.395  1.00  0.00     0.288 C 
BRANCH  10  11
HETATM   11  N   UNL     1      69.674   3.337  10.616  1.00  0.00    -0.074 N 
HETATM   12  C   UNL     1      69.304   1.934  10.394  1.00  0.00     0.267 C 
HETATM   13  H   UNL     1      68.850   3.848  10.932  1.00  0.00     0.277 HD
HETATM   14  H   UNL     1      70.416   3.359  11.314  1.00  0.00     0.277 HD
ENDBRANCH  10  11
ENDBRANCH   5  10
TORSDOF 2
ENDMDL
MODEL 4
REMARK VINA RESULT:      -4.0     17.745     19.360
REMARK  2 active torsions:
REMARK  status: ('A' for Active; 'I' for Inactive)
REMARK    1  A    between atoms: C_5  and  C_9 
REMARK    2  A    between atoms: C_9  and  N_11 
ROOT
HETATM    1  N   UNL     1      67.665   5.141   6.712  1.00  0.00    -0.352 N 
HETATM    2  C   UNL     1      68.284   4.263   7.518  1.00  0.00     0.052 A 
HETATM    3  C   UNL     1      68.401   4.738   8.763  1.00  0.00     0.033 A 
HETATM    4  C   UNL     1      67.848   5.991   8.814  1.00  0.00     0.048 A 
HETATM    5  C   UNL     1      67.384   6.213   7.511  1.00  0.00     0.038 A 
HETATM    6  S   UNL     1      69.151   3.633   9.771  1.00  0.00    -0.100 SA
HETATM    7  C   UNL     1      68.802   2.989   7.310  1.00  0.00     0.038 A 
HETATM    8  C   UNL     1      69.337   2.490   8.507  1.00  0.00     0.053 A 
HETATM    9  C   UNL     1      67.355   4.947   5.298  1.00  0.00     0.156 C 
ENDROOT
BRANCH   5  10
HETATM   10  C   UNL     1      66.644   7.448   7.078  1.00  0.00     0.288 C 
BRANCH  10  11
HETATM   11  N   UNL     1      65.191   7.234   7.132  1.00  0.00    -0.074 N 
HETATM   12  C   UNL     1      64.557   7.393   5.818  1.00  0.00     0.267 C 
HETATM   13  H   UNL     1      64.784   7.910   7.778  1.00  0.00     0.277 HD
HETATM   14  H   UNL     1      65.028   6.277   7.445  1.00  0.00     0.277 HD
ENDBRANCH  10  11
ENDBRANCH   5  10
TORSDOF 2
ENDMDL
MODEL 5
REMARK VINA RESULT:      -3.9     17.669     18.906
REMARK  2 active torsions:
REMARK  status: ('A' for Active; 'I' for Inactive)
REMARK    1  A    between atoms: C_5  and  C_9 
REMARK    2  A    between atoms: C_9  and  N_11 
ROOT
HETATM    1  N   UNL     1      64.166   7.547   3.914  1.00  0.00    -0.352 N 
HETATM    2  C   UNL     1      63.233   8.345   3.371  1.00  0.00     0.052 A 
HETATM    3  C   UNL     1      63.023   9.433   4.122  1.00  0.00     0.033 A 
HETATM    4  C   UNL     1      63.837   9.377   5.223  1.00  0.00     0.048 A 
HETATM    5  C   UNL     1      64.552   8.184   5.059  1.00  0.00     0.038 A 
HETATM    6  S   UNL     1      61.877  10.439   3.433  1.00  0.00    -0.100 SA
HETATM    7  C   UNL     1      62.474   8.262   2.210  1.00  0.00     0.038 A 
HETATM    8  C   UNL     1      61.643   9.387   2.099  1.00  0.00     0.053 A 
HETATM    9  C   UNL     1      64.656   6.288   3.357  1.00  0.00     0.156 C 
ENDROOT
BRANCH   5  10
HETATM   10  C   UNL     1      65.623   7.705   6.000  1.00  0.00     0.288 C 
BRANCH  10  11
HETATM   11  N   UNL     1      65.032   7.019   7.158  1.00  0.00    -0.074 N 
HETATM   12  C   UNL     1      66.048   6.588   8.125  1.00  0.00     0.267 C 
HETATM   13  H   UNL     1      64.523   6.198   6.828  1.00  0.00     0.277 HD
HETATM   14  H   UNL     1      64.411   7.677   7.628  1.00  0.00     0.277 HD
ENDBRANCH  10  11
ENDBRANCH   5  10
TORSDOF 2
ENDMDL
MODEL 6
REMARK VINA RESULT:      -3.9     17.783     18.428
REMARK  2 active torsions:
REMARK  status: ('A' for Active; 'I' for Inactive)
REMARK    1  A    between atoms: C_5  and  C_9 
REMARK    2  A    between atoms: C_9  and  N_11 
ROOT
HETATM    1  N   UNL     1      66.504   7.242   5.607  1.00  0.00    -0.352 N 
HETATM    2  C   UNL     1      65.211   7.601   5.541  1.00  0.00     0.052 A 
HETATM    3  C   UNL     1      64.442   6.801   6.287  1.00  0.00     0.033 A 
HETATM    4  C   UNL     1      65.232   5.853   6.883  1.00  0.00     0.048 A 
HETATM    5  C   UNL     1      66.526   6.162   6.445  1.00  0.00     0.038 A 
HETATM    6  S   UNL     1      62.835   7.264   6.223  1.00  0.00    -0.100 SA
HETATM    7  C   UNL     1      64.545   8.621   4.872  1.00  0.00     0.038 A 
HETATM    8  C   UNL     1      63.173   8.565   5.158  1.00  0.00     0.053 A 
HETATM    9  C   UNL     1      67.620   7.902   4.934  1.00  0.00     0.156 C 
ENDROOT
BRANCH   5  10
HETATM   10  C   UNL     1      67.763   5.425   6.877  1.00  0.00     0.288 C 
BRANCH  10  11
HETATM   11  N   UNL     1      68.418   6.114   7.998  1.00  0.00    -0.074 N 
HETATM   12  C   UNL     1      68.428   5.301   9.219  1.00  0.00     0.267 C 
HETATM   13  H   UNL     1      67.918   6.984   8.185  1.00  0.00     0.277 HD
HETATM   14  H   UNL     1      69.386   6.292   7.732  1.00  0.00     0.277 HD
ENDBRANCH  10  11
ENDBRANCH   5  10
TORSDOF 2
ENDMDL
MODEL 7
REMARK VINA RESULT:      -3.8     17.845     19.217
REMARK  2 active torsions:
REMARK  status: ('A' for Active; 'I' for Inactive)
REMARK    1  A    between atoms: C_5  and  C_9 
REMARK    2  A    between atoms: C_9  and  N_11 
ROOT
HETATM    1  N   UNL     1      67.326   5.915   8.170  1.00  0.00    -0.352 N 
HETATM    2  C   UNL     1      67.858   4.687   8.061  1.00  0.00     0.052 A 
HETATM    3  C   UNL     1      68.020   4.336   6.780  1.00  0.00     0.033 A 
HETATM    4  C   UNL     1      67.579   5.357   5.980  1.00  0.00     0.048 A 
HETATM    5  C   UNL     1      67.158   6.341   6.883  1.00  0.00     0.038 A 
HETATM    6  S   UNL     1      68.705   2.815   6.646  1.00  0.00    -0.100 SA
HETATM    7  C   UNL     1      68.266   3.745   8.998  1.00  0.00     0.038 A 
HETATM    8  C   UNL     1      68.776   2.612   8.347  1.00  0.00     0.053 A 
HETATM    9  C   UNL     1      67.028   6.621   9.414  1.00  0.00     0.156 C 
ENDROOT
BRANCH   5  10
HETATM   10  C   UNL     1      66.633   7.690   6.477  1.00  0.00     0.288 C 
BRANCH  10  11
HETATM   11  N   UNL     1      65.164   7.696   6.456  1.00  0.00    -0.074 N 
HETATM   12  C   UNL     1      64.629   8.050   5.136  1.00  0.00     0.267 C 
HETATM   13  H   UNL     1      64.828   8.375   7.140  1.00  0.00     0.277 HD
HETATM   14  H   UNL     1      64.845   6.754   6.681  1.00  0.00     0.277 HD
ENDBRANCH  10  11
ENDBRANCH   5  10
TORSDOF 2
ENDMDL
MODEL 8
REMARK VINA RESULT:      -3.8     19.234     21.055
REMARK  2 active torsions:
REMARK  status: ('A' for Active; 'I' for Inactive)
REMARK    1  A    between atoms: C_5  and  C_9 
REMARK    2  A    between atoms: C_9  and  N_11 
ROOT
HETATM    1  N   UNL     1      68.999   2.097   7.882  1.00  0.00    -0.352 N 
HETATM    2  C   UNL     1      68.648   3.393   7.832  1.00  0.00     0.052 A 
HETATM    3  C   UNL     1      68.805   3.989   9.020  1.00  0.00     0.033 A 
HETATM    4  C   UNL     1      69.275   3.069   9.920  1.00  0.00     0.048 A 
HETATM    5  C   UNL     1      69.398   1.891   9.173  1.00  0.00     0.038 A 
HETATM    6  S   UNL     1      68.389   5.608   8.950  1.00  0.00    -0.100 SA
HETATM    7  C   UNL     1      68.175   4.207   6.810  1.00  0.00     0.038 A 
HETATM    8  C   UNL     1      67.975   5.510   7.289  1.00  0.00     0.053 A 
HETATM    9  C   UNL     1      68.972   1.151   6.770  1.00  0.00     0.156 C 
ENDROOT
BRANCH   5  10
HETATM   10  C   UNL     1      69.934   0.597   9.719  1.00  0.00     0.288 C 
BRANCH  10  11
HETATM   11  N   UNL     1      71.240   0.801  10.361  1.00  0.00    -0.074 N 
HETATM   12  C   UNL     1      72.151  -0.328  10.138  1.00  0.00     0.267 C 
HETATM   13  H   UNL     1      71.097   0.915  11.365  1.00  0.00     0.277 HD
HETATM   14  H   UNL     1      71.664   1.632   9.950  1.00  0.00     0.277 HD
ENDBRANCH  10  11
ENDBRANCH   5  10
TORSDOF 2
ENDMDL
MODEL 9
REMARK VINA RESULT:      -3.8     17.505     18.748
REMARK  2 active torsions:
REMARK  status: ('A' for Active; 'I' for Inactive)
REMARK    1  A    between atoms: C_5  and  C_9 
REMARK    2  A    between atoms: C_9  and  N_11 
ROOT
HETATM    1  N   UNL     1      66.999   5.865   5.500  1.00  0.00    -0.352 N 
HETATM    2  C   UNL     1      67.568   5.411   6.629  1.00  0.00     0.052 A 
HETATM    3  C   UNL     1      67.374   6.256   7.648  1.00  0.00     0.033 A 
HETATM    4  C   UNL     1      66.652   7.332   7.202  1.00  0.00     0.048 A 
HETATM    5  C   UNL     1      66.422   7.052   5.850  1.00  0.00     0.038 A 
HETATM    6  S   UNL     1      68.063   5.679   9.060  1.00  0.00    -0.100 SA
HETATM    7  C   UNL     1      68.289   4.262   6.931  1.00  0.00     0.038 A 
HETATM    8  C   UNL     1      68.648   4.265   8.287  1.00  0.00     0.053 A 
HETATM    9  C   UNL     1      66.998   5.193   4.203  1.00  0.00     0.156 C 
ENDROOT
BRANCH   5  10
HETATM   10  C   UNL     1      65.614   7.928   4.932  1.00  0.00     0.288 C 
BRANCH  10  11
HETATM   11  N   UNL     1      64.767   8.851   5.700  1.00  0.00    -0.074 N 
HETATM   12  C   UNL     1      63.538   9.205   4.982  1.00  0.00     0.267 C 
HETATM   13  H   UNL     1      65.296   9.703   5.887  1.00  0.00     0.277 HD
HETATM   14  H   UNL     1      64.500   8.382   6.566  1.00  0.00     0.277 HD
ENDBRANCH  10  11
ENDBRANCH   5  10
TORSDOF 2
ENDMDL
