MODEL 1
REMARK VINA RESULT:      -5.6      0.000      0.000
REMARK  3 active torsions:
REMARK  status: ('A' for Active; 'I' for Inactive)
REMARK    1  A    between atoms: C_1  and  C_5 
REMARK    2  A    between atoms: N_12  and  C_14 
REMARK    3  A    between atoms: C_13  and  C_14 
ROOT
HETATM    1  C   UNL     1      77.734  10.062  17.799  1.00  0.00    -0.002 A 
HETATM    2  C   UNL     1      76.837  11.110  18.051  1.00  0.00     0.015 A 
HETATM    3  C   UNL     1      78.798   9.872  18.693  1.00  0.00     0.015 A 
HETATM    4  C   UNL     1      78.952  10.695  19.813  1.00  0.00     0.010 A 
HETATM    5  C   UNL     1      76.993  11.941  19.169  1.00  0.00     0.010 A 
HETATM    6  C   UNL     1      78.057  11.745  20.059  1.00  0.00    -0.033 A 
ENDROOT
BRANCH   1   7
HETATM    7  C   UNL     1      77.551   9.219  16.605  1.00  0.00     0.084 A 
HETATM    8  N   UNL     1      77.174   7.955  16.632  1.00  0.00    -0.359 N 
HETATM    9  C   UNL     1      77.086   7.454  15.348  1.00  0.00     0.096 A 
ATOM     10  HN  UNL     1      76.977   7.423  17.480  1.00  0.00     0.166 HD
HETATM   11  C   UNL     1      77.433   8.330  14.345  1.00  0.00     0.069 A 
HETATM   12  S   UNL     1      77.875   9.836  15.023  1.00  0.00    -0.082 SA
ENDBRANCH   1   7
BRANCH   6  13
HETATM   13  C   UNL     1      78.242  12.650  21.256  1.00  0.00     0.270 C 
BRANCH  13  14
HETATM   14  N   UNL     1      78.569  11.879  22.456  1.00  0.00    -0.075 N 
HETATM   15  C   UNL     1      79.771  12.389  23.097  1.00  0.00     0.267 C 
HETATM   16  H   UNL     1      78.720  10.905  22.195  1.00  0.00     0.277 HD
HETATM   17  H   UNL     1      77.794  11.960  23.114  1.00  0.00     0.277 HD
ENDBRANCH  13  14
ENDBRANCH   6  13
TORSDOF 3
ENDMDL
MODEL 2
REMARK VINA RESULT:      -5.4      2.156      6.107
REMARK  3 active torsions:
REMARK  status: ('A' for Active; 'I' for Inactive)
REMARK    1  A    between atoms: C_1  and  C_5 
REMARK    2  A    between atoms: N_12  and  C_14 
REMARK    3  A    between atoms: C_13  and  C_14 
ROOT
HETATM    1  C   UNL     1      77.373  10.062  18.234  1.00  0.00    -0.002 A 
HETATM    2  C   UNL     1      76.977   8.851  18.821  1.00  0.00     0.015 A 
HETATM    3  C   UNL     1      77.628  10.076  16.855  1.00  0.00     0.015 A 
HETATM    4  C   UNL     1      77.478   8.919  16.084  1.00  0.00     0.010 A 
HETATM    5  C   UNL     1      76.832   7.689  18.052  1.00  0.00     0.010 A 
HETATM    6  C   UNL     1      77.087   7.710  16.674  1.00  0.00    -0.033 A 
ENDROOT
BRANCH   1   7
HETATM    7  C   UNL     1      77.532  11.260  19.075  1.00  0.00     0.084 A 
HETATM    8  N   UNL     1      78.350  11.346  20.107  1.00  0.00    -0.359 N 
HETATM    9  C   UNL     1      78.272  12.602  20.676  1.00  0.00     0.096 A 
ATOM     10  HN  UNL     1      78.953  10.593  20.437  1.00  0.00     0.166 HD
HETATM   11  C   UNL     1      77.365  13.460  20.098  1.00  0.00     0.069 A 
HETATM   12  S   UNL     1      76.586  12.679  18.790  1.00  0.00    -0.082 SA
ENDBRANCH   1   7
BRANCH   6  13
HETATM   13  C   UNL     1      76.952   6.455  15.842  1.00  0.00     0.270 C 
BRANCH  13  14
HETATM   14  N   UNL     1      76.713   5.283  16.685  1.00  0.00    -0.075 N 
HETATM   15  C   UNL     1      75.341   4.818  16.565  1.00  0.00     0.267 C 
HETATM   16  H   UNL     1      76.896   5.531  17.658  1.00  0.00     0.277 HD
HETATM   17  H   UNL     1      77.336   4.534  16.382  1.00  0.00     0.277 HD
ENDBRANCH  13  14
ENDBRANCH   6  13
TORSDOF 3
ENDMDL
MODEL 3
REMARK VINA RESULT:      -5.0     14.274     16.336
REMARK  3 active torsions:
REMARK  status: ('A' for Active; 'I' for Inactive)
REMARK    1  A    between atoms: C_1  and  C_5 
REMARK    2  A    between atoms: N_12  and  C_14 
REMARK    3  A    between atoms: C_13  and  C_14 
ROOT
HETATM    1  C   UNL     1      66.887   6.149   7.304  1.00  0.00    -0.002 A 
HETATM    2  C   UNL     1      67.254   6.511   8.609  1.00  0.00     0.015 A 
HETATM    3  C   UNL     1      67.573   5.089   6.693  1.00  0.00     0.015 A 
HETATM    4  C   UNL     1      68.584   4.402   7.372  1.00  0.00     0.010 A 
HETATM    5  C   UNL     1      68.272   5.828   9.288  1.00  0.00     0.010 A 
HETATM    6  C   UNL     1      68.953   4.769   8.673  1.00  0.00    -0.033 A 
ENDROOT
BRANCH   1   7
HETATM    7  C   UNL     1      65.825   6.900   6.614  1.00  0.00     0.084 A 
HETATM    8  N   UNL     1      65.953   8.131   6.159  1.00  0.00    -0.359 N 
HETATM    9  C   UNL     1      64.782   8.544   5.554  1.00  0.00     0.096 A 
ATOM     10  HN  UNL     1      66.798   8.698   6.241  1.00  0.00     0.166 HD
HETATM   11  C   UNL     1      63.748   7.636   5.585  1.00  0.00     0.069 A 
HETATM   12  S   UNL     1      64.255   6.212   6.385  1.00  0.00    -0.082 SA
ENDBRANCH   1   7
BRANCH   6  13
HETATM   13  C   UNL     1      70.065   4.041   9.393  1.00  0.00     0.270 C 
BRANCH  13  14
HETATM   14  N   UNL     1      69.569   3.373  10.596  1.00  0.00    -0.075 N 
HETATM   15  C   UNL     1      69.184   1.999  10.315  1.00  0.00     0.267 C 
HETATM   16  H   UNL     1      68.756   3.880  10.947  1.00  0.00     0.277 HD
HETATM   17  H   UNL     1      70.315   3.362  11.292  1.00  0.00     0.277 HD
ENDBRANCH  13  14
ENDBRANCH   6  13
TORSDOF 3
ENDMDL
MODEL 4
REMARK VINA RESULT:      -4.9      5.996      8.028
REMARK  3 active torsions:
REMARK  status: ('A' for Active; 'I' for Inactive)
REMARK    1  A    between atoms: C_1  and  C_5 
REMARK    2  A    between atoms: N_12  and  C_14 
REMARK    3  A    between atoms: C_13  and  C_14 
ROOT
HETATM    1  C   UNL     1      75.577   2.615  17.456  1.00  0.00    -0.002 A 
HETATM    2  C   UNL     1      74.825   3.491  16.659  1.00  0.00     0.015 A 
HETATM    3  C   UNL     1      76.735   3.111  18.072  1.00  0.00     0.015 A 
HETATM    4  C   UNL     1      77.122   4.445  17.909  1.00  0.00     0.010 A 
HETATM    5  C   UNL     1      75.214   4.827  16.489  1.00  0.00     0.010 A 
HETATM    6  C   UNL     1      76.371   5.316  17.108  1.00  0.00    -0.033 A 
ENDROOT
BRANCH   1   7
HETATM    7  C   UNL     1      75.149   1.214  17.599  1.00  0.00     0.084 A 
HETATM    8  N   UNL     1      74.461   0.742  18.622  1.00  0.00    -0.359 N 
HETATM    9  C   UNL     1      74.209  -0.605  18.450  1.00  0.00     0.096 A 
ATOM     10  HN  UNL     1      74.159   1.294  19.425  1.00  0.00     0.166 HD
HETATM   11  C   UNL     1      74.740  -1.166  17.310  1.00  0.00     0.069 A 
HETATM   12  S   UNL     1      75.574   0.029  16.414  1.00  0.00    -0.082 SA
ENDBRANCH   1   7
BRANCH   6  13
HETATM   13  C   UNL     1      76.807   6.750  16.912  1.00  0.00     0.270 C 
BRANCH  13  14
HETATM   14  N   UNL     1      76.520   7.558  18.098  1.00  0.00    -0.075 N 
HETATM   15  C   UNL     1      77.383   8.726  18.163  1.00  0.00     0.267 C 
HETATM   16  H   UNL     1      76.668   6.989  18.932  1.00  0.00     0.277 HD
HETATM   17  H   UNL     1      75.552   7.875  18.047  1.00  0.00     0.277 HD
ENDBRANCH  13  14
ENDBRANCH   6  13
TORSDOF 3
ENDMDL
MODEL 5
REMARK VINA RESULT:      -4.9     14.293     15.793
REMARK  3 active torsions:
REMARK  status: ('A' for Active; 'I' for Inactive)
REMARK    1  A    between atoms: C_1  and  C_5 
REMARK    2  A    between atoms: N_12  and  C_14 
REMARK    3  A    between atoms: C_13  and  C_14 
ROOT
HETATM    1  C   UNL     1      68.070   5.119   7.932  1.00  0.00    -0.002 A 
HETATM    2  C   UNL     1      67.366   3.906   7.985  1.00  0.00     0.015 A 
HETATM    3  C   UNL     1      69.204   5.262   8.746  1.00  0.00     0.015 A 
HETATM    4  C   UNL     1      69.630   4.219   9.575  1.00  0.00     0.010 A 
HETATM    5  C   UNL     1      67.788   2.862   8.819  1.00  0.00     0.010 A 
HETATM    6  C   UNL     1      68.922   3.011   9.628  1.00  0.00    -0.033 A 
ENDROOT
BRANCH   1   7
HETATM    7  C   UNL     1      67.589   6.201   7.057  1.00  0.00     0.084 A 
HETATM    8  N   UNL     1      67.201   7.389   7.480  1.00  0.00    -0.359 N 
HETATM    9  C   UNL     1      66.819   8.177   6.412  1.00  0.00     0.096 A 
ATOM     10  HN  UNL     1      67.185   7.683   8.457  1.00  0.00     0.166 HD
HETATM   11  C   UNL     1      66.881   7.572   5.178  1.00  0.00     0.069 A 
HETATM   12  S   UNL     1      67.447   5.967   5.350  1.00  0.00    -0.082 SA
ENDBRANCH   1   7
BRANCH   6  13
HETATM   13  C   UNL     1      69.371   1.896  10.545  1.00  0.00     0.270 C 
BRANCH  13  14
HETATM   14  N   UNL     1      70.640   1.320  10.098  1.00  0.00    -0.075 N 
HETATM   15  C   UNL     1      70.431   0.056   9.411  1.00  0.00     0.267 C 
HETATM   16  H   UNL     1      71.238   1.163  10.909  1.00  0.00     0.277 HD
HETATM   17  H   UNL     1      71.079   1.971   9.448  1.00  0.00     0.277 HD
ENDBRANCH  13  14
ENDBRANCH   6  13
TORSDOF 3
ENDMDL
MODEL 6
REMARK VINA RESULT:      -4.8     14.989     16.590
REMARK  3 active torsions:
REMARK  status: ('A' for Active; 'I' for Inactive)
REMARK    1  A    between atoms: C_1  and  C_5 
REMARK    2  A    between atoms: N_12  and  C_14 
REMARK    3  A    between atoms: C_13  and  C_14 
ROOT
HETATM    1  C   UNL     1      67.703   4.666   8.206  1.00  0.00    -0.002 A 
HETATM    2  C   UNL     1      67.883   4.594   6.817  1.00  0.00     0.015 A 
HETATM    3  C   UNL     1      67.162   5.844   8.743  1.00  0.00     0.015 A 
HETATM    4  C   UNL     1      66.799   6.910   7.915  1.00  0.00     0.010 A 
HETATM    5  C   UNL     1      67.525   5.663   5.985  1.00  0.00     0.010 A 
HETATM    6  C   UNL     1      66.985   6.837   6.527  1.00  0.00    -0.033 A 
ENDROOT
BRANCH   1   7
HETATM    7  C   UNL     1      68.106   3.530   9.051  1.00  0.00     0.084 A 
HETATM    8  N   UNL     1      67.328   2.506   9.350  1.00  0.00    -0.359 N 
HETATM    9  C   UNL     1      68.005   1.607  10.151  1.00  0.00     0.096 A 
ATOM     10  HN  UNL     1      66.364   2.395   9.035  1.00  0.00     0.166 HD
HETATM   11  C   UNL     1      69.289   1.968  10.492  1.00  0.00     0.069 A 
HETATM   12  S   UNL     1      69.672   3.476   9.782  1.00  0.00    -0.082 SA
ENDBRANCH   1   7
BRANCH   6  13
HETATM   13  C   UNL     1      66.615   8.002   5.638  1.00  0.00     0.270 C 
BRANCH  13  14
HETATM   14  N   UNL     1      65.335   8.588   6.038  1.00  0.00    -0.075 N 
HETATM   15  C   UNL     1      64.408   8.643   4.919  1.00  0.00     0.267 C 
HETATM   16  H   UNL     1      65.496   9.535   6.382  1.00  0.00     0.277 HD
HETATM   17  H   UNL     1      64.926   8.005   6.768  1.00  0.00     0.277 HD
ENDBRANCH  13  14
ENDBRANCH   6  13
TORSDOF 3
ENDMDL
MODEL 7
REMARK VINA RESULT:      -4.8     15.242     18.345
REMARK  3 active torsions:
REMARK  status: ('A' for Active; 'I' for Inactive)
REMARK    1  A    between atoms: C_1  and  C_5 
REMARK    2  A    between atoms: N_12  and  C_14 
REMARK    3  A    between atoms: C_13  and  C_14 
ROOT
HETATM    1  C   UNL     1      64.939   8.003   5.502  1.00  0.00    -0.002 A 
HETATM    2  C   UNL     1      64.571   6.969   6.375  1.00  0.00     0.015 A 
HETATM    3  C   UNL     1      66.286   8.102   5.125  1.00  0.00     0.015 A 
HETATM    4  C   UNL     1      67.233   7.186   5.593  1.00  0.00     0.010 A 
HETATM    5  C   UNL     1      65.519   6.053   6.851  1.00  0.00     0.010 A 
HETATM    6  C   UNL     1      66.863   6.156   6.469  1.00  0.00    -0.033 A 
ENDROOT
BRANCH   1   7
HETATM    7  C   UNL     1      63.920   8.958   5.036  1.00  0.00     0.084 A 
HETATM    8  N   UNL     1      63.620  10.090   5.645  1.00  0.00    -0.359 N 
HETATM    9  C   UNL     1      62.633  10.761   4.950  1.00  0.00     0.096 A 
ATOM     10  HN  UNL     1      64.056  10.422   6.506  1.00  0.00     0.166 HD
HETATM   11  C   UNL     1      62.155  10.118   3.831  1.00  0.00     0.069 A 
HETATM   12  S   UNL     1      62.971   8.629   3.628  1.00  0.00    -0.082 SA
ENDBRANCH   1   7
BRANCH   6  13
HETATM   13  C   UNL     1      67.894   5.184   6.993  1.00  0.00     0.270 C 
BRANCH  13  14
HETATM   14  N   UNL     1      68.780   5.825   7.966  1.00  0.00    -0.075 N 
HETATM   15  C   UNL     1      68.223   5.764   9.307  1.00  0.00     0.267 C 
HETATM   16  H   UNL     1      68.909   6.803   7.704  1.00  0.00     0.277 HD
HETATM   17  H   UNL     1      69.673   5.332   7.965  1.00  0.00     0.277 HD
ENDBRANCH  13  14
ENDBRANCH   6  13
TORSDOF 3
ENDMDL
MODEL 8
REMARK VINA RESULT:      -4.8      1.980      6.190
REMARK  3 active torsions:
REMARK  status: ('A' for Active; 'I' for Inactive)
REMARK    1  A    between atoms: C_1  and  C_5 
REMARK    2  A    between atoms: N_12  and  C_14 
REMARK    3  A    between atoms: C_13  and  C_14 
ROOT
HETATM    1  C   UNL     1      77.473  10.247  18.410  1.00  0.00    -0.002 A 
HETATM    2  C   UNL     1      77.185   8.940  18.832  1.00  0.00     0.015 A 
HETATM    3  C   UNL     1      77.647  10.476  17.037  1.00  0.00     0.015 A 
HETATM    4  C   UNL     1      77.522   9.433  16.114  1.00  0.00     0.010 A 
HETATM    5  C   UNL     1      77.066   7.893  17.909  1.00  0.00     0.010 A 
HETATM    6  C   UNL     1      77.240   8.128  16.539  1.00  0.00    -0.033 A 
ENDROOT
BRANCH   1   7
HETATM    7  C   UNL     1      77.608  11.320  19.409  1.00  0.00     0.084 A 
HETATM    8  N   UNL     1      78.503  11.331  20.379  1.00  0.00    -0.359 N 
HETATM    9  C   UNL     1      78.374  12.479  21.136  1.00  0.00     0.096 A 
ATOM     10  HN  UNL     1      79.192  10.598  20.545  1.00  0.00     0.166 HD
HETATM   11  C   UNL     1      77.353  13.324  20.763  1.00  0.00     0.069 A 
HETATM   12  S   UNL     1      76.529  12.672  19.414  1.00  0.00    -0.082 SA
ENDBRANCH   1   7
BRANCH   6  13
HETATM   13  C   UNL     1      77.132   6.999  15.539  1.00  0.00     0.270 C 
BRANCH  13  14
HETATM   14  N   UNL     1      76.706   7.491  14.229  1.00  0.00    -0.075 N 
HETATM   15  C   UNL     1      77.796   8.160  13.537  1.00  0.00     0.267 C 
HETATM   16  H   UNL     1      75.939   8.151  14.354  1.00  0.00     0.277 HD
HETATM   17  H   UNL     1      76.408   6.695  13.665  1.00  0.00     0.277 HD
ENDBRANCH  13  14
ENDBRANCH   6  13
TORSDOF 3
ENDMDL
MODEL 9
REMARK VINA RESULT:      -4.5      7.306      9.576
REMARK  3 active torsions:
REMARK  status: ('A' for Active; 'I' for Inactive)
REMARK    1  A    between atoms: C_1  and  C_5 
REMARK    2  A    between atoms: N_12  and  C_14 
REMARK    3  A    between atoms: C_13  and  C_14 
ROOT
HETATM    1  C   UNL     1      75.810   1.085  18.028  1.00  0.00    -0.002 A 
HETATM    2  C   UNL     1      74.676   1.579  17.367  1.00  0.00     0.015 A 
HETATM    3  C   UNL     1      76.898   1.951  18.212  1.00  0.00     0.015 A 
HETATM    4  C   UNL     1      76.847   3.274  17.762  1.00  0.00     0.010 A 
HETATM    5  C   UNL     1      74.625   2.903  16.910  1.00  0.00     0.010 A 
HETATM    6  C   UNL     1      75.714   3.763  17.097  1.00  0.00    -0.033 A 
ENDROOT
BRANCH   1   7
HETATM    7  C   UNL     1      75.835  -0.316  18.480  1.00  0.00     0.084 A 
HETATM    8  N   UNL     1      75.362  -0.738  19.637  1.00  0.00    -0.359 N 
HETATM    9  C   UNL     1      75.527  -2.104  19.753  1.00  0.00     0.096 A 
ATOM     10  HN  UNL     1      74.934  -0.140  20.345  1.00  0.00     0.166 HD
HETATM   11  C   UNL     1      76.163  -2.716  18.697  1.00  0.00     0.069 A 
HETATM   12  S   UNL     1      76.560  -1.550  17.510  1.00  0.00    -0.082 SA
ENDBRANCH   1   7
BRANCH   6  13
HETATM   13  C   UNL     1      75.674   5.186  16.589  1.00  0.00     0.270 C 
BRANCH  13  14
HETATM   14  N   UNL     1      76.984   5.829  16.709  1.00  0.00    -0.075 N 
HETATM   15  C   UNL     1      76.906   7.038  17.512  1.00  0.00     0.267 C 
HETATM   16  H   UNL     1      77.322   6.070  15.777  1.00  0.00     0.277 HD
HETATM   17  H   UNL     1      77.623   5.178  17.167  1.00  0.00     0.277 HD
ENDBRANCH  13  14
ENDBRANCH   6  13
TORSDOF 3
ENDMDL
