MODEL 1
REMARK VINA RESULT:      -6.4      0.000      0.000
REMARK  4 active torsions:
REMARK  status: ('A' for Active; 'I' for Inactive)
REMARK    1  A    between atoms: N_1  and  C_2 
REMARK    2  A    between atoms: C_2  and  C_4 
REMARK    3  A    between atoms: C_6  and  C_14 
REMARK    4  A    between atoms: O_9  and  C_14 
ROOT
HETATM    1  C   UNL     1      77.626  12.550  20.686  1.00  0.00    -0.032 A 
HETATM    2  C   UNL     1      77.879  11.316  20.064  1.00  0.00     0.018 A 
HETATM    3  C   UNL     1      77.334  11.011  18.807  1.00  0.00    -0.034 A 
HETATM    4  C   UNL     1      76.189  13.142  18.817  1.00  0.00     0.001 A 
HETATM    5  C   UNL     1      76.766  13.456  20.049  1.00  0.00     0.009 A 
HETATM    6  C   UNL     1      76.482  11.929  18.193  1.00  0.00     0.009 A 
ENDROOT
BRANCH   1   7
HETATM    7  C   UNL     1      78.372  12.932  21.944  1.00  0.00     0.273 C 
BRANCH   7   8
HETATM    8  N   UNL     1      79.322  11.987  22.524  1.00  0.00    -0.063 N 
HETATM    9  C   UNL     1      79.216  11.748  23.966  1.00  0.00     0.261 C 
HETATM   10  C   UNL     1      80.140  12.627  24.824  1.00  0.00     0.195 C 
HETATM   11  O   UNL     1      81.499  12.530  24.383  1.00  0.00    -0.388 OA
HETATM   12  C   UNL     1      81.606  12.957  23.021  1.00  0.00     0.195 C 
HETATM   13  C   UNL     1      80.716  12.116  22.093  1.00  0.00     0.261 C 
HETATM   14  H   UNL     1      78.979  11.131  22.085  1.00  0.00     0.280 HD
ENDBRANCH   7   8
ENDBRANCH   1   7
BRANCH   3  15
HETATM   15  C   UNL     1      77.742   9.741  18.105  1.00  0.00     0.202 C 
BRANCH  15  16
HETATM   16  O   UNL     1      79.122   9.799  17.756  1.00  0.00    -0.396 OA
HETATM   17  H   UNL     1      79.298  10.618  17.268  1.00  0.00     0.209 HD
ENDBRANCH  15  16
ENDBRANCH   3  15
TORSDOF 4
ENDMDL
MODEL 2
REMARK VINA RESULT:      -5.9      2.443      6.093
REMARK  4 active torsions:
REMARK  status: ('A' for Active; 'I' for Inactive)
REMARK    1  A    between atoms: N_1  and  C_2 
REMARK    2  A    between atoms: C_2  and  C_4 
REMARK    3  A    between atoms: C_6  and  C_14 
REMARK    4  A    between atoms: O_9  and  C_14 
ROOT
HETATM    1  C   UNL     1      77.058  11.687  18.917  1.00  0.00    -0.032 A 
HETATM    2  C   UNL     1      78.169  11.487  19.752  1.00  0.00     0.018 A 
HETATM    3  C   UNL     1      78.402  12.313  20.862  1.00  0.00    -0.034 A 
HETATM    4  C   UNL     1      76.457  13.620  20.263  1.00  0.00     0.001 A 
HETATM    5  C   UNL     1      76.209  12.770  19.183  1.00  0.00     0.009 A 
HETATM    6  C   UNL     1      77.543  13.384  21.107  1.00  0.00     0.009 A 
ENDROOT
BRANCH   1   7
HETATM    7  C   UNL     1      76.723  10.675  17.844  1.00  0.00     0.273 C 
BRANCH   7   8
HETATM    8  N   UNL     1      77.733   9.700  17.445  1.00  0.00    -0.063 N 
HETATM    9  C   UNL     1      78.125   9.698  16.032  1.00  0.00     0.261 C 
HETATM   10  C   UNL     1      77.351   8.698  15.160  1.00  0.00     0.195 C 
HETATM   11  O   UNL     1      77.412   7.377  15.714  1.00  0.00    -0.388 OA
HETATM   12  C   UNL     1      76.841   7.369  17.027  1.00  0.00     0.195 C 
HETATM   13  C   UNL     1      77.570   8.341  17.967  1.00  0.00     0.261 C 
HETATM   14  H   UNL     1      78.533  10.090  17.944  1.00  0.00     0.280 HD
ENDBRANCH   7   8
ENDBRANCH   1   7
BRANCH   3  15
HETATM   15  C   UNL     1      79.520  11.981  21.818  1.00  0.00     0.202 C 
BRANCH  15  16
HETATM   16  O   UNL     1      80.421  11.058  21.214  1.00  0.00    -0.396 OA
HETATM   17  H   UNL     1      81.217  11.529  20.920  1.00  0.00     0.209 HD
ENDBRANCH  15  16
ENDBRANCH   3  15
TORSDOF 4
ENDMDL
MODEL 3
REMARK VINA RESULT:      -5.5     19.766     21.509
REMARK  4 active torsions:
REMARK  status: ('A' for Active; 'I' for Inactive)
REMARK    1  A    between atoms: N_1  and  C_2 
REMARK    2  A    between atoms: C_2  and  C_4 
REMARK    3  A    between atoms: C_6  and  C_14 
REMARK    4  A    between atoms: O_9  and  C_14 
ROOT
HETATM    1  C   UNL     1      64.211   7.817   4.475  1.00  0.00    -0.032 A 
HETATM    2  C   UNL     1      64.133   8.990   5.243  1.00  0.00     0.018 A 
HETATM    3  C   UNL     1      63.221  10.008   4.923  1.00  0.00    -0.034 A 
HETATM    4  C   UNL     1      62.513   8.731   2.995  1.00  0.00     0.001 A 
HETATM    5  C   UNL     1      63.394   7.704   3.341  1.00  0.00     0.009 A 
HETATM    6  C   UNL     1      62.418   9.873   3.790  1.00  0.00     0.009 A 
ENDROOT
BRANCH   1   7
HETATM    7  C   UNL     1      65.061   6.658   4.946  1.00  0.00     0.273 C 
BRANCH   7   8
HETATM    8  N   UNL     1      65.985   6.859   6.057  1.00  0.00    -0.063 N 
HETATM    9  C   UNL     1      67.380   6.468   5.832  1.00  0.00     0.261 C 
HETATM   10  C   UNL     1      67.722   5.042   6.293  1.00  0.00     0.195 C 
HETATM   11  O   UNL     1      67.343   4.838   7.660  1.00  0.00    -0.388 OA
HETATM   12  C   UNL     1      65.933   5.037   7.814  1.00  0.00     0.195 C 
HETATM   13  C   UNL     1      65.512   6.450   7.382  1.00  0.00     0.261 C 
HETATM   14  H   UNL     1      65.993   7.879   6.073  1.00  0.00     0.280 HD
ENDBRANCH   7   8
ENDBRANCH   1   7
BRANCH   3  15
HETATM   15  C   UNL     1      63.062  11.186   5.850  1.00  0.00     0.202 C 
BRANCH  15  16
HETATM   16  O   UNL     1      64.321  11.536   6.416  1.00  0.00    -0.396 OA
HETATM   17  H   UNL     1      64.800  10.729   6.662  1.00  0.00     0.209 HD
ENDBRANCH  15  16
ENDBRANCH   3  15
TORSDOF 4
ENDMDL
MODEL 4
REMARK VINA RESULT:      -5.5     17.961     20.517
REMARK  4 active torsions:
REMARK  status: ('A' for Active; 'I' for Inactive)
REMARK    1  A    between atoms: N_1  and  C_2 
REMARK    2  A    between atoms: C_2  and  C_4 
REMARK    3  A    between atoms: C_6  and  C_14 
REMARK    4  A    between atoms: O_9  and  C_14 
ROOT
HETATM    1  C   UNL     1      65.544   7.714   5.010  1.00  0.00    -0.032 A 
HETATM    2  C   UNL     1      65.078   8.957   5.468  1.00  0.00     0.018 A 
HETATM    3  C   UNL     1      63.854   9.482   5.024  1.00  0.00    -0.034 A 
HETATM    4  C   UNL     1      63.588   7.563   3.576  1.00  0.00     0.001 A 
HETATM    5  C   UNL     1      64.787   7.027   4.051  1.00  0.00     0.009 A 
HETATM    6  C   UNL     1      63.117   8.780   4.069  1.00  0.00     0.009 A 
ENDROOT
BRANCH   1   7
HETATM    7  C   UNL     1      66.765   7.083   5.642  1.00  0.00     0.273 C 
BRANCH   7   8
HETATM    8  N   UNL     1      66.589   5.997   6.601  1.00  0.00    -0.063 N 
HETATM    9  C   UNL     1      65.938   6.336   7.870  1.00  0.00     0.261 C 
HETATM   10  C   UNL     1      66.910   6.684   9.008  1.00  0.00     0.195 C 
HETATM   11  O   UNL     1      67.883   5.649   9.189  1.00  0.00    -0.388 OA
HETATM   12  C   UNL     1      68.641   5.471   7.987  1.00  0.00     0.195 C 
HETATM   13  C   UNL     1      67.738   5.109   6.799  1.00  0.00     0.261 C 
HETATM   14  H   UNL     1      65.902   5.444   6.087  1.00  0.00     0.280 HD
ENDBRANCH   7   8
ENDBRANCH   1   7
BRANCH   3  15
HETATM   15  C   UNL     1      63.315  10.746   5.644  1.00  0.00     0.202 C 
BRANCH  15  16
HETATM   16  O   UNL     1      64.338  11.399   6.390  1.00  0.00    -0.396 OA
HETATM   17  H   UNL     1      64.617  10.829   7.123  1.00  0.00     0.209 HD
ENDBRANCH  15  16
ENDBRANCH   3  15
TORSDOF 4
ENDMDL
MODEL 5
REMARK VINA RESULT:      -5.3     22.132     25.520
REMARK  4 active torsions:
REMARK  status: ('A' for Active; 'I' for Inactive)
REMARK    1  A    between atoms: N_1  and  C_2 
REMARK    2  A    between atoms: C_2  and  C_4 
REMARK    3  A    between atoms: C_6  and  C_14 
REMARK    4  A    between atoms: O_9  and  C_14 
ROOT
HETATM    1  C   UNL     1      62.354   8.855   3.014  1.00  0.00    -0.032 A 
HETATM    2  C   UNL     1      62.260   9.913   3.932  1.00  0.00     0.018 A 
HETATM    3  C   UNL     1      63.153  10.023   5.009  1.00  0.00    -0.034 A 
HETATM    4  C   UNL     1      64.196   7.952   4.318  1.00  0.00     0.001 A 
HETATM    5  C   UNL     1      63.329   7.870   3.226  1.00  0.00     0.009 A 
HETATM    6  C   UNL     1      64.116   9.031   5.199  1.00  0.00     0.009 A 
ENDROOT
BRANCH   1   7
HETATM    7  C   UNL     1      61.507   8.860   1.761  1.00  0.00     0.273 C 
BRANCH   7   8
HETATM    8  N   UNL     1      60.113   8.435   1.842  1.00  0.00    -0.063 N 
HETATM    9  C   UNL     1      59.785   7.444   2.871  1.00  0.00     0.261 C 
HETATM   10  C   UNL     1      59.811   5.987   2.380  1.00  0.00     0.195 C 
HETATM   11  O   UNL     1      58.986   5.820   1.221  1.00  0.00    -0.388 OA
HETATM   12  C   UNL     1      59.452   6.662   0.160  1.00  0.00     0.195 C 
HETATM   13  C   UNL     1      59.445   8.142   0.571  1.00  0.00     0.261 C 
HETATM   14  H   UNL     1      59.702   9.309   2.172  1.00  0.00     0.280 HD
ENDBRANCH   7   8
ENDBRANCH   1   7
BRANCH   3  15
HETATM   15  C   UNL     1      63.116  11.246   5.888  1.00  0.00     0.202 C 
BRANCH  15  16
HETATM   16  O   UNL     1      64.404  11.487   6.445  1.00  0.00    -0.396 OA
HETATM   17  H   UNL     1      65.083  11.329   5.771  1.00  0.00     0.209 HD
ENDBRANCH  15  16
ENDBRANCH   3  15
TORSDOF 4
ENDMDL
MODEL 6
REMARK VINA RESULT:      -5.3     16.945     19.170
REMARK  4 active torsions:
REMARK  status: ('A' for Active; 'I' for Inactive)
REMARK    1  A    between atoms: N_1  and  C_2 
REMARK    2  A    between atoms: C_2  and  C_4 
REMARK    3  A    between atoms: C_6  and  C_14 
REMARK    4  A    between atoms: O_9  and  C_14 
ROOT
HETATM    1  C   UNL     1      68.170   5.241   8.461  1.00  0.00    -0.032 A 
HETATM    2  C   UNL     1      67.670   4.001   8.891  1.00  0.00     0.018 A 
HETATM    3  C   UNL     1      68.510   3.044   9.481  1.00  0.00    -0.034 A 
HETATM    4  C   UNL     1      70.393   4.522   9.131  1.00  0.00     0.001 A 
HETATM    5  C   UNL     1      69.545   5.486   8.581  1.00  0.00     0.009 A 
HETATM    6  C   UNL     1      69.875   3.310   9.591  1.00  0.00     0.009 A 
ENDROOT
BRANCH   1   7
HETATM    7  C   UNL     1      67.219   6.325   8.005  1.00  0.00     0.273 C 
BRANCH   7   8
HETATM    8  N   UNL     1      67.494   7.035   6.760  1.00  0.00    -0.063 N 
HETATM    9  C   UNL     1      66.703   8.243   6.502  1.00  0.00     0.261 C 
HETATM   10  C   UNL     1      65.443   8.008   5.655  1.00  0.00     0.195 C 
HETATM   11  O   UNL     1      65.762   7.331   4.434  1.00  0.00    -0.388 OA
HETATM   12  C   UNL     1      66.359   6.060   4.718  1.00  0.00     0.195 C 
HETATM   13  C   UNL     1      67.637   6.211   5.556  1.00  0.00     0.261 C 
HETATM   14  H   UNL     1      68.433   7.371   6.974  1.00  0.00     0.280 HD
ENDBRANCH   7   8
ENDBRANCH   1   7
BRANCH   3  15
HETATM   15  C   UNL     1      67.916   1.787  10.062  1.00  0.00     0.202 C 
BRANCH  15  16
HETATM   16  O   UNL     1      68.456   1.545  11.358  1.00  0.00    -0.396 OA
HETATM   17  H   UNL     1      68.192   2.261  11.956  1.00  0.00     0.209 HD
ENDBRANCH  15  16
ENDBRANCH   3  15
TORSDOF 4
ENDMDL
MODEL 7
REMARK VINA RESULT:      -5.2     19.422     22.331
REMARK  4 active torsions:
REMARK  status: ('A' for Active; 'I' for Inactive)
REMARK    1  A    between atoms: N_1  and  C_2 
REMARK    2  A    between atoms: C_2  and  C_4 
REMARK    3  A    between atoms: C_6  and  C_14 
REMARK    4  A    between atoms: O_9  and  C_14 
ROOT
HETATM    1  C   UNL     1      63.656   8.772   4.449  1.00  0.00    -0.032 A 
HETATM    2  C   UNL     1      62.978   8.661   3.224  1.00  0.00     0.018 A 
HETATM    3  C   UNL     1      62.122   9.678   2.773  1.00  0.00    -0.034 A 
HETATM    4  C   UNL     1      62.535  10.897   4.821  1.00  0.00     0.001 A 
HETATM    5  C   UNL     1      63.417   9.900   5.246  1.00  0.00     0.009 A 
HETATM    6  C   UNL     1      61.900  10.792   3.584  1.00  0.00     0.009 A 
ENDROOT
BRANCH   1   7
HETATM    7  C   UNL     1      64.714   7.759   4.824  1.00  0.00     0.273 C 
BRANCH   7   8
HETATM    8  N   UNL     1      65.220   7.732   6.193  1.00  0.00    -0.063 N 
HETATM    9  C   UNL     1      66.641   8.042   6.377  1.00  0.00     0.261 C 
HETATM   10  C   UNL     1      67.561   6.812   6.409  1.00  0.00     0.195 C 
HETATM   11  O   UNL     1      67.112   5.858   7.379  1.00  0.00    -0.388 OA
HETATM   12  C   UNL     1      65.785   5.422   7.062  1.00  0.00     0.195 C 
HETATM   13  C   UNL     1      64.799   6.599   7.022  1.00  0.00     0.261 C 
HETATM   14  H   UNL     1      64.719   8.541   6.562  1.00  0.00     0.280 HD
ENDBRANCH   7   8
ENDBRANCH   1   7
BRANCH   3  15
HETATM   15  C   UNL     1      61.526   9.593   1.392  1.00  0.00     0.202 C 
BRANCH  15  16
HETATM   16  O   UNL     1      60.323   8.830   1.424  1.00  0.00    -0.396 OA
HETATM   17  H   UNL     1      59.920   8.824   0.542  1.00  0.00     0.209 HD
ENDBRANCH  15  16
ENDBRANCH   3  15
TORSDOF 4
ENDMDL
MODEL 8
REMARK VINA RESULT:      -5.2     20.041     22.957
REMARK  4 active torsions:
REMARK  status: ('A' for Active; 'I' for Inactive)
REMARK    1  A    between atoms: N_1  and  C_2 
REMARK    2  A    between atoms: C_2  and  C_4 
REMARK    3  A    between atoms: C_6  and  C_14 
REMARK    4  A    between atoms: O_9  and  C_14 
ROOT
HETATM    1  C   UNL     1      63.030   7.897   3.750  1.00  0.00    -0.032 A 
HETATM    2  C   UNL     1      62.718   9.262   3.855  1.00  0.00     0.018 A 
HETATM    3  C   UNL     1      62.223   9.981   2.756  1.00  0.00    -0.034 A 
HETATM    4  C   UNL     1      62.434   7.992   1.396  1.00  0.00     0.001 A 
HETATM    5  C   UNL     1      62.889   7.273   2.503  1.00  0.00     0.009 A 
HETATM    6  C   UNL     1      62.091   9.338   1.525  1.00  0.00     0.009 A 
ENDROOT
BRANCH   1   7
HETATM    7  C   UNL     1      63.380   7.102   4.988  1.00  0.00     0.273 C 
BRANCH   7   8
HETATM    8  N   UNL     1      64.734   6.579   5.139  1.00  0.00    -0.063 N 
HETATM    9  C   UNL     1      64.990   5.745   6.317  1.00  0.00     0.261 C 
HETATM   10  C   UNL     1      65.551   6.510   7.527  1.00  0.00     0.195 C 
HETATM   11  O   UNL     1      66.714   7.263   7.166  1.00  0.00    -0.388 OA
HETATM   12  C   UNL     1      66.388   8.212   6.143  1.00  0.00     0.195 C 
HETATM   13  C   UNL     1      65.829   7.521   4.891  1.00  0.00     0.261 C 
HETATM   14  H   UNL     1      64.743   5.935   4.348  1.00  0.00     0.280 HD
ENDBRANCH   7   8
ENDBRANCH   1   7
BRANCH   3  15
HETATM   15  C   UNL     1      61.762  11.404   2.941  1.00  0.00     0.202 C 
BRANCH  15  16
HETATM   16  O   UNL     1      62.065  12.171   1.779  1.00  0.00    -0.396 OA
HETATM   17  H   UNL     1      61.246  12.356   1.293  1.00  0.00     0.209 HD
ENDBRANCH  15  16
ENDBRANCH   3  15
TORSDOF 4
ENDMDL
MODEL 9
REMARK VINA RESULT:      -5.1      3.117      6.512
REMARK  4 active torsions:
REMARK  status: ('A' for Active; 'I' for Inactive)
REMARK    1  A    between atoms: N_1  and  C_2 
REMARK    2  A    between atoms: C_2  and  C_4 
REMARK    3  A    between atoms: C_6  and  C_14 
REMARK    4  A    between atoms: O_9  and  C_14 
ROOT
HETATM    1  C   UNL     1      78.715  10.452  19.316  1.00  0.00    -0.032 A 
HETATM    2  C   UNL     1      77.547  11.152  19.662  1.00  0.00     0.018 A 
HETATM    3  C   UNL     1      77.563  12.145  20.654  1.00  0.00    -0.034 A 
HETATM    4  C   UNL     1      79.906  11.684  21.039  1.00  0.00     0.001 A 
HETATM    5  C   UNL     1      79.893  10.725  20.024  1.00  0.00     0.009 A 
HETATM    6  C   UNL     1      78.748  12.400  21.344  1.00  0.00     0.009 A 
ENDROOT
BRANCH   1   7
HETATM    7  C   UNL     1      78.717   9.526  18.120  1.00  0.00     0.273 C 
BRANCH   7   8
HETATM    8  N   UNL     1      77.489   9.354  17.351  1.00  0.00    -0.063 N 
HETATM    9  C   UNL     1      76.831   8.047  17.444  1.00  0.00     0.261 C 
HETATM   10  C   UNL     1      77.223   7.058  16.335  1.00  0.00     0.195 C 
HETATM   11  O   UNL     1      77.035   7.638  15.039  1.00  0.00    -0.388 OA
HETATM   12  C   UNL     1      77.844   8.813  14.904  1.00  0.00     0.195 C 
HETATM   13  C   UNL     1      77.503   9.859  15.975  1.00  0.00     0.261 C 
HETATM   14  H   UNL     1      76.887   9.994  17.870  1.00  0.00     0.280 HD
ENDBRANCH   7   8
ENDBRANCH   1   7
BRANCH   3  15
HETATM   15  C   UNL     1      76.329  12.976  20.897  1.00  0.00     0.202 C 
BRANCH  15  16
HETATM   16  O   UNL     1      76.346  14.131  20.064  1.00  0.00    -0.396 OA
HETATM   17  H   UNL     1      77.235  14.520  20.068  1.00  0.00     0.209 HD
ENDBRANCH  15  16
ENDBRANCH   3  15
TORSDOF 4
ENDMDL
