MODEL 1
REMARK VINA RESULT:      -5.7      0.000      0.000
REMARK  3 active torsions:
REMARK  status: ('A' for Active; 'I' for Inactive)
REMARK    1  A    between atoms: C_3  and  C_6 
REMARK    2  A    between atoms: C_6  and  C_10 
REMARK    3  A    between atoms: O_7  and  C_10 
ROOT
HETATM    1  O   UNL     1      76.759   6.830  16.756  1.00  0.00    -0.321 OA
HETATM    2  C   UNL     1      76.884   7.468  17.947  1.00  0.00     0.150 A 
HETATM    3  C   UNL     1      77.350   8.758  17.774  1.00  0.00    -0.021 A 
HETATM    4  C   UNL     1      77.524   8.916  16.363  1.00  0.00     0.006 A 
HETATM    5  C   UNL     1      77.142   7.709  15.791  1.00  0.00     0.085 A 
HETATM    6  C   UNL     1      77.962   9.950  15.512  1.00  0.00     0.015 A 
HETATM    7  C   UNL     1      77.156   7.453  14.421  1.00  0.00     0.038 A 
HETATM    8  C   UNL     1      77.990   9.721  14.131  1.00  0.00     0.001 A 
HETATM    9  C   UNL     1      77.592   8.494  13.595  1.00  0.00     0.003 A 
ENDROOT
BRANCH   3  10
HETATM   10  C   UNL     1      77.608   9.777  18.835  1.00  0.00     0.067 C 
BRANCH  10  11
HETATM   11  C   UNL     1      79.093  10.078  19.034  1.00  0.00     0.168 C 
BRANCH  11  12
HETATM   12  O   UNL     1      79.319  10.881  20.189  1.00  0.00    -0.401 OA
HETATM   13  H   UNL     1      79.841  10.379  20.834  1.00  0.00     0.209 HD
ENDBRANCH  11  12
ENDBRANCH  10  11
ENDBRANCH   3  10
TORSDOF 3
ENDMDL
MODEL 2
REMARK VINA RESULT:      -5.4      1.314      2.657
REMARK  3 active torsions:
REMARK  status: ('A' for Active; 'I' for Inactive)
REMARK    1  A    between atoms: C_3  and  C_6 
REMARK    2  A    between atoms: C_6  and  C_10 
REMARK    3  A    between atoms: O_7  and  C_10 
ROOT
HETATM    1  O   UNL     1      77.613   8.845  15.029  1.00  0.00    -0.321 OA
HETATM    2  C   UNL     1      77.861   9.863  15.891  1.00  0.00     0.150 A 
HETATM    3  C   UNL     1      77.576   9.494  17.191  1.00  0.00    -0.021 A 
HETATM    4  C   UNL     1      77.116   8.143  17.114  1.00  0.00     0.006 A 
HETATM    5  C   UNL     1      77.164   7.796  15.770  1.00  0.00     0.085 A 
HETATM    6  C   UNL     1      76.664   7.179  18.036  1.00  0.00     0.015 A 
HETATM    7  C   UNL     1      76.801   6.547  15.269  1.00  0.00     0.038 A 
HETATM    8  C   UNL     1      76.290   5.915  17.564  1.00  0.00     0.001 A 
HETATM    9  C   UNL     1      76.359   5.605  16.204  1.00  0.00     0.003 A 
ENDROOT
BRANCH   3  10
HETATM   10  C   UNL     1      77.728  10.328  18.422  1.00  0.00     0.067 C 
BRANCH  10  11
HETATM   11  C   UNL     1      79.064  10.118  19.132  1.00  0.00     0.168 C 
BRANCH  11  12
HETATM   12  O   UNL     1      79.229  11.019  20.223  1.00  0.00    -0.401 OA
HETATM   13  H   UNL     1      78.922  11.901  19.962  1.00  0.00     0.209 HD
ENDBRANCH  11  12
ENDBRANCH  10  11
ENDBRANCH   3  10
TORSDOF 3
ENDMDL
MODEL 3
REMARK VINA RESULT:      -5.3      2.087      3.528
REMARK  3 active torsions:
REMARK  status: ('A' for Active; 'I' for Inactive)
REMARK    1  A    between atoms: C_3  and  C_6 
REMARK    2  A    between atoms: C_6  and  C_10 
REMARK    3  A    between atoms: O_7  and  C_10 
ROOT
HETATM    1  O   UNL     1      77.092   8.265  18.595  1.00  0.00    -0.321 OA
HETATM    2  C   UNL     1      77.756   9.255  17.948  1.00  0.00     0.150 A 
HETATM    3  C   UNL     1      77.856   8.987  16.596  1.00  0.00    -0.021 A 
HETATM    4  C   UNL     1      77.200   7.730  16.405  1.00  0.00     0.006 A 
HETATM    5  C   UNL     1      76.749   7.338  17.659  1.00  0.00     0.085 A 
HETATM    6  C   UNL     1      76.942   6.886  15.308  1.00  0.00     0.015 A 
HETATM    7  C   UNL     1      76.045   6.160  17.905  1.00  0.00     0.038 A 
HETATM    8  C   UNL     1      76.240   5.694  15.524  1.00  0.00     0.001 A 
HETATM    9  C   UNL     1      75.798   5.338  16.800  1.00  0.00     0.003 A 
ENDROOT
BRANCH   3  10
HETATM   10  C   UNL     1      78.502   9.836  15.550  1.00  0.00     0.067 C 
BRANCH  10  11
HETATM   11  C   UNL     1      77.500  10.633  14.717  1.00  0.00     0.168 C 
BRANCH  11  12
HETATM   12  O   UNL     1      77.290  11.938  15.250  1.00  0.00    -0.401 OA
HETATM   13  H   UNL     1      77.543  12.601  14.589  1.00  0.00     0.209 HD
ENDBRANCH  11  12
ENDBRANCH  10  11
ENDBRANCH   3  10
TORSDOF 3
ENDMDL
MODEL 4
REMARK VINA RESULT:      -5.3      2.362      4.273
REMARK  3 active torsions:
REMARK  status: ('A' for Active; 'I' for Inactive)
REMARK    1  A    between atoms: C_3  and  C_6 
REMARK    2  A    between atoms: C_6  and  C_10 
REMARK    3  A    between atoms: O_7  and  C_10 
ROOT
HETATM    1  O   UNL     1      77.309   7.673  14.781  1.00  0.00    -0.321 OA
HETATM    2  C   UNL     1      76.809   6.435  15.026  1.00  0.00     0.150 A 
HETATM    3  C   UNL     1      76.548   6.261  16.372  1.00  0.00    -0.021 A 
HETATM    4  C   UNL     1      76.921   7.492  16.997  1.00  0.00     0.006 A 
HETATM    5  C   UNL     1      77.374   8.320  15.977  1.00  0.00     0.085 A 
HETATM    6  C   UNL     1      76.924   7.993  18.313  1.00  0.00     0.015 A 
HETATM    7  C   UNL     1      77.827   9.624  16.169  1.00  0.00     0.038 A 
HETATM    8  C   UNL     1      77.376   9.299  18.538  1.00  0.00     0.001 A 
HETATM    9  C   UNL     1      77.818  10.101  17.483  1.00  0.00     0.003 A 
ENDROOT
BRANCH   3  10
HETATM   10  C   UNL     1      75.985   5.047  17.035  1.00  0.00     0.067 C 
BRANCH  10  11
HETATM   11  C   UNL     1      76.957   4.387  18.012  1.00  0.00     0.168 C 
BRANCH  11  12
HETATM   12  O   UNL     1      76.327   3.357  18.768  1.00  0.00    -0.401 OA
HETATM   13  H   UNL     1      76.581   2.492  18.410  1.00  0.00     0.209 HD
ENDBRANCH  11  12
ENDBRANCH  10  11
ENDBRANCH   3  10
TORSDOF 3
ENDMDL
MODEL 5
REMARK VINA RESULT:      -5.1     17.427     19.352
REMARK  3 active torsions:
REMARK  status: ('A' for Active; 'I' for Inactive)
REMARK    1  A    between atoms: C_3  and  C_6 
REMARK    2  A    between atoms: C_6  and  C_10 
REMARK    3  A    between atoms: O_7  and  C_10 
ROOT
HETATM    1  O   UNL     1      64.243  10.006   5.795  1.00  0.00    -0.321 OA
HETATM    2  C   UNL     1      63.142  10.568   5.236  1.00  0.00     0.150 A 
HETATM    3  C   UNL     1      62.668   9.799   4.190  1.00  0.00    -0.021 A 
HETATM    4  C   UNL     1      63.554   8.680   4.105  1.00  0.00     0.006 A 
HETATM    5  C   UNL     1      64.493   8.855   5.113  1.00  0.00     0.085 A 
HETATM    6  C   UNL     1      63.660   7.540   3.284  1.00  0.00     0.015 A 
HETATM    7  C   UNL     1      65.537   7.969   5.374  1.00  0.00     0.038 A 
HETATM    8  C   UNL     1      64.699   6.633   3.520  1.00  0.00     0.001 A 
HETATM    9  C   UNL     1      65.621   6.843   4.548  1.00  0.00     0.003 A 
ENDROOT
BRANCH   3  10
HETATM   10  C   UNL     1      61.474  10.074   3.334  1.00  0.00     0.067 C 
BRANCH  10  11
HETATM   11  C   UNL     1      61.837  10.596   1.944  1.00  0.00     0.168 C 
BRANCH  11  12
HETATM   12  O   UNL     1      62.087  11.998   1.957  1.00  0.00    -0.401 OA
HETATM   13  H   UNL     1      62.679  12.214   2.694  1.00  0.00     0.209 HD
ENDBRANCH  11  12
ENDBRANCH  10  11
ENDBRANCH   3  10
TORSDOF 3
ENDMDL
MODEL 6
REMARK VINA RESULT:      -5.0     17.853     19.591
REMARK  3 active torsions:
REMARK  status: ('A' for Active; 'I' for Inactive)
REMARK    1  A    between atoms: C_3  and  C_6 
REMARK    2  A    between atoms: C_6  and  C_10 
REMARK    3  A    between atoms: O_7  and  C_10 
ROOT
HETATM    1  O   UNL     1      62.309  10.753   4.161  1.00  0.00    -0.321 OA
HETATM    2  C   UNL     1      62.924  10.114   5.188  1.00  0.00     0.150 A 
HETATM    3  C   UNL     1      63.308   8.838   4.820  1.00  0.00    -0.021 A 
HETATM    4  C   UNL     1      62.891   8.689   3.460  1.00  0.00     0.006 A 
HETATM    5  C   UNL     1      62.291   9.892   3.108  1.00  0.00     0.085 A 
HETATM    6  C   UNL     1      62.957   7.667   2.494  1.00  0.00     0.015 A 
HETATM    7  C   UNL     1      61.754  10.160   1.850  1.00  0.00     0.038 A 
HETATM    8  C   UNL     1      62.423   7.906   1.221  1.00  0.00     0.001 A 
HETATM    9  C   UNL     1      61.833   9.132   0.905  1.00  0.00     0.003 A 
ENDROOT
BRANCH   3  10
HETATM   10  C   UNL     1      64.020   7.830   5.662  1.00  0.00     0.067 C 
BRANCH  10  11
HETATM   11  C   UNL     1      65.541   7.920   5.555  1.00  0.00     0.168 C 
BRANCH  11  12
HETATM   12  O   UNL     1      66.067   8.955   6.380  1.00  0.00    -0.401 OA
HETATM   13  H   UNL     1      65.753   9.815   6.059  1.00  0.00     0.209 HD
ENDBRANCH  11  12
ENDBRANCH  10  11
ENDBRANCH   3  10
TORSDOF 3
ENDMDL
MODEL 7
REMARK VINA RESULT:      -4.9     17.887     19.612
REMARK  3 active torsions:
REMARK  status: ('A' for Active; 'I' for Inactive)
REMARK    1  A    between atoms: C_3  and  C_6 
REMARK    2  A    between atoms: C_6  and  C_10 
REMARK    3  A    between atoms: O_7  and  C_10 
ROOT
HETATM    1  O   UNL     1      63.006   7.502   2.036  1.00  0.00    -0.321 OA
HETATM    2  C   UNL     1      63.474   6.925   3.172  1.00  0.00     0.150 A 
HETATM    3  C   UNL     1      63.390   7.794   4.242  1.00  0.00    -0.021 A 
HETATM    4  C   UNL     1      62.826   8.998   3.716  1.00  0.00     0.006 A 
HETATM    5  C   UNL     1      62.606   8.761   2.365  1.00  0.00     0.085 A 
HETATM    6  C   UNL     1      62.479  10.259   4.237  1.00  0.00     0.015 A 
HETATM    7  C   UNL     1      62.054   9.691   1.486  1.00  0.00     0.038 A 
HETATM    8  C   UNL     1      61.924  11.216   3.378  1.00  0.00     0.001 A 
HETATM    9  C   UNL     1      61.714  10.935   2.026  1.00  0.00     0.003 A 
ENDROOT
BRANCH   3  10
HETATM   10  C   UNL     1      63.793   7.529   5.657  1.00  0.00     0.067 C 
BRANCH  10  11
HETATM   11  C   UNL     1      65.290   7.713   5.901  1.00  0.00     0.168 C 
BRANCH  11  12
HETATM   12  O   UNL     1      65.632   9.085   6.075  1.00  0.00    -0.401 OA
HETATM   13  H   UNL     1      66.217   9.366   5.354  1.00  0.00     0.209 HD
ENDBRANCH  11  12
ENDBRANCH  10  11
ENDBRANCH   3  10
TORSDOF 3
ENDMDL
MODEL 8
REMARK VINA RESULT:      -4.8     19.228     21.253
REMARK  3 active torsions:
REMARK  status: ('A' for Active; 'I' for Inactive)
REMARK    1  A    between atoms: C_3  and  C_6 
REMARK    2  A    between atoms: C_6  and  C_10 
REMARK    3  A    between atoms: O_7  and  C_10 
ROOT
HETATM    1  O   UNL     1      63.413   7.632   3.648  1.00  0.00    -0.321 OA
HETATM    2  C   UNL     1      62.828   7.412   2.444  1.00  0.00     0.150 A 
HETATM    3  C   UNL     1      62.110   8.518   2.030  1.00  0.00    -0.021 A 
HETATM    4  C   UNL     1      62.270   9.489   3.068  1.00  0.00     0.006 A 
HETATM    5  C   UNL     1      63.079   8.896   4.029  1.00  0.00     0.085 A 
HETATM    6  C   UNL     1      61.816  10.802   3.296  1.00  0.00     0.015 A 
HETATM    7  C   UNL     1      63.482   9.520   5.208  1.00  0.00     0.038 A 
HETATM    8  C   UNL     1      62.202  11.455   4.473  1.00  0.00     0.001 A 
HETATM    9  C   UNL     1      63.022  10.825   5.412  1.00  0.00     0.003 A 
ENDROOT
BRANCH   3  10
HETATM   10  C   UNL     1      61.338   8.672   0.760  1.00  0.00     0.067 C 
BRANCH  10  11
HETATM   11  C   UNL     1      60.025   7.892   0.755  1.00  0.00     0.168 C 
BRANCH  11  12
HETATM   12  O   UNL     1      58.901   8.749   0.930  1.00  0.00    -0.401 OA
HETATM   13  H   UNL     1      58.712   9.208   0.097  1.00  0.00     0.209 HD
ENDBRANCH  11  12
ENDBRANCH  10  11
ENDBRANCH   3  10
TORSDOF 3
ENDMDL
MODEL 9
REMARK VINA RESULT:      -4.6     12.666     14.438
REMARK  3 active torsions:
REMARK  status: ('A' for Active; 'I' for Inactive)
REMARK    1  A    between atoms: C_3  and  C_6 
REMARK    2  A    between atoms: C_6  and  C_10 
REMARK    3  A    between atoms: O_7  and  C_10 
ROOT
HETATM    1  O   UNL     1      67.923   3.625   5.794  1.00  0.00    -0.321 OA
HETATM    2  C   UNL     1      67.471   4.828   5.357  1.00  0.00     0.150 A 
HETATM    3  C   UNL     1      67.622   5.798   6.329  1.00  0.00    -0.021 A 
HETATM    4  C   UNL     1      68.212   5.132   7.448  1.00  0.00     0.006 A 
HETATM    5  C   UNL     1      68.378   3.807   7.063  1.00  0.00     0.085 A 
HETATM    6  C   UNL     1      68.622   5.508   8.742  1.00  0.00     0.015 A 
HETATM    7  C   UNL     1      68.934   2.820   7.875  1.00  0.00     0.038 A 
HETATM    8  C   UNL     1      69.181   4.537   9.582  1.00  0.00     0.001 A 
HETATM    9  C   UNL     1      69.336   3.216   9.154  1.00  0.00     0.003 A 
ENDROOT
BRANCH   3  10
HETATM   10  C   UNL     1      67.257   7.244   6.228  1.00  0.00     0.067 C 
BRANCH  10  11
HETATM   11  C   UNL     1      67.891   7.944   5.028  1.00  0.00     0.168 C 
BRANCH  11  12
HETATM   12  O   UNL     1      69.273   8.215   5.245  1.00  0.00    -0.401 OA
HETATM   13  H   UNL     1      69.741   8.207   4.396  1.00  0.00     0.209 HD
ENDBRANCH  11  12
ENDBRANCH  10  11
ENDBRANCH   3  10
TORSDOF 3
ENDMDL
