MODEL 1
REMARK VINA RESULT:      -5.0      0.000      0.000
REMARK  1 active torsions:
REMARK  status: ('A' for Active; 'I' for Inactive)
REMARK    1  A    between atoms: C_8  and  N_10 
ROOT
HETATM    1  N   UNL     1      72.480  22.990  13.336  1.00  0.00    -0.360 N 
HETATM    2  C   UNL     1      71.503  23.718  13.983  1.00  0.00     0.044 A 
HETATM    3  C   UNL     1      70.274  23.290  13.470  1.00  0.00    -0.006 A 
HETATM    4  C   UNL     1      71.908  22.118  12.443  1.00  0.00     0.091 A 
HETATM    5  C   UNL     1      70.545  22.284  12.504  1.00  0.00     0.031 A 
HETATM    6  C   UNL     1      71.577  24.729  14.954  1.00  0.00     0.033 A 
HETATM    7  C   UNL     1      69.087  23.890  13.941  1.00  0.00     0.042 A 
HETATM    8  C   UNL     1      69.138  24.868  14.942  1.00  0.00     0.026 A 
HETATM    9  C   UNL     1      70.381  25.305  15.400  1.00  0.00     0.031 A 
HETATM   10  C   UNL     1      73.908  23.110  13.520  1.00  0.00     0.155 C 
ENDROOT
BRANCH   8  11
HETATM   11  N   UNL     1      67.973  25.561  15.302  1.00  0.00    -0.399 N 
HETATM   12  H   UNL     1      67.827  26.481  14.981  1.00  0.00     0.156 HD
HETATM   13  H   UNL     1      67.300  25.130  15.878  1.00  0.00     0.156 HD
ENDBRANCH   8  11
TORSDOF 1
ENDMDL
MODEL 2
REMARK VINA RESULT:      -4.9     18.167     19.845
REMARK  1 active torsions:
REMARK  status: ('A' for Active; 'I' for Inactive)
REMARK    1  A    between atoms: C_8  and  N_10 
ROOT
HETATM    1  N   UNL     1      62.536   8.054   1.864  1.00  0.00    -0.360 N 
HETATM    2  C   UNL     1      62.803   8.696   3.056  1.00  0.00     0.044 A 
HETATM    3  C   UNL     1      62.177   9.944   2.990  1.00  0.00    -0.006 A 
HETATM    4  C   UNL     1      61.761   8.851   1.060  1.00  0.00     0.091 A 
HETATM    5  C   UNL     1      61.525  10.027   1.730  1.00  0.00     0.031 A 
HETATM    6  C   UNL     1      63.553   8.313   4.178  1.00  0.00     0.033 A 
HETATM    7  C   UNL     1      62.304  10.834   4.078  1.00  0.00     0.042 A 
HETATM    8  C   UNL     1      63.011  10.452   5.225  1.00  0.00     0.026 A 
HETATM    9  C   UNL     1      63.661   9.219   5.241  1.00  0.00     0.031 A 
HETATM   10  C   UNL     1      63.002   6.745   1.468  1.00  0.00     0.155 C 
ENDROOT
BRANCH   8  11
HETATM   11  N   UNL     1      63.257  11.389   6.239  1.00  0.00    -0.399 N 
HETATM   12  H   UNL     1      63.072  12.344   6.084  1.00  0.00     0.156 HD
HETATM   13  H   UNL     1      63.616  11.094   7.108  1.00  0.00     0.156 HD
ENDBRANCH   8  11
TORSDOF 1
ENDMDL
MODEL 3
REMARK VINA RESULT:      -4.8     18.040     19.724
REMARK  1 active torsions:
REMARK  status: ('A' for Active; 'I' for Inactive)
REMARK    1  A    between atoms: C_8  and  N_10 
ROOT
HETATM    1  N   UNL     1      62.480   8.173   2.004  1.00  0.00    -0.360 N 
HETATM    2  C   UNL     1      62.554   9.131   2.994  1.00  0.00     0.044 A 
HETATM    3  C   UNL     1      63.379   8.612   3.997  1.00  0.00    -0.006 A 
HETATM    4  C   UNL     1      63.233   7.079   2.346  1.00  0.00     0.091 A 
HETATM    5  C   UNL     1      63.799   7.322   3.575  1.00  0.00     0.031 A 
HETATM    6  C   UNL     1      61.959  10.395   3.120  1.00  0.00     0.033 A 
HETATM    7  C   UNL     1      63.615   9.379   5.157  1.00  0.00     0.042 A 
HETATM    8  C   UNL     1      63.066  10.662   5.281  1.00  0.00     0.026 A 
HETATM    9  C   UNL     1      62.211  11.132   4.284  1.00  0.00     0.031 A 
HETATM   10  C   UNL     1      61.715   8.256   0.781  1.00  0.00     0.155 C 
ENDROOT
BRANCH   8  11
HETATM   11  N   UNL     1      63.184  11.359   6.492  1.00  0.00    -0.399 N 
HETATM   12  H   UNL     1      62.384  11.746   6.918  1.00  0.00     0.156 HD
HETATM   13  H   UNL     1      64.066  11.463   6.918  1.00  0.00     0.156 HD
ENDBRANCH   8  11
TORSDOF 1
ENDMDL
MODEL 4
REMARK VINA RESULT:      -4.8      1.330      4.335
REMARK  1 active torsions:
REMARK  status: ('A' for Active; 'I' for Inactive)
REMARK    1  A    between atoms: C_8  and  N_10 
ROOT
HETATM    1  N   UNL     1      70.088  24.721  14.906  1.00  0.00    -0.360 N 
HETATM    2  C   UNL     1      70.538  23.859  13.927  1.00  0.00     0.044 A 
HETATM    3  C   UNL     1      71.906  24.103  13.772  1.00  0.00    -0.006 A 
HETATM    4  C   UNL     1      71.125  25.489  15.373  1.00  0.00     0.091 A 
HETATM    5  C   UNL     1      72.261  25.129  14.689  1.00  0.00     0.031 A 
HETATM    6  C   UNL     1      69.873  22.903  13.144  1.00  0.00     0.033 A 
HETATM    7  C   UNL     1      72.629  23.369  12.808  1.00  0.00     0.042 A 
HETATM    8  C   UNL     1      71.992  22.380  12.048  1.00  0.00     0.026 A 
HETATM    9  C   UNL     1      70.618  22.193  12.194  1.00  0.00     0.031 A 
HETATM   10  C   UNL     1      68.731  24.850  15.383  1.00  0.00     0.155 C 
ENDROOT
BRANCH   8  11
HETATM   11  N   UNL     1      72.677  21.757  10.995  1.00  0.00    -0.399 N 
HETATM   12  H   UNL     1      72.453  20.833  10.738  1.00  0.00     0.156 HD
HETATM   13  H   UNL     1      73.385  22.243  10.511  1.00  0.00     0.156 HD
ENDBRANCH   8  11
TORSDOF 1
ENDMDL
MODEL 5
REMARK VINA RESULT:      -4.7     14.022     15.712
REMARK  1 active torsions:
REMARK  status: ('A' for Active; 'I' for Inactive)
REMARK    1  A    between atoms: C_8  and  N_10 
ROOT
HETATM    1  N   UNL     1      77.056  11.756  19.084  1.00  0.00    -0.360 N 
HETATM    2  C   UNL     1      78.077  11.801  20.010  1.00  0.00     0.044 A 
HETATM    3  C   UNL     1      77.738  12.792  20.937  1.00  0.00    -0.006 A 
HETATM    4  C   UNL     1      76.088  12.676  19.401  1.00  0.00     0.091 A 
HETATM    5  C   UNL     1      76.485  13.332  20.541  1.00  0.00     0.031 A 
HETATM    6  C   UNL     1      79.279  11.084  20.114  1.00  0.00     0.033 A 
HETATM    7  C   UNL     1      78.626  13.074  21.996  1.00  0.00     0.042 A 
HETATM    8  C   UNL     1      79.809  12.338  22.142  1.00  0.00     0.026 A 
HETATM    9  C   UNL     1      80.140  11.388  21.177  1.00  0.00     0.031 A 
HETATM   10  C   UNL     1      76.983  10.900  17.922  1.00  0.00     0.155 C 
ENDROOT
BRANCH   8  11
HETATM   11  N   UNL     1      80.753  12.717  23.108  1.00  0.00    -0.399 N 
HETATM   12  H   UNL     1      81.031  13.659  23.183  1.00  0.00     0.156 HD
HETATM   13  H   UNL     1      81.141  12.042  23.711  1.00  0.00     0.156 HD
ENDBRANCH   8  11
TORSDOF 1
ENDMDL
MODEL 6
REMARK VINA RESULT:      -4.5     18.664     19.955
REMARK  1 active torsions:
REMARK  status: ('A' for Active; 'I' for Inactive)
REMARK    1  A    between atoms: C_8  and  N_10 
ROOT
HETATM    1  N   UNL     1      63.471   7.424   4.571  1.00  0.00    -0.360 N 
HETATM    2  C   UNL     1      62.958   8.633   4.148  1.00  0.00     0.044 A 
HETATM    3  C   UNL     1      62.693   8.502   2.781  1.00  0.00    -0.006 A 
HETATM    4  C   UNL     1      63.530   6.541   3.522  1.00  0.00     0.091 A 
HETATM    5  C   UNL     1      63.057   7.182   2.403  1.00  0.00     0.031 A 
HETATM    6  C   UNL     1      62.721   9.838   4.826  1.00  0.00     0.033 A 
HETATM    7  C   UNL     1      62.176   9.609   2.074  1.00  0.00     0.042 A 
HETATM    8  C   UNL     1      61.891  10.805   2.743  1.00  0.00     0.026 A 
HETATM    9  C   UNL     1      62.209  10.918   4.096  1.00  0.00     0.031 A 
HETATM   10  C   UNL     1      63.917   7.098   5.906  1.00  0.00     0.155 C 
ENDROOT
BRANCH   8  11
HETATM   11  N   UNL     1      61.516  11.943   2.012  1.00  0.00    -0.399 N 
HETATM   12  H   UNL     1      61.297  11.864   1.054  1.00  0.00     0.156 HD
HETATM   13  H   UNL     1      61.474  12.822   2.454  1.00  0.00     0.156 HD
ENDBRANCH   8  11
TORSDOF 1
ENDMDL
MODEL 7
REMARK VINA RESULT:      -4.4     18.792     20.305
REMARK  1 active torsions:
REMARK  status: ('A' for Active; 'I' for Inactive)
REMARK    1  A    between atoms: C_8  and  N_10 
ROOT
HETATM    1  N   UNL     1      67.297   5.735   6.156  1.00  0.00    -0.360 N 
HETATM    2  C   UNL     1      67.927   4.975   7.120  1.00  0.00     0.044 A 
HETATM    3  C   UNL     1      67.800   5.668   8.327  1.00  0.00    -0.006 A 
HETATM    4  C   UNL     1      66.775   6.873   6.717  1.00  0.00     0.091 A 
HETATM    5  C   UNL     1      67.074   6.859   8.059  1.00  0.00     0.031 A 
HETATM    6  C   UNL     1      68.617   3.755   7.046  1.00  0.00     0.033 A 
HETATM    7  C   UNL     1      68.381   5.126   9.494  1.00  0.00     0.042 A 
HETATM    8  C   UNL     1      69.034   3.888   9.449  1.00  0.00     0.026 A 
HETATM    9  C   UNL     1      69.182   3.244   8.222  1.00  0.00     0.031 A 
HETATM   10  C   UNL     1      67.196   5.430   4.747  1.00  0.00     0.155 C 
ENDROOT
BRANCH   8  11
HETATM   11  N   UNL     1      69.731   3.425  10.575  1.00  0.00    -0.399 N 
HETATM   12  H   UNL     1      69.360   2.692  11.118  1.00  0.00     0.156 HD
HETATM   13  H   UNL     1      70.593   3.832  10.823  1.00  0.00     0.156 HD
ENDBRANCH   8  11
TORSDOF 1
ENDMDL
MODEL 8
REMARK VINA RESULT:      -4.4      1.521      3.727
REMARK  1 active torsions:
REMARK  status: ('A' for Active; 'I' for Inactive)
REMARK    1  A    between atoms: C_8  and  N_10 
ROOT
HETATM    1  N   UNL     1      71.395  25.005  14.833  1.00  0.00    -0.360 N 
HETATM    2  C   UNL     1      71.545  24.012  13.886  1.00  0.00     0.044 A 
HETATM    3  C   UNL     1      70.276  23.465  13.672  1.00  0.00    -0.006 A 
HETATM    4  C   UNL     1      70.080  25.102  15.213  1.00  0.00     0.091 A 
HETATM    5  C   UNL     1      69.366  24.160  14.512  1.00  0.00     0.031 A 
HETATM    6  C   UNL     1      72.675  23.525  13.211  1.00  0.00     0.033 A 
HETATM    7  C   UNL     1      70.134  22.400  12.757  1.00  0.00     0.042 A 
HETATM    8  C   UNL     1      71.242  21.930  12.041  1.00  0.00     0.026 A 
HETATM    9  C   UNL     1      72.501  22.466  12.310  1.00  0.00     0.031 A 
HETATM   10  C   UNL     1      72.443  25.828  15.391  1.00  0.00     0.155 C 
ENDROOT
BRANCH   8  11
HETATM   11  N   UNL     1      71.124  20.781  11.244  1.00  0.00    -0.399 N 
HETATM   12  H   UNL     1      71.216  20.848  10.266  1.00  0.00     0.156 HD
HETATM   13  H   UNL     1      70.948  19.907  11.663  1.00  0.00     0.156 HD
ENDBRANCH   8  11
TORSDOF 1
ENDMDL
MODEL 9
REMARK VINA RESULT:      -4.4      1.145      3.900
REMARK  1 active torsions:
REMARK  status: ('A' for Active; 'I' for Inactive)
REMARK    1  A    between atoms: C_8  and  N_10 
ROOT
HETATM    1  N   UNL     1      69.078  24.912  15.301  1.00  0.00    -0.360 N 
HETATM    2  C   UNL     1      70.369  24.695  14.866  1.00  0.00     0.044 A 
HETATM    3  C   UNL     1      70.300  23.714  13.872  1.00  0.00    -0.006 A 
HETATM    4  C   UNL     1      68.204  24.109  14.611  1.00  0.00     0.091 A 
HETATM    5  C   UNL     1      68.933  23.356  13.722  1.00  0.00     0.031 A 
HETATM    6  C   UNL     1      71.596  25.247  15.264  1.00  0.00     0.033 A 
HETATM    7  C   UNL     1      71.492  23.274  13.259  1.00  0.00     0.042 A 
HETATM    8  C   UNL     1      72.722  23.845  13.611  1.00  0.00     0.026 A 
HETATM    9  C   UNL     1      72.762  24.788  14.637  1.00  0.00     0.031 A 
HETATM   10  C   UNL     1      68.661  25.822  16.343  1.00  0.00     0.155 C 
ENDROOT
BRANCH   8  11
HETATM   11  N   UNL     1      73.914  23.305  13.106  1.00  0.00    -0.399 N 
HETATM   12  H   UNL     1      73.923  22.394  12.732  1.00  0.00     0.156 HD
HETATM   13  H   UNL     1      74.743  23.836  13.126  1.00  0.00     0.156 HD
ENDBRANCH   8  11
TORSDOF 1
ENDMDL
