MODEL 1
REMARK VINA RESULT:      -5.5      0.000      0.000
REMARK  3 active torsions:
REMARK  status: ('A' for Active; 'I' for Inactive)
REMARK    1  A    between atoms: C_1  and  C_2 
REMARK    2  A    between atoms: C_9  and  C_15 
REMARK    3  A    between atoms: O_12  and  C_15 
ROOT
HETATM    1  C   UNL     1      64.433   7.886   4.485  1.00  0.00    -0.023 A 
HETATM    2  C   UNL     1      64.239   9.035   5.276  1.00  0.00     0.021 A 
HETATM    3  C   UNL     1      63.231   9.975   4.996  1.00  0.00    -0.034 A 
HETATM    4  C   UNL     1      63.555   7.701   3.402  1.00  0.00     0.012 A 
HETATM    5  C   UNL     1      62.539   8.619   3.121  1.00  0.00     0.002 A 
HETATM    6  C   UNL     1      62.379   9.754   3.912  1.00  0.00     0.009 A 
ENDROOT
BRANCH   1   7
HETATM    7  C   UNL     1      65.517   6.927   4.779  1.00  0.00     0.005 A 
HETATM    8  C   UNL     1      66.439   6.490   3.840  1.00  0.00     0.102 A 
HETATM    9  N   UNL     1      67.440   5.612   4.079  1.00  0.00    -0.361 N 
HETATM   10  C   UNL     1      67.514   5.145   5.332  1.00  0.00     0.180 A 
ATOM     11  HN  UNL     1      68.096   5.324   3.353  1.00  0.00     0.166 HD
HETATM   12  N   UNL     1      66.698   5.479   6.340  1.00  0.00    -0.361 N 
HETATM   13  C   UNL     1      65.723   6.366   6.032  1.00  0.00     0.102 A 
ATOM     14  HN  UNL     1      66.805   5.092   7.278  1.00  0.00     0.166 HD
ENDBRANCH   1   7
BRANCH   3  15
HETATM   15  C   UNL     1      63.093  11.206   5.852  1.00  0.00     0.202 C 
BRANCH  15  16
HETATM   16  O   UNL     1      64.342  11.555   6.433  1.00  0.00    -0.396 OA
HETATM   17  H   UNL     1      64.261  11.552   7.400  1.00  0.00     0.209 HD
ENDBRANCH  15  16
ENDBRANCH   3  15
TORSDOF 3
ENDMDL
MODEL 2
REMARK VINA RESULT:      -5.5      1.949      2.275
REMARK  3 active torsions:
REMARK  status: ('A' for Active; 'I' for Inactive)
REMARK    1  A    between atoms: C_1  and  C_2 
REMARK    2  A    between atoms: C_9  and  C_15 
REMARK    3  A    between atoms: O_12  and  C_15 
ROOT
HETATM    1  C   UNL     1      64.078   8.075   4.653  1.00  0.00    -0.023 A 
HETATM    2  C   UNL     1      63.397   9.308   4.664  1.00  0.00     0.021 A 
HETATM    3  C   UNL     1      62.539   9.698   3.620  1.00  0.00    -0.034 A 
HETATM    4  C   UNL     1      63.849   7.229   3.553  1.00  0.00     0.012 A 
HETATM    5  C   UNL     1      62.987   7.597   2.516  1.00  0.00     0.002 A 
HETATM    6  C   UNL     1      62.336   8.828   2.547  1.00  0.00     0.009 A 
ENDROOT
BRANCH   1   7
HETATM    7  C   UNL     1      64.999   7.698   5.744  1.00  0.00     0.005 A 
HETATM    8  C   UNL     1      64.736   6.696   6.667  1.00  0.00     0.102 A 
HETATM    9  N   UNL     1      65.558   6.330   7.677  1.00  0.00    -0.361 N 
HETATM   10  C   UNL     1      66.705   7.015   7.767  1.00  0.00     0.180 A 
ATOM     11  HN  UNL     1      65.320   5.582   8.328  1.00  0.00     0.166 HD
HETATM   12  N   UNL     1      67.093   8.002   6.949  1.00  0.00    -0.361 N 
HETATM   13  C   UNL     1      66.226   8.311   5.957  1.00  0.00     0.102 A 
ATOM     14  HN  UNL     1      67.983   8.487   7.065  1.00  0.00     0.166 HD
ENDBRANCH   1   7
BRANCH   3  15
HETATM   15  C   UNL     1      61.866  11.044   3.666  1.00  0.00     0.202 C 
BRANCH  15  16
HETATM   16  O   UNL     1      62.287  11.777   4.808  1.00  0.00    -0.396 OA
HETATM   17  H   UNL     1      63.169  12.149   4.645  1.00  0.00     0.209 HD
ENDBRANCH  15  16
ENDBRANCH   3  15
TORSDOF 3
ENDMDL
MODEL 3
REMARK VINA RESULT:      -5.4      4.671      7.599
REMARK  3 active torsions:
REMARK  status: ('A' for Active; 'I' for Inactive)
REMARK    1  A    between atoms: C_1  and  C_2 
REMARK    2  A    between atoms: C_9  and  C_15 
REMARK    3  A    between atoms: O_12  and  C_15 
ROOT
HETATM    1  C   UNL     1      68.165   5.037   8.211  1.00  0.00    -0.023 A 
HETATM    2  C   UNL     1      67.634   3.828   8.701  1.00  0.00     0.021 A 
HETATM    3  C   UNL     1      68.411   2.912   9.433  1.00  0.00    -0.034 A 
HETATM    4  C   UNL     1      69.513   5.307   8.504  1.00  0.00     0.012 A 
HETATM    5  C   UNL     1      70.292   4.414   9.244  1.00  0.00     0.002 A 
HETATM    6  C   UNL     1      69.745   3.219   9.705  1.00  0.00     0.009 A 
ENDROOT
BRANCH   1   7
HETATM    7  C   UNL     1      67.340   5.970   7.417  1.00  0.00     0.005 A 
HETATM    8  C   UNL     1      67.742   6.525   6.211  1.00  0.00     0.102 A 
HETATM    9  N   UNL     1      67.009   7.383   5.464  1.00  0.00    -0.361 N 
HETATM   10  C   UNL     1      65.808   7.703   5.961  1.00  0.00     0.180 A 
ATOM     11  HN  UNL     1      67.350   7.760   4.580  1.00  0.00     0.166 HD
HETATM   12  N   UNL     1      65.288   7.245   7.107  1.00  0.00    -0.361 N 
HETATM   13  C   UNL     1      66.072   6.386   7.800  1.00  0.00     0.102 A 
ATOM     14  HN  UNL     1      64.364   7.524   7.435  1.00  0.00     0.166 HD
ENDBRANCH   1   7
BRANCH   3  15
HETATM   15  C   UNL     1      67.802   1.616   9.900  1.00  0.00     0.202 C 
BRANCH  15  16
HETATM   16  O   UNL     1      68.019   1.434  11.293  1.00  0.00    -0.396 OA
HETATM   17  H   UNL     1      67.574   2.142  11.784  1.00  0.00     0.209 HD
ENDBRANCH  15  16
ENDBRANCH   3  15
TORSDOF 3
ENDMDL
MODEL 4
REMARK VINA RESULT:      -5.2      2.481      3.253
REMARK  3 active torsions:
REMARK  status: ('A' for Active; 'I' for Inactive)
REMARK    1  A    between atoms: C_1  and  C_2 
REMARK    2  A    between atoms: C_9  and  C_15 
REMARK    3  A    between atoms: O_12  and  C_15 
ROOT
HETATM    1  C   UNL     1      63.430   9.044   4.675  1.00  0.00    -0.023 A 
HETATM    2  C   UNL     1      62.964   8.732   3.383  1.00  0.00     0.021 A 
HETATM    3  C   UNL     1      62.160   9.616   2.643  1.00  0.00    -0.034 A 
HETATM    4  C   UNL     1      63.072  10.300   5.196  1.00  0.00     0.012 A 
HETATM    5  C   UNL     1      62.285  11.196   4.465  1.00  0.00     0.002 A 
HETATM    6  C   UNL     1      61.828  10.855   3.195  1.00  0.00     0.009 A 
ENDROOT
BRANCH   1   7
HETATM    7  C   UNL     1      64.249   8.088   5.447  1.00  0.00     0.005 A 
HETATM    8  C   UNL     1      65.614   8.224   5.647  1.00  0.00     0.102 A 
HETATM    9  N   UNL     1      66.390   7.363   6.346  1.00  0.00    -0.361 N 
HETATM   10  C   UNL     1      65.756   6.306   6.869  1.00  0.00     0.180 A 
ATOM     11  HN  UNL     1      67.392   7.510   6.468  1.00  0.00     0.166 HD
HETATM   12  N   UNL     1      64.446   6.047   6.761  1.00  0.00    -0.361 N 
HETATM   13  C   UNL     1      63.730   6.951   6.053  1.00  0.00     0.102 A 
ATOM     14  HN  UNL     1      64.018   5.224   7.184  1.00  0.00     0.166 HD
ENDBRANCH   1   7
BRANCH   3  15
HETATM   15  C   UNL     1      61.658   9.215   1.281  1.00  0.00     0.202 C 
BRANCH  15  16
HETATM   16  O   UNL     1      60.272   8.903   1.330  1.00  0.00    -0.396 OA
HETATM   17  H   UNL     1      59.799   9.608   1.800  1.00  0.00     0.209 HD
ENDBRANCH  15  16
ENDBRANCH   3  15
TORSDOF 3
ENDMDL
MODEL 5
REMARK VINA RESULT:      -5.0      4.577      6.385
REMARK  3 active torsions:
REMARK  status: ('A' for Active; 'I' for Inactive)
REMARK    1  A    between atoms: C_1  and  C_2 
REMARK    2  A    between atoms: C_9  and  C_15 
REMARK    3  A    between atoms: O_12  and  C_15 
ROOT
HETATM    1  C   UNL     1      68.129   4.861   8.355  1.00  0.00    -0.023 A 
HETATM    2  C   UNL     1      68.038   5.021   6.959  1.00  0.00     0.021 A 
HETATM    3  C   UNL     1      67.428   6.145   6.373  1.00  0.00    -0.034 A 
HETATM    4  C   UNL     1      67.597   5.891   9.152  1.00  0.00     0.012 A 
HETATM    5  C   UNL     1      67.002   7.020   8.582  1.00  0.00     0.002 A 
HETATM    6  C   UNL     1      66.914   7.146   7.198  1.00  0.00     0.009 A 
ENDROOT
BRANCH   1   7
HETATM    7  C   UNL     1      68.746   3.659   8.950  1.00  0.00     0.005 A 
HETATM    8  C   UNL     1      68.734   2.407   8.354  1.00  0.00     0.102 A 
HETATM    9  N   UNL     1      69.289   1.288   8.875  1.00  0.00    -0.361 N 
HETATM   10  C   UNL     1      69.884   1.438  10.065  1.00  0.00     0.180 A 
ATOM     11  HN  UNL     1      69.256   0.390   8.394  1.00  0.00     0.166 HD
HETATM   12  N   UNL     1      69.976   2.582  10.755  1.00  0.00    -0.361 N 
HETATM   13  C   UNL     1      69.405   3.662  10.173  1.00  0.00     0.102 A 
ATOM     14  HN  UNL     1      70.446   2.636  11.659  1.00  0.00     0.166 HD
ENDBRANCH   1   7
BRANCH   3  15
HETATM   15  C   UNL     1      67.324   6.246   4.874  1.00  0.00     0.202 C 
BRANCH  15  16
HETATM   16  O   UNL     1      67.983   7.414   4.404  1.00  0.00    -0.396 OA
HETATM   17  H   UNL     1      68.138   8.018   5.148  1.00  0.00     0.209 HD
ENDBRANCH  15  16
ENDBRANCH   3  15
TORSDOF 3
ENDMDL
MODEL 6
REMARK VINA RESULT:      -4.9      4.143      5.787
REMARK  3 active torsions:
REMARK  status: ('A' for Active; 'I' for Inactive)
REMARK    1  A    between atoms: C_1  and  C_2 
REMARK    2  A    between atoms: C_9  and  C_15 
REMARK    3  A    between atoms: O_12  and  C_15 
ROOT
HETATM    1  C   UNL     1      68.020   4.497   7.279  1.00  0.00    -0.023 A 
HETATM    2  C   UNL     1      67.651   5.840   7.492  1.00  0.00     0.021 A 
HETATM    3  C   UNL     1      67.165   6.656   6.456  1.00  0.00    -0.034 A 
HETATM    4  C   UNL     1      67.860   3.990   5.977  1.00  0.00     0.012 A 
HETATM    5  C   UNL     1      67.363   4.786   4.941  1.00  0.00     0.002 A 
HETATM    6  C   UNL     1      67.019   6.114   5.177  1.00  0.00     0.009 A 
ENDROOT
BRANCH   1   7
HETATM    7  C   UNL     1      68.558   3.666   8.376  1.00  0.00     0.005 A 
HETATM    8  C   UNL     1      69.182   4.182   9.502  1.00  0.00     0.102 A 
HETATM    9  N   UNL     1      69.686   3.446  10.520  1.00  0.00    -0.361 N 
HETATM   10  C   UNL     1      69.558   2.119  10.394  1.00  0.00     0.180 A 
ATOM     11  HN  UNL     1      70.133   3.874  11.330  1.00  0.00     0.166 HD
HETATM   12  N   UNL     1      68.978   1.483   9.368  1.00  0.00    -0.361 N 
HETATM   13  C   UNL     1      68.491   2.279   8.389  1.00  0.00     0.102 A 
ATOM     14  HN  UNL     1      68.908   0.466   9.328  1.00  0.00     0.166 HD
ENDBRANCH   1   7
BRANCH   3  15
HETATM   15  C   UNL     1      66.822   8.096   6.732  1.00  0.00     0.202 C 
BRANCH  15  16
HETATM   16  O   UNL     1      66.123   8.664   5.633  1.00  0.00    -0.396 OA
HETATM   17  H   UNL     1      65.628   7.969   5.171  1.00  0.00     0.209 HD
ENDBRANCH  15  16
ENDBRANCH   3  15
TORSDOF 3
ENDMDL
MODEL 7
REMARK VINA RESULT:      -4.8     16.985     18.793
REMARK  3 active torsions:
REMARK  status: ('A' for Active; 'I' for Inactive)
REMARK    1  A    between atoms: C_1  and  C_2 
REMARK    2  A    between atoms: C_9  and  C_15 
REMARK    3  A    between atoms: O_12  and  C_15 
ROOT
HETATM    1  C   UNL     1      76.357   1.030  16.699  1.00  0.00    -0.023 A 
HETATM    2  C   UNL     1      77.157   0.186  15.905  1.00  0.00     0.021 A 
HETATM    3  C   UNL     1      76.639  -0.521  14.806  1.00  0.00    -0.034 A 
HETATM    4  C   UNL     1      75.005   1.158  16.332  1.00  0.00     0.012 A 
HETATM    5  C   UNL     1      74.480   0.473  15.232  1.00  0.00     0.002 A 
HETATM    6  C   UNL     1      75.292  -0.366  14.473  1.00  0.00     0.009 A 
ENDROOT
BRANCH   1   7
HETATM    7  C   UNL     1      76.915   1.739  17.868  1.00  0.00     0.005 A 
HETATM    8  C   UNL     1      76.584   3.041  18.213  1.00  0.00     0.102 A 
HETATM    9  N   UNL     1      77.080   3.716  19.276  1.00  0.00    -0.361 N 
HETATM   10  C   UNL     1      77.961   3.045  20.029  1.00  0.00     0.180 A 
ATOM     11  HN  UNL     1      76.800   4.673  19.490  1.00  0.00     0.166 HD
HETATM   12  N   UNL     1      78.371   1.788  19.819  1.00  0.00    -0.361 N 
HETATM   13  C   UNL     1      77.830   1.170  18.743  1.00  0.00     0.102 A 
ATOM     14  HN  UNL     1      79.045   1.326  20.429  1.00  0.00     0.166 HD
ENDBRANCH   1   7
BRANCH   3  15
HETATM   15  C   UNL     1      77.532  -1.441  14.015  1.00  0.00     0.202 C 
BRANCH  15  16
HETATM   16  O   UNL     1      77.798  -0.897  12.730  1.00  0.00    -0.396 OA
HETATM   17  H   UNL     1      78.683  -0.498  12.725  1.00  0.00     0.209 HD
ENDBRANCH  15  16
ENDBRANCH   3  15
TORSDOF 3
ENDMDL
MODEL 8
REMARK VINA RESULT:      -4.7      4.423      7.550
REMARK  3 active torsions:
REMARK  status: ('A' for Active; 'I' for Inactive)
REMARK    1  A    between atoms: C_1  and  C_2 
REMARK    2  A    between atoms: C_9  and  C_15 
REMARK    3  A    between atoms: O_12  and  C_15 
ROOT
HETATM    1  C   UNL     1      68.135   5.093   7.535  1.00  0.00    -0.023 A 
HETATM    2  C   UNL     1      68.238   3.769   7.064  1.00  0.00     0.021 A 
HETATM    3  C   UNL     1      68.884   2.760   7.801  1.00  0.00    -0.034 A 
HETATM    4  C   UNL     1      68.692   5.366   8.798  1.00  0.00     0.012 A 
HETATM    5  C   UNL     1      69.322   4.369   9.548  1.00  0.00     0.002 A 
HETATM    6  C   UNL     1      69.421   3.072   9.051  1.00  0.00     0.009 A 
ENDROOT
BRANCH   1   7
HETATM    7  C   UNL     1      67.480   6.144   6.731  1.00  0.00     0.005 A 
HETATM    8  C   UNL     1      66.728   7.176   7.272  1.00  0.00     0.102 A 
HETATM    9  N   UNL     1      66.115   8.151   6.560  1.00  0.00    -0.361 N 
HETATM   10  C   UNL     1      66.265   8.079   5.232  1.00  0.00     0.180 A 
ATOM     11  HN  UNL     1      65.575   8.892   7.007  1.00  0.00     0.166 HD
HETATM   12  N   UNL     1      66.963   7.145   4.572  1.00  0.00    -0.361 N 
HETATM   13  C   UNL     1      67.554   6.205   5.346  1.00  0.00     0.102 A 
ATOM     14  HN  UNL     1      67.043   7.143   3.556  1.00  0.00     0.166 HD
ENDBRANCH   1   7
BRANCH   3  15
HETATM   15  C   UNL     1      68.998   1.371   7.232  1.00  0.00     0.202 C 
BRANCH  15  16
HETATM   16  O   UNL     1      69.580   0.488   8.180  1.00  0.00    -0.396 OA
HETATM   17  H   UNL     1      70.239   0.967   8.707  1.00  0.00     0.209 HD
ENDBRANCH  15  16
ENDBRANCH   3  15
TORSDOF 3
ENDMDL
MODEL 9
REMARK VINA RESULT:      -4.6      5.035      8.132
REMARK  3 active torsions:
REMARK  status: ('A' for Active; 'I' for Inactive)
REMARK    1  A    between atoms: C_1  and  C_2 
REMARK    2  A    between atoms: C_9  and  C_15 
REMARK    3  A    between atoms: O_12  and  C_15 
ROOT
HETATM    1  C   UNL     1      68.371   3.525   7.584  1.00  0.00    -0.023 A 
HETATM    2  C   UNL     1      68.886   2.996   8.784  1.00  0.00     0.021 A 
HETATM    3  C   UNL     1      69.377   1.681   8.873  1.00  0.00    -0.034 A 
HETATM    4  C   UNL     1      68.387   2.684   6.457  1.00  0.00     0.012 A 
HETATM    5  C   UNL     1      68.887   1.381   6.527  1.00  0.00     0.002 A 
HETATM    6  C   UNL     1      69.377   0.879   7.730  1.00  0.00     0.009 A 
ENDROOT
BRANCH   1   7
HETATM    7  C   UNL     1      67.832   4.899   7.521  1.00  0.00     0.005 A 
HETATM    8  C   UNL     1      67.881   5.798   8.576  1.00  0.00     0.102 A 
HETATM    9  N   UNL     1      67.395   7.061   8.548  1.00  0.00    -0.361 N 
HETATM   10  C   UNL     1      66.823   7.435   7.396  1.00  0.00     0.180 A 
ATOM     11  HN  UNL     1      67.459   7.686   9.351  1.00  0.00     0.166 HD
HETATM   12  N   UNL     1      66.707   6.678   6.298  1.00  0.00    -0.361 N 
HETATM   13  C   UNL     1      67.220   5.430   6.394  1.00  0.00     0.102 A 
ATOM     14  HN  UNL     1      66.262   7.020   5.446  1.00  0.00     0.166 HD
ENDBRANCH   1   7
BRANCH   3  15
HETATM   15  C   UNL     1      69.879   1.154  10.191  1.00  0.00     0.202 C 
BRANCH  15  16
HETATM   16  O   UNL     1      69.725   2.130  11.212  1.00  0.00    -0.396 OA
HETATM   17  H   UNL     1      70.555   2.212  11.708  1.00  0.00     0.209 HD
ENDBRANCH  15  16
ENDBRANCH   3  15
TORSDOF 3
ENDMDL
