MODEL 1
REMARK VINA RESULT:      -5.8      0.000      0.000
REMARK  3 active torsions:
REMARK  status: ('A' for Active; 'I' for Inactive)
REMARK    1  A    between atoms: C_3  and  C_4 
REMARK    2  A    between atoms: N_9  and  C_12 
REMARK    3  A    between atoms: C_10  and  C_12 
ROOT
HETATM    1  C   UNL     1      79.032  12.343  22.117  1.00  0.00    -0.009 A 
HETATM    2  C   UNL     1      78.551  11.796  23.320  1.00  0.00     0.014 A 
HETATM    3  C   UNL     1      80.290  12.971  22.159  1.00  0.00     0.014 A 
HETATM    4  C   UNL     1      81.033  13.044  23.343  1.00  0.00     0.010 A 
HETATM    5  C   UNL     1      79.286  11.877  24.511  1.00  0.00     0.010 A 
HETATM    6  C   UNL     1      80.534  12.508  24.537  1.00  0.00    -0.033 A 
ENDROOT
BRANCH   1   7
HETATM    7  C   UNL     1      78.233  12.275  20.874  1.00  0.00     0.042 A 
HETATM    8  N   UNL     1      78.260  11.087  20.214  1.00  0.00    -0.365 N 
HETATM    9  C   UNL     1      77.514  10.965  19.094  1.00  0.00     0.088 A 
ATOM     10  HN  UNL     1      78.826  10.310  20.555  1.00  0.00     0.165 HD
HETATM   11  C   UNL     1      76.732  11.980  18.574  1.00  0.00     0.017 A 
HETATM   12  C   UNL     1      76.721  13.197  19.237  1.00  0.00     0.004 A 
HETATM   13  C   UNL     1      77.480  13.350  20.396  1.00  0.00     0.030 A 
ENDBRANCH   1   7
BRANCH   6  14
HETATM   14  C   UNL     1      81.327  12.607  25.820  1.00  0.00     0.270 C 
BRANCH  14  15
HETATM   15  N   UNL     1      80.626  11.969  26.934  1.00  0.00    -0.075 N 
HETATM   16  C   UNL     1      81.402  10.869  27.482  1.00  0.00     0.267 C 
HETATM   17  H   UNL     1      79.730  11.612  26.602  1.00  0.00     0.277 HD
HETATM   18  H   UNL     1      80.487  12.664  27.668  1.00  0.00     0.277 HD
ENDBRANCH  14  15
ENDBRANCH   6  14
TORSDOF 3
ENDMDL
MODEL 2
REMARK VINA RESULT:      -5.7      2.226      6.388
REMARK  3 active torsions:
REMARK  status: ('A' for Active; 'I' for Inactive)
REMARK    1  A    between atoms: C_3  and  C_4 
REMARK    2  A    between atoms: N_9  and  C_12 
REMARK    3  A    between atoms: C_10  and  C_12 
ROOT
HETATM    1  C   UNL     1      79.285  11.956  21.204  1.00  0.00    -0.009 A 
HETATM    2  C   UNL     1      79.895  11.005  20.366  1.00  0.00     0.014 A 
HETATM    3  C   UNL     1      77.939  12.268  20.941  1.00  0.00     0.014 A 
HETATM    4  C   UNL     1      77.235  11.656  19.898  1.00  0.00     0.010 A 
HETATM    5  C   UNL     1      79.197  10.398  19.313  1.00  0.00     0.010 A 
HETATM    6  C   UNL     1      77.860  10.722  19.063  1.00  0.00    -0.033 A 
ENDROOT
BRANCH   1   7
HETATM    7  C   UNL     1      80.041  12.609  22.294  1.00  0.00     0.042 A 
HETATM    8  N   UNL     1      81.322  12.961  22.002  1.00  0.00    -0.365 N 
HETATM    9  C   UNL     1      82.039  13.595  22.955  1.00  0.00     0.088 A 
ATOM     10  HN  UNL     1      81.728  12.753  21.090  1.00  0.00     0.165 HD
HETATM   11  C   UNL     1      81.552  13.900  24.213  1.00  0.00     0.017 A 
HETATM   12  C   UNL     1      80.254  13.522  24.516  1.00  0.00     0.004 A 
HETATM   13  C   UNL     1      79.490  12.867  23.551  1.00  0.00     0.030 A 
ENDBRANCH   1   7
BRANCH   6  14
HETATM   14  C   UNL     1      77.105  10.079  17.922  1.00  0.00     0.270 C 
BRANCH  14  15
HETATM   15  N   UNL     1      77.723   8.817  17.515  1.00  0.00    -0.075 N 
HETATM   16  C   UNL     1      76.866   7.686  17.831  1.00  0.00     0.267 C 
HETATM   17  H   UNL     1      78.611   8.709  18.004  1.00  0.00     0.277 HD
HETATM   18  H   UNL     1      77.868   8.840  16.505  1.00  0.00     0.277 HD
ENDBRANCH  14  15
ENDBRANCH   6  14
TORSDOF 3
ENDMDL
MODEL 3
REMARK VINA RESULT:      -5.6     18.694     22.242
REMARK  3 active torsions:
REMARK  status: ('A' for Active; 'I' for Inactive)
REMARK    1  A    between atoms: C_3  and  C_4 
REMARK    2  A    between atoms: N_9  and  C_12 
REMARK    3  A    between atoms: C_10  and  C_12 
ROOT
HETATM    1  C   UNL     1      65.049   7.953   5.495  1.00  0.00    -0.009 A 
HETATM    2  C   UNL     1      64.790   7.072   6.561  1.00  0.00     0.014 A 
HETATM    3  C   UNL     1      66.357   7.960   4.977  1.00  0.00     0.014 A 
HETATM    4  C   UNL     1      67.355   7.126   5.494  1.00  0.00     0.010 A 
HETATM    5  C   UNL     1      65.788   6.243   7.089  1.00  0.00     0.010 A 
HETATM    6  C   UNL     1      67.084   6.265   6.565  1.00  0.00    -0.033 A 
ENDROOT
BRANCH   1   7
HETATM    7  C   UNL     1      63.993   8.842   4.965  1.00  0.00     0.042 A 
HETATM    8  N   UNL     1      63.749   9.970   5.685  1.00  0.00    -0.365 N 
HETATM    9  C   UNL     1      62.819  10.832   5.218  1.00  0.00     0.088 A 
ATOM     10  HN  UNL     1      64.253  10.159   6.551  1.00  0.00     0.165 HD
HETATM   11  C   UNL     1      62.094  10.632   4.057  1.00  0.00     0.017 A 
HETATM   12  C   UNL     1      62.330   9.473   3.336  1.00  0.00     0.004 A 
HETATM   13  C   UNL     1      63.285   8.566   3.794  1.00  0.00     0.030 A 
ENDBRANCH   1   7
BRANCH   6  14
HETATM   14  C   UNL     1      68.168   5.381   7.138  1.00  0.00     0.270 C 
BRANCH  14  15
HETATM   15  N   UNL     1      68.616   5.860   8.446  1.00  0.00    -0.075 N 
HETATM   16  C   UNL     1      68.790   4.759   9.378  1.00  0.00     0.267 C 
HETATM   17  H   UNL     1      67.920   6.506   8.819  1.00  0.00     0.277 HD
HETATM   18  H   UNL     1      69.514   6.328   8.327  1.00  0.00     0.277 HD
ENDBRANCH  14  15
ENDBRANCH   6  14
TORSDOF 3
ENDMDL
MODEL 4
REMARK VINA RESULT:      -5.5     18.188     20.454
REMARK  3 active torsions:
REMARK  status: ('A' for Active; 'I' for Inactive)
REMARK    1  A    between atoms: C_3  and  C_4 
REMARK    2  A    between atoms: N_9  and  C_12 
REMARK    3  A    between atoms: C_10  and  C_12 
ROOT
HETATM    1  C   UNL     1      66.840   6.105   7.290  1.00  0.00    -0.009 A 
HETATM    2  C   UNL     1      67.223   6.480   8.590  1.00  0.00     0.014 A 
HETATM    3  C   UNL     1      67.543   5.040   6.698  1.00  0.00     0.014 A 
HETATM    4  C   UNL     1      68.575   4.378   7.374  1.00  0.00     0.010 A 
HETATM    5  C   UNL     1      68.263   5.828   9.266  1.00  0.00     0.010 A 
HETATM    6  C   UNL     1      68.955   4.773   8.663  1.00  0.00    -0.033 A 
ENDROOT
BRANCH   1   7
HETATM    7  C   UNL     1      65.759   6.820   6.577  1.00  0.00     0.042 A 
HETATM    8  N   UNL     1      64.492   6.408   6.849  1.00  0.00    -0.365 N 
HETATM    9  C   UNL     1      63.470   7.058   6.251  1.00  0.00     0.088 A 
ATOM     10  HN  UNL     1      64.319   5.631   7.487  1.00  0.00     0.165 HD
HETATM   11  C   UNL     1      63.636   8.112   5.370  1.00  0.00     0.017 A 
HETATM   12  C   UNL     1      64.928   8.518   5.079  1.00  0.00     0.004 A 
HETATM   13  C   UNL     1      66.002   7.866   5.683  1.00  0.00     0.030 A 
ENDBRANCH   1   7
BRANCH   6  14
HETATM   14  C   UNL     1      70.085   4.073   9.384  1.00  0.00     0.270 C 
BRANCH  14  15
HETATM   15  N   UNL     1      69.613   3.399  10.593  1.00  0.00    -0.075 N 
HETATM   16  C   UNL     1      69.300   2.004  10.330  1.00  0.00     0.267 C 
HETATM   17  H   UNL     1      68.774   3.871  10.931  1.00  0.00     0.277 HD
HETATM   18  H   UNL     1      70.354   3.437  11.293  1.00  0.00     0.277 HD
ENDBRANCH  14  15
ENDBRANCH   6  14
TORSDOF 3
ENDMDL
MODEL 5
REMARK VINA RESULT:      -5.3     18.619     21.464
REMARK  3 active torsions:
REMARK  status: ('A' for Active; 'I' for Inactive)
REMARK    1  A    between atoms: C_3  and  C_4 
REMARK    2  A    between atoms: N_9  and  C_12 
REMARK    3  A    between atoms: C_10  and  C_12 
ROOT
HETATM    1  C   UNL     1      67.062   5.929   7.364  1.00  0.00    -0.009 A 
HETATM    2  C   UNL     1      65.673   6.018   7.567  1.00  0.00     0.014 A 
HETATM    3  C   UNL     1      67.612   6.734   6.350  1.00  0.00     0.014 A 
HETATM    4  C   UNL     1      66.815   7.589   5.580  1.00  0.00     0.010 A 
HETATM    5  C   UNL     1      64.869   6.865   6.791  1.00  0.00     0.010 A 
HETATM    6  C   UNL     1      65.431   7.656   5.785  1.00  0.00    -0.033 A 
ENDROOT
BRANCH   1   7
HETATM    7  C   UNL     1      67.894   5.011   8.171  1.00  0.00     0.042 A 
HETATM    8  N   UNL     1      67.273   3.889   8.624  1.00  0.00    -0.365 N 
HETATM    9  C   UNL     1      68.004   3.001   9.333  1.00  0.00     0.088 A 
ATOM     10  HN  UNL     1      66.286   3.722   8.432  1.00  0.00     0.165 HD
HETATM   11  C   UNL     1      69.344   3.170   9.635  1.00  0.00     0.017 A 
HETATM   12  C   UNL     1      69.969   4.323   9.190  1.00  0.00     0.004 A 
HETATM   13  C   UNL     1      69.239   5.256   8.455  1.00  0.00     0.030 A 
ENDBRANCH   1   7
BRANCH   6  14
HETATM   14  C   UNL     1      64.568   8.564   4.937  1.00  0.00     0.270 C 
BRANCH  14  15
HETATM   15  N   UNL     1      63.385   9.015   5.670  1.00  0.00    -0.075 N 
HETATM   16  C   UNL     1      63.002  10.359   5.271  1.00  0.00     0.267 C 
HETATM   17  H   UNL     1      63.591   9.010   6.669  1.00  0.00     0.277 HD
HETATM   18  H   UNL     1      62.614   8.382   5.458  1.00  0.00     0.277 HD
ENDBRANCH  14  15
ENDBRANCH   6  14
TORSDOF 3
ENDMDL
MODEL 6
REMARK VINA RESULT:      -5.3      1.958      2.328
REMARK  3 active torsions:
REMARK  status: ('A' for Active; 'I' for Inactive)
REMARK    1  A    between atoms: C_3  and  C_4 
REMARK    2  A    between atoms: N_9  and  C_12 
REMARK    3  A    between atoms: C_10  and  C_12 
ROOT
HETATM    1  C   UNL     1      79.204  12.052  21.259  1.00  0.00    -0.009 A 
HETATM    2  C   UNL     1      78.539  12.934  22.129  1.00  0.00     0.014 A 
HETATM    3  C   UNL     1      80.553  11.770  21.543  1.00  0.00     0.014 A 
HETATM    4  C   UNL     1      81.203  12.337  22.645  1.00  0.00     0.010 A 
HETATM    5  C   UNL     1      79.190  13.514  23.228  1.00  0.00     0.010 A 
HETATM    6  C   UNL     1      80.532  13.226  23.494  1.00  0.00    -0.033 A 
ENDROOT
BRANCH   1   7
HETATM    7  C   UNL     1      78.513  11.469  20.088  1.00  0.00     0.042 A 
HETATM    8  N   UNL     1      79.044  10.318  19.597  1.00  0.00    -0.365 N 
HETATM    9  C   UNL     1      78.423   9.728  18.552  1.00  0.00     0.088 A 
ATOM     10  HN  UNL     1      79.885   9.911  20.006  1.00  0.00     0.165 HD
HETATM   11  C   UNL     1      77.286  10.231  17.945  1.00  0.00     0.017 A 
HETATM   12  C   UNL     1      76.759  11.415  18.435  1.00  0.00     0.004 A 
HETATM   13  C   UNL     1      77.378  12.044  19.514  1.00  0.00     0.030 A 
ENDBRANCH   1   7
BRANCH   6  14
HETATM   14  C   UNL     1      81.242  13.857  24.671  1.00  0.00     0.270 C 
BRANCH  14  15
HETATM   15  N   UNL     1      82.208  14.864  24.236  1.00  0.00    -0.075 N 
HETATM   16  C   UNL     1      82.266  15.976  25.171  1.00  0.00     0.267 C 
HETATM   17  H   UNL     1      81.933  15.214  23.318  1.00  0.00     0.277 HD
HETATM   18  H   UNL     1      83.130  14.429  24.194  1.00  0.00     0.277 HD
ENDBRANCH  14  15
ENDBRANCH   6  14
TORSDOF 3
ENDMDL
MODEL 7
REMARK VINA RESULT:      -5.3     19.417     23.539
REMARK  3 active torsions:
REMARK  status: ('A' for Active; 'I' for Inactive)
REMARK    1  A    between atoms: C_3  and  C_4 
REMARK    2  A    between atoms: N_9  and  C_12 
REMARK    3  A    between atoms: C_10  and  C_12 
ROOT
HETATM    1  C   UNL     1      63.640   8.396   4.828  1.00  0.00    -0.009 A 
HETATM    2  C   UNL     1      65.012   8.588   5.068  1.00  0.00     0.014 A 
HETATM    3  C   UNL     1      63.002   7.374   5.554  1.00  0.00     0.014 A 
HETATM    4  C   UNL     1      63.698   6.587   6.478  1.00  0.00     0.010 A 
HETATM    5  C   UNL     1      65.717   7.795   5.984  1.00  0.00     0.010 A 
HETATM    6  C   UNL     1      65.068   6.781   6.695  1.00  0.00    -0.033 A 
ENDROOT
BRANCH   1   7
HETATM    7  C   UNL     1      62.915   9.223   3.839  1.00  0.00     0.042 A 
HETATM    8  N   UNL     1      62.527  10.455   4.263  1.00  0.00    -0.365 N 
HETATM    9  C   UNL     1      61.896  11.260   3.381  1.00  0.00     0.088 A 
ATOM     10  HN  UNL     1      62.708  10.762   5.218  1.00  0.00     0.165 HD
HETATM   11  C   UNL     1      61.612  10.903   2.075  1.00  0.00     0.017 A 
HETATM   12  C   UNL     1      61.990   9.640   1.651  1.00  0.00     0.004 A 
HETATM   13  C   UNL     1      62.644   8.788   2.540  1.00  0.00     0.030 A 
ENDBRANCH   1   7
BRANCH   6  14
HETATM   14  C   UNL     1      65.826   5.914   7.676  1.00  0.00     0.270 C 
BRANCH  14  15
HETATM   15  N   UNL     1      67.210   6.360   7.827  1.00  0.00    -0.075 N 
HETATM   16  C   UNL     1      67.745   5.985   9.126  1.00  0.00     0.267 C 
HETATM   17  H   UNL     1      67.244   7.376   7.733  1.00  0.00     0.277 HD
HETATM   18  H   UNL     1      67.774   5.913   7.104  1.00  0.00     0.277 HD
ENDBRANCH  14  15
ENDBRANCH   6  14
TORSDOF 3
ENDMDL
MODEL 8
REMARK VINA RESULT:      -5.1     18.538     20.186
REMARK  3 active torsions:
REMARK  status: ('A' for Active; 'I' for Inactive)
REMARK    1  A    between atoms: C_3  and  C_4 
REMARK    2  A    between atoms: N_9  and  C_12 
REMARK    3  A    between atoms: C_10  and  C_12 
ROOT
HETATM    1  C   UNL     1      68.144   4.711   7.444  1.00  0.00    -0.009 A 
HETATM    2  C   UNL     1      68.598   5.123   8.710  1.00  0.00     0.014 A 
HETATM    3  C   UNL     1      68.132   3.328   7.189  1.00  0.00     0.014 A 
HETATM    4  C   UNL     1      68.546   2.402   8.153  1.00  0.00     0.010 A 
HETATM    5  C   UNL     1      69.025   4.200   9.675  1.00  0.00     0.010 A 
HETATM    6  C   UNL     1      69.009   2.828   9.404  1.00  0.00    -0.033 A 
ENDROOT
BRANCH   1   7
HETATM    7  C   UNL     1      67.723   5.698   6.427  1.00  0.00     0.042 A 
HETATM    8  N   UNL     1      67.719   6.998   6.824  1.00  0.00    -0.365 N 
HETATM    9  C   UNL     1      67.378   7.939   5.917  1.00  0.00     0.088 A 
ATOM     10  HN  UNL     1      67.966   7.255   7.780  1.00  0.00     0.165 HD
HETATM   11  C   UNL     1      67.024   7.659   4.609  1.00  0.00     0.017 A 
HETATM   12  C   UNL     1      67.010   6.332   4.211  1.00  0.00     0.004 A 
HETATM   13  C   UNL     1      67.358   5.340   5.127  1.00  0.00     0.030 A 
ENDBRANCH   1   7
BRANCH   6  14
HETATM   14  C   UNL     1      69.479   1.828  10.436  1.00  0.00     0.270 C 
BRANCH  14  15
HETATM   15  N   UNL     1      70.824   1.339  10.135  1.00  0.00    -0.075 N 
HETATM   16  C   UNL     1      70.810  -0.081   9.824  1.00  0.00     0.267 C 
HETATM   17  H   UNL     1      71.424   1.497  10.945  1.00  0.00     0.277 HD
HETATM   18  H   UNL     1      71.176   1.844   9.322  1.00  0.00     0.277 HD
ENDBRANCH  14  15
ENDBRANCH   6  14
TORSDOF 3
ENDMDL
MODEL 9
REMARK VINA RESULT:      -5.1     10.246     12.024
REMARK  3 active torsions:
REMARK  status: ('A' for Active; 'I' for Inactive)
REMARK    1  A    between atoms: C_3  and  C_4 
REMARK    2  A    between atoms: N_9  and  C_12 
REMARK    3  A    between atoms: C_10  and  C_12 
ROOT
HETATM    1  C   UNL     1      77.456   1.550  18.414  1.00  0.00    -0.009 A 
HETATM    2  C   UNL     1      77.320   0.252  17.888  1.00  0.00     0.014 A 
HETATM    3  C   UNL     1      78.330   1.708  19.504  1.00  0.00     0.014 A 
HETATM    4  C   UNL     1      79.038   0.626  20.039  1.00  0.00     0.010 A 
HETATM    5  C   UNL     1      78.018  -0.837  18.427  1.00  0.00     0.010 A 
HETATM    6  C   UNL     1      78.881  -0.663  19.514  1.00  0.00    -0.033 A 
ENDROOT
BRANCH   1   7
HETATM    7  C   UNL     1      76.692   2.685  17.852  1.00  0.00     0.042 A 
HETATM    8  N   UNL     1      77.273   3.908  17.969  1.00  0.00    -0.365 N 
HETATM    9  C   UNL     1      76.630   4.970  17.436  1.00  0.00     0.088 A 
ATOM     10  HN  UNL     1      78.168   4.021  18.444  1.00  0.00     0.165 HD
HETATM   11  C   UNL     1      75.411   4.888  16.786  1.00  0.00     0.017 A 
HETATM   12  C   UNL     1      74.811   3.644  16.686  1.00  0.00     0.004 A 
HETATM   13  C   UNL     1      75.453   2.530  17.226  1.00  0.00     0.030 A 
ENDBRANCH   1   7
BRANCH   6  14
HETATM   14  C   UNL     1      79.628  -1.836  20.107  1.00  0.00     0.270 C 
BRANCH  14  15
HETATM   15  N   UNL     1      80.757  -1.394  20.925  1.00  0.00    -0.075 N 
HETATM   16  C   UNL     1      81.504  -2.526  21.446  1.00  0.00     0.267 C 
HETATM   17  H   UNL     1      80.404  -0.839  21.706  1.00  0.00     0.277 HD
HETATM   18  H   UNL     1      81.380  -0.836  20.341  1.00  0.00     0.277 HD
ENDBRANCH  14  15
ENDBRANCH   6  14
TORSDOF 3
ENDMDL
