MODEL 1
REMARK VINA RESULT:      -6.0      0.000      0.000
REMARK  1 active torsions:
REMARK  status: ('A' for Active; 'I' for Inactive)
REMARK    1  A    between atoms: C_6  and  C_7 
ROOT
HETATM    1  N   UNL     1      77.899  12.781  20.894  1.00  0.00    -0.360 N 
HETATM    2  C   UNL     1      76.936  11.927  19.071  1.00  0.00    -0.007 A 
HETATM    3  C   UNL     1      78.011  11.778  19.952  1.00  0.00     0.044 A 
HETATM    4  C   UNL     1      76.808  13.565  20.625  1.00  0.00     0.091 A 
HETATM    5  C   UNL     1      76.191  13.059  19.503  1.00  0.00     0.031 A 
HETATM    6  C   UNL     1      77.725   9.976  17.854  1.00  0.00     0.041 A 
HETATM    7  C   UNL     1      76.791  11.013  18.007  1.00  0.00     0.032 A 
HETATM    8  C   UNL     1      78.959  10.755  19.806  1.00  0.00     0.031 A 
HETATM    9  C   UNL     1      78.797   9.856  18.744  1.00  0.00     0.021 A 
HETATM   10  C   UNL     1      78.788  12.967  22.018  1.00  0.00     0.155 C 
ENDROOT
BRANCH   6  11
HETATM   11  C   UNL     1      77.534   9.022  16.733  1.00  0.00     0.209 C 
HETATM   12  O   UNL     1      77.732   9.252  15.555  1.00  0.00    -0.644 OA
HETATM   13  O   UNL     1      77.095   7.817  17.144  1.00  0.00    -0.644 OA
ENDBRANCH   6  11
TORSDOF 1
ENDMDL
MODEL 2
REMARK VINA RESULT:      -5.4     20.694     22.480
REMARK  1 active torsions:
REMARK  status: ('A' for Active; 'I' for Inactive)
REMARK    1  A    between atoms: C_6  and  C_7 
ROOT
HETATM    1  N   UNL     1      62.774   6.930   1.366  1.00  0.00    -0.360 N 
HETATM    2  C   UNL     1      62.107   8.945   2.054  1.00  0.00    -0.007 A 
HETATM    3  C   UNL     1      62.846   7.817   2.421  1.00  0.00     0.044 A 
HETATM    4  C   UNL     1      62.000   7.449   0.361  1.00  0.00     0.091 A 
HETATM    5  C   UNL     1      61.576   8.698   0.759  1.00  0.00     0.031 A 
HETATM    6  C   UNL     1      62.685   9.959   4.187  1.00  0.00     0.041 A 
HETATM    7  C   UNL     1      62.026  10.031   2.949  1.00  0.00     0.032 A 
HETATM    8  C   UNL     1      63.500   7.724   3.658  1.00  0.00     0.031 A 
HETATM    9  C   UNL     1      63.409   8.814   4.533  1.00  0.00     0.021 A 
HETATM   10  C   UNL     1      63.436   5.646   1.314  1.00  0.00     0.155 C 
ENDROOT
BRANCH   6  11
HETATM   11  C   UNL     1      62.592  11.126   5.099  1.00  0.00     0.209 C 
HETATM   12  O   UNL     1      63.074  11.203   6.214  1.00  0.00    -0.644 OA
HETATM   13  O   UNL     1      61.890  12.147   4.571  1.00  0.00    -0.644 OA
ENDBRANCH   6  11
TORSDOF 1
ENDMDL
MODEL 3
REMARK VINA RESULT:      -5.2     21.032     22.830
REMARK  1 active torsions:
REMARK  status: ('A' for Active; 'I' for Inactive)
REMARK    1  A    between atoms: C_6  and  C_7 
ROOT
HETATM    1  N   UNL     1      62.551   7.043   0.750  1.00  0.00    -0.360 N 
HETATM    2  C   UNL     1      63.033   7.768   2.805  1.00  0.00    -0.007 A 
HETATM    3  C   UNL     1      62.444   8.132   1.590  1.00  0.00     0.044 A 
HETATM    4  C   UNL     1      63.204   6.018   1.383  1.00  0.00     0.091 A 
HETATM    5  C   UNL     1      63.512   6.438   2.657  1.00  0.00     0.031 A 
HETATM    6  C   UNL     1      62.472   9.965   3.682  1.00  0.00     0.041 A 
HETATM    7  C   UNL     1      63.047   8.697   3.865  1.00  0.00     0.032 A 
HETATM    8  C   UNL     1      61.875   9.399   1.388  1.00  0.00     0.031 A 
HETATM    9  C   UNL     1      61.898  10.307   2.453  1.00  0.00     0.021 A 
HETATM   10  C   UNL     1      62.031   6.979  -0.597  1.00  0.00     0.155 C 
ENDROOT
BRANCH   6  11
HETATM   11  C   UNL     1      62.489  10.914   4.823  1.00  0.00     0.209 C 
HETATM   12  O   UNL     1      62.943  10.694   5.931  1.00  0.00    -0.644 OA
HETATM   13  O   UNL     1      61.926  12.100   4.523  1.00  0.00    -0.644 OA
ENDBRANCH   6  11
TORSDOF 1
ENDMDL
MODEL 4
REMARK VINA RESULT:      -5.1      2.927      4.482
REMARK  1 active torsions:
REMARK  status: ('A' for Active; 'I' for Inactive)
REMARK    1  A    between atoms: C_6  and  C_7 
ROOT
HETATM    1  N   UNL     1      80.323  12.349  24.219  1.00  0.00    -0.360 N 
HETATM    2  C   UNL     1      79.881  12.793  22.077  1.00  0.00    -0.007 A 
HETATM    3  C   UNL     1      79.358  12.221  23.240  1.00  0.00     0.044 A 
HETATM    4  C   UNL     1      81.439  12.959  23.708  1.00  0.00     0.091 A 
HETATM    5  C   UNL     1      81.193  13.247  22.384  1.00  0.00     0.031 A 
HETATM    6  C   UNL     1      77.797  12.269  20.939  1.00  0.00     0.041 A 
HETATM    7  C   UNL     1      79.089  12.817  20.910  1.00  0.00     0.032 A 
HETATM    8  C   UNL     1      78.073  11.659  23.283  1.00  0.00     0.031 A 
HETATM    9  C   UNL     1      77.302  11.694  22.114  1.00  0.00     0.021 A 
HETATM   10  C   UNL     1      80.174  11.924  25.592  1.00  0.00     0.155 C 
ENDROOT
BRANCH   6  11
HETATM   11  C   UNL     1      76.984  12.325  19.699  1.00  0.00     0.209 C 
HETATM   12  O   UNL     1      75.919  12.899  19.566  1.00  0.00    -0.644 OA
HETATM   13  O   UNL     1      77.544  11.650  18.677  1.00  0.00    -0.644 OA
ENDBRANCH   6  11
TORSDOF 1
ENDMDL
MODEL 5
REMARK VINA RESULT:      -4.9     15.191     16.713
REMARK  1 active torsions:
REMARK  status: ('A' for Active; 'I' for Inactive)
REMARK    1  A    between atoms: C_6  and  C_7 
ROOT
HETATM    1  N   UNL     1      68.899   3.572   8.721  1.00  0.00    -0.360 N 
HETATM    2  C   UNL     1      67.932   4.530   6.952  1.00  0.00    -0.007 A 
HETATM    3  C   UNL     1      68.211   4.697   8.312  1.00  0.00     0.044 A 
HETATM    4  C   UNL     1      69.042   2.697   7.677  1.00  0.00     0.091 A 
HETATM    5  C   UNL     1      68.456   3.265   6.568  1.00  0.00     0.031 A 
HETATM    6  C   UNL     1      66.856   6.710   6.953  1.00  0.00     0.041 A 
HETATM    7  C   UNL     1      67.246   5.550   6.264  1.00  0.00     0.032 A 
HETATM    8  C   UNL     1      67.819   5.844   9.018  1.00  0.00     0.031 A 
HETATM    9  C   UNL     1      67.139   6.847   8.316  1.00  0.00     0.021 A 
HETATM   10  C   UNL     1      69.415   3.355  10.054  1.00  0.00     0.155 C 
ENDROOT
BRANCH   6  11
HETATM   11  C   UNL     1      66.149   7.771   6.195  1.00  0.00     0.209 C 
HETATM   12  O   UNL     1      64.996   8.124   6.361  1.00  0.00    -0.644 OA
HETATM   13  O   UNL     1      66.923   8.343   5.252  1.00  0.00    -0.644 OA
ENDBRANCH   6  11
TORSDOF 1
ENDMDL
MODEL 6
REMARK VINA RESULT:      -4.9     15.567     17.271
REMARK  1 active torsions:
REMARK  status: ('A' for Active; 'I' for Inactive)
REMARK    1  A    between atoms: C_6  and  C_7 
ROOT
HETATM    1  N   UNL     1      68.482   4.325   7.836  1.00  0.00    -0.360 N 
HETATM    2  C   UNL     1      67.341   6.242   7.874  1.00  0.00    -0.007 A 
HETATM    3  C   UNL     1      67.743   5.186   7.051  1.00  0.00     0.044 A 
HETATM    4  C   UNL     1      68.578   4.810   9.113  1.00  0.00     0.091 A 
HETATM    5  C   UNL     1      67.879   5.995   9.167  1.00  0.00     0.031 A 
HETATM    6  C   UNL     1      66.176   7.216   5.976  1.00  0.00     0.041 A 
HETATM    7  C   UNL     1      66.547   7.271   7.329  1.00  0.00     0.032 A 
HETATM    8  C   UNL     1      67.391   5.122   5.694  1.00  0.00     0.031 A 
HETATM    9  C   UNL     1      66.601   6.153   5.172  1.00  0.00     0.021 A 
HETATM   10  C   UNL     1      69.056   3.076   7.386  1.00  0.00     0.155 C 
ENDROOT
BRANCH   6  11
HETATM   11  C   UNL     1      65.326   8.306   5.437  1.00  0.00     0.209 C 
HETATM   12  O   UNL     1      65.249   9.439   5.876  1.00  0.00    -0.644 OA
HETATM   13  O   UNL     1      64.600   7.923   4.369  1.00  0.00    -0.644 OA
ENDBRANCH   6  11
TORSDOF 1
ENDMDL
MODEL 7
REMARK VINA RESULT:      -4.9     19.581     21.170
REMARK  1 active torsions:
REMARK  status: ('A' for Active; 'I' for Inactive)
REMARK    1  A    between atoms: C_6  and  C_7 
ROOT
HETATM    1  N   UNL     1      64.697   5.982   3.035  1.00  0.00    -0.360 N 
HETATM    2  C   UNL     1      63.279   7.706   3.024  1.00  0.00    -0.007 A 
HETATM    3  C   UNL     1      64.367   7.146   3.700  1.00  0.00     0.044 A 
HETATM    4  C   UNL     1      63.844   5.779   1.983  1.00  0.00     0.091 A 
HETATM    5  C   UNL     1      62.957   6.832   1.949  1.00  0.00     0.031 A 
HETATM    6  C   UNL     1      63.307   9.553   4.604  1.00  0.00     0.041 A 
HETATM    7  C   UNL     1      62.742   8.926   3.482  1.00  0.00     0.032 A 
HETATM    8  C   UNL     1      64.936   7.754   4.829  1.00  0.00     0.031 A 
HETATM    9  C   UNL     1      64.388   8.966   5.269  1.00  0.00     0.021 A 
HETATM   10  C   UNL     1      65.797   5.111   3.383  1.00  0.00     0.155 C 
ENDROOT
BRANCH   6  11
HETATM   11  C   UNL     1      62.728  10.843   5.051  1.00  0.00     0.209 C 
HETATM   12  O   UNL     1      62.016  11.577   4.391  1.00  0.00    -0.644 OA
HETATM   13  O   UNL     1      63.075  11.162   6.314  1.00  0.00    -0.644 OA
ENDBRANCH   6  11
TORSDOF 1
ENDMDL
MODEL 8
REMARK VINA RESULT:      -4.8     22.607     23.692
REMARK  1 active torsions:
REMARK  status: ('A' for Active; 'I' for Inactive)
REMARK    1  A    between atoms: C_6  and  C_7 
ROOT
HETATM    1  N   UNL     1      61.118   5.769   1.894  1.00  0.00    -0.360 N 
HETATM    2  C   UNL     1      61.148   7.521   3.276  1.00  0.00    -0.007 A 
HETATM    3  C   UNL     1      61.380   7.122   1.956  1.00  0.00     0.044 A 
HETATM    4  C   UNL     1      60.752   5.299   3.128  1.00  0.00     0.091 A 
HETATM    5  C   UNL     1      60.760   6.362   4.003  1.00  0.00     0.031 A 
HETATM    6  C   UNL     1      61.726   9.795   2.642  1.00  0.00     0.041 A 
HETATM    7  C   UNL     1      61.323   8.876   3.623  1.00  0.00     0.032 A 
HETATM    8  C   UNL     1      61.794   8.026   0.966  1.00  0.00     0.031 A 
HETATM    9  C   UNL     1      61.961   9.368   1.331  1.00  0.00     0.021 A 
HETATM   10  C   UNL     1      61.194   4.963   0.696  1.00  0.00     0.155 C 
ENDROOT
BRANCH   6  11
HETATM   11  C   UNL     1      61.886  11.217   3.036  1.00  0.00     0.209 C 
HETATM   12  O   UNL     1      61.972  11.639   4.174  1.00  0.00    -0.644 OA
HETATM   13  O   UNL     1      61.924  12.051   1.979  1.00  0.00    -0.644 OA
ENDBRANCH   6  11
TORSDOF 1
ENDMDL
MODEL 9
REMARK VINA RESULT:      -4.8     14.781     16.554
REMARK  1 active torsions:
REMARK  status: ('A' for Active; 'I' for Inactive)
REMARK    1  A    between atoms: C_6  and  C_7 
ROOT
HETATM    1  N   UNL     1      66.439   6.568   5.922  1.00  0.00    -0.360 N 
HETATM    2  C   UNL     1      67.764   4.870   6.504  1.00  0.00    -0.007 A 
HETATM    3  C   UNL     1      67.148   6.032   6.977  1.00  0.00     0.044 A 
HETATM    4  C   UNL     1      66.604   5.800   4.800  1.00  0.00     0.091 A 
HETATM    5  C   UNL     1      67.418   4.740   5.131  1.00  0.00     0.031 A 
HETATM    6  C   UNL     1      68.695   4.516   8.722  1.00  0.00     0.041 A 
HETATM    7  C   UNL     1      68.548   4.101   7.388  1.00  0.00     0.032 A 
HETATM    8  C   UNL     1      67.294   6.466   8.304  1.00  0.00     0.031 A 
HETATM    9  C   UNL     1      68.075   5.688   9.167  1.00  0.00     0.021 A 
HETATM   10  C   UNL     1      65.619   7.757   5.992  1.00  0.00     0.155 C 
ENDROOT
BRANCH   6  11
HETATM   11  C   UNL     1      69.513   3.676   9.631  1.00  0.00     0.209 C 
HETATM   12  O   UNL     1      70.701   3.811   9.856  1.00  0.00    -0.644 OA
HETATM   13  O   UNL     1      68.801   2.693  10.215  1.00  0.00    -0.644 OA
ENDBRANCH   6  11
TORSDOF 1
ENDMDL
