MODEL 1
REMARK VINA RESULT:      -5.8      0.000      0.000
REMARK  4 active torsions:
REMARK  status: ('A' for Active; 'I' for Inactive)
REMARK    1  A    between atoms: C_1  and  C_7 
REMARK    2  A    between atoms: C_2  and  C_8 
REMARK    3  A    between atoms: C_7  and  O_10 
REMARK    4  A    between atoms: O_10  and  C_14 
ROOT
HETATM    1  C   UNL     1      63.808   7.713   5.326  1.00  0.00     0.109 A 
HETATM    2  C   UNL     1      62.641   8.010   4.638  1.00  0.00     0.066 A 
HETATM    3  N   UNL     1      61.590   7.120   4.868  1.00  0.00    -0.352 N 
ATOM      4  HN  UNL     1      60.674   7.177   4.422  1.00  0.00     0.166 HD
HETATM    5  S   UNL     1      63.552   6.307   6.298  1.00  0.00    -0.069 SA
HETATM    6  C   UNL     1      61.943   6.202   5.736  1.00  0.00     0.048 A 
HETATM    7  C   UNL     1      61.047   5.127   6.238  1.00  0.00     0.076 C 
ENDROOT
BRANCH   2   8
HETATM    8  C   UNL     1      62.404   9.151   3.749  1.00  0.00    -0.008 A 
HETATM    9  C   UNL     1      62.310   8.928   2.366  1.00  0.00     0.014 A 
HETATM   10  C   UNL     1      62.012   9.972   1.484  1.00  0.00     0.001 A 
HETATM   11  C   UNL     1      61.807  11.258   1.975  1.00  0.00     0.000 A 
HETATM   12  C   UNL     1      61.896  11.498   3.344  1.00  0.00     0.001 A 
HETATM   13  C   UNL     1      62.179  10.450   4.225  1.00  0.00     0.014 A 
ENDBRANCH   2   8
BRANCH   1  14
HETATM   14  C   UNL     1      65.110   8.344   5.305  1.00  0.00     0.302 C 
HETATM   15  O   UNL     1      65.431   9.361   5.909  1.00  0.00    -0.259 OA
BRANCH  14  16
HETATM   16  O   UNL     1      65.975   7.617   4.536  1.00  0.00    -0.317 OA
BRANCH  16  17
HETATM   17  C   UNL     1      67.357   7.658   4.914  1.00  0.00     0.174 C 
HETATM   18  C   UNL     1      67.650   6.594   5.955  1.00  0.00     0.034 C 
ENDBRANCH  16  17
ENDBRANCH  14  16
ENDBRANCH   1  14
TORSDOF 4
ENDMDL
MODEL 2
REMARK VINA RESULT:      -5.8     18.909     20.624
REMARK  4 active torsions:
REMARK  status: ('A' for Active; 'I' for Inactive)
REMARK    1  A    between atoms: C_1  and  C_7 
REMARK    2  A    between atoms: C_2  and  C_8 
REMARK    3  A    between atoms: C_7  and  O_10 
REMARK    4  A    between atoms: O_10  and  C_14 
ROOT
HETATM    1  C   UNL     1      77.348  12.299  19.354  1.00  0.00     0.109 A 
HETATM    2  C   UNL     1      78.027  11.092  19.280  1.00  0.00     0.066 A 
HETATM    3  N   UNL     1      79.016  10.923  20.251  1.00  0.00    -0.352 N 
ATOM      4  HN  UNL     1      79.626  10.108  20.322  1.00  0.00     0.166 HD
HETATM    5  S   UNL     1      77.955  13.210  20.691  1.00  0.00    -0.069 SA
HETATM    6  C   UNL     1      79.054  11.956  21.058  1.00  0.00     0.048 A 
HETATM    7  C   UNL     1      79.961  12.079  22.230  1.00  0.00     0.076 C 
ENDROOT
BRANCH   2   8
HETATM    8  C   UNL     1      77.789   9.999  18.333  1.00  0.00    -0.008 A 
HETATM    9  C   UNL     1      77.190   8.816  18.795  1.00  0.00     0.014 A 
HETATM   10  C   UNL     1      76.876   7.774  17.917  1.00  0.00     0.001 A 
HETATM   11  C   UNL     1      77.162   7.900  16.560  1.00  0.00     0.000 A 
HETATM   12  C   UNL     1      77.756   9.066  16.084  1.00  0.00     0.001 A 
HETATM   13  C   UNL     1      78.055  10.113  16.961  1.00  0.00     0.014 A 
ENDBRANCH   2   8
BRANCH   1  14
HETATM   14  C   UNL     1      76.320  12.864  18.507  1.00  0.00     0.302 C 
HETATM   15  O   UNL     1      75.115  12.669  18.604  1.00  0.00    -0.259 OA
BRANCH  14  16
HETATM   16  O   UNL     1      76.879  13.702  17.582  1.00  0.00    -0.317 OA
BRANCH  16  17
HETATM   17  C   UNL     1      76.585  13.425  16.207  1.00  0.00     0.174 C 
HETATM   18  C   UNL     1      77.097  14.545  15.322  1.00  0.00     0.034 C 
ENDBRANCH  16  17
ENDBRANCH  14  16
ENDBRANCH   1  14
TORSDOF 4
ENDMDL
MODEL 3
REMARK VINA RESULT:      -5.5      2.185      4.194
REMARK  4 active torsions:
REMARK  status: ('A' for Active; 'I' for Inactive)
REMARK    1  A    between atoms: C_1  and  C_7 
REMARK    2  A    between atoms: C_2  and  C_8 
REMARK    3  A    between atoms: C_7  and  O_10 
REMARK    4  A    between atoms: O_10  and  C_14 
ROOT
HETATM    1  C   UNL     1      63.081   7.263   5.629  1.00  0.00     0.109 A 
HETATM    2  C   UNL     1      63.607   8.310   4.886  1.00  0.00     0.066 A 
HETATM    3  N   UNL     1      64.965   8.551   5.105  1.00  0.00    -0.352 N 
ATOM      4  HN  UNL     1      65.500   9.298   4.661  1.00  0.00     0.166 HD
HETATM    5  S   UNL     1      64.336   6.563   6.589  1.00  0.00    -0.069 SA
HETATM    6  C   UNL     1      65.457   7.685   5.958  1.00  0.00     0.048 A 
HETATM    7  C   UNL     1      66.883   7.631   6.377  1.00  0.00     0.076 C 
ENDROOT
BRANCH   2   8
HETATM    8  C   UNL     1      62.904   9.136   3.901  1.00  0.00    -0.008 A 
HETATM    9  C   UNL     1      62.487  10.426   4.268  1.00  0.00     0.014 A 
HETATM   10  C   UNL     1      61.878  11.279   3.342  1.00  0.00     0.001 A 
HETATM   11  C   UNL     1      61.673  10.851   2.033  1.00  0.00     0.000 A 
HETATM   12  C   UNL     1      62.080   9.575   1.652  1.00  0.00     0.001 A 
HETATM   13  C   UNL     1      62.703   8.729   2.575  1.00  0.00     0.014 A 
ENDBRANCH   2   8
BRANCH   1  14
HETATM   14  C   UNL     1      61.730   6.755   5.731  1.00  0.00     0.302 C 
HETATM   15  O   UNL     1      60.921   6.665   4.816  1.00  0.00    -0.259 OA
BRANCH  14  16
HETATM   16  O   UNL     1      61.478   6.336   7.008  1.00  0.00    -0.317 OA
BRANCH  16  17
HETATM   17  C   UNL     1      60.363   5.452   7.183  1.00  0.00     0.174 C 
HETATM   18  C   UNL     1      59.334   6.078   8.103  1.00  0.00     0.034 C 
ENDBRANCH  16  17
ENDBRANCH  14  16
ENDBRANCH   1  14
TORSDOF 4
ENDMDL
MODEL 4
REMARK VINA RESULT:      -5.4      2.219      4.119
REMARK  4 active torsions:
REMARK  status: ('A' for Active; 'I' for Inactive)
REMARK    1  A    between atoms: C_1  and  C_7 
REMARK    2  A    between atoms: C_2  and  C_8 
REMARK    3  A    between atoms: C_7  and  O_10 
REMARK    4  A    between atoms: O_10  and  C_14 
ROOT
HETATM    1  C   UNL     1      63.352   7.128   5.709  1.00  0.00     0.109 A 
HETATM    2  C   UNL     1      63.825   8.137   4.884  1.00  0.00     0.066 A 
HETATM    3  N   UNL     1      65.197   8.372   4.984  1.00  0.00    -0.352 N 
ATOM      4  HN  UNL     1      65.702   9.094   4.468  1.00  0.00     0.166 HD
HETATM    5  S   UNL     1      64.673   6.454   6.596  1.00  0.00    -0.069 SA
HETATM    6  C   UNL     1      65.749   7.537   5.832  1.00  0.00     0.048 A 
HETATM    7  C   UNL     1      67.204   7.484   6.139  1.00  0.00     0.076 C 
ENDROOT
BRANCH   2   8
HETATM    8  C   UNL     1      63.052   8.929   3.923  1.00  0.00    -0.008 A 
HETATM    9  C   UNL     1      62.581  10.194   4.308  1.00  0.00     0.014 A 
HETATM   10  C   UNL     1      61.902  11.018   3.404  1.00  0.00     0.001 A 
HETATM   11  C   UNL     1      61.681  10.585   2.100  1.00  0.00     0.000 A 
HETATM   12  C   UNL     1      62.143   9.333   1.700  1.00  0.00     0.001 A 
HETATM   13  C   UNL     1      62.834   8.517   2.601  1.00  0.00     0.014 A 
ENDBRANCH   2   8
BRANCH   1  14
HETATM   14  C   UNL     1      62.009   6.639   5.939  1.00  0.00     0.302 C 
HETATM   15  O   UNL     1      61.387   6.702   6.992  1.00  0.00    -0.259 OA
BRANCH  14  16
HETATM   16  O   UNL     1      61.492   6.120   4.784  1.00  0.00    -0.317 OA
BRANCH  16  17
HETATM   17  C   UNL     1      60.064   6.131   4.661  1.00  0.00     0.174 C 
HETATM   18  C   UNL     1      59.612   7.353   3.886  1.00  0.00     0.034 C 
ENDBRANCH  16  17
ENDBRANCH  14  16
ENDBRANCH   1  14
TORSDOF 4
ENDMDL
MODEL 5
REMARK VINA RESULT:      -5.3     18.636     20.941
REMARK  4 active torsions:
REMARK  status: ('A' for Active; 'I' for Inactive)
REMARK    1  A    between atoms: C_1  and  C_7 
REMARK    2  A    between atoms: C_2  and  C_8 
REMARK    3  A    between atoms: C_7  and  O_10 
REMARK    4  A    between atoms: O_10  and  C_14 
ROOT
HETATM    1  C   UNL     1      75.522   2.242  17.596  1.00  0.00     0.109 A 
HETATM    2  C   UNL     1      76.836   2.349  18.027  1.00  0.00     0.066 A 
HETATM    3  N   UNL     1      77.396   3.619  17.873  1.00  0.00    -0.352 N 
ATOM      4  HN  UNL     1      78.357   3.863  18.113  1.00  0.00     0.166 HD
HETATM    5  S   UNL     1      74.988   3.781  17.019  1.00  0.00    -0.069 SA
HETATM    6  C   UNL     1      76.515   4.455  17.376  1.00  0.00     0.048 A 
HETATM    7  C   UNL     1      76.769   5.900  17.129  1.00  0.00     0.076 C 
ENDROOT
BRANCH   2   8
HETATM    8  C   UNL     1      77.654   1.299  18.642  1.00  0.00    -0.008 A 
HETATM    9  C   UNL     1      78.339   1.581  19.834  1.00  0.00     0.014 A 
HETATM   10  C   UNL     1      79.073   0.592  20.497  1.00  0.00     0.001 A 
HETATM   11  C   UNL     1      79.135  -0.695  19.972  1.00  0.00     0.000 A 
HETATM   12  C   UNL     1      78.462  -0.993  18.790  1.00  0.00     0.001 A 
HETATM   13  C   UNL     1      77.716  -0.007  18.137  1.00  0.00     0.014 A 
ENDBRANCH   2   8
BRANCH   1  14
HETATM   14  C   UNL     1      74.634   1.102  17.530  1.00  0.00     0.302 C 
HETATM   15  O   UNL     1      74.277   0.521  16.512  1.00  0.00    -0.259 OA
BRANCH  14  16
HETATM   16  O   UNL     1      74.265   0.718  18.789  1.00  0.00    -0.317 OA
BRANCH  16  17
HETATM   17  C   UNL     1      74.458  -0.664  19.119  1.00  0.00     0.174 C 
HETATM   18  C   UNL     1      73.125  -1.385  19.172  1.00  0.00     0.034 C 
ENDBRANCH  16  17
ENDBRANCH  14  16
ENDBRANCH   1  14
TORSDOF 4
ENDMDL
MODEL 6
REMARK VINA RESULT:      -4.9      2.012      2.443
REMARK  4 active torsions:
REMARK  status: ('A' for Active; 'I' for Inactive)
REMARK    1  A    between atoms: C_1  and  C_7 
REMARK    2  A    between atoms: C_2  and  C_8 
REMARK    3  A    between atoms: C_7  and  O_10 
REMARK    4  A    between atoms: O_10  and  C_14 
ROOT
HETATM    1  C   UNL     1      61.356   6.753   5.231  1.00  0.00     0.109 A 
HETATM    2  C   UNL     1      60.852   7.267   4.046  1.00  0.00     0.066 A 
HETATM    3  N   UNL     1      59.733   6.594   3.551  1.00  0.00    -0.352 N 
ATOM      4  HN  UNL     1      59.255   6.825   2.679  1.00  0.00     0.166 HD
HETATM    5  S   UNL     1      60.376   5.421   5.734  1.00  0.00    -0.069 SA
HETATM    6  C   UNL     1      59.380   5.625   4.362  1.00  0.00     0.048 A 
HETATM    7  C   UNL     1      58.202   4.741   4.158  1.00  0.00     0.076 C 
ENDROOT
BRANCH   2   8
HETATM    8  C   UNL     1      61.345   8.433   3.307  1.00  0.00    -0.008 A 
HETATM    9  C   UNL     1      61.580   8.314   1.928  1.00  0.00     0.014 A 
HETATM   10  C   UNL     1      61.980   9.416   1.165  1.00  0.00     0.001 A 
HETATM   11  C   UNL     1      62.156  10.655   1.775  1.00  0.00     0.000 A 
HETATM   12  C   UNL     1      61.926  10.791   3.142  1.00  0.00     0.001 A 
HETATM   13  C   UNL     1      61.511   9.692   3.899  1.00  0.00     0.014 A 
ENDBRANCH   2   8
BRANCH   1  14
HETATM   14  C   UNL     1      62.518   7.124   6.010  1.00  0.00     0.302 C 
HETATM   15  O   UNL     1      62.517   7.793   7.035  1.00  0.00    -0.259 OA
BRANCH  14  16
HETATM   16  O   UNL     1      63.646   6.580   5.462  1.00  0.00    -0.317 OA
BRANCH  16  17
HETATM   17  C   UNL     1      64.880   7.255   5.737  1.00  0.00     0.174 C 
HETATM   18  C   UNL     1      65.032   8.464   4.834  1.00  0.00     0.034 C 
ENDBRANCH  16  17
ENDBRANCH  14  16
ENDBRANCH   1  14
TORSDOF 4
ENDMDL
MODEL 7
REMARK VINA RESULT:      -4.9      3.421      7.160
REMARK  4 active torsions:
REMARK  status: ('A' for Active; 'I' for Inactive)
REMARK    1  A    between atoms: C_1  and  C_7 
REMARK    2  A    between atoms: C_2  and  C_8 
REMARK    3  A    between atoms: C_7  and  O_10 
REMARK    4  A    between atoms: O_10  and  C_14 
ROOT
HETATM    1  C   UNL     1      66.482   6.449   5.573  1.00  0.00     0.109 A 
HETATM    2  C   UNL     1      67.216   5.309   5.861  1.00  0.00     0.066 A 
HETATM    3  N   UNL     1      67.488   4.500   4.756  1.00  0.00    -0.352 N 
ATOM      4  HN  UNL     1      67.993   3.614   4.795  1.00  0.00     0.166 HD
HETATM    5  S   UNL     1      66.164   6.506   3.876  1.00  0.00    -0.069 SA
HETATM    6  C   UNL     1      67.007   5.037   3.660  1.00  0.00     0.048 A 
HETATM    7  C   UNL     1      67.161   4.459   2.298  1.00  0.00     0.076 C 
ENDROOT
BRANCH   2   8
HETATM    8  C   UNL     1      67.746   4.902   7.166  1.00  0.00    -0.008 A 
HETATM    9  C   UNL     1      67.319   3.687   7.725  1.00  0.00     0.014 A 
HETATM   10  C   UNL     1      67.850   3.222   8.933  1.00  0.00     0.001 A 
HETATM   11  C   UNL     1      68.815   3.969   9.601  1.00  0.00     0.000 A 
HETATM   12  C   UNL     1      69.250   5.177   9.061  1.00  0.00     0.001 A 
HETATM   13  C   UNL     1      68.729   5.633   7.846  1.00  0.00     0.014 A 
ENDBRANCH   2   8
BRANCH   1  14
HETATM   14  C   UNL     1      65.955   7.483   6.438  1.00  0.00     0.302 C 
HETATM   15  O   UNL     1      66.327   8.650   6.480  1.00  0.00    -0.259 OA
BRANCH  14  16
HETATM   16  O   UNL     1      64.930   6.988   7.195  1.00  0.00    -0.317 OA
BRANCH  16  17
HETATM   17  C   UNL     1      63.783   6.505   6.483  1.00  0.00     0.174 C 
HETATM   18  C   UNL     1      62.916   7.665   6.031  1.00  0.00     0.034 C 
ENDBRANCH  16  17
ENDBRANCH  14  16
ENDBRANCH   1  14
TORSDOF 4
ENDMDL
MODEL 8
REMARK VINA RESULT:      -4.7      3.238      5.594
REMARK  4 active torsions:
REMARK  status: ('A' for Active; 'I' for Inactive)
REMARK    1  A    between atoms: C_1  and  C_7 
REMARK    2  A    between atoms: C_2  and  C_8 
REMARK    3  A    between atoms: C_7  and  O_10 
REMARK    4  A    between atoms: O_10  and  C_14 
ROOT
HETATM    1  C   UNL     1      64.607   6.744   5.829  1.00  0.00     0.109 A 
HETATM    2  C   UNL     1      64.951   5.729   6.709  1.00  0.00     0.066 A 
HETATM    3  N   UNL     1      64.002   4.711   6.820  1.00  0.00    -0.352 N 
ATOM      4  HN  UNL     1      64.085   3.905   7.441  1.00  0.00     0.166 HD
HETATM    5  S   UNL     1      63.076   6.381   5.115  1.00  0.00    -0.069 SA
HETATM    6  C   UNL     1      62.990   4.933   6.016  1.00  0.00     0.048 A 
HETATM    7  C   UNL     1      61.826   4.021   5.852  1.00  0.00     0.076 C 
ENDROOT
BRANCH   2   8
HETATM    8  C   UNL     1      66.191   5.610   7.482  1.00  0.00    -0.008 A 
HETATM    9  C   UNL     1      67.194   4.738   7.028  1.00  0.00     0.014 A 
HETATM   10  C   UNL     1      68.423   4.644   7.690  1.00  0.00     0.001 A 
HETATM   11  C   UNL     1      68.665   5.420   8.820  1.00  0.00     0.000 A 
HETATM   12  C   UNL     1      67.681   6.290   9.284  1.00  0.00     0.001 A 
HETATM   13  C   UNL     1      66.459   6.394   8.612  1.00  0.00     0.014 A 
ENDBRANCH   2   8
BRANCH   1  14
HETATM   14  C   UNL     1      65.281   7.980   5.495  1.00  0.00     0.302 C 
HETATM   15  O   UNL     1      65.327   8.989   6.187  1.00  0.00    -0.259 OA
BRANCH  14  16
HETATM   16  O   UNL     1      65.915   7.861   4.289  1.00  0.00    -0.317 OA
BRANCH  16  17
HETATM   17  C   UNL     1      67.142   7.120   4.282  1.00  0.00     0.174 C 
HETATM   18  C   UNL     1      68.182   7.816   5.139  1.00  0.00     0.034 C 
ENDBRANCH  16  17
ENDBRANCH  14  16
ENDBRANCH   1  14
TORSDOF 4
ENDMDL
MODEL 9
REMARK VINA RESULT:      -4.7      2.410      5.117
REMARK  4 active torsions:
REMARK  status: ('A' for Active; 'I' for Inactive)
REMARK    1  A    between atoms: C_1  and  C_7 
REMARK    2  A    between atoms: C_2  and  C_8 
REMARK    3  A    between atoms: C_7  and  O_10 
REMARK    4  A    between atoms: O_10  and  C_14 
ROOT
HETATM    1  C   UNL     1      62.288   7.478   4.669  1.00  0.00     0.109 A 
HETATM    2  C   UNL     1      63.399   7.516   3.840  1.00  0.00     0.066 A 
HETATM    3  N   UNL     1      63.125   7.871   2.518  1.00  0.00    -0.352 N 
ATOM      4  HN  UNL     1      63.822   7.921   1.774  1.00  0.00     0.166 HD
HETATM    5  S   UNL     1      60.888   7.930   3.761  1.00  0.00    -0.069 SA
HETATM    6  C   UNL     1      61.849   8.132   2.364  1.00  0.00     0.048 A 
HETATM    7  C   UNL     1      61.227   8.586   1.091  1.00  0.00     0.076 C 
ENDROOT
BRANCH   2   8
HETATM    8  C   UNL     1      64.793   7.261   4.216  1.00  0.00    -0.008 A 
HETATM    9  C   UNL     1      65.471   6.183   3.625  1.00  0.00     0.014 A 
HETATM   10  C   UNL     1      66.822   5.942   3.895  1.00  0.00     0.001 A 
HETATM   11  C   UNL     1      67.514   6.777   4.768  1.00  0.00     0.000 A 
HETATM   12  C   UNL     1      66.858   7.851   5.364  1.00  0.00     0.001 A 
HETATM   13  C   UNL     1      65.511   8.099   5.080  1.00  0.00     0.014 A 
ENDBRANCH   2   8
BRANCH   1  14
HETATM   14  C   UNL     1      62.152   7.100   6.059  1.00  0.00     0.302 C 
HETATM   15  O   UNL     1      62.559   7.734   7.024  1.00  0.00    -0.259 OA
BRANCH  14  16
HETATM   16  O   UNL     1      61.452   5.930   6.163  1.00  0.00    -0.317 OA
BRANCH  16  17
HETATM   17  C   UNL     1      60.381   5.908   7.116  1.00  0.00     0.174 C 
HETATM   18  C   UNL     1      60.143   4.493   7.609  1.00  0.00     0.034 C 
ENDBRANCH  16  17
ENDBRANCH  14  16
ENDBRANCH   1  14
TORSDOF 4
ENDMDL
