MODEL 1
REMARK VINA RESULT:      -5.0      0.000      0.000
REMARK  3 active torsions:
REMARK  status: ('A' for Active; 'I' for Inactive)
REMARK    1  A    between atoms: C_1  and  N_2 
REMARK    2  A    between atoms: C_7  and  C_14 
REMARK    3  A    between atoms: O_11  and  C_14 
ROOT
HETATM    1  C   UNL     1      64.579   7.886   4.644  1.00  0.00     0.103 A 
HETATM    2  N   UNL     1      63.845   7.585   3.559  1.00  0.00    -0.352 N 
ATOM      3  HN  UNL     1      64.044   6.756   3.001  1.00  0.00     0.166 HD
HETATM    4  C   UNL     1      64.329   9.042   5.392  1.00  0.00     0.057 A 
HETATM    5  C   UNL     1      63.308   9.918   5.027  1.00  0.00    -0.030 A 
HETATM    6  C   UNL     1      62.832   8.424   3.234  1.00  0.00     0.090 A 
HETATM    7  C   UNL     1      62.530   9.586   3.923  1.00  0.00     0.026 A 
ENDROOT
BRANCH   1   8
HETATM    8  N   UNL     1      65.666   7.117   5.009  1.00  0.00    -0.363 N 
HETATM    9  C   UNL     1      66.490   7.517   6.150  1.00  0.00     0.150 C 
HETATM   10  C   UNL     1      67.159   6.228   6.678  1.00  0.00     0.187 C 
HETATM   11  O   UNL     1      67.928   5.561   5.655  1.00  0.00    -0.388 OA
HETATM   12  C   UNL     1      67.110   5.247   4.514  1.00  0.00     0.187 C 
HETATM   13  C   UNL     1      66.460   6.511   3.933  1.00  0.00     0.150 C 
ENDBRANCH   1   8
BRANCH   5  14
HETATM   14  C   UNL     1      63.096  11.190   5.798  1.00  0.00     0.203 C 
BRANCH  14  15
HETATM   15  O   UNL     1      64.299  11.571   6.449  1.00  0.00    -0.396 OA
HETATM   16  H   UNL     1      65.045  11.460   5.839  1.00  0.00     0.209 HD
ENDBRANCH  14  15
ENDBRANCH   5  14
TORSDOF 3
ENDMDL
MODEL 2
REMARK VINA RESULT:      -5.0     16.409     18.386
REMARK  3 active torsions:
REMARK  status: ('A' for Active; 'I' for Inactive)
REMARK    1  A    between atoms: C_1  and  N_2 
REMARK    2  A    between atoms: C_7  and  C_14 
REMARK    3  A    between atoms: O_11  and  C_14 
ROOT
HETATM    1  C   UNL     1      76.334   2.637  17.850  1.00  0.00     0.103 A 
HETATM    2  N   UNL     1      75.101   2.440  17.354  1.00  0.00    -0.352 N 
ATOM      3  HN  UNL     1      74.668   1.517  17.364  1.00  0.00     0.166 HD
HETATM    4  C   UNL     1      76.943   3.896  17.806  1.00  0.00     0.057 A 
HETATM    5  C   UNL     1      76.282   4.985  17.240  1.00  0.00    -0.030 A 
HETATM    6  C   UNL     1      74.453   3.513  16.839  1.00  0.00     0.090 A 
HETATM    7  C   UNL     1      74.994   4.785  16.757  1.00  0.00     0.026 A 
ENDROOT
BRANCH   1   8
HETATM    8  N   UNL     1      77.084   1.586  18.338  1.00  0.00    -0.363 N 
HETATM    9  C   UNL     1      78.247   1.854  19.185  1.00  0.00     0.150 C 
HETATM   10  C   UNL     1      78.462   0.588  20.046  1.00  0.00     0.187 C 
HETATM   11  O   UNL     1      78.637  -0.593  19.234  1.00  0.00    -0.388 OA
HETATM   12  C   UNL     1      77.513  -0.790  18.357  1.00  0.00     0.187 C 
HETATM   13  C   UNL     1      77.293   0.432  17.454  1.00  0.00     0.150 C 
ENDBRANCH   1   8
BRANCH   5  14
HETATM   14  C   UNL     1      76.975   6.314  17.137  1.00  0.00     0.203 C 
BRANCH  14  15
HETATM   15  O   UNL     1      76.559   7.163  18.197  1.00  0.00    -0.396 OA
HETATM   16  H   UNL     1      75.675   6.899  18.495  1.00  0.00     0.209 HD
ENDBRANCH  14  15
ENDBRANCH   5  14
TORSDOF 3
ENDMDL
MODEL 3
REMARK VINA RESULT:      -5.0      3.870      7.462
REMARK  3 active torsions:
REMARK  status: ('A' for Active; 'I' for Inactive)
REMARK    1  A    between atoms: C_1  and  N_2 
REMARK    2  A    between atoms: C_7  and  C_14 
REMARK    3  A    between atoms: O_11  and  C_14 
ROOT
HETATM    1  C   UNL     1      68.128   5.410   8.279  1.00  0.00     0.103 A 
HETATM    2  N   UNL     1      69.358   5.928   8.119  1.00  0.00    -0.352 N 
ATOM      3  HN  UNL     1      69.503   6.787   7.589  1.00  0.00     0.166 HD
HETATM    4  C   UNL     1      67.930   4.213   8.976  1.00  0.00     0.057 A 
HETATM    5  C   UNL     1      69.010   3.522   9.523  1.00  0.00    -0.030 A 
HETATM    6  C   UNL     1      70.396   5.268   8.685  1.00  0.00     0.090 A 
HETATM    7  C   UNL     1      70.276   4.079   9.383  1.00  0.00     0.026 A 
ENDROOT
BRANCH   1   8
HETATM    8  N   UNL     1      67.025   5.988   7.684  1.00  0.00    -0.363 N 
HETATM    9  C   UNL     1      66.923   7.446   7.602  1.00  0.00     0.150 C 
HETATM   10  C   UNL     1      65.999   7.752   6.401  1.00  0.00     0.187 C 
HETATM   11  O   UNL     1      64.708   7.121   6.539  1.00  0.00    -0.388 OA
HETATM   12  C   UNL     1      64.842   5.697   6.695  1.00  0.00     0.187 C 
HETATM   13  C   UNL     1      65.721   5.351   7.905  1.00  0.00     0.150 C 
ENDBRANCH   1   8
BRANCH   5  14
HETATM   14  C   UNL     1      68.790   2.203  10.209  1.00  0.00     0.203 C 
BRANCH  14  15
HETATM   15  O   UNL     1      69.732   2.037  11.258  1.00  0.00    -0.396 OA
HETATM   16  H   UNL     1      69.263   1.938  12.101  1.00  0.00     0.209 HD
ENDBRANCH  14  15
ENDBRANCH   5  14
TORSDOF 3
ENDMDL
MODEL 4
REMARK VINA RESULT:      -5.0      2.180      2.892
REMARK  3 active torsions:
REMARK  status: ('A' for Active; 'I' for Inactive)
REMARK    1  A    between atoms: C_1  and  N_2 
REMARK    2  A    between atoms: C_7  and  C_14 
REMARK    3  A    between atoms: O_11  and  C_14 
ROOT
HETATM    1  C   UNL     1      64.185   8.907   5.131  1.00  0.00     0.103 A 
HETATM    2  N   UNL     1      63.835  10.049   5.747  1.00  0.00    -0.352 N 
ATOM      3  HN  UNL     1      64.305  10.355   6.598  1.00  0.00     0.166 HD
HETATM    4  C   UNL     1      63.518   8.467   3.982  1.00  0.00     0.057 A 
HETATM    5  C   UNL     1      62.465   9.206   3.445  1.00  0.00    -0.030 A 
HETATM    6  C   UNL     1      62.835  10.778   5.196  1.00  0.00     0.090 A 
HETATM    7  C   UNL     1      62.128  10.403   4.066  1.00  0.00     0.026 A 
ENDROOT
BRANCH   1   8
HETATM    8  N   UNL     1      65.153   8.077   5.660  1.00  0.00    -0.363 N 
HETATM    9  C   UNL     1      66.350   7.764   4.878  1.00  0.00     0.150 C 
HETATM   10  C   UNL     1      67.453   7.398   5.896  1.00  0.00     0.187 C 
HETATM   11  O   UNL     1      67.057   6.303   6.750  1.00  0.00    -0.388 OA
HETATM   12  C   UNL     1      65.836   6.606   7.449  1.00  0.00     0.187 C 
HETATM   13  C   UNL     1      64.702   6.936   6.468  1.00  0.00     0.150 C 
ENDBRANCH   1   8
BRANCH   5  14
HETATM   14  C   UNL     1      61.714   8.687   2.252  1.00  0.00     0.203 C 
BRANCH  14  15
HETATM   15  O   UNL     1      60.942   9.730   1.672  1.00  0.00    -0.396 OA
HETATM   16  H   UNL     1      60.680   9.476   0.774  1.00  0.00     0.209 HD
ENDBRANCH  14  15
ENDBRANCH   5  14
TORSDOF 3
ENDMDL
MODEL 5
REMARK VINA RESULT:      -4.8      1.918      2.248
REMARK  3 active torsions:
REMARK  status: ('A' for Active; 'I' for Inactive)
REMARK    1  A    between atoms: C_1  and  N_2 
REMARK    2  A    between atoms: C_7  and  C_14 
REMARK    3  A    between atoms: O_11  and  C_14 
ROOT
HETATM    1  C   UNL     1      63.318   7.994   5.059  1.00  0.00     0.103 A 
HETATM    2  N   UNL     1      62.434   7.038   4.723  1.00  0.00    -0.352 N 
ATOM      3  HN  UNL     1      62.571   6.069   5.008  1.00  0.00     0.166 HD
HETATM    4  C   UNL     1      63.150   9.318   4.640  1.00  0.00     0.057 A 
HETATM    5  C   UNL     1      62.055   9.682   3.857  1.00  0.00    -0.030 A 
HETATM    6  C   UNL     1      61.355   7.410   3.993  1.00  0.00     0.090 A 
HETATM    7  C   UNL     1      61.126   8.698   3.540  1.00  0.00     0.026 A 
ENDROOT
BRANCH   1   8
HETATM    8  N   UNL     1      64.474   7.688   5.750  1.00  0.00    -0.363 N 
HETATM    9  C   UNL     1      65.773   8.092   5.209  1.00  0.00     0.150 C 
HETATM   10  C   UNL     1      66.734   8.198   6.414  1.00  0.00     0.187 C 
HETATM   11  O   UNL     1      66.810   6.960   7.154  1.00  0.00    -0.388 OA
HETATM   12  C   UNL     1      65.508   6.547   7.609  1.00  0.00     0.187 C 
HETATM   13  C   UNL     1      64.534   6.390   6.432  1.00  0.00     0.150 C 
ENDBRANCH   1   8
BRANCH   5  14
HETATM   14  C   UNL     1      61.924  11.093   3.357  1.00  0.00     0.203 C 
BRANCH  14  15
HETATM   15  O   UNL     1      62.176  12.009   4.413  1.00  0.00    -0.396 OA
HETATM   16  H   UNL     1      61.976  12.910   4.114  1.00  0.00     0.209 HD
ENDBRANCH  14  15
ENDBRANCH   5  14
TORSDOF 3
ENDMDL
MODEL 6
REMARK VINA RESULT:      -4.7     16.939     19.222
REMARK  3 active torsions:
REMARK  status: ('A' for Active; 'I' for Inactive)
REMARK    1  A    between atoms: C_1  and  N_2 
REMARK    2  A    between atoms: C_7  and  C_14 
REMARK    3  A    between atoms: O_11  and  C_14 
ROOT
HETATM    1  C   UNL     1      76.582   1.260  18.241  1.00  0.00     0.103 A 
HETATM    2  N   UNL     1      75.497   0.669  17.712  1.00  0.00    -0.352 N 
ATOM      3  HN  UNL     1      75.339  -0.333  17.813  1.00  0.00     0.166 HD
HETATM    4  C   UNL     1      76.817   2.629  18.075  1.00  0.00     0.057 A 
HETATM    5  C   UNL     1      75.928   3.420  17.350  1.00  0.00    -0.030 A 
HETATM    6  C   UNL     1      74.620   1.453  17.040  1.00  0.00     0.090 A 
HETATM    7  C   UNL     1      74.790   2.812  16.832  1.00  0.00     0.026 A 
ENDROOT
BRANCH   1   8
HETATM    8  N   UNL     1      77.553   0.522  18.889  1.00  0.00    -0.363 N 
HETATM    9  C   UNL     1      78.683   1.204  19.521  1.00  0.00     0.150 C 
HETATM   10  C   UNL     1      79.193   0.263  20.636  1.00  0.00     0.187 C 
HETATM   11  O   UNL     1      79.557  -1.036  20.121  1.00  0.00    -0.388 OA
HETATM   12  C   UNL     1      78.449  -1.651  19.438  1.00  0.00     0.187 C 
HETATM   13  C   UNL     1      77.940  -0.763  18.294  1.00  0.00     0.150 C 
ENDBRANCH   1   8
BRANCH   5  14
HETATM   14  C   UNL     1      76.229   4.874  17.121  1.00  0.00     0.203 C 
BRANCH  14  15
HETATM   15  O   UNL     1      76.416   5.534  18.365  1.00  0.00    -0.396 OA
HETATM   16  H   UNL     1      76.973   6.317  18.235  1.00  0.00     0.209 HD
ENDBRANCH  14  15
ENDBRANCH   5  14
TORSDOF 3
ENDMDL
MODEL 7
REMARK VINA RESULT:      -4.6      4.257      5.840
REMARK  3 active torsions:
REMARK  status: ('A' for Active; 'I' for Inactive)
REMARK    1  A    between atoms: C_1  and  N_2 
REMARK    2  A    between atoms: C_7  and  C_14 
REMARK    3  A    between atoms: O_11  and  C_14 
ROOT
HETATM    1  C   UNL     1      67.675   4.837   8.203  1.00  0.00     0.103 A 
HETATM    2  N   UNL     1      66.619   5.287   8.902  1.00  0.00    -0.352 N 
ATOM      3  HN  UNL     1      66.295   4.804   9.739  1.00  0.00     0.166 HD
HETATM    4  C   UNL     1      68.100   5.480   7.035  1.00  0.00     0.057 A 
HETATM    5  C   UNL     1      67.434   6.609   6.563  1.00  0.00    -0.030 A 
HETATM    6  C   UNL     1      66.001   6.406   8.454  1.00  0.00     0.090 A 
HETATM    7  C   UNL     1      66.363   7.091   7.306  1.00  0.00     0.026 A 
ENDROOT
BRANCH   1   8
HETATM    8  N   UNL     1      68.323   3.670   8.558  1.00  0.00    -0.363 N 
HETATM    9  C   UNL     1      69.139   3.632   9.772  1.00  0.00     0.150 C 
HETATM   10  C   UNL     1      69.182   2.155  10.223  1.00  0.00     0.187 C 
HETATM   11  O   UNL     1      69.699   1.290   9.190  1.00  0.00    -0.388 OA
HETATM   12  C   UNL     1      68.924   1.404   7.982  1.00  0.00     0.187 C 
HETATM   13  C   UNL     1      68.892   2.854   7.478  1.00  0.00     0.150 C 
ENDBRANCH   1   8
BRANCH   5  14
HETATM   14  C   UNL     1      67.859   7.248   5.271  1.00  0.00     0.203 C 
BRANCH  14  15
HETATM   15  O   UNL     1      69.055   7.990   5.464  1.00  0.00    -0.396 OA
HETATM   16  H   UNL     1      69.805   7.496   5.099  1.00  0.00     0.209 HD
ENDBRANCH  14  15
ENDBRANCH   5  14
TORSDOF 3
ENDMDL
MODEL 8
REMARK VINA RESULT:      -4.6      3.262      4.379
REMARK  3 active torsions:
REMARK  status: ('A' for Active; 'I' for Inactive)
REMARK    1  A    between atoms: C_1  and  N_2 
REMARK    2  A    between atoms: C_7  and  C_14 
REMARK    3  A    between atoms: O_11  and  C_14 
ROOT
HETATM    1  C   UNL     1      67.279   5.960   7.061  1.00  0.00     0.103 A 
HETATM    2  N   UNL     1      67.868   7.088   6.628  1.00  0.00    -0.352 N 
ATOM      3  HN  UNL     1      68.872   7.232   6.731  1.00  0.00     0.166 HD
HETATM    4  C   UNL     1      65.896   5.775   6.952  1.00  0.00     0.057 A 
HETATM    5  C   UNL     1      65.089   6.762   6.389  1.00  0.00    -0.030 A 
HETATM    6  C   UNL     1      67.079   8.026   6.050  1.00  0.00     0.090 A 
HETATM    7  C   UNL     1      65.706   7.913   5.913  1.00  0.00     0.026 A 
ENDROOT
BRANCH   1   8
HETATM    8  N   UNL     1      68.001   4.982   7.714  1.00  0.00    -0.363 N 
HETATM    9  C   UNL     1      69.098   5.361   8.606  1.00  0.00     0.150 C 
HETATM   10  C   UNL     1      69.261   4.202   9.615  1.00  0.00     0.187 C 
HETATM   11  O   UNL     1      69.504   2.942   8.954  1.00  0.00    -0.388 OA
HETATM   12  C   UNL     1      68.448   2.630   8.028  1.00  0.00     0.187 C 
HETATM   13  C   UNL     1      68.283   3.741   6.981  1.00  0.00     0.150 C 
ENDBRANCH   1   8
BRANCH   5  14
HETATM   14  C   UNL     1      63.599   6.579   6.341  1.00  0.00     0.203 C 
BRANCH  14  15
HETATM   15  O   UNL     1      62.951   7.707   6.912  1.00  0.00    -0.396 OA
HETATM   16  H   UNL     1      63.431   8.513   6.668  1.00  0.00     0.209 HD
ENDBRANCH  14  15
ENDBRANCH   5  14
TORSDOF 3
ENDMDL
MODEL 9
REMARK VINA RESULT:      -4.6      3.025      5.158
REMARK  3 active torsions:
REMARK  status: ('A' for Active; 'I' for Inactive)
REMARK    1  A    between atoms: C_1  and  N_2 
REMARK    2  A    between atoms: C_7  and  C_14 
REMARK    3  A    between atoms: O_11  and  C_14 
ROOT
HETATM    1  C   UNL     1      62.611   8.106   3.318  1.00  0.00     0.103 A 
HETATM    2  N   UNL     1      63.677   7.324   3.559  1.00  0.00    -0.352 N 
ATOM      3  HN  UNL     1      63.798   6.433   3.077  1.00  0.00     0.166 HD
HETATM    4  C   UNL     1      62.426   9.312   4.003  1.00  0.00     0.057 A 
HETATM    5  C   UNL     1      63.347   9.735   4.959  1.00  0.00    -0.030 A 
HETATM    6  C   UNL     1      64.585   7.761   4.464  1.00  0.00     0.090 A 
HETATM    7  C   UNL     1      64.465   8.939   5.181  1.00  0.00     0.026 A 
ENDROOT
BRANCH   1   8
HETATM    8  N   UNL     1      61.610   7.705   2.456  1.00  0.00    -0.363 N 
HETATM    9  C   UNL     1      61.316   6.280   2.295  1.00  0.00     0.150 C 
HETATM   10  C   UNL     1      59.846   6.188   1.827  1.00  0.00     0.187 C 
HETATM   11  O   UNL     1      59.618   6.934   0.612  1.00  0.00    -0.388 OA
HETATM   12  C   UNL     1      59.987   8.315   0.775  1.00  0.00     0.187 C 
HETATM   13  C   UNL     1      61.457   8.451   1.200  1.00  0.00     0.150 C 
ENDBRANCH   1   8
BRANCH   5  14
HETATM   14  C   UNL     1      63.100  10.997   5.735  1.00  0.00     0.203 C 
BRANCH  14  15
HETATM   15  O   UNL     1      64.294  11.410   6.386  1.00  0.00    -0.396 OA
HETATM   16  H   UNL     1      64.951  10.699   6.338  1.00  0.00     0.209 HD
ENDBRANCH  14  15
ENDBRANCH   5  14
TORSDOF 3
ENDMDL
