MODEL 1
REMARK VINA RESULT:      -5.4      0.000      0.000
REMARK  3 active torsions:
REMARK  status: ('A' for Active; 'I' for Inactive)
REMARK    1  A    between atoms: N_3  and  C_7 
REMARK    2  A    between atoms: C_7  and  C_8 
REMARK    3  A    between atoms: C_9  and  N_10 
ROOT
HETATM    1  C   UNL     1      77.458  12.171  21.082  1.00  0.00    -0.040 A 
HETATM    2  C   UNL     1      76.702  12.827  18.437  1.00  0.00     0.025 A 
HETATM    3  C   UNL     1      77.040  11.517  18.779  1.00  0.00     0.029 A 
HETATM    4  C   UNL     1      76.788  13.814  19.421  1.00  0.00     0.029 A 
HETATM    5  C   UNL     1      77.393  11.184  20.091  1.00  0.00     0.011 A 
HETATM    6  C   UNL     1      77.144  13.491  20.735  1.00  0.00     0.011 A 
ENDROOT
BRANCH   1   7
HETATM    7  C   UNL     1      77.939  11.832  22.470  1.00  0.00     0.167 C 
BRANCH   7   8
HETATM    8  N   UNL     1      79.319  12.242  22.662  1.00  0.00    -0.347 N 
HETATM    9  C   UNL     1      80.363  11.952  21.831  1.00  0.00     0.182 A 
HETATM   10  N   UNL     1      81.486  12.474  22.269  1.00  0.00    -0.361 N 
HETATM   11  C   UNL     1      81.155  13.125  23.427  1.00  0.00     0.106 A 
ATOM     12  HN  UNL     1      82.409  12.409  21.838  1.00  0.00     0.166 HD
HETATM   13  C   UNL     1      79.808  13.014  23.681  1.00  0.00     0.109 A 
ENDBRANCH   7   8
ENDBRANCH   1   7
BRANCH   2  14
HETATM   14  N   UNL     1      76.526  13.182  17.097  1.00  0.00    -0.399 N 
HETATM   15  H   UNL     1      75.909  13.911  16.857  1.00  0.00     0.156 HD
HETATM   16  H   UNL     1      77.018  12.701  16.392  1.00  0.00     0.156 HD
ENDBRANCH   2  14
TORSDOF 3
ENDMDL
MODEL 2
REMARK VINA RESULT:      -5.3      3.456      5.209
REMARK  3 active torsions:
REMARK  status: ('A' for Active; 'I' for Inactive)
REMARK    1  A    between atoms: N_3  and  C_7 
REMARK    2  A    between atoms: C_7  and  C_8 
REMARK    3  A    between atoms: C_9  and  N_10 
ROOT
HETATM    1  C   UNL     1      77.935   9.448  17.788  1.00  0.00    -0.040 A 
HETATM    2  C   UNL     1      77.055   7.748  15.706  1.00  0.00     0.025 A 
HETATM    3  C   UNL     1      76.864   7.397  17.044  1.00  0.00     0.029 A 
HETATM    4  C   UNL     1      77.730   8.937  15.421  1.00  0.00     0.029 A 
HETATM    5  C   UNL     1      77.278   8.245  18.076  1.00  0.00     0.011 A 
HETATM    6  C   UNL     1      78.150   9.790  16.447  1.00  0.00     0.011 A 
ENDROOT
BRANCH   1   7
HETATM    7  C   UNL     1      78.474  10.312  18.900  1.00  0.00     0.167 C 
BRANCH   7   8
HETATM    8  N   UNL     1      77.500  11.310  19.307  1.00  0.00    -0.347 N 
HETATM    9  C   UNL     1      76.609  11.941  18.486  1.00  0.00     0.182 A 
HETATM   10  N   UNL     1      75.853  12.782  19.154  1.00  0.00    -0.361 N 
HETATM   11  C   UNL     1      76.271  12.691  20.455  1.00  0.00     0.106 A 
ATOM     12  HN  UNL     1      75.112  13.377  18.783  1.00  0.00     0.166 HD
HETATM   13  C   UNL     1      77.280  11.765  20.580  1.00  0.00     0.109 A 
ENDBRANCH   7   8
ENDBRANCH   1   7
BRANCH   2  14
HETATM   14  N   UNL     1      76.803   6.820  14.692  1.00  0.00    -0.399 N 
HETATM   15  H   UNL     1      76.150   6.097  14.836  1.00  0.00     0.156 HD
HETATM   16  H   UNL     1      77.279   6.889  13.832  1.00  0.00     0.156 HD
ENDBRANCH   2  14
TORSDOF 3
ENDMDL
MODEL 3
REMARK VINA RESULT:      -5.0      4.035      6.656
REMARK  3 active torsions:
REMARK  status: ('A' for Active; 'I' for Inactive)
REMARK    1  A    between atoms: N_3  and  C_7 
REMARK    2  A    between atoms: C_7  and  C_8 
REMARK    3  A    between atoms: C_9  and  N_10 
ROOT
HETATM    1  C   UNL     1      77.802   9.747  17.656  1.00  0.00    -0.040 A 
HETATM    2  C   UNL     1      78.291  11.398  19.901  1.00  0.00     0.025 A 
HETATM    3  C   UNL     1      77.143  11.569  19.125  1.00  0.00     0.029 A 
HETATM    4  C   UNL     1      79.214  10.422  19.517  1.00  0.00     0.029 A 
HETATM    5  C   UNL     1      76.886  10.740  18.028  1.00  0.00     0.011 A 
HETATM    6  C   UNL     1      78.967   9.592  18.419  1.00  0.00     0.011 A 
ENDROOT
BRANCH   1   7
HETATM    7  C   UNL     1      77.578   8.924  16.414  1.00  0.00     0.167 C 
BRANCH   7   8
HETATM    8  N   UNL     1      77.032   7.618  16.741  1.00  0.00    -0.347 N 
HETATM    9  C   UNL     1      76.528   7.242  17.954  1.00  0.00     0.182 A 
HETATM   10  N   UNL     1      76.098   6.001  17.932  1.00  0.00    -0.361 N 
HETATM   11  C   UNL     1      76.333   5.559  16.657  1.00  0.00     0.106 A 
ATOM     12  HN  UNL     1      75.678   5.478  18.700  1.00  0.00     0.166 HD
HETATM   13  C   UNL     1      76.893   6.554  15.891  1.00  0.00     0.109 A 
ENDBRANCH   7   8
ENDBRANCH   1   7
BRANCH   2  14
HETATM   14  N   UNL     1      78.625  12.338  20.879  1.00  0.00    -0.399 N 
HETATM   15  H   UNL     1      78.984  12.041  21.747  1.00  0.00     0.156 HD
HETATM   16  H   UNL     1      78.501  13.299  20.702  1.00  0.00     0.156 HD
ENDBRANCH   2  14
TORSDOF 3
ENDMDL
MODEL 4
REMARK VINA RESULT:      -5.0     21.756     25.222
REMARK  3 active torsions:
REMARK  status: ('A' for Active; 'I' for Inactive)
REMARK    1  A    between atoms: N_3  and  C_7 
REMARK    2  A    between atoms: C_7  and  C_8 
REMARK    3  A    between atoms: C_9  and  N_10 
ROOT
HETATM    1  C   UNL     1      62.335   9.222   3.088  1.00  0.00    -0.040 A 
HETATM    2  C   UNL     1      63.128  10.692   5.370  1.00  0.00     0.025 A 
HETATM    3  C   UNL     1      62.273  11.254   4.421  1.00  0.00     0.029 A 
HETATM    4  C   UNL     1      63.618   9.405   5.145  1.00  0.00     0.029 A 
HETATM    5  C   UNL     1      61.860  10.523   3.303  1.00  0.00     0.011 A 
HETATM    6  C   UNL     1      63.214   8.667   4.027  1.00  0.00     0.011 A 
ENDROOT
BRANCH   1   7
HETATM    7  C   UNL     1      61.974   8.472   1.831  1.00  0.00     0.167 C 
BRANCH   7   8
HETATM    8  N   UNL     1      60.569   8.105   1.825  1.00  0.00    -0.347 N 
HETATM    9  C   UNL     1      59.692   8.311   0.798  1.00  0.00     0.182 A 
HETATM   10  N   UNL     1      58.494   7.857   1.089  1.00  0.00    -0.361 N 
HETATM   11  C   UNL     1      58.602   7.337   2.352  1.00  0.00     0.106 A 
ATOM     12  HN  UNL     1      57.662   7.885   0.501  1.00  0.00     0.166 HD
HETATM   13  C   UNL     1      59.889   7.459   2.822  1.00  0.00     0.109 A 
ENDBRANCH   7   8
ENDBRANCH   1   7
BRANCH   2  14
HETATM   14  N   UNL     1      63.674  11.486   6.383  1.00  0.00    -0.399 N 
HETATM   15  H   UNL     1      63.167  11.644   7.213  1.00  0.00     0.156 HD
HETATM   16  H   UNL     1      64.565  11.889   6.267  1.00  0.00     0.156 HD
ENDBRANCH   2  14
TORSDOF 3
ENDMDL
MODEL 5
REMARK VINA RESULT:      -5.0     20.082     23.018
REMARK  3 active torsions:
REMARK  status: ('A' for Active; 'I' for Inactive)
REMARK    1  A    between atoms: N_3  and  C_7 
REMARK    2  A    between atoms: C_7  and  C_8 
REMARK    3  A    between atoms: C_9  and  N_10 
ROOT
HETATM    1  C   UNL     1      62.699   8.345   3.416  1.00  0.00    -0.040 A 
HETATM    2  C   UNL     1      61.841  10.834   2.383  1.00  0.00     0.025 A 
HETATM    3  C   UNL     1      62.093   9.757   1.532  1.00  0.00     0.029 A 
HETATM    4  C   UNL     1      62.065  10.668   3.751  1.00  0.00     0.029 A 
HETATM    5  C   UNL     1      62.495   8.518   2.040  1.00  0.00     0.011 A 
HETATM    6  C   UNL     1      62.471   9.433   4.268  1.00  0.00     0.011 A 
ENDROOT
BRANCH   1   7
HETATM    7  C   UNL     1      63.232   7.042   3.954  1.00  0.00     0.167 C 
BRANCH   7   8
HETATM    8  N   UNL     1      64.211   7.269   5.003  1.00  0.00    -0.347 N 
HETATM    9  C   UNL     1      64.062   6.943   6.321  1.00  0.00     0.182 A 
HETATM   10  N   UNL     1      65.127   7.263   7.019  1.00  0.00    -0.361 N 
HETATM   11  C   UNL     1      65.997   7.816   6.118  1.00  0.00     0.106 A 
ATOM     12  HN  UNL     1      65.276   7.128   8.019  1.00  0.00     0.166 HD
HETATM   13  C   UNL     1      65.459   7.810   4.852  1.00  0.00     0.109 A 
ENDBRANCH   7   8
ENDBRANCH   1   7
BRANCH   2  14
HETATM   14  N   UNL     1      61.615  12.109   1.856  1.00  0.00    -0.399 N 
HETATM   15  H   UNL     1      60.840  12.270   1.270  1.00  0.00     0.156 HD
HETATM   16  H   UNL     1      62.231  12.847   2.071  1.00  0.00     0.156 HD
ENDBRANCH   2  14
TORSDOF 3
ENDMDL
MODEL 6
REMARK VINA RESULT:      -4.9      2.152      5.324
REMARK  3 active torsions:
REMARK  status: ('A' for Active; 'I' for Inactive)
REMARK    1  A    between atoms: N_3  and  C_7 
REMARK    2  A    between atoms: C_7  and  C_8 
REMARK    3  A    between atoms: C_9  and  N_10 
ROOT
HETATM    1  C   UNL     1      79.285  12.598  22.186  1.00  0.00    -0.040 A 
HETATM    2  C   UNL     1      80.650  12.419  24.657  1.00  0.00     0.025 A 
HETATM    3  C   UNL     1      79.389  11.842  24.494  1.00  0.00     0.029 A 
HETATM    4  C   UNL     1      81.202  13.125  23.586  1.00  0.00     0.029 A 
HETATM    5  C   UNL     1      78.721  11.909  23.267  1.00  0.00     0.011 A 
HETATM    6  C   UNL     1      80.539  13.200  22.356  1.00  0.00     0.011 A 
ENDROOT
BRANCH   1   7
HETATM    7  C   UNL     1      78.521  12.760  20.897  1.00  0.00     0.167 C 
BRANCH   7   8
HETATM    8  N   UNL     1      78.616  11.565  20.077  1.00  0.00    -0.347 N 
HETATM    9  C   UNL     1      79.746  10.827  19.865  1.00  0.00     0.182 A 
HETATM   10  N   UNL     1      79.508   9.796  19.086  1.00  0.00    -0.361 N 
HETATM   11  C   UNL     1      78.175   9.871  18.784  1.00  0.00     0.106 A 
ATOM     12  HN  UNL     1      80.175   9.090  18.774  1.00  0.00     0.166 HD
HETATM   13  C   UNL     1      77.593  10.950  19.407  1.00  0.00     0.109 A 
ENDBRANCH   7   8
ENDBRANCH   1   7
BRANCH   2  14
HETATM   14  N   UNL     1      81.227  12.502  25.928  1.00  0.00    -0.399 N 
HETATM   15  H   UNL     1      80.763  12.118  26.706  1.00  0.00     0.156 HD
HETATM   16  H   UNL     1      82.098  12.947  26.044  1.00  0.00     0.156 HD
ENDBRANCH   2  14
TORSDOF 3
ENDMDL
MODEL 7
REMARK VINA RESULT:      -4.8     16.851     19.503
REMARK  3 active torsions:
REMARK  status: ('A' for Active; 'I' for Inactive)
REMARK    1  A    between atoms: N_3  and  C_7 
REMARK    2  A    between atoms: C_7  and  C_8 
REMARK    3  A    between atoms: C_9  and  N_10 
ROOT
HETATM    1  C   UNL     1      68.081   5.090   7.183  1.00  0.00    -0.040 A 
HETATM    2  C   UNL     1      69.071   3.729   9.457  1.00  0.00     0.025 A 
HETATM    3  C   UNL     1      68.760   5.089   9.518  1.00  0.00     0.029 A 
HETATM    4  C   UNL     1      68.924   3.067   8.236  1.00  0.00     0.029 A 
HETATM    5  C   UNL     1      68.249   5.760   8.402  1.00  0.00     0.011 A 
HETATM    6  C   UNL     1      68.418   3.732   7.114  1.00  0.00     0.011 A 
ENDROOT
BRANCH   1   7
HETATM    7  C   UNL     1      67.630   5.836   5.954  1.00  0.00     0.167 C 
BRANCH   7   8
HETATM    8  N   UNL     1      66.321   6.432   6.153  1.00  0.00    -0.347 N 
HETATM    9  C   UNL     1      66.005   7.749   5.975  1.00  0.00     0.182 A 
HETATM   10  N   UNL     1      64.735   7.977   6.222  1.00  0.00    -0.361 N 
HETATM   11  C   UNL     1      64.211   6.761   6.571  1.00  0.00     0.106 A 
ATOM     12  HN  UNL     1      64.244   8.869   6.165  1.00  0.00     0.166 HD
HETATM   13  C   UNL     1      65.173   5.780   6.514  1.00  0.00     0.109 A 
ENDBRANCH   7   8
ENDBRANCH   1   7
BRANCH   2  14
HETATM   14  N   UNL     1      69.744   3.114  10.516  1.00  0.00    -0.399 N 
HETATM   15  H   UNL     1      69.262   2.501  11.117  1.00  0.00     0.156 HD
HETATM   16  H   UNL     1      70.701   3.294  10.662  1.00  0.00     0.156 HD
ENDBRANCH   2  14
TORSDOF 3
ENDMDL
MODEL 8
REMARK VINA RESULT:      -4.7      1.538      2.001
REMARK  3 active torsions:
REMARK  status: ('A' for Active; 'I' for Inactive)
REMARK    1  A    between atoms: N_3  and  C_7 
REMARK    2  A    between atoms: C_7  and  C_8 
REMARK    3  A    between atoms: C_9  and  N_10 
ROOT
HETATM    1  C   UNL     1      79.056  12.272  21.230  1.00  0.00    -0.040 A 
HETATM    2  C   UNL     1      76.645  12.459  19.763  1.00  0.00     0.025 A 
HETATM    3  C   UNL     1      77.565  11.443  19.498  1.00  0.00     0.029 A 
HETATM    4  C   UNL     1      76.963  13.407  20.738  1.00  0.00     0.029 A 
HETATM    5  C   UNL     1      78.748  11.333  20.237  1.00  0.00     0.011 A 
HETATM    6  C   UNL     1      78.146  13.308  21.478  1.00  0.00     0.011 A 
ENDROOT
BRANCH   1   7
HETATM    7  C   UNL     1      80.377  12.216  21.954  1.00  0.00     0.167 C 
BRANCH   7   8
HETATM    8  N   UNL     1      80.199  12.390  23.385  1.00  0.00    -0.347 N 
HETATM    9  C   UNL     1      80.718  13.405  24.139  1.00  0.00     0.182 A 
HETATM   10  N   UNL     1      80.369  13.293  25.400  1.00  0.00    -0.361 N 
HETATM   11  C   UNL     1      79.595  12.165  25.463  1.00  0.00     0.106 A 
ATOM     12  HN  UNL     1      80.620  13.915  26.169  1.00  0.00     0.166 HD
HETATM   13  C   UNL     1      79.456  11.598  24.218  1.00  0.00     0.109 A 
ENDBRANCH   7   8
ENDBRANCH   1   7
BRANCH   2  14
HETATM   14  N   UNL     1      75.559  12.666  18.907  1.00  0.00    -0.399 N 
HETATM   15  H   UNL     1      75.701  13.069  18.020  1.00  0.00     0.156 HD
HETATM   16  H   UNL     1      74.652  12.410  19.192  1.00  0.00     0.156 HD
ENDBRANCH   2  14
TORSDOF 3
ENDMDL
MODEL 9
REMARK VINA RESULT:      -4.6      2.481      5.661
REMARK  3 active torsions:
REMARK  status: ('A' for Active; 'I' for Inactive)
REMARK    1  A    between atoms: N_3  and  C_7 
REMARK    2  A    between atoms: C_7  and  C_8 
REMARK    3  A    between atoms: C_9  and  N_10 
ROOT
HETATM    1  C   UNL     1      77.962  11.436  19.698  1.00  0.00    -0.040 A 
HETATM    2  C   UNL     1      79.955  11.897  21.651  1.00  0.00     0.025 A 
HETATM    3  C   UNL     1      78.730  12.565  21.709  1.00  0.00     0.029 A 
HETATM    4  C   UNL     1      80.189  11.029  20.583  1.00  0.00     0.029 A 
HETATM    5  C   UNL     1      77.734  12.323  20.758  1.00  0.00     0.011 A 
HETATM    6  C   UNL     1      79.200  10.784  19.625  1.00  0.00     0.011 A 
ENDROOT
BRANCH   1   7
HETATM    7  C   UNL     1      76.929  11.253  18.616  1.00  0.00     0.167 C 
BRANCH   7   8
HETATM    8  N   UNL     1      77.135  10.008  17.898  1.00  0.00    -0.347 N 
HETATM    9  C   UNL     1      76.883   8.754  18.379  1.00  0.00     0.182 A 
HETATM   10  N   UNL     1      77.160   7.832  17.486  1.00  0.00    -0.361 N 
HETATM   11  C   UNL     1      77.608   8.514  16.387  1.00  0.00     0.106 A 
ATOM     12  HN  UNL     1      77.062   6.822  17.589  1.00  0.00     0.166 HD
HETATM   13  C   UNL     1      77.581   9.871  16.610  1.00  0.00     0.109 A 
ENDBRANCH   7   8
ENDBRANCH   1   7
BRANCH   2  14
HETATM   14  N   UNL     1      81.003  12.275  22.495  1.00  0.00    -0.399 N 
HETATM   15  H   UNL     1      80.818  12.522  23.430  1.00  0.00     0.156 HD
HETATM   16  H   UNL     1      81.927  12.296  22.154  1.00  0.00     0.156 HD
ENDBRANCH   2  14
TORSDOF 3
ENDMDL
