MODEL 1
REMARK VINA RESULT:      -5.3      0.000      0.000
REMARK  4 active torsions:
REMARK  status: ('A' for Active; 'I' for Inactive)
REMARK    1  A    between atoms: N_3  and  C_7 
REMARK    2  A    between atoms: C_7  and  C_8 
REMARK    3  A    between atoms: C_9  and  C_15 
REMARK    4  A    between atoms: O_14  and  C_15 
ROOT
HETATM    1  C   UNL     1      78.143  12.214  21.531  1.00  0.00    -0.040 A 
HETATM    2  C   UNL     1      76.864  12.688  19.058  1.00  0.00    -0.035 A 
HETATM    3  C   UNL     1      77.543  13.453  21.265  1.00  0.00     0.009 A 
HETATM    4  C   UNL     1      78.118  11.225  20.537  1.00  0.00     0.009 A 
HETATM    5  C   UNL     1      77.488  11.463  19.312  1.00  0.00     0.010 A 
HETATM    6  C   UNL     1      76.912  13.686  20.041  1.00  0.00     0.010 A 
ENDROOT
BRANCH   1   7
HETATM    7  C   UNL     1      78.770  11.938  22.876  1.00  0.00     0.167 C 
BRANCH   7   8
HETATM    8  N   UNL     1      79.982  12.715  23.071  1.00  0.00    -0.347 N 
HETATM    9  C   UNL     1      80.299  13.430  24.191  1.00  0.00     0.182 A 
HETATM   10  N   UNL     1      81.481  13.997  24.079  1.00  0.00    -0.361 N 
HETATM   11  C   UNL     1      81.947  13.625  22.845  1.00  0.00     0.106 A 
ATOM     12  HN  UNL     1      81.951  14.588  24.766  1.00  0.00     0.166 HD
HETATM   13  C   UNL     1      81.038  12.809  22.208  1.00  0.00     0.109 A 
ENDBRANCH   7   8
ENDBRANCH   1   7
BRANCH   2  14
HETATM   14  C   UNL     1      76.137  12.934  17.762  1.00  0.00     0.202 C 
BRANCH  14  15
HETATM   15  O   UNL     1      76.894  12.434  16.668  1.00  0.00    -0.396 OA
HETATM   16  H   UNL     1      76.659  11.506  16.508  1.00  0.00     0.209 HD
ENDBRANCH  14  15
ENDBRANCH   2  14
TORSDOF 4
ENDMDL
MODEL 2
REMARK VINA RESULT:      -5.3     23.189     26.135
REMARK  4 active torsions:
REMARK  status: ('A' for Active; 'I' for Inactive)
REMARK    1  A    between atoms: N_3  and  C_7 
REMARK    2  A    between atoms: C_7  and  C_8 
REMARK    3  A    between atoms: C_9  and  C_15 
REMARK    4  A    between atoms: O_14  and  C_15 
ROOT
HETATM    1  C   UNL     1      62.180   9.399   1.973  1.00  0.00    -0.040 A 
HETATM    2  C   UNL     1      62.579  10.600   4.498  1.00  0.00    -0.035 A 
HETATM    3  C   UNL     1      61.772  10.719   2.207  1.00  0.00     0.009 A 
HETATM    4  C   UNL     1      62.766   8.678   3.024  1.00  0.00     0.009 A 
HETATM    5  C   UNL     1      62.959   9.273   4.275  1.00  0.00     0.010 A 
HETATM    6  C   UNL     1      61.969  11.312   3.457  1.00  0.00     0.010 A 
ENDROOT
BRANCH   1   7
HETATM    7  C   UNL     1      62.026   8.779   0.606  1.00  0.00     0.167 C 
BRANCH   7   8
HETATM    8  N   UNL     1      60.901   7.862   0.558  1.00  0.00    -0.347 N 
HETATM    9  C   UNL     1      59.587   8.202   0.716  1.00  0.00     0.182 A 
HETATM   10  N   UNL     1      58.800   7.156   0.584  1.00  0.00    -0.361 N 
HETATM   11  C   UNL     1      59.639   6.103   0.322  1.00  0.00     0.106 A 
ATOM     12  HN  UNL     1      57.783   7.133   0.660  1.00  0.00     0.166 HD
HETATM   13  C   UNL     1      60.950   6.524   0.280  1.00  0.00     0.109 A 
ENDBRANCH   7   8
ENDBRANCH   1   7
BRANCH   2  14
HETATM   14  C   UNL     1      62.831  11.265   5.825  1.00  0.00     0.202 C 
BRANCH  14  15
HETATM   15  O   UNL     1      64.222  11.270   6.121  1.00  0.00    -0.396 OA
HETATM   16  H   UNL     1      64.719  10.964   5.345  1.00  0.00     0.209 HD
ENDBRANCH  14  15
ENDBRANCH   2  14
TORSDOF 4
ENDMDL
MODEL 3
REMARK VINA RESULT:      -5.0     20.296     22.524
REMARK  4 active torsions:
REMARK  status: ('A' for Active; 'I' for Inactive)
REMARK    1  A    between atoms: N_3  and  C_7 
REMARK    2  A    between atoms: C_7  and  C_8 
REMARK    3  A    between atoms: C_9  and  C_15 
REMARK    4  A    between atoms: O_14  and  C_15 
ROOT
HETATM    1  C   UNL     1      63.469   8.214   4.939  1.00  0.00    -0.040 A 
HETATM    2  C   UNL     1      62.297   9.845   2.953  1.00  0.00    -0.035 A 
HETATM    3  C   UNL     1      62.992   9.493   5.258  1.00  0.00     0.009 A 
HETATM    4  C   UNL     1      63.377   7.771   3.612  1.00  0.00     0.009 A 
HETATM    5  C   UNL     1      62.801   8.581   2.629  1.00  0.00     0.010 A 
HETATM    6  C   UNL     1      62.413  10.299   4.274  1.00  0.00     0.010 A 
ENDROOT
BRANCH   1   7
HETATM    7  C   UNL     1      64.035   7.317   6.013  1.00  0.00     0.167 C 
BRANCH   7   8
HETATM    8  N   UNL     1      65.484   7.239   5.935  1.00  0.00    -0.347 N 
HETATM    9  C   UNL     1      66.355   8.236   6.275  1.00  0.00     0.182 A 
HETATM   10  N   UNL     1      67.605   7.851   6.130  1.00  0.00    -0.361 N 
HETATM   11  C   UNL     1      67.536   6.554   5.690  1.00  0.00     0.106 A 
ATOM     12  HN  UNL     1      68.446   8.400   6.308  1.00  0.00     0.166 HD
HETATM   13  C   UNL     1      66.225   6.146   5.582  1.00  0.00     0.109 A 
ENDBRANCH   7   8
ENDBRANCH   1   7
BRANCH   2  14
HETATM   14  C   UNL     1      61.628  10.703   1.913  1.00  0.00     0.202 C 
BRANCH  14  15
HETATM   15  O   UNL     1      62.147  12.026   1.952  1.00  0.00    -0.396 OA
HETATM   16  H   UNL     1      61.854  12.464   2.767  1.00  0.00     0.209 HD
ENDBRANCH  14  15
ENDBRANCH   2  14
TORSDOF 4
ENDMDL
MODEL 4
REMARK VINA RESULT:      -5.0     17.959     19.712
REMARK  4 active torsions:
REMARK  status: ('A' for Active; 'I' for Inactive)
REMARK    1  A    between atoms: N_3  and  C_7 
REMARK    2  A    between atoms: C_7  and  C_8 
REMARK    3  A    between atoms: C_9  and  C_15 
REMARK    4  A    between atoms: O_14  and  C_15 
ROOT
HETATM    1  C   UNL     1      68.274   5.006   7.578  1.00  0.00    -0.040 A 
HETATM    2  C   UNL     1      68.739   2.882   9.380  1.00  0.00    -0.035 A 
HETATM    3  C   UNL     1      68.846   5.249   8.834  1.00  0.00     0.009 A 
HETATM    4  C   UNL     1      67.914   3.692   7.244  1.00  0.00     0.009 A 
HETATM    5  C   UNL     1      68.140   2.642   8.139  1.00  0.00     0.010 A 
HETATM    6  C   UNL     1      69.075   4.197   9.725  1.00  0.00     0.010 A 
ENDROOT
BRANCH   1   7
HETATM    7  C   UNL     1      68.086   6.131   6.590  1.00  0.00     0.167 C 
BRANCH   7   8
HETATM    8  N   UNL     1      66.686   6.493   6.452  1.00  0.00    -0.347 N 
HETATM    9  C   UNL     1      65.816   6.722   7.481  1.00  0.00     0.182 A 
HETATM   10  N   UNL     1      64.627   7.066   7.037  1.00  0.00    -0.361 N 
HETATM   11  C   UNL     1      64.737   7.069   5.670  1.00  0.00     0.106 A 
ATOM     12  HN  UNL     1      63.799   7.285   7.591  1.00  0.00     0.166 HD
HETATM   13  C   UNL     1      66.017   6.736   5.285  1.00  0.00     0.109 A 
ENDBRANCH   7   8
ENDBRANCH   1   7
BRANCH   2  14
HETATM   14  C   UNL     1      69.035   1.750  10.328  1.00  0.00     0.202 C 
BRANCH  14  15
HETATM   15  O   UNL     1      69.896   2.189  11.371  1.00  0.00    -0.396 OA
HETATM   16  H   UNL     1      69.862   3.157  11.432  1.00  0.00     0.209 HD
ENDBRANCH  14  15
ENDBRANCH   2  14
TORSDOF 4
ENDMDL
MODEL 5
REMARK VINA RESULT:      -4.9     17.893     19.613
REMARK  4 active torsions:
REMARK  status: ('A' for Active; 'I' for Inactive)
REMARK    1  A    between atoms: N_3  and  C_7 
REMARK    2  A    between atoms: C_7  and  C_8 
REMARK    3  A    between atoms: C_9  and  C_15 
REMARK    4  A    between atoms: O_14  and  C_15 
ROOT
HETATM    1  C   UNL     1      67.738   5.434   8.224  1.00  0.00    -0.040 A 
HETATM    2  C   UNL     1      69.069   3.167   9.255  1.00  0.00    -0.035 A 
HETATM    3  C   UNL     1      67.091   4.192   8.280  1.00  0.00     0.009 A 
HETATM    4  C   UNL     1      69.067   5.523   8.665  1.00  0.00     0.009 A 
HETATM    5  C   UNL     1      69.726   4.399   9.171  1.00  0.00     0.010 A 
HETATM    6  C   UNL     1      67.751   3.071   8.790  1.00  0.00     0.010 A 
ENDROOT
BRANCH   1   7
HETATM    7  C   UNL     1      67.006   6.660   7.733  1.00  0.00     0.167 C 
BRANCH   7   8
HETATM    8  N   UNL     1      66.991   6.728   6.283  1.00  0.00    -0.347 N 
HETATM    9  C   UNL     1      67.988   7.235   5.497  1.00  0.00     0.182 A 
HETATM   10  N   UNL     1      67.696   7.124   4.219  1.00  0.00    -0.361 N 
HETATM   11  C   UNL     1      66.469   6.514   4.179  1.00  0.00     0.106 A 
ATOM     12  HN  UNL     1      68.263   7.428   3.427  1.00  0.00     0.166 HD
HETATM   13  C   UNL     1      66.021   6.240   5.452  1.00  0.00     0.109 A 
ENDBRANCH   7   8
ENDBRANCH   1   7
BRANCH   2  14
HETATM   14  C   UNL     1      69.754   1.964   9.848  1.00  0.00     0.202 C 
BRANCH  14  15
HETATM   15  O   UNL     1      69.817   2.077  11.264  1.00  0.00    -0.396 OA
HETATM   16  H   UNL     1      69.495   2.952  11.533  1.00  0.00     0.209 HD
ENDBRANCH  14  15
ENDBRANCH   2  14
TORSDOF 4
ENDMDL
MODEL 6
REMARK VINA RESULT:      -4.4     17.830     19.341
REMARK  4 active torsions:
REMARK  status: ('A' for Active; 'I' for Inactive)
REMARK    1  A    between atoms: N_3  and  C_7 
REMARK    2  A    between atoms: C_7  and  C_8 
REMARK    3  A    between atoms: C_9  and  C_15 
REMARK    4  A    between atoms: O_14  and  C_15 
ROOT
HETATM    1  C   UNL     1      68.162   4.513   7.102  1.00  0.00    -0.040 A 
HETATM    2  C   UNL     1      66.333   6.570   6.468  1.00  0.00    -0.035 A 
HETATM    3  C   UNL     1      67.541   4.552   5.846  1.00  0.00     0.009 A 
HETATM    4  C   UNL     1      67.838   5.499   8.046  1.00  0.00     0.009 A 
HETATM    5  C   UNL     1      66.929   6.514   7.732  1.00  0.00     0.010 A 
HETATM    6  C   UNL     1      66.635   5.570   5.534  1.00  0.00     0.010 A 
ENDROOT
BRANCH   1   7
HETATM    7  C   UNL     1      69.188   3.452   7.418  1.00  0.00     0.167 C 
BRANCH   7   8
HETATM    8  N   UNL     1      68.918   2.811   8.693  1.00  0.00    -0.347 N 
HETATM    9  C   UNL     1      69.698   2.899   9.811  1.00  0.00     0.182 A 
HETATM   10  N   UNL     1      69.171   2.236  10.818  1.00  0.00    -0.361 N 
HETATM   11  C   UNL     1      68.001   1.710  10.333  1.00  0.00     0.106 A 
ATOM     12  HN  UNL     1      69.551   2.136  11.760  1.00  0.00     0.166 HD
HETATM   13  C   UNL     1      67.814   2.073   9.018  1.00  0.00     0.109 A 
ENDBRANCH   7   8
ENDBRANCH   1   7
BRANCH   2  14
HETATM   14  C   UNL     1      65.394   7.689   6.104  1.00  0.00     0.202 C 
BRANCH  14  15
HETATM   15  O   UNL     1      66.025   8.948   6.298  1.00  0.00    -0.396 OA
HETATM   16  H   UNL     1      66.591   9.148   5.536  1.00  0.00     0.209 HD
ENDBRANCH  14  15
ENDBRANCH   2  14
TORSDOF 4
ENDMDL
MODEL 7
REMARK VINA RESULT:      -4.4     18.155     20.887
REMARK  4 active torsions:
REMARK  status: ('A' for Active; 'I' for Inactive)
REMARK    1  A    between atoms: N_3  and  C_7 
REMARK    2  A    between atoms: C_7  and  C_8 
REMARK    3  A    between atoms: C_9  and  C_15 
REMARK    4  A    between atoms: O_14  and  C_15 
ROOT
HETATM    1  C   UNL     1      64.841   6.525   6.050  1.00  0.00    -0.040 A 
HETATM    2  C   UNL     1      63.371   8.764   5.153  1.00  0.00    -0.035 A 
HETATM    3  C   UNL     1      63.473   6.639   6.333  1.00  0.00     0.009 A 
HETATM    4  C   UNL     1      65.470   7.556   5.336  1.00  0.00     0.009 A 
HETATM    5  C   UNL     1      64.742   8.665   4.897  1.00  0.00     0.010 A 
HETATM    6  C   UNL     1      62.747   7.748   5.890  1.00  0.00     0.010 A 
ENDROOT
BRANCH   1   7
HETATM    7  C   UNL     1      65.613   5.299   6.473  1.00  0.00     0.167 C 
BRANCH   7   8
HETATM    8  N   UNL     1      66.624   5.619   7.465  1.00  0.00    -0.347 N 
HETATM    9  C   UNL     1      67.974   5.625   7.254  1.00  0.00     0.182 A 
HETATM   10  N   UNL     1      68.627   5.991   8.336  1.00  0.00    -0.361 N 
HETATM   11  C   UNL     1      67.661   6.241   9.276  1.00  0.00     0.106 A 
ATOM     12  HN  UNL     1      69.638   6.073   8.450  1.00  0.00     0.166 HD
HETATM   13  C   UNL     1      66.405   6.036   8.748  1.00  0.00     0.109 A 
ENDBRANCH   7   8
ENDBRANCH   1   7
BRANCH   2  14
HETATM   14  C   UNL     1      62.568   9.929   4.638  1.00  0.00     0.202 C 
BRANCH  14  15
HETATM   15  O   UNL     1      62.420   9.844   3.227  1.00  0.00    -0.396 OA
HETATM   16  H   UNL     1      61.777  10.505   2.927  1.00  0.00     0.209 HD
ENDBRANCH  14  15
ENDBRANCH   2  14
TORSDOF 4
ENDMDL
MODEL 8
REMARK VINA RESULT:      -4.3     24.210     26.730
REMARK  4 active torsions:
REMARK  status: ('A' for Active; 'I' for Inactive)
REMARK    1  A    between atoms: N_3  and  C_7 
REMARK    2  A    between atoms: C_7  and  C_8 
REMARK    3  A    between atoms: C_9  and  C_15 
REMARK    4  A    between atoms: O_14  and  C_15 
ROOT
HETATM    1  C   UNL     1      62.356   8.346   1.282  1.00  0.00    -0.040 A 
HETATM    2  C   UNL     1      62.400  10.041   3.541  1.00  0.00    -0.035 A 
HETATM    3  C   UNL     1      62.842   7.882   2.512  1.00  0.00     0.009 A 
HETATM    4  C   UNL     1      61.917   9.675   1.188  1.00  0.00     0.009 A 
HETATM    5  C   UNL     1      61.943  10.514   2.306  1.00  0.00     0.010 A 
HETATM    6  C   UNL     1      62.864   8.722   3.628  1.00  0.00     0.010 A 
ENDROOT
BRANCH   1   7
HETATM    7  C   UNL     1      62.272   7.422   0.091  1.00  0.00     0.167 C 
BRANCH   7   8
HETATM    8  N   UNL     1      61.173   6.481   0.221  1.00  0.00    -0.347 N 
HETATM    9  C   UNL     1      61.276   5.120   0.153  1.00  0.00     0.182 A 
HETATM   10  N   UNL     1      60.110   4.541   0.344  1.00  0.00    -0.361 N 
HETATM   11  C   UNL     1      59.225   5.567   0.553  1.00  0.00     0.106 A 
ATOM     12  HN  UNL     1      59.909   3.541   0.339  1.00  0.00     0.166 HD
HETATM   13  C   UNL     1      59.869   6.783   0.502  1.00  0.00     0.109 A 
ENDBRANCH   7   8
ENDBRANCH   1   7
BRANCH   2  14
HETATM   14  C   UNL     1      62.382  10.921   4.762  1.00  0.00     0.202 C 
BRANCH  14  15
HETATM   15  O   UNL     1      62.097  12.266   4.399  1.00  0.00    -0.396 OA
HETATM   16  H   UNL     1      62.329  12.407   3.468  1.00  0.00     0.209 HD
ENDBRANCH  14  15
ENDBRANCH   2  14
TORSDOF 4
ENDMDL
MODEL 9
REMARK VINA RESULT:      -4.3     17.885     20.161
REMARK  4 active torsions:
REMARK  status: ('A' for Active; 'I' for Inactive)
REMARK    1  A    between atoms: N_3  and  C_7 
REMARK    2  A    between atoms: C_7  and  C_8 
REMARK    3  A    between atoms: C_9  and  C_15 
REMARK    4  A    between atoms: O_14  and  C_15 
ROOT
HETATM    1  C   UNL     1      66.884   5.272   5.788  1.00  0.00    -0.040 A 
HETATM    2  C   UNL     1      65.273   7.535   5.281  1.00  0.00    -0.035 A 
HETATM    3  C   UNL     1      67.246   6.198   4.800  1.00  0.00     0.009 A 
HETATM    4  C   UNL     1      65.693   5.477   6.501  1.00  0.00     0.009 A 
HETATM    5  C   UNL     1      64.894   6.596   6.245  1.00  0.00     0.010 A 
HETATM    6  C   UNL     1      66.448   7.317   4.550  1.00  0.00     0.010 A 
ENDROOT
BRANCH   1   7
HETATM    7  C   UNL     1      67.777   4.097   6.104  1.00  0.00     0.167 C 
BRANCH   7   8
HETATM    8  N   UNL     1      68.107   4.041   7.517  1.00  0.00    -0.347 N 
HETATM    9  C   UNL     1      67.790   3.022   8.370  1.00  0.00     0.182 A 
HETATM   10  N   UNL     1      68.257   3.245   9.580  1.00  0.00    -0.361 N 
HETATM   11  C   UNL     1      68.909   4.448   9.500  1.00  0.00     0.106 A 
ATOM     12  HN  UNL     1      68.156   2.649  10.402  1.00  0.00     0.166 HD
HETATM   13  C   UNL     1      68.846   4.952   8.219  1.00  0.00     0.109 A 
ENDBRANCH   7   8
ENDBRANCH   1   7
BRANCH   2  14
HETATM   14  C   UNL     1      64.446   8.770   5.037  1.00  0.00     0.202 C 
BRANCH  14  15
HETATM   15  O   UNL     1      64.858   9.821   5.901  1.00  0.00    -0.396 OA
HETATM   16  H   UNL     1      65.652   9.548   6.387  1.00  0.00     0.209 HD
ENDBRANCH  14  15
ENDBRANCH   2  14
TORSDOF 4
ENDMDL
