MODEL 1
REMARK VINA RESULT:      -5.1      0.000      0.000
REMARK  3 active torsions:
REMARK  status: ('A' for Active; 'I' for Inactive)
REMARK    1  A    between atoms: N_3  and  C_7 
REMARK    2  A    between atoms: C_7  and  C_8 
REMARK    3  A    between atoms: C_10  and  N_11 
ROOT
HETATM    1  C   UNL     1      71.741  22.793  12.770  1.00  0.00    -0.038 A 
HETATM    2  C   UNL     1      73.053  22.461  13.147  1.00  0.00     0.037 A 
HETATM    3  C   UNL     1      73.504  22.662  14.454  1.00  0.00     0.026 A 
HETATM    4  C   UNL     1      71.370  23.681  14.994  1.00  0.00     0.003 A 
HETATM    5  C   UNL     1      70.900  23.405  13.711  1.00  0.00     0.009 A 
HETATM    6  C   UNL     1      72.669  23.323  15.356  1.00  0.00     0.029 A 
ENDROOT
BRANCH   1   7
HETATM    7  C   UNL     1      71.236  22.456  11.392  1.00  0.00     0.167 C 
BRANCH   7   8
HETATM    8  N   UNL     1      71.432  21.047  11.092  1.00  0.00    -0.347 N 
HETATM    9  C   UNL     1      72.303  20.543  10.170  1.00  0.00     0.182 A 
HETATM   10  N   UNL     1      72.201  19.234  10.076  1.00  0.00    -0.361 N 
HETATM   11  C   UNL     1      71.233  18.882  10.982  1.00  0.00     0.106 A 
ATOM     12  HN  UNL     1      72.728  18.614   9.461  1.00  0.00     0.166 HD
HETATM   13  C   UNL     1      70.743  19.995  11.629  1.00  0.00     0.109 A 
ENDBRANCH   7   8
ENDBRANCH   1   7
BRANCH   3  14
HETATM   14  N   UNL     1      74.841  22.405  14.782  1.00  0.00    -0.399 N 
HETATM   15  H   UNL     1      75.503  23.133  14.754  1.00  0.00     0.156 HD
HETATM   16  H   UNL     1      75.117  21.497  15.043  1.00  0.00     0.156 HD
ENDBRANCH   3  14
TORSDOF 3
ENDMDL
MODEL 2
REMARK VINA RESULT:      -4.9     16.945     18.284
REMARK  3 active torsions:
REMARK  status: ('A' for Active; 'I' for Inactive)
REMARK    1  A    between atoms: N_3  and  C_7 
REMARK    2  A    between atoms: C_7  and  C_8 
REMARK    3  A    between atoms: C_10  and  N_11 
ROOT
HETATM    1  C   UNL     1      62.579   8.498   3.393  1.00  0.00    -0.038 A 
HETATM    2  C   UNL     1      62.513   9.630   4.222  1.00  0.00     0.037 A 
HETATM    3  C   UNL     1      62.100  10.868   3.725  1.00  0.00     0.026 A 
HETATM    4  C   UNL     1      61.957   9.890   1.510  1.00  0.00     0.003 A 
HETATM    5  C   UNL     1      62.293   8.640   2.028  1.00  0.00     0.009 A 
HETATM    6  C   UNL     1      61.875  10.999   2.354  1.00  0.00     0.029 A 
ENDROOT
BRANCH   1   7
HETATM    7  C   UNL     1      62.908   7.148   3.974  1.00  0.00     0.167 C 
BRANCH   7   8
HETATM    8  N   UNL     1      63.972   7.244   4.960  1.00  0.00    -0.347 N 
HETATM    9  C   UNL     1      63.843   7.002   6.297  1.00  0.00     0.182 A 
HETATM   10  N   UNL     1      64.966   7.242   6.940  1.00  0.00    -0.361 N 
HETATM   11  C   UNL     1      65.855   7.644   5.977  1.00  0.00     0.106 A 
ATOM     12  HN  UNL     1      65.138   7.149   7.941  1.00  0.00     0.166 HD
HETATM   13  C   UNL     1      65.258   7.650   4.734  1.00  0.00     0.109 A 
ENDBRANCH   7   8
ENDBRANCH   1   7
BRANCH   3  14
HETATM   14  N   UNL     1      62.127  12.000   4.550  1.00  0.00    -0.399 N 
HETATM   15  H   UNL     1      61.768  12.856   4.222  1.00  0.00     0.156 HD
HETATM   16  H   UNL     1      62.503  11.938   5.457  1.00  0.00     0.156 HD
ENDBRANCH   3  14
TORSDOF 3
ENDMDL
MODEL 3
REMARK VINA RESULT:      -4.8     14.474     16.327
REMARK  3 active torsions:
REMARK  status: ('A' for Active; 'I' for Inactive)
REMARK    1  A    between atoms: N_3  and  C_7 
REMARK    2  A    between atoms: C_7  and  C_8 
REMARK    3  A    between atoms: C_10  and  N_11 
ROOT
HETATM    1  C   UNL     1      79.898  12.436  21.839  1.00  0.00    -0.038 A 
HETATM    2  C   UNL     1      79.897  11.408  20.882  1.00  0.00     0.037 A 
HETATM    3  C   UNL     1      78.777  11.166  20.081  1.00  0.00     0.026 A 
HETATM    4  C   UNL     1      77.580  12.889  21.298  1.00  0.00     0.003 A 
HETATM    5  C   UNL     1      78.726  13.179  22.038  1.00  0.00     0.009 A 
HETATM    6  C   UNL     1      77.605  11.879  20.336  1.00  0.00     0.029 A 
ENDROOT
BRANCH   1   7
HETATM    7  C   UNL     1      81.154  12.761  22.604  1.00  0.00     0.167 C 
BRANCH   7   8
HETATM    8  N   UNL     1      80.862  13.032  24.003  1.00  0.00    -0.347 N 
HETATM    9  C   UNL     1      80.272  12.165  24.875  1.00  0.00     0.182 A 
HETATM   10  N   UNL     1      80.076  12.723  26.051  1.00  0.00    -0.361 N 
HETATM   11  C   UNL     1      80.570  13.997  25.932  1.00  0.00     0.106 A 
ATOM     12  HN  UNL     1      79.648  12.299  26.874  1.00  0.00     0.166 HD
HETATM   13  C   UNL     1      81.069  14.210  24.665  1.00  0.00     0.109 A 
ENDBRANCH   7   8
ENDBRANCH   1   7
BRANCH   3  14
HETATM   14  N   UNL     1      78.769  10.080  19.196  1.00  0.00    -0.399 N 
HETATM   15  H   UNL     1      79.196   9.232  19.454  1.00  0.00     0.156 HD
HETATM   16  H   UNL     1      78.334  10.165  18.318  1.00  0.00     0.156 HD
ENDBRANCH   3  14
TORSDOF 3
ENDMDL
MODEL 4
REMARK VINA RESULT:      -4.8     16.268     17.413
REMARK  3 active torsions:
REMARK  status: ('A' for Active; 'I' for Inactive)
REMARK    1  A    between atoms: N_3  and  C_7 
REMARK    2  A    between atoms: C_7  and  C_8 
REMARK    3  A    between atoms: C_10  and  N_11 
ROOT
HETATM    1  C   UNL     1      63.757   8.339   4.192  1.00  0.00    -0.038 A 
HETATM    2  C   UNL     1      63.858   9.317   5.196  1.00  0.00     0.037 A 
HETATM    3  C   UNL     1      63.023  10.437   5.201  1.00  0.00     0.026 A 
HETATM    4  C   UNL     1      62.069   9.692   3.100  1.00  0.00     0.003 A 
HETATM    5  C   UNL     1      62.849   8.536   3.143  1.00  0.00     0.009 A 
HETATM    6  C   UNL     1      62.168  10.641   4.117  1.00  0.00     0.029 A 
ENDROOT
BRANCH   1   7
HETATM    7  C   UNL     1      64.579   7.080   4.271  1.00  0.00     0.167 C 
BRANCH   7   8
HETATM    8  N   UNL     1      65.656   7.215   5.240  1.00  0.00    -0.347 N 
HETATM    9  C   UNL     1      66.896   7.723   4.985  1.00  0.00     0.182 A 
HETATM   10  N   UNL     1      67.674   7.649   6.045  1.00  0.00    -0.361 N 
HETATM   11  C   UNL     1      66.897   7.082   7.023  1.00  0.00     0.106 A 
ATOM     12  HN  UNL     1      68.645   7.950   6.122  1.00  0.00     0.166 HD
HETATM   13  C   UNL     1      65.634   6.806   6.544  1.00  0.00     0.109 A 
ENDBRANCH   7   8
ENDBRANCH   1   7
BRANCH   3  14
HETATM   14  N   UNL     1      63.202  11.442   6.161  1.00  0.00    -0.399 N 
HETATM   15  H   UNL     1      63.719  12.249   5.938  1.00  0.00     0.156 HD
HETATM   16  H   UNL     1      62.810  11.339   7.058  1.00  0.00     0.156 HD
ENDBRANCH   3  14
TORSDOF 3
ENDMDL
MODEL 5
REMARK VINA RESULT:      -4.6     17.105     19.853
REMARK  3 active torsions:
REMARK  status: ('A' for Active; 'I' for Inactive)
REMARK    1  A    between atoms: N_3  and  C_7 
REMARK    2  A    between atoms: C_7  and  C_8 
REMARK    3  A    between atoms: C_10  and  N_11 
ROOT
HETATM    1  C   UNL     1      62.170   9.467   1.919  1.00  0.00    -0.038 A 
HETATM    2  C   UNL     1      62.560   8.896   3.141  1.00  0.00     0.037 A 
HETATM    3  C   UNL     1      62.530   9.634   4.327  1.00  0.00     0.026 A 
HETATM    4  C   UNL     1      61.861  11.586   3.052  1.00  0.00     0.003 A 
HETATM    5  C   UNL     1      61.817  10.823   1.886  1.00  0.00     0.009 A 
HETATM    6  C   UNL     1      62.230  10.995   4.262  1.00  0.00     0.029 A 
ENDROOT
BRANCH   1   7
HETATM    7  C   UNL     1      62.092   8.622   0.675  1.00  0.00     0.167 C 
BRANCH   7   8
HETATM    8  N   UNL     1      60.918   7.764   0.695  1.00  0.00    -0.347 N 
HETATM    9  C   UNL     1      59.623   8.185   0.612  1.00  0.00     0.182 A 
HETATM   10  N   UNL     1      58.781   7.180   0.730  1.00  0.00    -0.361 N 
HETATM   11  C   UNL     1      59.568   6.067   0.883  1.00  0.00     0.106 A 
ATOM     12  HN  UNL     1      57.762   7.221   0.711  1.00  0.00     0.166 HD
HETATM   13  C   UNL     1      60.903   6.407   0.861  1.00  0.00     0.109 A 
ENDBRANCH   7   8
ENDBRANCH   1   7
BRANCH   3  14
HETATM   14  N   UNL     1      63.006   9.069   5.518  1.00  0.00    -0.399 N 
HETATM   15  H   UNL     1      62.695   9.415   6.385  1.00  0.00     0.156 HD
HETATM   16  H   UNL     1      63.651   8.326   5.486  1.00  0.00     0.156 HD
ENDBRANCH   3  14
TORSDOF 3
ENDMDL
MODEL 6
REMARK VINA RESULT:      -4.6     16.633     18.690
REMARK  3 active torsions:
REMARK  status: ('A' for Active; 'I' for Inactive)
REMARK    1  A    between atoms: N_3  and  C_7 
REMARK    2  A    between atoms: C_7  and  C_8 
REMARK    3  A    between atoms: C_10  and  N_11 
ROOT
HETATM    1  C   UNL     1      67.710   4.611   7.234  1.00  0.00    -0.038 A 
HETATM    2  C   UNL     1      67.922   5.994   7.114  1.00  0.00     0.037 A 
HETATM    3  C   UNL     1      66.860   6.899   7.189  1.00  0.00     0.026 A 
HETATM    4  C   UNL     1      65.326   5.027   7.354  1.00  0.00     0.003 A 
HETATM    5  C   UNL     1      66.397   4.135   7.358  1.00  0.00     0.009 A 
HETATM    6  C   UNL     1      65.558   6.400   7.256  1.00  0.00     0.029 A 
ENDROOT
BRANCH   1   7
HETATM    7  C   UNL     1      68.879   3.662   7.274  1.00  0.00     0.167 C 
BRANCH   7   8
HETATM    8  N   UNL     1      69.110   3.169   8.622  1.00  0.00    -0.347 N 
HETATM    9  C   UNL     1      69.598   3.901   9.664  1.00  0.00     0.182 A 
HETATM   10  N   UNL     1      69.763   3.159  10.739  1.00  0.00    -0.361 N 
HETATM   11  C   UNL     1      69.354   1.902  10.375  1.00  0.00     0.106 A 
ATOM     12  HN  UNL     1      70.119   3.456  11.648  1.00  0.00     0.166 HD
HETATM   13  C   UNL     1      68.939   1.886   9.061  1.00  0.00     0.109 A 
ENDBRANCH   7   8
ENDBRANCH   1   7
BRANCH   3  14
HETATM   14  N   UNL     1      67.085   8.265   6.979  1.00  0.00    -0.399 N 
HETATM   15  H   UNL     1      67.206   8.868   7.748  1.00  0.00     0.156 HD
HETATM   16  H   UNL     1      67.125   8.622   6.062  1.00  0.00     0.156 HD
ENDBRANCH   3  14
TORSDOF 3
ENDMDL
MODEL 7
REMARK VINA RESULT:      -4.6      1.514      4.856
REMARK  3 active torsions:
REMARK  status: ('A' for Active; 'I' for Inactive)
REMARK    1  A    between atoms: N_3  and  C_7 
REMARK    2  A    between atoms: C_7  and  C_8 
REMARK    3  A    between atoms: C_10  and  N_11 
ROOT
HETATM    1  C   UNL     1      71.378  21.947  12.072  1.00  0.00    -0.038 A 
HETATM    2  C   UNL     1      72.415  22.066  11.132  1.00  0.00     0.037 A 
HETATM    3  C   UNL     1      72.663  21.060  10.196  1.00  0.00     0.026 A 
HETATM    4  C   UNL     1      70.924  19.721  11.228  1.00  0.00     0.003 A 
HETATM    5  C   UNL     1      70.630  20.762  12.108  1.00  0.00     0.009 A 
HETATM    6  C   UNL     1      71.945  19.867  10.288  1.00  0.00     0.029 A 
ENDROOT
BRANCH   1   7
HETATM    7  C   UNL     1      71.048  23.093  12.991  1.00  0.00     0.167 C 
BRANCH   7   8
HETATM    8  N   UNL     1      72.032  23.214  14.054  1.00  0.00    -0.347 N 
HETATM    9  C   UNL     1      72.225  24.313  14.840  1.00  0.00     0.182 A 
HETATM   10  N   UNL     1      73.236  24.144  15.665  1.00  0.00    -0.361 N 
HETATM   11  C   UNL     1      73.705  22.881  15.407  1.00  0.00     0.106 A 
ATOM     12  HN  UNL     1      73.594  24.810  16.350  1.00  0.00     0.166 HD
HETATM   13  C   UNL     1      72.967  22.282  14.409  1.00  0.00     0.109 A 
ENDBRANCH   7   8
ENDBRANCH   1   7
BRANCH   3  14
HETATM   14  N   UNL     1      73.758  21.163   9.328  1.00  0.00    -0.399 N 
HETATM   15  H   UNL     1      74.616  20.745   9.567  1.00  0.00     0.156 HD
HETATM   16  H   UNL     1      73.667  21.651   8.478  1.00  0.00     0.156 HD
ENDBRANCH   3  14
TORSDOF 3
ENDMDL
MODEL 8
REMARK VINA RESULT:      -4.6     16.381     18.544
REMARK  3 active torsions:
REMARK  status: ('A' for Active; 'I' for Inactive)
REMARK    1  A    between atoms: N_3  and  C_7 
REMARK    2  A    between atoms: C_7  and  C_8 
REMARK    3  A    between atoms: C_10  and  N_11 
ROOT
HETATM    1  C   UNL     1      68.335   4.010   7.648  1.00  0.00    -0.038 A 
HETATM    2  C   UNL     1      67.663   3.013   8.374  1.00  0.00     0.037 A 
HETATM    3  C   UNL     1      68.108   2.614   9.637  1.00  0.00     0.026 A 
HETATM    4  C   UNL     1      70.005   4.106   9.401  1.00  0.00     0.003 A 
HETATM    5  C   UNL     1      69.512   4.557   8.177  1.00  0.00     0.009 A 
HETATM    6  C   UNL     1      69.312   3.130  10.118  1.00  0.00     0.029 A 
ENDROOT
BRANCH   1   7
HETATM    7  C   UNL     1      67.771   4.513   6.345  1.00  0.00     0.167 C 
BRANCH   7   8
HETATM    8  N   UNL     1      67.263   5.869   6.481  1.00  0.00    -0.347 N 
HETATM    9  C   UNL     1      66.185   6.244   7.229  1.00  0.00     0.182 A 
HETATM   10  N   UNL     1      65.929   7.528   7.094  1.00  0.00    -0.361 N 
HETATM   11  C   UNL     1      66.888   7.999   6.234  1.00  0.00     0.106 A 
ATOM     12  HN  UNL     1      65.179   8.059   7.536  1.00  0.00     0.166 HD
HETATM   13  C   UNL     1      67.732   6.982   5.842  1.00  0.00     0.109 A 
ENDBRANCH   7   8
ENDBRANCH   1   7
BRANCH   3  14
HETATM   14  N   UNL     1      67.474   1.557  10.303  1.00  0.00    -0.399 N 
HETATM   15  H   UNL     1      67.928   0.688  10.391  1.00  0.00     0.156 HD
HETATM   16  H   UNL     1      66.575   1.684  10.684  1.00  0.00     0.156 HD
ENDBRANCH   3  14
TORSDOF 3
ENDMDL
MODEL 9
REMARK VINA RESULT:      -4.5     16.872     18.458
REMARK  3 active torsions:
REMARK  status: ('A' for Active; 'I' for Inactive)
REMARK    1  A    between atoms: N_3  and  C_7 
REMARK    2  A    between atoms: C_7  and  C_8 
REMARK    3  A    between atoms: C_10  and  N_11 
ROOT
HETATM    1  C   UNL     1      62.424   9.074   4.108  1.00  0.00    -0.038 A 
HETATM    2  C   UNL     1      62.403   8.518   2.818  1.00  0.00     0.037 A 
HETATM    3  C   UNL     1      62.212   9.317   1.688  1.00  0.00     0.026 A 
HETATM    4  C   UNL     1      61.905  11.235   3.142  1.00  0.00     0.003 A 
HETATM    5  C   UNL     1      62.176  10.445   4.259  1.00  0.00     0.009 A 
HETATM    6  C   UNL     1      61.910  10.668   1.866  1.00  0.00     0.029 A 
ENDROOT
BRANCH   1   7
HETATM    7  C   UNL     1      62.754   8.216   5.301  1.00  0.00     0.167 C 
BRANCH   7   8
HETATM    8  N   UNL     1      64.129   7.746   5.247  1.00  0.00    -0.347 N 
HETATM    9  C   UNL     1      65.241   8.536   5.256  1.00  0.00     0.182 A 
HETATM   10  N   UNL     1      66.340   7.823   5.125  1.00  0.00    -0.361 N 
HETATM   11  C   UNL     1      65.917   6.522   5.040  1.00  0.00     0.106 A 
ATOM     12  HN  UNL     1      67.300   8.166   5.094  1.00  0.00     0.166 HD
HETATM   13  C   UNL     1      64.542   6.450   5.117  1.00  0.00     0.109 A 
ENDBRANCH   7   8
ENDBRANCH   1   7
BRANCH   3  14
HETATM   14  N   UNL     1      62.107   8.728   0.422  1.00  0.00    -0.399 N 
HETATM   15  H   UNL     1      62.248   7.760   0.316  1.00  0.00     0.156 HD
HETATM   16  H   UNL     1      61.890   9.283  -0.362  1.00  0.00     0.156 HD
ENDBRANCH   3  14
TORSDOF 3
ENDMDL
