MODEL 1
REMARK VINA RESULT:      -6.6      0.000      0.000
REMARK  3 active torsions:
REMARK  status: ('A' for Active; 'I' for Inactive)
REMARK    1  A    between atoms: C_1  and  C_2 
REMARK    2  A    between atoms: C_12  and  C_16 
REMARK    3  A    between atoms: O_15  and  C_16 
ROOT
HETATM    1  C   UNL     1      76.729   6.466  16.492  1.00  0.00    -0.023 A 
HETATM    2  C   UNL     1      77.054   7.547  17.330  1.00  0.00     0.013 A 
HETATM    3  C   UNL     1      76.823   6.681  15.105  1.00  0.00     0.013 A 
HETATM    4  C   UNL     1      77.225   7.916  14.578  1.00  0.00     0.010 A 
HETATM    5  C   UNL     1      77.445   8.787  16.806  1.00  0.00     0.010 A 
HETATM    6  C   UNL     1      77.534   8.982  15.424  1.00  0.00    -0.035 A 
ENDROOT
BRANCH   1   7
HETATM    7  C   UNL     1      76.306   5.163  17.045  1.00  0.00     0.005 A 
HETATM    8  C   UNL     1      76.961   4.521  18.084  1.00  0.00     0.102 A 
HETATM    9  N   UNL     1      76.605   3.326  18.610  1.00  0.00    -0.361 N 
HETATM   10  C   UNL     1      75.522   2.756  18.066  1.00  0.00     0.180 A 
ATOM     11  HN  UNL     1      77.126   2.889  19.370  1.00  0.00     0.166 HD
HETATM   12  N   UNL     1      74.791   3.261  17.067  1.00  0.00    -0.361 N 
HETATM   13  C   UNL     1      75.207   4.454  16.582  1.00  0.00     0.102 A 
ATOM     14  HN  UNL     1      73.973   2.779  16.695  1.00  0.00     0.166 HD
ENDBRANCH   1   7
BRANCH   6  15
HETATM   15  C   UNL     1      77.957  10.317  14.870  1.00  0.00     0.202 C 
BRANCH  15  16
HETATM   16  O   UNL     1      77.213  11.363  15.478  1.00  0.00    -0.396 OA
HETATM   17  H   UNL     1      77.762  12.160  15.532  1.00  0.00     0.209 HD
ENDBRANCH  15  16
ENDBRANCH   6  15
TORSDOF 3
ENDMDL
MODEL 2
REMARK VINA RESULT:      -5.6      7.095      8.802
REMARK  3 active torsions:
REMARK  status: ('A' for Active; 'I' for Inactive)
REMARK    1  A    between atoms: C_1  and  C_2 
REMARK    2  A    between atoms: C_12  and  C_16 
REMARK    3  A    between atoms: O_15  and  C_16 
ROOT
HETATM    1  C   UNL     1      78.478  12.491  21.277  1.00  0.00    -0.023 A 
HETATM    2  C   UNL     1      78.522  11.455  20.327  1.00  0.00     0.013 A 
HETATM    3  C   UNL     1      77.558  13.530  21.047  1.00  0.00     0.013 A 
HETATM    4  C   UNL     1      76.721  13.535  19.924  1.00  0.00     0.010 A 
HETATM    5  C   UNL     1      77.694  11.463  19.197  1.00  0.00     0.010 A 
HETATM    6  C   UNL     1      76.785  12.504  18.985  1.00  0.00    -0.035 A 
ENDROOT
BRANCH   1   7
HETATM    7  C   UNL     1      79.359  12.487  22.463  1.00  0.00     0.005 A 
HETATM    8  C   UNL     1      78.979  11.994  23.701  1.00  0.00     0.102 A 
HETATM    9  N   UNL     1      79.758  11.981  24.807  1.00  0.00    -0.361 N 
HETATM   10  C   UNL     1      80.991  12.480  24.652  1.00  0.00     0.180 A 
ATOM     11  HN  UNL     1      79.428  11.615  25.700  1.00  0.00     0.166 HD
HETATM   12  N   UNL     1      81.493  12.981  23.519  1.00  0.00    -0.361 N 
HETATM   13  C   UNL     1      80.659  12.972  22.453  1.00  0.00     0.102 A 
ATOM     14  HN  UNL     1      82.444  13.347  23.462  1.00  0.00     0.166 HD
ENDBRANCH   1   7
BRANCH   6  15
HETATM   15  C   UNL     1      75.898  12.504  17.768  1.00  0.00     0.202 C 
BRANCH  15  16
HETATM   16  O   UNL     1      76.622  12.945  16.628  1.00  0.00    -0.396 OA
HETATM   17  H   UNL     1      76.078  12.824  15.835  1.00  0.00     0.209 HD
ENDBRANCH  15  16
ENDBRANCH   6  15
TORSDOF 3
ENDMDL
MODEL 3
REMARK VINA RESULT:      -5.5     12.083     13.610
REMARK  3 active torsions:
REMARK  status: ('A' for Active; 'I' for Inactive)
REMARK    1  A    between atoms: C_1  and  C_2 
REMARK    2  A    between atoms: C_12  and  C_16 
REMARK    3  A    between atoms: O_15  and  C_16 
ROOT
HETATM    1  C   UNL     1      68.121   4.996   7.590  1.00  0.00    -0.023 A 
HETATM    2  C   UNL     1      68.296   3.705   7.059  1.00  0.00     0.013 A 
HETATM    3  C   UNL     1      68.552   5.207   8.912  1.00  0.00     0.013 A 
HETATM    4  C   UNL     1      69.132   4.180   9.669  1.00  0.00     0.010 A 
HETATM    5  C   UNL     1      68.864   2.673   7.817  1.00  0.00     0.010 A 
HETATM    6  C   UNL     1      69.288   2.902   9.130  1.00  0.00    -0.035 A 
ENDROOT
BRANCH   1   7
HETATM    7  C   UNL     1      67.511   6.080   6.793  1.00  0.00     0.005 A 
HETATM    8  C   UNL     1      66.777   7.119   7.343  1.00  0.00     0.102 A 
HETATM    9  N   UNL     1      66.201   8.122   6.642  1.00  0.00    -0.361 N 
HETATM   10  C   UNL     1      66.386   8.082   5.317  1.00  0.00     0.180 A 
ATOM     11  HN  UNL     1      65.661   8.860   7.094  1.00  0.00     0.166 HD
HETATM   12  N   UNL     1      67.073   7.148   4.652  1.00  0.00    -0.361 N 
HETATM   13  C   UNL     1      67.617   6.169   5.412  1.00  0.00     0.102 A 
ATOM     14  HN  UNL     1      67.182   7.172   3.638  1.00  0.00     0.166 HD
ENDBRANCH   1   7
BRANCH   6  15
HETATM   15  C   UNL     1      69.900   1.788   9.937  1.00  0.00     0.202 C 
BRANCH  15  16
HETATM   16  O   UNL     1      69.836   2.089  11.324  1.00  0.00    -0.396 OA
HETATM   17  H   UNL     1      70.617   1.725  11.769  1.00  0.00     0.209 HD
ENDBRANCH  15  16
ENDBRANCH   6  15
TORSDOF 3
ENDMDL
MODEL 4
REMARK VINA RESULT:      -5.3      6.959      8.718
REMARK  3 active torsions:
REMARK  status: ('A' for Active; 'I' for Inactive)
REMARK    1  A    between atoms: C_1  and  C_2 
REMARK    2  A    between atoms: C_12  and  C_16 
REMARK    3  A    between atoms: O_15  and  C_16 
ROOT
HETATM    1  C   UNL     1      79.257  11.760  21.097  1.00  0.00    -0.023 A 
HETATM    2  C   UNL     1      77.916  12.069  20.807  1.00  0.00     0.013 A 
HETATM    3  C   UNL     1      79.896  10.834  20.253  1.00  0.00     0.013 A 
HETATM    4  C   UNL     1      79.230  10.244  19.171  1.00  0.00     0.010 A 
HETATM    5  C   UNL     1      77.243  11.472  19.733  1.00  0.00     0.010 A 
HETATM    6  C   UNL     1      77.895  10.554  18.904  1.00  0.00    -0.035 A 
ENDROOT
BRANCH   1   7
HETATM    7  C   UNL     1      79.962  12.382  22.237  1.00  0.00     0.005 A 
HETATM    8  C   UNL     1      81.124  13.125  22.108  1.00  0.00     0.102 A 
HETATM    9  N   UNL     1      81.797  13.702  23.131  1.00  0.00    -0.361 N 
HETATM   10  C   UNL     1      81.261  13.530  24.345  1.00  0.00     0.180 A 
ATOM     11  HN  UNL     1      82.656  14.233  22.986  1.00  0.00     0.166 HD
HETATM   12  N   UNL     1      80.145  12.846  24.617  1.00  0.00    -0.361 N 
HETATM   13  C   UNL     1      79.526  12.288  23.550  1.00  0.00     0.102 A 
ATOM     14  HN  UNL     1      79.783  12.751  25.566  1.00  0.00     0.166 HD
ENDBRANCH   1   7
BRANCH   6  15
HETATM   15  C   UNL     1      77.165   9.918  17.751  1.00  0.00     0.202 C 
BRANCH  15  16
HETATM   16  O   UNL     1      77.627  10.451  16.518  1.00  0.00    -0.396 OA
HETATM   17  H   UNL     1      77.753   9.731  15.882  1.00  0.00     0.209 HD
ENDBRANCH  15  16
ENDBRANCH   6  15
TORSDOF 3
ENDMDL
MODEL 5
REMARK VINA RESULT:      -5.3      7.812      9.458
REMARK  3 active torsions:
REMARK  status: ('A' for Active; 'I' for Inactive)
REMARK    1  A    between atoms: C_1  and  C_2 
REMARK    2  A    between atoms: C_12  and  C_16 
REMARK    3  A    between atoms: O_15  and  C_16 
ROOT
HETATM    1  C   UNL     1      78.884  12.410  21.911  1.00  0.00    -0.023 A 
HETATM    2  C   UNL     1      80.142  13.035  21.965  1.00  0.00     0.013 A 
HETATM    3  C   UNL     1      78.411  11.824  23.099  1.00  0.00     0.013 A 
HETATM    4  C   UNL     1      79.157  11.860  24.284  1.00  0.00     0.010 A 
HETATM    5  C   UNL     1      80.896  13.063  23.146  1.00  0.00     0.010 A 
HETATM    6  C   UNL     1      80.409  12.476  24.317  1.00  0.00    -0.035 A 
ENDROOT
BRANCH   1   7
HETATM    7  C   UNL     1      78.095  12.372  20.663  1.00  0.00     0.005 A 
HETATM    8  C   UNL     1      77.475  13.482  20.111  1.00  0.00     0.102 A 
HETATM    9  N   UNL     1      76.741  13.480  18.975  1.00  0.00    -0.361 N 
HETATM   10  C   UNL     1      76.639  12.298  18.355  1.00  0.00     0.180 A 
ATOM     11  HN  UNL     1      76.296  14.324  18.613  1.00  0.00     0.166 HD
HETATM   12  N   UNL     1      77.187  11.150  18.766  1.00  0.00    -0.361 N 
HETATM   13  C   UNL     1      77.900  11.220  19.914  1.00  0.00     0.102 A 
ATOM     14  HN  UNL     1      77.075  10.278  18.248  1.00  0.00     0.166 HD
ENDBRANCH   1   7
BRANCH   6  15
HETATM   15  C   UNL     1      81.225  12.512  25.582  1.00  0.00     0.202 C 
BRANCH  15  16
HETATM   16  O   UNL     1      81.142  11.266  26.260  1.00  0.00    -0.396 OA
HETATM   17  H   UNL     1      80.465  11.320  26.953  1.00  0.00     0.209 HD
ENDBRANCH  15  16
ENDBRANCH   6  15
TORSDOF 3
ENDMDL
MODEL 6
REMARK VINA RESULT:      -5.2     11.612     12.567
REMARK  3 active torsions:
REMARK  status: ('A' for Active; 'I' for Inactive)
REMARK    1  A    between atoms: C_1  and  C_2 
REMARK    2  A    between atoms: C_12  and  C_16 
REMARK    3  A    between atoms: O_15  and  C_16 
ROOT
HETATM    1  C   UNL     1      67.839   4.905   8.040  1.00  0.00    -0.023 A 
HETATM    2  C   UNL     1      67.863   4.757   6.642  1.00  0.00     0.013 A 
HETATM    3  C   UNL     1      67.308   6.105   8.547  1.00  0.00     0.013 A 
HETATM    4  C   UNL     1      66.821   7.109   7.699  1.00  0.00     0.010 A 
HETATM    5  C   UNL     1      67.388   5.764   5.791  1.00  0.00     0.010 A 
HETATM    6  C   UNL     1      66.862   6.950   6.313  1.00  0.00    -0.035 A 
ENDROOT
BRANCH   1   7
HETATM    7  C   UNL     1      68.350   3.847   8.936  1.00  0.00     0.005 A 
HETATM    8  C   UNL     1      69.357   4.049   9.866  1.00  0.00     0.102 A 
HETATM    9  N   UNL     1      69.852   3.102  10.696  1.00  0.00    -0.361 N 
HETATM   10  C   UNL     1      69.292   1.890  10.589  1.00  0.00     0.180 A 
ATOM     11  HN  UNL     1      70.602   3.297  11.359  1.00  0.00     0.166 HD
HETATM   12  N   UNL     1      68.312   1.554   9.744  1.00  0.00    -0.361 N 
HETATM   13  C   UNL     1      67.869   2.546   8.937  1.00  0.00     0.102 A 
ATOM     14  HN  UNL     1      67.923   0.611   9.711  1.00  0.00     0.166 HD
ENDBRANCH   1   7
BRANCH   6  15
HETATM   15  C   UNL     1      66.353   8.026   5.391  1.00  0.00     0.202 C 
BRANCH  15  16
HETATM   16  O   UNL     1      65.721   9.057   6.136  1.00  0.00    -0.396 OA
HETATM   17  H   UNL     1      65.157   8.663   6.819  1.00  0.00     0.209 HD
ENDBRANCH  15  16
ENDBRANCH   6  15
TORSDOF 3
ENDMDL
MODEL 7
REMARK VINA RESULT:      -5.2      4.852      7.866
REMARK  3 active torsions:
REMARK  status: ('A' for Active; 'I' for Inactive)
REMARK    1  A    between atoms: C_1  and  C_2 
REMARK    2  A    between atoms: C_12  and  C_16 
REMARK    3  A    between atoms: O_15  and  C_16 
ROOT
HETATM    1  C   UNL     1      74.922   1.489  17.143  1.00  0.00    -0.023 A 
HETATM    2  C   UNL     1      74.733   0.957  15.855  1.00  0.00     0.013 A 
HETATM    3  C   UNL     1      74.493   0.704  18.228  1.00  0.00     0.013 A 
HETATM    4  C   UNL     1      73.905  -0.554  18.038  1.00  0.00     0.010 A 
HETATM    5  C   UNL     1      74.135  -0.295  15.661  1.00  0.00     0.010 A 
HETATM    6  C   UNL     1      73.715  -1.063  16.752  1.00  0.00    -0.035 A 
ENDROOT
BRANCH   1   7
HETATM    7  C   UNL     1      75.543   2.814  17.345  1.00  0.00     0.005 A 
HETATM    8  C   UNL     1      76.695   3.017  18.089  1.00  0.00     0.102 A 
HETATM    9  N   UNL     1      77.285   4.217  18.299  1.00  0.00    -0.361 N 
HETATM   10  C   UNL     1      76.687   5.264  17.717  1.00  0.00     0.180 A 
ATOM     11  HN  UNL     1      78.129   4.316  18.863  1.00  0.00     0.166 HD
HETATM   12  N   UNL     1      75.580   5.217  16.970  1.00  0.00    -0.361 N 
HETATM   13  C   UNL     1      75.036   3.988  16.807  1.00  0.00     0.102 A 
ATOM     14  HN  UNL     1      75.172   6.052  16.550  1.00  0.00     0.166 HD
ENDBRANCH   1   7
BRANCH   6  15
HETATM   15  C   UNL     1      73.075  -2.408  16.534  1.00  0.00     0.202 C 
BRANCH  15  16
HETATM   16  O   UNL     1      71.660  -2.287  16.529  1.00  0.00    -0.396 OA
HETATM   17  H   UNL     1      71.370  -1.927  15.676  1.00  0.00     0.209 HD
ENDBRANCH  15  16
ENDBRANCH   6  15
TORSDOF 3
ENDMDL
MODEL 8
REMARK VINA RESULT:      -5.1     16.488     17.426
REMARK  3 active torsions:
REMARK  status: ('A' for Active; 'I' for Inactive)
REMARK    1  A    between atoms: C_1  and  C_2 
REMARK    2  A    between atoms: C_12  and  C_16 
REMARK    3  A    between atoms: O_15  and  C_16 
ROOT
HETATM    1  C   UNL     1      64.257   8.060   4.936  1.00  0.00    -0.023 A 
HETATM    2  C   UNL     1      64.033   7.310   3.767  1.00  0.00     0.013 A 
HETATM    3  C   UNL     1      63.569   9.281   5.053  1.00  0.00     0.013 A 
HETATM    4  C   UNL     1      62.698   9.733   4.053  1.00  0.00     0.010 A 
HETATM    5  C   UNL     1      63.171   7.764   2.760  1.00  0.00     0.010 A 
HETATM    6  C   UNL     1      62.495   8.980   2.894  1.00  0.00    -0.035 A 
ENDROOT
BRANCH   1   7
HETATM    7  C   UNL     1      65.174   7.585   5.992  1.00  0.00     0.005 A 
HETATM    8  C   UNL     1      64.909   6.497   6.807  1.00  0.00     0.102 A 
HETATM    9  N   UNL     1      65.724   6.040   7.787  1.00  0.00    -0.361 N 
HETATM   10  C   UNL     1      66.872   6.711   7.942  1.00  0.00     0.180 A 
ATOM     11  HN  UNL     1      65.479   5.238   8.368  1.00  0.00     0.166 HD
HETATM   12  N   UNL     1      67.261   7.770   7.227  1.00  0.00    -0.361 N 
HETATM   13  C   UNL     1      66.396   8.180   6.269  1.00  0.00     0.102 A 
ATOM     14  HN  UNL     1      68.152   8.239   7.391  1.00  0.00     0.166 HD
ENDBRANCH   1   7
BRANCH   6  15
HETATM   15  C   UNL     1      61.570   9.460   1.808  1.00  0.00     0.202 C 
BRANCH  15  16
HETATM   16  O   UNL     1      61.259  10.833   1.992  1.00  0.00    -0.396 OA
HETATM   17  H   UNL     1      61.811  11.371   1.404  1.00  0.00     0.209 HD
ENDBRANCH  15  16
ENDBRANCH   6  15
TORSDOF 3
ENDMDL
MODEL 9
REMARK VINA RESULT:      -5.0      8.499     10.031
REMARK  3 active torsions:
REMARK  status: ('A' for Active; 'I' for Inactive)
REMARK    1  A    between atoms: C_1  and  C_2 
REMARK    2  A    between atoms: C_12  and  C_16 
REMARK    3  A    between atoms: O_15  and  C_16 
ROOT
HETATM    1  C   UNL     1      80.249  12.736  22.443  1.00  0.00    -0.023 A 
HETATM    2  C   UNL     1      81.524  13.303  22.270  1.00  0.00     0.013 A 
HETATM    3  C   UNL     1      79.617  12.947  23.681  1.00  0.00     0.013 A 
HETATM    4  C   UNL     1      80.228  13.691  24.700  1.00  0.00     0.010 A 
HETATM    5  C   UNL     1      82.142  14.037  23.292  1.00  0.00     0.010 A 
HETATM    6  C   UNL     1      81.499  14.238  24.516  1.00  0.00    -0.035 A 
ENDROOT
BRANCH   1   7
HETATM    7  C   UNL     1      79.603  11.953  21.369  1.00  0.00     0.005 A 
HETATM    8  C   UNL     1      78.251  12.023  21.074  1.00  0.00     0.102 A 
HETATM    9  N   UNL     1      77.628  11.316  20.103  1.00  0.00    -0.361 N 
HETATM   10  C   UNL     1      78.414  10.503  19.385  1.00  0.00     0.180 A 
ATOM     11  HN  UNL     1      76.626  11.396  19.930  1.00  0.00     0.166 HD
HETATM   12  N   UNL     1      79.729  10.340  19.554  1.00  0.00    -0.361 N 
HETATM   13  C   UNL     1      80.288  11.070  20.547  1.00  0.00     0.102 A 
ATOM     14  HN  UNL     1      80.277   9.705  18.972  1.00  0.00     0.166 HD
ENDBRANCH   1   7
BRANCH   6  15
HETATM   15  C   UNL     1      82.170  15.030  25.607  1.00  0.00     0.202 C 
BRANCH  15  16
HETATM   16  O   UNL     1      81.551  14.771  26.859  1.00  0.00    -0.396 OA
HETATM   17  H   UNL     1      80.963  15.508  27.088  1.00  0.00     0.209 HD
ENDBRANCH  15  16
ENDBRANCH   6  15
TORSDOF 3
ENDMDL
