MODEL 1
REMARK VINA RESULT:      -5.6      0.000      0.000
REMARK  3 active torsions:
REMARK  status: ('A' for Active; 'I' for Inactive)
REMARK    1  A    between atoms: N_1  and  C_2 
REMARK    2  A    between atoms: C_3  and  C_6 
REMARK    3  A    between atoms: C_6  and  O_7 
ROOT
HETATM    1  C   UNL     1      63.288   9.094   4.584  1.00  0.00     0.038 A 
HETATM    2  C   UNL     1      62.835  10.427   4.829  1.00  0.00    -0.008 A 
HETATM    3  C   UNL     1      62.911   8.549   3.327  1.00  0.00     0.030 A 
HETATM    4  C   UNL     1      62.119  11.125   3.817  1.00  0.00     0.011 A 
HETATM    5  C   UNL     1      62.212   9.256   2.343  1.00  0.00     0.002 A 
HETATM    6  C   UNL     1      61.822  10.556   2.584  1.00  0.00     0.001 A 
ENDROOT
BRANCH   1   7
HETATM    7  N   UNL     1      64.024   8.313   5.462  1.00  0.00    -0.380 N 
HETATM    8  C   UNL     1      65.481   8.168   5.432  1.00  0.00     0.123 C 
HETATM    9  C   UNL     1      65.713   6.680   5.681  1.00  0.00     0.021 C 
HETATM   10  C   UNL     1      64.616   6.331   6.656  1.00  0.00     0.021 C 
HETATM   11  C   UNL     1      63.433   7.154   6.160  1.00  0.00     0.123 C 
ENDBRANCH   1   7
BRANCH   2  12
HETATM   12  C   UNL     1      63.020  11.204   6.114  1.00  0.00     0.205 C 
BRANCH  12  13
HETATM   13  O   UNL     1      64.375  11.523   6.386  1.00  0.00    -0.396 OA
HETATM   14  H   UNL     1      64.875  11.545   5.555  1.00  0.00     0.209 HD
ENDBRANCH  12  13
ENDBRANCH   2  12
TORSDOF 3
ENDMDL
MODEL 2
REMARK VINA RESULT:      -4.8     17.734     19.007
REMARK  3 active torsions:
REMARK  status: ('A' for Active; 'I' for Inactive)
REMARK    1  A    between atoms: N_1  and  C_2 
REMARK    2  A    between atoms: C_3  and  C_6 
REMARK    3  A    between atoms: C_6  and  O_7 
ROOT
HETATM    1  C   UNL     1      75.638   2.544  17.268  1.00  0.00     0.038 A 
HETATM    2  C   UNL     1      76.731   3.070  18.022  1.00  0.00    -0.008 A 
HETATM    3  C   UNL     1      74.820   3.515  16.631  1.00  0.00     0.030 A 
HETATM    4  C   UNL     1      76.968   4.473  18.034  1.00  0.00     0.011 A 
HETATM    5  C   UNL     1      75.075   4.890  16.650  1.00  0.00     0.002 A 
HETATM    6  C   UNL     1      76.161   5.373  17.347  1.00  0.00     0.001 A 
ENDROOT
BRANCH   1   7
HETATM    7  N   UNL     1      75.314   1.202  17.138  1.00  0.00    -0.380 N 
HETATM    8  C   UNL     1      75.475   0.418  15.911  1.00  0.00     0.123 C 
HETATM    9  C   UNL     1      74.203  -0.424  15.838  1.00  0.00     0.021 C 
HETATM   10  C   UNL     1      73.928  -0.739  17.288  1.00  0.00     0.021 C 
HETATM   11  C   UNL     1      74.308   0.553  18.003  1.00  0.00     0.123 C 
ENDBRANCH   1   7
BRANCH   2  12
HETATM   12  C   UNL     1      77.696   2.266  18.865  1.00  0.00     0.205 C 
BRANCH  12  13
HETATM   13  O   UNL     1      78.092   2.932  20.053  1.00  0.00    -0.396 OA
HETATM   14  H   UNL     1      78.898   2.519  20.402  1.00  0.00     0.209 HD
ENDBRANCH  12  13
ENDBRANCH   2  12
TORSDOF 3
ENDMDL
MODEL 3
REMARK VINA RESULT:      -4.8      1.708      2.247
REMARK  3 active torsions:
REMARK  status: ('A' for Active; 'I' for Inactive)
REMARK    1  A    between atoms: N_1  and  C_2 
REMARK    2  A    between atoms: C_3  and  C_6 
REMARK    3  A    between atoms: C_6  and  O_7 
ROOT
HETATM    1  C   UNL     1      62.909   8.279   3.238  1.00  0.00     0.038 A 
HETATM    2  C   UNL     1      62.284   9.467   2.749  1.00  0.00    -0.008 A 
HETATM    3  C   UNL     1      63.010   7.219   2.298  1.00  0.00     0.030 A 
HETATM    4  C   UNL     1      61.877   9.540   1.388  1.00  0.00     0.011 A 
HETATM    5  C   UNL     1      62.609   7.314   0.961  1.00  0.00     0.002 A 
HETATM    6  C   UNL     1      62.048   8.485   0.500  1.00  0.00     0.001 A 
ENDROOT
BRANCH   1   7
HETATM    7  N   UNL     1      63.387   8.084   4.525  1.00  0.00    -0.380 N 
HETATM    8  C   UNL     1      64.679   8.564   5.020  1.00  0.00     0.123 C 
HETATM    9  C   UNL     1      65.217   7.401   5.849  1.00  0.00     0.021 C 
HETATM   10  C   UNL     1      63.968   6.834   6.477  1.00  0.00     0.021 C 
HETATM   11  C   UNL     1      62.932   6.958   5.365  1.00  0.00     0.123 C 
ENDBRANCH   1   7
BRANCH   2  12
HETATM   12  C   UNL     1      61.973  10.704   3.563  1.00  0.00     0.205 C 
BRANCH  12  13
HETATM   13  O   UNL     1      61.936  11.891   2.787  1.00  0.00    -0.396 OA
HETATM   14  H   UNL     1      62.253  12.636   3.320  1.00  0.00     0.209 HD
ENDBRANCH  12  13
ENDBRANCH   2  12
TORSDOF 3
ENDMDL
MODEL 4
REMARK VINA RESULT:      -4.6      2.451      3.467
REMARK  3 active torsions:
REMARK  status: ('A' for Active; 'I' for Inactive)
REMARK    1  A    between atoms: N_1  and  C_2 
REMARK    2  A    between atoms: C_3  and  C_6 
REMARK    3  A    between atoms: C_6  and  O_7 
ROOT
HETATM    1  C   UNL     1      62.346   9.069   3.664  1.00  0.00     0.038 A 
HETATM    2  C   UNL     1      62.194   9.078   2.244  1.00  0.00    -0.008 A 
HETATM    3  C   UNL     1      62.235  10.338   4.292  1.00  0.00     0.030 A 
HETATM    4  C   UNL     1      61.888  10.296   1.575  1.00  0.00     0.011 A 
HETATM    5  C   UNL     1      61.926  11.524   3.616  1.00  0.00     0.002 A 
HETATM    6  C   UNL     1      61.742  11.502   2.251  1.00  0.00     0.001 A 
ENDROOT
BRANCH   1   7
HETATM    7  N   UNL     1      62.606   7.953   4.445  1.00  0.00    -0.380 N 
HETATM    8  C   UNL     1      61.603   6.972   4.864  1.00  0.00     0.123 C 
HETATM    9  C   UNL     1      61.950   6.684   6.323  1.00  0.00     0.021 C 
HETATM   10  C   UNL     1      63.457   6.750   6.326  1.00  0.00     0.021 C 
HETATM   11  C   UNL     1      63.758   7.897   5.368  1.00  0.00     0.123 C 
ENDBRANCH   1   7
BRANCH   2  12
HETATM   12  C   UNL     1      62.354   7.885   1.327  1.00  0.00     0.205 C 
BRANCH  12  13
HETATM   13  O   UNL     1      62.486   8.242  -0.039  1.00  0.00    -0.396 OA
HETATM   14  H   UNL     1      62.590   7.439  -0.575  1.00  0.00     0.209 HD
ENDBRANCH  12  13
ENDBRANCH   2  12
TORSDOF 3
ENDMDL
MODEL 5
REMARK VINA RESULT:      -4.6     18.162     20.672
REMARK  3 active torsions:
REMARK  status: ('A' for Active; 'I' for Inactive)
REMARK    1  A    between atoms: N_1  and  C_2 
REMARK    2  A    between atoms: C_3  and  C_6 
REMARK    3  A    between atoms: C_6  and  O_7 
ROOT
HETATM    1  C   UNL     1      76.962   0.566  17.875  1.00  0.00     0.038 A 
HETATM    2  C   UNL     1      77.470   1.699  18.581  1.00  0.00    -0.008 A 
HETATM    3  C   UNL     1      77.614  -0.664  18.156  1.00  0.00     0.030 A 
HETATM    4  C   UNL     1      78.511   1.526  19.536  1.00  0.00     0.011 A 
HETATM    5  C   UNL     1      78.632  -0.814  19.104  1.00  0.00     0.002 A 
HETATM    6  C   UNL     1      79.077   0.285  19.806  1.00  0.00     0.001 A 
ENDROOT
BRANCH   1   7
HETATM    7  N   UNL     1      75.930   0.583  16.949  1.00  0.00    -0.380 N 
HETATM    8  C   UNL     1      74.504   0.600  17.285  1.00  0.00     0.123 C 
HETATM    9  C   UNL     1      73.876  -0.374  16.292  1.00  0.00     0.021 C 
HETATM   10  C   UNL     1      74.689  -0.147  15.042  1.00  0.00     0.021 C 
HETATM   11  C   UNL     1      76.101   0.062  15.578  1.00  0.00     0.123 C 
ENDBRANCH   1   7
BRANCH   2  12
HETATM   12  C   UNL     1      77.018   3.132  18.402  1.00  0.00     0.205 C 
BRANCH  12  13
HETATM   13  O   UNL     1      76.935   3.850  19.622  1.00  0.00    -0.396 OA
HETATM   14  H   UNL     1      77.769   4.322  19.777  1.00  0.00     0.209 HD
ENDBRANCH  12  13
ENDBRANCH   2  12
TORSDOF 3
ENDMDL
MODEL 6
REMARK VINA RESULT:      -4.5      3.190      6.540
REMARK  3 active torsions:
REMARK  status: ('A' for Active; 'I' for Inactive)
REMARK    1  A    between atoms: N_1  and  C_2 
REMARK    2  A    between atoms: C_3  and  C_6 
REMARK    3  A    between atoms: C_6  and  O_7 
ROOT
HETATM    1  C   UNL     1      66.607   6.417   7.236  1.00  0.00     0.038 A 
HETATM    2  C   UNL     1      67.357   5.383   6.597  1.00  0.00    -0.008 A 
HETATM    3  C   UNL     1      66.932   6.644   8.600  1.00  0.00     0.030 A 
HETATM    4  C   UNL     1      68.389   4.715   7.314  1.00  0.00     0.011 A 
HETATM    5  C   UNL     1      67.955   5.981   9.284  1.00  0.00     0.002 A 
HETATM    6  C   UNL     1      68.696   5.017   8.636  1.00  0.00     0.001 A 
ENDROOT
BRANCH   1   7
HETATM    7  N   UNL     1      65.603   7.172   6.649  1.00  0.00    -0.380 N 
HETATM    8  C   UNL     1      64.250   6.688   6.363  1.00  0.00     0.123 C 
HETATM    9  C   UNL     1      63.938   7.251   4.979  1.00  0.00     0.021 C 
HETATM   10  C   UNL     1      64.615   8.599   5.008  1.00  0.00     0.021 C 
HETATM   11  C   UNL     1      65.901   8.327   5.779  1.00  0.00     0.123 C 
ENDBRANCH   1   7
BRANCH   2  12
HETATM   12  C   UNL     1      67.151   4.881   5.185  1.00  0.00     0.205 C 
BRANCH  12  13
HETATM   13  O   UNL     1      67.601   5.792   4.195  1.00  0.00    -0.396 OA
HETATM   14  H   UNL     1      67.839   5.304   3.391  1.00  0.00     0.209 HD
ENDBRANCH  12  13
ENDBRANCH   2  12
TORSDOF 3
ENDMDL
MODEL 7
REMARK VINA RESULT:      -4.4      1.946      2.720
REMARK  3 active torsions:
REMARK  status: ('A' for Active; 'I' for Inactive)
REMARK    1  A    between atoms: N_1  and  C_2 
REMARK    2  A    between atoms: C_3  and  C_6 
REMARK    3  A    between atoms: C_6  and  O_7 
ROOT
HETATM    1  C   UNL     1      63.423   9.021   4.738  1.00  0.00     0.038 A 
HETATM    2  C   UNL     1      62.964   8.699   3.424  1.00  0.00    -0.008 A 
HETATM    3  C   UNL     1      63.080  10.321   5.197  1.00  0.00     0.030 A 
HETATM    4  C   UNL     1      62.166   9.635   2.708  1.00  0.00     0.011 A 
HETATM    5  C   UNL     1      62.287  11.222   4.479  1.00  0.00     0.002 A 
HETATM    6  C   UNL     1      61.819  10.875   3.231  1.00  0.00     0.001 A 
ENDROOT
BRANCH   1   7
HETATM    7  N   UNL     1      64.173   8.194   5.560  1.00  0.00    -0.380 N 
HETATM    8  C   UNL     1      65.622   8.006   5.459  1.00  0.00     0.123 C 
HETATM    9  C   UNL     1      65.818   6.505   5.659  1.00  0.00     0.021 C 
HETATM   10  C   UNL     1      64.756   6.163   6.675  1.00  0.00     0.021 C 
HETATM   11  C   UNL     1      63.579   7.035   6.256  1.00  0.00     0.123 C 
ENDBRANCH   1   7
BRANCH   2  12
HETATM   12  C   UNL     1      63.265   7.425   2.666  1.00  0.00     0.205 C 
BRANCH  12  13
HETATM   13  O   UNL     1      62.452   7.250   1.518  1.00  0.00    -0.396 OA
HETATM   14  H   UNL     1      62.954   6.780   0.834  1.00  0.00     0.209 HD
ENDBRANCH  12  13
ENDBRANCH   2  12
TORSDOF 3
ENDMDL
MODEL 8
REMARK VINA RESULT:      -4.3      4.935      8.034
REMARK  3 active torsions:
REMARK  status: ('A' for Active; 'I' for Inactive)
REMARK    1  A    between atoms: N_1  and  C_2 
REMARK    2  A    between atoms: C_3  and  C_6 
REMARK    3  A    between atoms: C_6  and  O_7 
ROOT
HETATM    1  C   UNL     1      68.052   4.955   7.614  1.00  0.00     0.038 A 
HETATM    2  C   UNL     1      67.726   3.565   7.640  1.00  0.00    -0.008 A 
HETATM    3  C   UNL     1      69.127   5.340   8.459  1.00  0.00     0.030 A 
HETATM    4  C   UNL     1      68.507   2.672   8.426  1.00  0.00     0.011 A 
HETATM    5  C   UNL     1      69.887   4.444   9.219  1.00  0.00     0.002 A 
HETATM    6  C   UNL     1      69.582   3.101   9.195  1.00  0.00     0.001 A 
ENDROOT
BRANCH   1   7
HETATM    7  N   UNL     1      67.402   5.927   6.868  1.00  0.00    -0.380 N 
HETATM    8  C   UNL     1      67.668   6.215   5.456  1.00  0.00     0.123 C 
HETATM    9  C   UNL     1      67.651   7.739   5.377  1.00  0.00     0.021 C 
HETATM   10  C   UNL     1      66.576   8.112   6.368  1.00  0.00     0.021 C 
HETATM   11  C   UNL     1      66.778   7.108   7.497  1.00  0.00     0.123 C 
ENDBRANCH   1   7
BRANCH   2  12
HETATM   12  C   UNL     1      66.575   2.909   6.908  1.00  0.00     0.205 C 
BRANCH  12  13
HETATM   13  O   UNL     1      65.398   2.807   7.692  1.00  0.00    -0.396 OA
HETATM   14  H   UNL     1      64.961   3.672   7.735  1.00  0.00     0.209 HD
ENDBRANCH  12  13
ENDBRANCH   2  12
TORSDOF 3
ENDMDL
MODEL 9
REMARK VINA RESULT:      -4.2      2.571      3.481
REMARK  3 active torsions:
REMARK  status: ('A' for Active; 'I' for Inactive)
REMARK    1  A    between atoms: N_1  and  C_2 
REMARK    2  A    between atoms: C_3  and  C_6 
REMARK    3  A    between atoms: C_6  and  O_7 
ROOT
HETATM    1  C   UNL     1      62.883   8.697   3.653  1.00  0.00     0.038 A 
HETATM    2  C   UNL     1      62.190   9.597   2.787  1.00  0.00    -0.008 A 
HETATM    3  C   UNL     1      63.274   9.245   4.904  1.00  0.00     0.030 A 
HETATM    4  C   UNL     1      61.886  10.913   3.234  1.00  0.00     0.011 A 
HETATM    5  C   UNL     1      62.959  10.540   5.327  1.00  0.00     0.002 A 
HETATM    6  C   UNL     1      62.252  11.377   4.492  1.00  0.00     0.001 A 
ENDROOT
BRANCH   1   7
HETATM    7  N   UNL     1      63.210   7.381   3.363  1.00  0.00    -0.380 N 
HETATM    8  C   UNL     1      62.270   6.259   3.392  1.00  0.00     0.123 C 
HETATM    9  C   UNL     1      63.056   5.130   4.053  1.00  0.00     0.021 C 
HETATM   10  C   UNL     1      64.455   5.349   3.531  1.00  0.00     0.021 C 
HETATM   11  C   UNL     1      64.587   6.867   3.513  1.00  0.00     0.123 C 
ENDBRANCH   1   7
BRANCH   2  12
HETATM   12  C   UNL     1      61.743   9.298   1.372  1.00  0.00     0.205 C 
BRANCH  12  13
HETATM   13  O   UNL     1      60.380   8.918   1.283  1.00  0.00    -0.396 OA
HETATM   14  H   UNL     1      60.160   8.326   2.019  1.00  0.00     0.209 HD
ENDBRANCH  12  13
ENDBRANCH   2  12
TORSDOF 3
ENDMDL
