MODEL 1
REMARK VINA RESULT:      -5.1      0.000      0.000
REMARK  2 active torsions:
REMARK  status: ('A' for Active; 'I' for Inactive)
REMARK    1  A    between atoms: C_5  and  C_11 
REMARK    2  A    between atoms: C_11  and  O_13 
ROOT
HETATM    1  C   UNL     1      75.665   2.660  17.530  1.00  0.00     0.018 A 
HETATM    2  N   UNL     1      77.735   2.677  18.459  1.00  0.00    -0.298 N 
ATOM      3  HN  UNL     1      78.653   2.953  18.807  1.00  0.00     0.187 HD
HETATM    4  N   UNL     1      77.166   1.453  18.525  1.00  0.00    -0.297 N 
HETATM    5  C   UNL     1      75.905   1.382  17.975  1.00  0.00     0.064 A 
HETATM    6  C   UNL     1      76.832   3.450  17.839  1.00  0.00     0.060 A 
HETATM    7  C   UNL     1      74.511   3.107  16.888  1.00  0.00     0.016 A 
HETATM    8  C   UNL     1      76.899   4.808  17.494  1.00  0.00     0.032 A 
HETATM    9  C   UNL     1      74.607   4.473  16.549  1.00  0.00     0.001 A 
HETATM   10  C   UNL     1      75.745   5.287  16.836  1.00  0.00     0.002 A 
HETATM   11  C   UNL     1      77.948   0.390  19.118  1.00  0.00     0.177 C 
ENDROOT
BRANCH   5  12
HETATM   12  C   UNL     1      75.092   0.149  17.933  1.00  0.00     0.223 C 
BRANCH  12  13
HETATM   13  O   UNL     1      74.242   0.169  19.069  1.00  0.00    -0.395 OA
HETATM   14  H   UNL     1      73.391   0.568  18.830  1.00  0.00     0.209 HD
ENDBRANCH  12  13
ENDBRANCH   5  12
TORSDOF 2
ENDMDL
MODEL 2
REMARK VINA RESULT:      -5.0      8.568     10.200
REMARK  2 active torsions:
REMARK  status: ('A' for Active; 'I' for Inactive)
REMARK    1  A    between atoms: C_5  and  C_11 
REMARK    2  A    between atoms: C_11  and  O_13 
ROOT
HETATM    1  C   UNL     1      78.451  11.901  20.499  1.00  0.00     0.018 A 
HETATM    2  N   UNL     1      79.959  10.350  19.814  1.00  0.00    -0.298 N 
ATOM      3  HN  UNL     1      80.778   9.749  19.724  1.00  0.00     0.187 HD
HETATM    4  N   UNL     1      78.854  10.354  19.035  1.00  0.00    -0.297 N 
HETATM    5  C   UNL     1      77.902  11.277  19.405  1.00  0.00     0.064 A 
HETATM    6  C   UNL     1      79.745  11.306  20.729  1.00  0.00     0.060 A 
HETATM    7  C   UNL     1      77.870  12.927  21.242  1.00  0.00     0.016 A 
HETATM    8  C   UNL     1      80.566  11.742  21.779  1.00  0.00     0.032 A 
HETATM    9  C   UNL     1      78.718  13.350  22.288  1.00  0.00     0.001 A 
HETATM   10  C   UNL     1      80.006  12.787  22.546  1.00  0.00     0.002 A 
HETATM   11  C   UNL     1      78.828   9.434  17.918  1.00  0.00     0.177 C 
ENDROOT
BRANCH   5  12
HETATM   12  C   UNL     1      76.616  11.462  18.701  1.00  0.00     0.223 C 
BRANCH  12  13
HETATM   13  O   UNL     1      76.828  12.432  17.687  1.00  0.00    -0.395 OA
HETATM   14  H   UNL     1      77.719  12.328  17.321  1.00  0.00     0.209 HD
ENDBRANCH  12  13
ENDBRANCH   5  12
TORSDOF 2
ENDMDL
MODEL 3
REMARK VINA RESULT:      -5.0      8.521      9.971
REMARK  2 active torsions:
REMARK  status: ('A' for Active; 'I' for Inactive)
REMARK    1  A    between atoms: C_5  and  C_11 
REMARK    2  A    between atoms: C_11  and  O_13 
ROOT
HETATM    1  C   UNL     1      77.732  11.323  19.425  1.00  0.00     0.018 A 
HETATM    2  N   UNL     1      79.591  11.176  20.717  1.00  0.00    -0.298 N 
ATOM      3  HN  UNL     1      80.495  10.914  21.112  1.00  0.00     0.187 HD
HETATM    4  N   UNL     1      78.743  12.127  21.167  1.00  0.00    -0.297 N 
HETATM    5  C   UNL     1      77.594  12.262  20.420  1.00  0.00     0.064 A 
HETATM    6  C   UNL     1      78.990  10.651  19.640  1.00  0.00     0.060 A 
HETATM    7  C   UNL     1      76.820  11.062  18.404  1.00  0.00     0.016 A 
HETATM    8  C   UNL     1      79.414   9.620  18.789  1.00  0.00     0.032 A 
HETATM    9  C   UNL     1      77.269  10.019  17.566  1.00  0.00     0.001 A 
HETATM   10  C   UNL     1      78.506   9.328  17.748  1.00  0.00     0.002 A 
HETATM   11  C   UNL     1      79.123  12.840  22.366  1.00  0.00     0.177 C 
ENDROOT
BRANCH   5  12
HETATM   12  C   UNL     1      76.524  13.235  20.722  1.00  0.00     0.223 C 
BRANCH  12  13
HETATM   13  O   UNL     1      76.622  14.277  19.763  1.00  0.00    -0.395 OA
HETATM   14  H   UNL     1      77.300  14.911  20.043  1.00  0.00     0.209 HD
ENDBRANCH  12  13
ENDBRANCH   5  12
TORSDOF 2
ENDMDL
MODEL 4
REMARK VINA RESULT:      -4.7     19.235     20.706
REMARK  2 active torsions:
REMARK  status: ('A' for Active; 'I' for Inactive)
REMARK    1  A    between atoms: C_5  and  C_11 
REMARK    2  A    between atoms: C_11  and  O_13 
ROOT
HETATM    1  C   UNL     1      62.449   9.308   3.799  1.00  0.00     0.018 A 
HETATM    2  N   UNL     1      62.601   7.719   2.187  1.00  0.00    -0.298 N 
ATOM      3  HN  UNL     1      62.610   7.220   1.298  1.00  0.00     0.187 HD
HETATM    4  N   UNL     1      62.853   7.213   3.415  1.00  0.00    -0.297 N 
HETATM    5  C   UNL     1      62.775   8.134   4.435  1.00  0.00     0.064 A 
HETATM    6  C   UNL     1      62.338   9.018   2.391  1.00  0.00     0.060 A 
HETATM    7  C   UNL     1      62.251  10.548   4.406  1.00  0.00     0.016 A 
HETATM    8  C   UNL     1      61.999  10.020   1.470  1.00  0.00     0.032 A 
HETATM    9  C   UNL     1      61.908  11.535   3.458  1.00  0.00     0.001 A 
HETATM   10  C   UNL     1      61.786  11.286   2.056  1.00  0.00     0.002 A 
HETATM   11  C   UNL     1      63.131   5.796   3.502  1.00  0.00     0.177 C 
ENDROOT
BRANCH   5  12
HETATM   12  C   UNL     1      63.010   7.810   5.858  1.00  0.00     0.223 C 
BRANCH  12  13
HETATM   13  O   UNL     1      64.353   8.165   6.152  1.00  0.00    -0.395 OA
HETATM   14  H   UNL     1      64.674   7.631   6.894  1.00  0.00     0.209 HD
ENDBRANCH  12  13
ENDBRANCH   5  12
TORSDOF 2
ENDMDL
MODEL 5
REMARK VINA RESULT:      -4.7     18.839     20.272
REMARK  2 active torsions:
REMARK  status: ('A' for Active; 'I' for Inactive)
REMARK    1  A    between atoms: C_5  and  C_11 
REMARK    2  A    between atoms: C_11  and  O_13 
ROOT
HETATM    1  C   UNL     1      62.634   8.925   3.415  1.00  0.00     0.018 A 
HETATM    2  N   UNL     1      63.032   9.256   5.624  1.00  0.00    -0.298 N 
ATOM      3  HN  UNL     1      63.120   9.660   6.556  1.00  0.00     0.187 HD
HETATM    4  N   UNL     1      63.308   7.987   5.250  1.00  0.00    -0.297 N 
HETATM    5  C   UNL     1      63.084   7.727   3.917  1.00  0.00     0.064 A 
HETATM    6  C   UNL     1      62.619   9.869   4.505  1.00  0.00     0.060 A 
HETATM    7  C   UNL     1      62.271   9.182   2.094  1.00  0.00     0.016 A 
HETATM    8  C   UNL     1      62.216  11.198   4.306  1.00  0.00     0.032 A 
HETATM    9  C   UNL     1      61.874  10.525   1.922  1.00  0.00     0.001 A 
HETATM   10  C   UNL     1      61.848  11.490   2.975  1.00  0.00     0.002 A 
HETATM   11  C   UNL     1      63.823   7.095   6.266  1.00  0.00     0.177 C 
ENDROOT
BRANCH   5  12
HETATM   12  C   UNL     1      63.315   6.411   3.283  1.00  0.00     0.223 C 
BRANCH  12  13
HETATM   13  O   UNL     1      64.688   6.354   2.926  1.00  0.00    -0.395 OA
HETATM   14  H   UNL     1      65.210   6.074   3.694  1.00  0.00     0.209 HD
ENDBRANCH  12  13
ENDBRANCH   5  12
TORSDOF 2
ENDMDL
MODEL 6
REMARK VINA RESULT:      -4.6      7.867      9.368
REMARK  2 active torsions:
REMARK  status: ('A' for Active; 'I' for Inactive)
REMARK    1  A    between atoms: C_5  and  C_11 
REMARK    2  A    between atoms: C_11  and  O_13 
ROOT
HETATM    1  C   UNL     1      77.223  11.592  19.063  1.00  0.00     0.018 A 
HETATM    2  N   UNL     1      79.104  10.957  20.163  1.00  0.00    -0.298 N 
ATOM      3  HN  UNL     1      79.878  10.885  20.823  1.00  0.00     0.187 HD
HETATM    4  N   UNL     1      78.853  10.162  19.100  1.00  0.00    -0.297 N 
HETATM    5  C   UNL     1      77.721  10.500  18.392  1.00  0.00     0.064 A 
HETATM    6  C   UNL     1      78.114  11.862  20.165  1.00  0.00     0.060 A 
HETATM    7  C   UNL     1      76.076  12.311  18.732  1.00  0.00     0.016 A 
HETATM    8  C   UNL     1      77.881  12.936  21.037  1.00  0.00     0.032 A 
HETATM    9  C   UNL     1      75.868  13.386  19.622  1.00  0.00     0.001 A 
HETATM   10  C   UNL     1      76.728  13.687  20.722  1.00  0.00     0.002 A 
HETATM   11  C   UNL     1      79.801   9.104  18.827  1.00  0.00     0.177 C 
ENDROOT
BRANCH   5  12
HETATM   12  C   UNL     1      77.250   9.773  17.195  1.00  0.00     0.223 C 
BRANCH  12  13
HETATM   13  O   UNL     1      77.778  10.447  16.062  1.00  0.00    -0.395 OA
HETATM   14  H   UNL     1      78.664  10.782  16.269  1.00  0.00     0.209 HD
ENDBRANCH  12  13
ENDBRANCH   5  12
TORSDOF 2
ENDMDL
MODEL 7
REMARK VINA RESULT:      -4.6     11.273     12.738
REMARK  2 active torsions:
REMARK  status: ('A' for Active; 'I' for Inactive)
REMARK    1  A    between atoms: C_5  and  C_11 
REMARK    2  A    between atoms: C_11  and  O_13 
ROOT
HETATM    1  C   UNL     1      79.968  11.962  24.913  1.00  0.00     0.018 A 
HETATM    2  N   UNL     1      78.248  11.339  23.570  1.00  0.00    -0.298 N 
ATOM      3  HN  UNL     1      77.385  10.939  23.201  1.00  0.00     0.187 HD
HETATM    4  N   UNL     1      79.155  12.090  22.907  1.00  0.00    -0.297 N 
HETATM    5  C   UNL     1      80.224  12.498  23.673  1.00  0.00     0.064 A 
HETATM    6  C   UNL     1      78.727  11.233  24.818  1.00  0.00     0.060 A 
HETATM    7  C   UNL     1      80.767  12.090  26.048  1.00  0.00     0.016 A 
HETATM    8  C   UNL     1      78.200  10.554  25.927  1.00  0.00     0.032 A 
HETATM    9  C   UNL     1      80.216  11.395  27.145  1.00  0.00     0.001 A 
HETATM   10  C   UNL     1      78.992  10.660  27.090  1.00  0.00     0.002 A 
HETATM   11  C   UNL     1      78.911  12.334  21.502  1.00  0.00     0.177 C 
ENDROOT
BRANCH   5  12
HETATM   12  C   UNL     1      81.336  13.326  23.162  1.00  0.00     0.223 C 
BRANCH  12  13
HETATM   13  O   UNL     1      82.266  12.446  22.548  1.00  0.00    -0.395 OA
HETATM   14  H   UNL     1      82.962  12.962  22.116  1.00  0.00     0.209 HD
ENDBRANCH  12  13
ENDBRANCH   5  12
TORSDOF 2
ENDMDL
MODEL 8
REMARK VINA RESULT:      -4.5     19.478     21.047
REMARK  2 active torsions:
REMARK  status: ('A' for Active; 'I' for Inactive)
REMARK    1  A    between atoms: C_5  and  C_11 
REMARK    2  A    between atoms: C_11  and  O_13 
ROOT
HETATM    1  C   UNL     1      62.816   8.520   3.045  1.00  0.00     0.018 A 
HETATM    2  N   UNL     1      61.731  10.495   3.311  1.00  0.00    -0.298 N 
ATOM      3  HN  UNL     1      61.129  11.309   3.188  1.00  0.00     0.187 HD
HETATM    4  N   UNL     1      62.557  10.234   4.348  1.00  0.00    -0.297 N 
HETATM    5  C   UNL     1      63.244   9.045   4.241  1.00  0.00     0.064 A 
HETATM    6  C   UNL     1      61.874   9.454   2.478  1.00  0.00     0.060 A 
HETATM    7  C   UNL     1      63.226   7.314   2.479  1.00  0.00     0.016 A 
HETATM    8  C   UNL     1      61.264   9.205   1.239  1.00  0.00     0.032 A 
HETATM    9  C   UNL     1      62.601   7.091   1.233  1.00  0.00     0.001 A 
HETATM   10  C   UNL     1      61.666   7.993   0.639  1.00  0.00     0.002 A 
HETATM   11  C   UNL     1      62.640  11.228   5.395  1.00  0.00     0.177 C 
ENDROOT
BRANCH   5  12
HETATM   12  C   UNL     1      64.201   8.552   5.253  1.00  0.00     0.223 C 
BRANCH  12  13
HETATM   13  O   UNL     1      63.444   7.908   6.267  1.00  0.00    -0.395 OA
HETATM   14  H   UNL     1      63.351   8.502   7.027  1.00  0.00     0.209 HD
ENDBRANCH  12  13
ENDBRANCH   5  12
TORSDOF 2
ENDMDL
MODEL 9
REMARK VINA RESULT:      -4.5     12.101     13.631
REMARK  2 active torsions:
REMARK  status: ('A' for Active; 'I' for Inactive)
REMARK    1  A    between atoms: C_5  and  C_11 
REMARK    2  A    between atoms: C_11  and  O_13 
ROOT
HETATM    1  C   UNL     1      68.239   4.878   8.192  1.00  0.00     0.018 A 
HETATM    2  N   UNL     1      66.335   3.644   8.247  1.00  0.00    -0.298 N 
ATOM      3  HN  UNL     1      65.632   2.932   8.442  1.00  0.00     0.187 HD
HETATM    4  N   UNL     1      66.197   4.745   7.475  1.00  0.00    -0.297 N 
HETATM    5  C   UNL     1      67.323   5.534   7.403  1.00  0.00     0.064 A 
HETATM    6  C   UNL     1      67.596   3.692   8.701  1.00  0.00     0.060 A 
HETATM    7  C   UNL     1      69.550   5.280   8.442  1.00  0.00     0.016 A 
HETATM    8  C   UNL     1      68.283   2.798   9.535  1.00  0.00     0.032 A 
HETATM    9  C   UNL     1      70.219   4.362   9.279  1.00  0.00     0.001 A 
HETATM   10  C   UNL     1      69.617   3.176   9.801  1.00  0.00     0.002 A 
HETATM   11  C   UNL     1      64.926   4.930   6.809  1.00  0.00     0.177 C 
ENDROOT
BRANCH   5  12
HETATM   12  C   UNL     1      67.405   6.784   6.620  1.00  0.00     0.223 C 
BRANCH  12  13
HETATM   13  O   UNL     1      67.101   7.853   7.504  1.00  0.00    -0.395 OA
HETATM   14  H   UNL     1      67.847   8.471   7.533  1.00  0.00     0.209 HD
ENDBRANCH  12  13
ENDBRANCH   5  12
TORSDOF 2
ENDMDL
