MODEL 1
REMARK VINA RESULT:      -6.1      0.000      0.000
REMARK  3 active torsions:
REMARK  status: ('A' for Active; 'I' for Inactive)
REMARK    1  A    between atoms: C_1  and  C_3 
REMARK    2  A    between atoms: C_8  and  C_12 
REMARK    3  A    between atoms: N_9  and  C_12 
ROOT
HETATM    1  C   UNL     1      77.396   9.070  17.054  1.00  0.00    -0.018 A 
HETATM    2  C   UNL     1      76.970   7.784  17.425  1.00  0.00     0.021 A 
HETATM    3  C   UNL     1      76.756   6.771  16.473  1.00  0.00    -0.032 A 
HETATM    4  C   UNL     1      77.643   9.315  15.695  1.00  0.00     0.013 A 
HETATM    5  C   UNL     1      77.451   8.314  14.739  1.00  0.00     0.001 A 
HETATM    6  C   UNL     1      77.005   7.050  15.125  1.00  0.00     0.009 A 
ENDROOT
BRANCH   1   7
HETATM    7  C   UNL     1      77.551  10.112  18.092  1.00  0.00     0.015 A 
HETATM    8  S   UNL     1      78.893  10.097  19.170  1.00  0.00    -0.101 SA
HETATM    9  C   UNL     1      78.403  11.547  19.924  1.00  0.00     0.050 A 
HETATM   10  C   UNL     1      77.245  12.049  19.381  1.00  0.00     0.008 A 
HETATM   11  C   UNL     1      76.752  11.218  18.333  1.00  0.00     0.020 A 
ENDBRANCH   1   7
BRANCH   3  12
HETATM   12  C   UNL     1      76.265   5.407  16.903  1.00  0.00     0.270 C 
BRANCH  12  13
HETATM   13  N   UNL     1      77.189   4.785  17.852  1.00  0.00    -0.075 N 
HETATM   14  C   UNL     1      76.849   3.392  18.087  1.00  0.00     0.267 C 
HETATM   15  H   UNL     1      77.146   5.291  18.737  1.00  0.00     0.277 HD
HETATM   16  H   UNL     1      78.129   4.824  17.459  1.00  0.00     0.277 HD
ENDBRANCH  12  13
ENDBRANCH   3  12
TORSDOF 3
ENDMDL
MODEL 2
REMARK VINA RESULT:      -5.9      2.981      6.328
REMARK  3 active torsions:
REMARK  status: ('A' for Active; 'I' for Inactive)
REMARK    1  A    between atoms: C_1  and  C_3 
REMARK    2  A    between atoms: C_8  and  C_12 
REMARK    3  A    between atoms: N_9  and  C_12 
ROOT
HETATM    1  C   UNL     1      77.264  11.241  18.751  1.00  0.00    -0.018 A 
HETATM    2  C   UNL     1      78.222  11.351  19.772  1.00  0.00     0.021 A 
HETATM    3  C   UNL     1      78.216  12.424  20.682  1.00  0.00    -0.032 A 
HETATM    4  C   UNL     1      76.263  12.220  18.680  1.00  0.00     0.013 A 
HETATM    5  C   UNL     1      76.233  13.283  19.586  1.00  0.00     0.001 A 
HETATM    6  C   UNL     1      77.207  13.388  20.579  1.00  0.00     0.009 A 
ENDROOT
BRANCH   1   7
HETATM    7  C   UNL     1      77.353  10.122  17.789  1.00  0.00     0.015 A 
HETATM    8  S   UNL     1      77.021   8.505  18.276  1.00  0.00    -0.101 SA
HETATM    9  C   UNL     1      77.250   7.898  16.698  1.00  0.00     0.050 A 
HETATM   10  C   UNL     1      77.572   8.890  15.803  1.00  0.00     0.008 A 
HETATM   11  C   UNL     1      77.639  10.167  16.433  1.00  0.00     0.020 A 
ENDBRANCH   1   7
BRANCH   3  12
HETATM   12  C   UNL     1      79.282  12.530  21.748  1.00  0.00     0.270 C 
BRANCH  12  13
HETATM   13  N   UNL     1      78.918  11.763  22.941  1.00  0.00    -0.075 N 
HETATM   14  C   UNL     1      79.710  12.164  24.091  1.00  0.00     0.267 C 
HETATM   15  H   UNL     1      79.077  10.772  22.758  1.00  0.00     0.277 HD
HETATM   16  H   UNL     1      77.936  11.940  23.149  1.00  0.00     0.277 HD
ENDBRANCH  12  13
ENDBRANCH   3  12
TORSDOF 3
ENDMDL
MODEL 3
REMARK VINA RESULT:      -5.9      1.529      1.906
REMARK  3 active torsions:
REMARK  status: ('A' for Active; 'I' for Inactive)
REMARK    1  A    between atoms: C_1  and  C_3 
REMARK    2  A    between atoms: C_8  and  C_12 
REMARK    3  A    between atoms: N_9  and  C_12 
ROOT
HETATM    1  C   UNL     1      77.325  10.171  17.880  1.00  0.00    -0.018 A 
HETATM    2  C   UNL     1      77.028   8.860  18.290  1.00  0.00     0.021 A 
HETATM    3  C   UNL     1      77.022   7.783  17.386  1.00  0.00    -0.032 A 
HETATM    4  C   UNL     1      77.658  10.379  16.534  1.00  0.00     0.013 A 
HETATM    5  C   UNL     1      77.673   9.317  15.625  1.00  0.00     0.001 A 
HETATM    6  C   UNL     1      77.351   8.027  16.047  1.00  0.00     0.009 A 
ENDROOT
BRANCH   1   7
HETATM    7  C   UNL     1      77.262  11.272  18.864  1.00  0.00     0.015 A 
HETATM    8  S   UNL     1      76.128  12.555  18.686  1.00  0.00    -0.101 SA
HETATM    9  C   UNL     1      76.615  13.293  20.146  1.00  0.00     0.050 A 
HETATM   10  C   UNL     1      77.618  12.591  20.772  1.00  0.00     0.008 A 
HETATM   11  C   UNL     1      77.994  11.435  20.029  1.00  0.00     0.020 A 
ENDBRANCH   1   7
BRANCH   3  12
HETATM   12  C   UNL     1      76.665   6.391  17.854  1.00  0.00     0.270 C 
BRANCH  12  13
HETATM   13  N   UNL     1      76.626   5.448  16.735  1.00  0.00    -0.075 N 
HETATM   14  C   UNL     1      75.329   4.804  16.629  1.00  0.00     0.267 C 
HETATM   15  H   UNL     1      77.341   4.735  16.879  1.00  0.00     0.277 HD
HETATM   16  H   UNL     1      76.800   5.965  15.874  1.00  0.00     0.277 HD
ENDBRANCH  12  13
ENDBRANCH   3  12
TORSDOF 3
ENDMDL
MODEL 4
REMARK VINA RESULT:      -5.9      2.610      3.968
REMARK  3 active torsions:
REMARK  status: ('A' for Active; 'I' for Inactive)
REMARK    1  A    between atoms: C_1  and  C_3 
REMARK    2  A    between atoms: C_8  and  C_12 
REMARK    3  A    between atoms: N_9  and  C_12 
ROOT
HETATM    1  C   UNL     1      77.283  10.081  17.956  1.00  0.00    -0.018 A 
HETATM    2  C   UNL     1      77.591  10.163  16.588  1.00  0.00     0.021 A 
HETATM    3  C   UNL     1      77.623   9.023  15.765  1.00  0.00    -0.032 A 
HETATM    4  C   UNL     1      76.966   8.821  18.484  1.00  0.00     0.013 A 
HETATM    5  C   UNL     1      76.978   7.681  17.676  1.00  0.00     0.001 A 
HETATM    6  C   UNL     1      77.310   7.780  16.326  1.00  0.00     0.009 A 
ENDROOT
BRANCH   1   7
HETATM    7  C   UNL     1      77.318  11.305  18.785  1.00  0.00     0.015 A 
HETATM    8  S   UNL     1      76.307  12.650  18.423  1.00  0.00    -0.101 SA
HETATM    9  C   UNL     1      76.857  13.529  19.779  1.00  0.00     0.050 A 
HETATM   10  C   UNL     1      77.790  12.829  20.505  1.00  0.00     0.008 A 
HETATM   11  C   UNL     1      78.061  11.554  19.928  1.00  0.00     0.020 A 
ENDBRANCH   1   7
BRANCH   3  12
HETATM   12  C   UNL     1      77.992   9.143  14.304  1.00  0.00     0.270 C 
BRANCH  12  13
HETATM   13  N   UNL     1      77.578  10.436  13.757  1.00  0.00    -0.075 N 
HETATM   14  C   UNL     1      77.774  10.490  12.318  1.00  0.00     0.267 C 
HETATM   15  H   UNL     1      78.130  11.173  14.195  1.00  0.00     0.277 HD
HETATM   16  H   UNL     1      76.585  10.565  13.951  1.00  0.00     0.277 HD
ENDBRANCH  12  13
ENDBRANCH   3  12
TORSDOF 3
ENDMDL
MODEL 5
REMARK VINA RESULT:      -5.5      5.221      7.888
REMARK  3 active torsions:
REMARK  status: ('A' for Active; 'I' for Inactive)
REMARK    1  A    between atoms: C_1  and  C_3 
REMARK    2  A    between atoms: C_8  and  C_12 
REMARK    3  A    between atoms: N_9  and  C_12 
ROOT
HETATM    1  C   UNL     1      79.248  12.632  22.073  1.00  0.00    -0.018 A 
HETATM    2  C   UNL     1      78.925  12.147  23.352  1.00  0.00     0.021 A 
HETATM    3  C   UNL     1      79.866  12.129  24.397  1.00  0.00    -0.032 A 
HETATM    4  C   UNL     1      80.539  13.141  21.869  1.00  0.00     0.013 A 
HETATM    5  C   UNL     1      81.480  13.145  22.902  1.00  0.00     0.001 A 
HETATM    6  C   UNL     1      81.148  12.637  24.158  1.00  0.00     0.009 A 
ENDROOT
BRANCH   1   7
HETATM    7  C   UNL     1      78.236  12.574  20.997  1.00  0.00     0.015 A 
HETATM    8  S   UNL     1      78.255  11.311  19.828  1.00  0.00    -0.101 SA
HETATM    9  C   UNL     1      76.839  11.886  19.068  1.00  0.00     0.050 A 
HETATM   10  C   UNL     1      76.346  13.015  19.677  1.00  0.00     0.008 A 
HETATM   11  C   UNL     1      77.155  13.414  20.781  1.00  0.00     0.020 A 
ENDBRANCH   1   7
BRANCH   3  12
HETATM   12  C   UNL     1      79.495  11.569  25.752  1.00  0.00     0.270 C 
BRANCH  12  13
HETATM   13  N   UNL     1      78.345  10.669  25.657  1.00  0.00    -0.075 N 
HETATM   14  C   UNL     1      78.361   9.676  26.717  1.00  0.00     0.267 C 
HETATM   15  H   UNL     1      78.370  10.193  24.755  1.00  0.00     0.277 HD
HETATM   16  H   UNL     1      77.494  11.224  25.749  1.00  0.00     0.277 HD
ENDBRANCH  12  13
ENDBRANCH   3  12
TORSDOF 3
ENDMDL
MODEL 6
REMARK VINA RESULT:      -5.3      3.102      6.087
REMARK  3 active torsions:
REMARK  status: ('A' for Active; 'I' for Inactive)
REMARK    1  A    between atoms: C_1  and  C_3 
REMARK    2  A    between atoms: C_8  and  C_12 
REMARK    3  A    between atoms: N_9  and  C_12 
ROOT
HETATM    1  C   UNL     1      77.964   9.755  17.818  1.00  0.00    -0.018 A 
HETATM    2  C   UNL     1      77.032  10.675  18.328  1.00  0.00     0.021 A 
HETATM    3  C   UNL     1      77.300  11.446  19.472  1.00  0.00    -0.032 A 
HETATM    4  C   UNL     1      79.203   9.649  18.466  1.00  0.00     0.013 A 
HETATM    5  C   UNL     1      79.492  10.421  19.595  1.00  0.00     0.001 A 
HETATM    6  C   UNL     1      78.544  11.311  20.099  1.00  0.00     0.009 A 
ENDROOT
BRANCH   1   7
HETATM    7  C   UNL     1      77.605   8.931  16.645  1.00  0.00     0.015 A 
HETATM    8  S   UNL     1      77.856   9.510  15.044  1.00  0.00    -0.101 SA
HETATM    9  C   UNL     1      77.306   8.054  14.346  1.00  0.00     0.050 A 
HETATM   10  C   UNL     1      76.934   7.133  15.295  1.00  0.00     0.008 A 
HETATM   11  C   UNL     1      77.099   7.641  16.616  1.00  0.00     0.020 A 
ENDBRANCH   1   7
BRANCH   3  12
HETATM   12  C   UNL     1      76.261  12.402  20.013  1.00  0.00     0.270 C 
BRANCH  12  13
HETATM   13  N   UNL     1      76.826  13.735  20.227  1.00  0.00    -0.075 N 
HETATM   14  C   UNL     1      77.156  14.379  18.968  1.00  0.00     0.267 C 
HETATM   15  H   UNL     1      77.673  13.649  20.789  1.00  0.00     0.277 HD
HETATM   16  H   UNL     1      76.130  14.306  20.707  1.00  0.00     0.277 HD
ENDBRANCH  12  13
ENDBRANCH   3  12
TORSDOF 3
ENDMDL
MODEL 7
REMARK VINA RESULT:      -5.2     18.697     20.097
REMARK  3 active torsions:
REMARK  status: ('A' for Active; 'I' for Inactive)
REMARK    1  A    between atoms: C_1  and  C_3 
REMARK    2  A    between atoms: C_8  and  C_12 
REMARK    3  A    between atoms: N_9  and  C_12 
ROOT
HETATM    1  C   UNL     1      63.390   9.101   4.649  1.00  0.00    -0.018 A 
HETATM    2  C   UNL     1      62.947   8.749   3.363  1.00  0.00     0.021 A 
HETATM    3  C   UNL     1      62.139   9.606   2.596  1.00  0.00    -0.032 A 
HETATM    4  C   UNL     1      63.031  10.363   5.144  1.00  0.00     0.013 A 
HETATM    5  C   UNL     1      62.241  11.234   4.388  1.00  0.00     0.001 A 
HETATM    6  C   UNL     1      61.793  10.856   3.123  1.00  0.00     0.009 A 
ENDROOT
BRANCH   1   7
HETATM    7  C   UNL     1      64.192   8.137   5.432  1.00  0.00     0.015 A 
HETATM    8  S   UNL     1      63.452   6.785   6.198  1.00  0.00    -0.101 SA
HETATM    9  C   UNL     1      64.947   6.190   6.767  1.00  0.00     0.050 A 
HETATM   10  C   UNL     1      65.999   6.990   6.391  1.00  0.00     0.008 A 
HETATM   11  C   UNL     1      65.563   8.113   5.630  1.00  0.00     0.020 A 
ENDBRANCH   1   7
BRANCH   3  12
HETATM   12  C   UNL     1      61.653   9.181   1.228  1.00  0.00     0.270 C 
BRANCH  12  13
HETATM   13  N   UNL     1      60.236   8.815   1.259  1.00  0.00    -0.075 N 
HETATM   14  C   UNL     1      59.950   7.727   0.341  1.00  0.00     0.267 C 
HETATM   15  H   UNL     1      59.678   9.628   0.995  1.00  0.00     0.277 HD
HETATM   16  H   UNL     1      60.003   8.509   2.203  1.00  0.00     0.277 HD
ENDBRANCH  12  13
ENDBRANCH   3  12
TORSDOF 3
ENDMDL
MODEL 8
REMARK VINA RESULT:      -4.7     19.354     20.867
REMARK  3 active torsions:
REMARK  status: ('A' for Active; 'I' for Inactive)
REMARK    1  A    between atoms: C_1  and  C_3 
REMARK    2  A    between atoms: C_8  and  C_12 
REMARK    3  A    between atoms: N_9  and  C_12 
ROOT
HETATM    1  C   UNL     1      61.869   9.040   3.315  1.00  0.00    -0.018 A 
HETATM    2  C   UNL     1      62.915   8.289   3.877  1.00  0.00     0.021 A 
HETATM    3  C   UNL     1      63.788   8.833   4.835  1.00  0.00    -0.032 A 
HETATM    4  C   UNL     1      61.689  10.355   3.766  1.00  0.00     0.013 A 
HETATM    5  C   UNL     1      62.537  10.906   4.731  1.00  0.00     0.001 A 
HETATM    6  C   UNL     1      63.585  10.152   5.258  1.00  0.00     0.009 A 
ENDROOT
BRANCH   1   7
HETATM    7  C   UNL     1      61.018   8.433   2.270  1.00  0.00     0.015 A 
HETATM    8  S   UNL     1      59.709   7.395   2.685  1.00  0.00    -0.101 SA
HETATM    9  C   UNL     1      59.237   7.208   1.056  1.00  0.00     0.050 A 
HETATM   10  C   UNL     1      60.046   7.914   0.199  1.00  0.00     0.008 A 
HETATM   11  C   UNL     1      61.074   8.611   0.897  1.00  0.00     0.020 A 
ENDBRANCH   1   7
BRANCH   3  12
HETATM   12  C   UNL     1      64.924   8.007   5.395  1.00  0.00     0.270 C 
BRANCH  12  13
HETATM   13  N   UNL     1      64.583   7.454   6.706  1.00  0.00    -0.075 N 
HETATM   14  C   UNL     1      65.719   6.777   7.307  1.00  0.00     0.267 C 
HETATM   15  H   UNL     1      63.819   6.787   6.596  1.00  0.00     0.277 HD
HETATM   16  H   UNL     1      64.307   8.223   7.317  1.00  0.00     0.277 HD
ENDBRANCH  12  13
ENDBRANCH   3  12
TORSDOF 3
ENDMDL
MODEL 9
REMARK VINA RESULT:      -4.7     13.537     15.397
REMARK  3 active torsions:
REMARK  status: ('A' for Active; 'I' for Inactive)
REMARK    1  A    between atoms: C_1  and  C_3 
REMARK    2  A    between atoms: C_8  and  C_12 
REMARK    3  A    between atoms: N_9  and  C_12 
ROOT
HETATM    1  C   UNL     1      67.956   4.528   6.849  1.00  0.00    -0.018 A 
HETATM    2  C   UNL     1      67.690   5.905   6.763  1.00  0.00     0.021 A 
HETATM    3  C   UNL     1      67.263   6.504   5.565  1.00  0.00    -0.032 A 
HETATM    4  C   UNL     1      67.748   3.746   5.704  1.00  0.00     0.013 A 
HETATM    5  C   UNL     1      67.309   4.323   4.509  1.00  0.00     0.001 A 
HETATM    6  C   UNL     1      67.073   5.696   4.438  1.00  0.00     0.009 A 
ENDROOT
BRANCH   1   7
HETATM    7  C   UNL     1      68.455   3.962   8.120  1.00  0.00     0.015 A 
HETATM    8  S   UNL     1      67.863   2.459   8.715  1.00  0.00    -0.101 SA
HETATM    9  C   UNL     1      68.914   2.487  10.059  1.00  0.00     0.050 A 
HETATM   10  C   UNL     1      69.707   3.609  10.073  1.00  0.00     0.008 A 
HETATM   11  C   UNL     1      69.437   4.460   8.962  1.00  0.00     0.020 A 
ENDBRANCH   1   7
BRANCH   3  12
HETATM   12  C   UNL     1      67.018   7.995   5.498  1.00  0.00     0.270 C 
BRANCH  12  13
HETATM   13  N   UNL     1      65.750   8.353   6.135  1.00  0.00    -0.075 N 
HETATM   14  C   UNL     1      64.719   8.625   5.148  1.00  0.00     0.267 C 
HETATM   15  H   UNL     1      65.890   9.186   6.707  1.00  0.00     0.277 HD
HETATM   16  H   UNL     1      65.445   7.567   6.710  1.00  0.00     0.277 HD
ENDBRANCH  12  13
ENDBRANCH   3  12
TORSDOF 3
ENDMDL
