MODEL 1
REMARK VINA RESULT:      -5.7      0.000      0.000
REMARK  1 active torsions:
REMARK  status: ('A' for Active; 'I' for Inactive)
REMARK    1  A    between atoms: C_5  and  C_6 
ROOT
HETATM    1  C   UNL     1      76.251   2.622  17.776  1.00  0.00     0.045 A 
HETATM    2  N   UNL     1      76.682   1.408  18.268  1.00  0.00    -0.360 N 
HETATM    3  C   UNL     1      76.882   3.878  17.743  1.00  0.00     0.049 A 
HETATM    4  C   UNL     1      75.715   0.454  18.091  1.00  0.00     0.091 A 
HETATM    5  C   UNL     1      76.192   4.947  17.152  1.00  0.00     0.043 A 
HETATM    6  C   UNL     1      74.647   1.050  17.460  1.00  0.00     0.031 A 
HETATM    7  C   UNL     1      74.973   2.419  17.251  1.00  0.00    -0.008 A 
HETATM    8  C   UNL     1      74.914   4.760  16.616  1.00  0.00     0.019 A 
HETATM    9  C   UNL     1      74.295   3.504  16.662  1.00  0.00     0.015 A 
HETATM   10  C   UNL     1      77.977   1.171  18.866  1.00  0.00     0.155 C 
ENDROOT
BRANCH   5  11
HETATM   11  C   UNL     1      76.792   6.302  17.073  1.00  0.00     0.209 C 
HETATM   12  O   UNL     1      76.940   7.075  18.002  1.00  0.00    -0.644 OA
HETATM   13  O   UNL     1      77.181   6.631  15.827  1.00  0.00    -0.644 OA
ENDBRANCH   5  11
TORSDOF 1
ENDMDL
MODEL 2
REMARK VINA RESULT:      -5.2     19.331     20.671
REMARK  1 active torsions:
REMARK  status: ('A' for Active; 'I' for Inactive)
REMARK    1  A    between atoms: C_5  and  C_6 
ROOT
HETATM    1  C   UNL     1      62.792   7.884   2.541  1.00  0.00     0.045 A 
HETATM    2  N   UNL     1      63.156   6.568   2.345  1.00  0.00    -0.360 N 
HETATM    3  C   UNL     1      62.838   8.689   3.693  1.00  0.00     0.049 A 
HETATM    4  C   UNL     1      62.920   6.200   1.046  1.00  0.00     0.091 A 
HETATM    5  C   UNL     1      62.408  10.021   3.583  1.00  0.00     0.043 A 
HETATM    6  C   UNL     1      62.412   7.294   0.384  1.00  0.00     0.031 A 
HETATM    7  C   UNL     1      62.328   8.366   1.315  1.00  0.00    -0.008 A 
HETATM    8  C   UNL     1      61.947  10.522   2.362  1.00  0.00     0.019 A 
HETATM    9  C   UNL     1      61.900   9.706   1.225  1.00  0.00     0.015 A 
HETATM   10  C   UNL     1      63.725   5.708   3.357  1.00  0.00     0.155 C 
ENDROOT
BRANCH   5  11
HETATM   11  C   UNL     1      62.431  10.936   4.751  1.00  0.00     0.209 C 
HETATM   12  O   UNL     1      61.967  12.061   4.789  1.00  0.00    -0.644 OA
HETATM   13  O   UNL     1      63.041  10.400   5.825  1.00  0.00    -0.644 OA
ENDBRANCH   5  11
TORSDOF 1
ENDMDL
MODEL 3
REMARK VINA RESULT:      -5.1     11.091     12.732
REMARK  1 active torsions:
REMARK  status: ('A' for Active; 'I' for Inactive)
REMARK    1  A    between atoms: C_5  and  C_6 
ROOT
HETATM    1  C   UNL     1      67.474   4.223   8.034  1.00  0.00     0.045 A 
HETATM    2  N   UNL     1      66.427   4.530   7.190  1.00  0.00    -0.360 N 
HETATM    3  C   UNL     1      67.666   3.137   8.905  1.00  0.00     0.049 A 
HETATM    4  C   UNL     1      66.676   5.708   6.535  1.00  0.00     0.091 A 
HETATM    5  C   UNL     1      68.861   3.082   9.638  1.00  0.00     0.043 A 
HETATM    6  C   UNL     1      67.908   6.165   6.945  1.00  0.00     0.031 A 
HETATM    7  C   UNL     1      68.425   5.236   7.888  1.00  0.00    -0.008 A 
HETATM    8  C   UNL     1      69.827   4.083   9.500  1.00  0.00     0.019 A 
HETATM    9  C   UNL     1      69.619   5.164   8.633  1.00  0.00     0.015 A 
HETATM   10  C   UNL     1      65.247   3.716   7.007  1.00  0.00     0.155 C 
ENDROOT
BRANCH   5  11
HETATM   11  C   UNL     1      69.140   1.965  10.574  1.00  0.00     0.209 C 
HETATM   12  O   UNL     1      70.233   1.653  11.012  1.00  0.00    -0.644 OA
HETATM   13  O   UNL     1      68.033   1.283  10.921  1.00  0.00    -0.644 OA
ENDBRANCH   5  11
TORSDOF 1
ENDMDL
MODEL 4
REMARK VINA RESULT:      -4.9     12.061     13.381
REMARK  1 active torsions:
REMARK  status: ('A' for Active; 'I' for Inactive)
REMARK    1  A    between atoms: C_5  and  C_6 
ROOT
HETATM    1  C   UNL     1      68.178   4.657   7.681  1.00  0.00     0.045 A 
HETATM    2  N   UNL     1      68.832   3.445   7.593  1.00  0.00    -0.360 N 
HETATM    3  C   UNL     1      67.502   5.411   6.706  1.00  0.00     0.049 A 
HETATM    4  C   UNL     1      69.357   3.100   8.810  1.00  0.00     0.091 A 
HETATM    5  C   UNL     1      66.909   6.620   7.102  1.00  0.00     0.043 A 
HETATM    6  C   UNL     1      69.028   4.091   9.706  1.00  0.00     0.031 A 
HETATM    7  C   UNL     1      68.281   5.079   9.009  1.00  0.00    -0.008 A 
HETATM    8  C   UNL     1      66.996   7.055   8.428  1.00  0.00     0.019 A 
HETATM    9  C   UNL     1      67.680   6.296   9.387  1.00  0.00     0.015 A 
HETATM   10  C   UNL     1      68.929   2.645   6.393  1.00  0.00     0.155 C 
ENDROOT
BRANCH   5  11
HETATM   11  C   UNL     1      66.173   7.470   6.134  1.00  0.00     0.209 C 
HETATM   12  O   UNL     1      65.588   7.080   5.139  1.00  0.00    -0.644 OA
HETATM   13  O   UNL     1      66.203   8.777   6.455  1.00  0.00    -0.644 OA
ENDBRANCH   5  11
TORSDOF 1
ENDMDL
MODEL 5
REMARK VINA RESULT:      -4.7     12.018     13.585
REMARK  1 active torsions:
REMARK  status: ('A' for Active; 'I' for Inactive)
REMARK    1  A    between atoms: C_5  and  C_6 
ROOT
HETATM    1  C   UNL     1      67.420   5.491   6.768  1.00  0.00     0.045 A 
HETATM    2  N   UNL     1      66.972   5.547   5.464  1.00  0.00    -0.360 N 
HETATM    3  C   UNL     1      68.287   4.587   7.405  1.00  0.00     0.049 A 
HETATM    4  C   UNL     1      66.121   6.609   5.300  1.00  0.00     0.091 A 
HETATM    5  C   UNL     1      68.579   4.798   8.761  1.00  0.00     0.043 A 
HETATM    6  C   UNL     1      66.027   7.263   6.508  1.00  0.00     0.031 A 
HETATM    7  C   UNL     1      66.845   6.571   7.443  1.00  0.00    -0.008 A 
HETATM    8  C   UNL     1      68.017   5.875   9.451  1.00  0.00     0.019 A 
HETATM    9  C   UNL     1      67.149   6.765   8.805  1.00  0.00     0.015 A 
HETATM   10  C   UNL     1      67.361   4.630   4.417  1.00  0.00     0.155 C 
ENDROOT
BRANCH   5  11
HETATM   11  C   UNL     1      69.490   3.890   9.503  1.00  0.00     0.209 C 
HETATM   12  O   UNL     1      69.162   2.889  10.114  1.00  0.00    -0.644 OA
HETATM   13  O   UNL     1      70.777   4.281   9.448  1.00  0.00    -0.644 OA
ENDBRANCH   5  11
TORSDOF 1
ENDMDL
MODEL 6
REMARK VINA RESULT:      -4.4     10.956     12.277
REMARK  1 active torsions:
REMARK  status: ('A' for Active; 'I' for Inactive)
REMARK    1  A    between atoms: C_5  and  C_6 
ROOT
HETATM    1  C   UNL     1      68.045   2.827   8.688  1.00  0.00     0.045 A 
HETATM    2  N   UNL     1      67.634   1.535   8.941  1.00  0.00    -0.360 N 
HETATM    3  C   UNL     1      67.512   3.812   7.838  1.00  0.00     0.049 A 
HETATM    4  C   UNL     1      68.476   0.939   9.843  1.00  0.00     0.091 A 
HETATM    5  C   UNL     1      68.146   5.064   7.800  1.00  0.00     0.043 A 
HETATM    6  C   UNL     1      69.437   1.859  10.194  1.00  0.00     0.031 A 
HETATM    7  C   UNL     1      69.175   3.058   9.476  1.00  0.00    -0.008 A 
HETATM    8  C   UNL     1      69.275   5.314   8.586  1.00  0.00     0.019 A 
HETATM    9  C   UNL     1      69.799   4.320   9.424  1.00  0.00     0.015 A 
HETATM   10  C   UNL     1      66.471   0.908   8.356  1.00  0.00     0.155 C 
ENDROOT
BRANCH   5  11
HETATM   11  C   UNL     1      67.641   6.157   6.933  1.00  0.00     0.209 C 
HETATM   12  O   UNL     1      67.874   6.294   5.746  1.00  0.00    -0.644 OA
HETATM   13  O   UNL     1      66.865   7.035   7.596  1.00  0.00    -0.644 OA
ENDBRANCH   5  11
TORSDOF 1
ENDMDL
MODEL 7
REMARK VINA RESULT:      -4.1     25.677     26.952
REMARK  1 active torsions:
REMARK  status: ('A' for Active; 'I' for Inactive)
REMARK    1  A    between atoms: C_5  and  C_6 
ROOT
HETATM    1  C   UNL     1      55.620  19.695  26.012  1.00  0.00     0.045 A 
HETATM    2  N   UNL     1      54.349  20.024  25.589  1.00  0.00    -0.360 N 
HETATM    3  C   UNL     1      56.549  18.772  25.501  1.00  0.00     0.049 A 
HETATM    4  C   UNL     1      53.809  20.980  26.409  1.00  0.00     0.091 A 
HETATM    5  C   UNL     1      57.793  18.666  26.143  1.00  0.00     0.043 A 
HETATM    6  C   UNL     1      54.747  21.290  27.368  1.00  0.00     0.031 A 
HETATM    7  C   UNL     1      55.897  20.489  27.127  1.00  0.00    -0.008 A 
HETATM    8  C   UNL     1      58.089  19.456  27.257  1.00  0.00     0.019 A 
HETATM    9  C   UNL     1      57.151  20.367  27.758  1.00  0.00     0.015 A 
HETATM   10  C   UNL     1      53.689  19.458  24.434  1.00  0.00     0.155 C 
ENDROOT
BRANCH   5  11
HETATM   11  C   UNL     1      58.829  17.718  25.661  1.00  0.00     0.209 C 
HETATM   12  O   UNL     1      59.297  16.788  26.292  1.00  0.00    -0.644 OA
HETATM   13  O   UNL     1      59.237  17.982  24.406  1.00  0.00    -0.644 OA
ENDBRANCH   5  11
TORSDOF 1
ENDMDL
MODEL 8
REMARK VINA RESULT:      -4.1     11.613     12.814
REMARK  1 active torsions:
REMARK  status: ('A' for Active; 'I' for Inactive)
REMARK    1  A    between atoms: C_5  and  C_6 
ROOT
HETATM    1  C   UNL     1      68.171   3.071   8.218  1.00  0.00     0.045 A 
HETATM    2  N   UNL     1      68.766   1.961   8.782  1.00  0.00    -0.360 N 
HETATM    3  C   UNL     1      67.554   4.186   8.812  1.00  0.00     0.049 A 
HETATM    4  C   UNL     1      69.227   1.121   7.803  1.00  0.00     0.091 A 
HETATM    5  C   UNL     1      67.044   5.184   7.968  1.00  0.00     0.043 A 
HETATM    6  C   UNL     1      68.942   1.698   6.586  1.00  0.00     0.031 A 
HETATM    7  C   UNL     1      68.279   2.931   6.832  1.00  0.00    -0.008 A 
HETATM    8  C   UNL     1      67.148   5.063   6.579  1.00  0.00     0.019 A 
HETATM    9  C   UNL     1      67.760   3.943   6.001  1.00  0.00     0.015 A 
HETATM   10  C   UNL     1      68.904   1.730  10.202  1.00  0.00     0.155 C 
ENDROOT
BRANCH   5  11
HETATM   11  C   UNL     1      66.383   6.394   8.517  1.00  0.00     0.209 C 
HETATM   12  O   UNL     1      66.345   6.718   9.690  1.00  0.00    -0.644 OA
HETATM   13  O   UNL     1      65.794   7.146   7.569  1.00  0.00    -0.644 OA
ENDBRANCH   5  11
TORSDOF 1
ENDMDL
MODEL 9
REMARK VINA RESULT:      -4.1     26.011     27.172
REMARK  1 active torsions:
REMARK  status: ('A' for Active; 'I' for Inactive)
REMARK    1  A    between atoms: C_5  and  C_6 
ROOT
HETATM    1  C   UNL     1      57.069  19.136  26.058  1.00  0.00     0.045 A 
HETATM    2  N   UNL     1      58.238  18.430  25.864  1.00  0.00    -0.360 N 
HETATM    3  C   UNL     1      55.895  19.202  25.288  1.00  0.00     0.049 A 
HETATM    4  C   UNL     1      59.121  18.686  26.880  1.00  0.00     0.091 A 
HETATM    5  C   UNL     1      54.845  20.007  25.755  1.00  0.00     0.043 A 
HETATM    6  C   UNL     1      58.514  19.557  27.755  1.00  0.00     0.031 A 
HETATM    7  C   UNL     1      57.216  19.847  27.252  1.00  0.00    -0.008 A 
HETATM    8  C   UNL     1      54.972  20.721  26.949  1.00  0.00     0.019 A 
HETATM    9  C   UNL     1      56.151  20.651  27.703  1.00  0.00     0.015 A 
HETATM   10  C   UNL     1      58.488  17.532  24.760  1.00  0.00     0.155 C 
ENDROOT
BRANCH   5  11
HETATM   11  C   UNL     1      53.572  20.124  25.001  1.00  0.00     0.209 C 
HETATM   12  O   UNL     1      52.695  20.946  25.201  1.00  0.00    -0.644 OA
HETATM   13  O   UNL     1      53.451  19.202  24.028  1.00  0.00    -0.644 OA
ENDBRANCH   5  11
TORSDOF 1
ENDMDL
