MODEL 1
REMARK VINA RESULT:      -5.6      0.000      0.000
REMARK  1 active torsions:
REMARK  status: ('A' for Active; 'I' for Inactive)
REMARK    1  A    between atoms: C_5  and  C_7 
ROOT
HETATM    1  C   UNL     1      62.840   8.989   3.459  1.00  0.00     0.009 A 
HETATM    2  C   UNL     1      63.326   9.075   4.798  1.00  0.00     0.032 A 
HETATM    3  N   UNL     1      63.699   7.013   4.077  1.00  0.00    -0.360 N 
HETATM    4  C   UNL     1      63.097   7.679   3.027  1.00  0.00     0.045 A 
HETATM    5  C   UNL     1      62.205   9.886   2.562  1.00  0.00     0.053 A 
HETATM    6  C   UNL     1      63.848   7.849   5.147  1.00  0.00     0.091 A 
HETATM    7  C   UNL     1      62.758   7.233   1.740  1.00  0.00     0.030 A 
HETATM    8  C   UNL     1      64.103   5.625   4.052  1.00  0.00     0.155 C 
HETATM    9  C   UNL     1      61.864   9.435   1.273  1.00  0.00     0.019 A 
HETATM   10  C   UNL     1      62.138   8.131   0.872  1.00  0.00     0.003 A 
ENDROOT
BRANCH   5  11
HETATM   11  C   UNL     1      61.909  11.278   2.987  1.00  0.00     0.210 C 
HETATM   12  O   UNL     1      61.734  11.684   4.120  1.00  0.00    -0.644 OA
HETATM   13  O   UNL     1      61.841  12.128   1.942  1.00  0.00    -0.644 OA
ENDBRANCH   5  11
TORSDOF 1
ENDMDL
MODEL 2
REMARK VINA RESULT:      -5.4      2.177      3.337
REMARK  1 active torsions:
REMARK  status: ('A' for Active; 'I' for Inactive)
REMARK    1  A    between atoms: C_5  and  C_7 
ROOT
HETATM    1  C   UNL     1      62.977   8.226   3.069  1.00  0.00     0.009 A 
HETATM    2  C   UNL     1      63.504   6.900   3.037  1.00  0.00     0.032 A 
HETATM    3  N   UNL     1      62.674   7.342   1.031  1.00  0.00    -0.360 N 
HETATM    4  C   UNL     1      62.468   8.481   1.786  1.00  0.00     0.045 A 
HETATM    5  C   UNL     1      62.876   9.243   4.052  1.00  0.00     0.053 A 
HETATM    6  C   UNL     1      63.305   6.385   1.776  1.00  0.00     0.091 A 
HETATM    7  C   UNL     1      61.875   9.706   1.444  1.00  0.00     0.030 A 
HETATM    8  C   UNL     1      62.269   7.180  -0.347  1.00  0.00     0.155 C 
HETATM    9  C   UNL     1      62.278  10.469   3.707  1.00  0.00     0.019 A 
HETATM   10  C   UNL     1      61.788  10.694   2.423  1.00  0.00     0.003 A 
ENDROOT
BRANCH   5  11
HETATM   11  C   UNL     1      63.396   9.007   5.423  1.00  0.00     0.210 C 
HETATM   12  O   UNL     1      62.892   8.330   6.299  1.00  0.00    -0.644 OA
HETATM   13  O   UNL     1      64.560   9.650   5.647  1.00  0.00    -0.644 OA
ENDBRANCH   5  11
TORSDOF 1
ENDMDL
MODEL 3
REMARK VINA RESULT:      -5.2      7.277      9.363
REMARK  1 active torsions:
REMARK  status: ('A' for Active; 'I' for Inactive)
REMARK    1  A    between atoms: C_5  and  C_7 
ROOT
HETATM    1  C   UNL     1      68.123   5.082   8.429  1.00  0.00     0.009 A 
HETATM    2  C   UNL     1      67.817   6.123   9.357  1.00  0.00     0.032 A 
HETATM    3  N   UNL     1      66.264   6.150   7.776  1.00  0.00    -0.360 N 
HETATM    4  C   UNL     1      67.122   5.118   7.448  1.00  0.00     0.045 A 
HETATM    5  C   UNL     1      69.149   4.109   8.316  1.00  0.00     0.053 A 
HETATM    6  C   UNL     1      66.671   6.758   8.931  1.00  0.00     0.091 A 
HETATM    7  C   UNL     1      67.096   4.220   6.368  1.00  0.00     0.030 A 
HETATM    8  C   UNL     1      65.107   6.542   7.002  1.00  0.00     0.155 C 
HETATM    9  C   UNL     1      69.122   3.212   7.231  1.00  0.00     0.019 A 
HETATM   10  C   UNL     1      68.110   3.269   6.276  1.00  0.00     0.003 A 
ENDROOT
BRANCH   5  11
HETATM   11  C   UNL     1      70.231   4.046   9.331  1.00  0.00     0.210 C 
HETATM   12  O   UNL     1      71.303   4.620   9.306  1.00  0.00    -0.644 OA
HETATM   13  O   UNL     1      69.916   3.240  10.365  1.00  0.00    -0.644 OA
ENDBRANCH   5  11
TORSDOF 1
ENDMDL
MODEL 4
REMARK VINA RESULT:      -5.2      1.213      1.629
REMARK  1 active torsions:
REMARK  status: ('A' for Active; 'I' for Inactive)
REMARK    1  A    between atoms: C_5  and  C_7 
ROOT
HETATM    1  C   UNL     1      63.140   8.636   3.836  1.00  0.00     0.009 A 
HETATM    2  C   UNL     1      63.842   7.915   4.848  1.00  0.00     0.032 A 
HETATM    3  N   UNL     1      63.779   6.643   3.035  1.00  0.00    -0.360 N 
HETATM    4  C   UNL     1      63.124   7.812   2.701  1.00  0.00     0.045 A 
HETATM    5  C   UNL     1      62.513   9.907   3.760  1.00  0.00     0.053 A 
HETATM    6  C   UNL     1      64.222   6.699   4.327  1.00  0.00     0.091 A 
HETATM    7  C   UNL     1      62.520   8.205   1.496  1.00  0.00     0.030 A 
HETATM    8  C   UNL     1      63.959   5.514   2.150  1.00  0.00     0.155 C 
HETATM    9  C   UNL     1      61.905  10.297   2.551  1.00  0.00     0.019 A 
HETATM   10  C   UNL     1      61.912   9.458   1.440  1.00  0.00     0.003 A 
ENDROOT
BRANCH   5  11
HETATM   11  C   UNL     1      62.502  10.803   4.943  1.00  0.00     0.210 C 
HETATM   12  O   UNL     1      62.897  10.551   6.066  1.00  0.00    -0.644 OA
HETATM   13  O   UNL     1      61.979  12.014   4.663  1.00  0.00    -0.644 OA
ENDBRANCH   5  11
TORSDOF 1
ENDMDL
MODEL 5
REMARK VINA RESULT:      -5.1      2.744      4.173
REMARK  1 active torsions:
REMARK  status: ('A' for Active; 'I' for Inactive)
REMARK    1  A    between atoms: C_5  and  C_7 
ROOT
HETATM    1  C   UNL     1      63.628   8.514   4.225  1.00  0.00     0.009 A 
HETATM    2  C   UNL     1      63.015   9.736   4.634  1.00  0.00     0.032 A 
HETATM    3  N   UNL     1      62.121   9.151   2.693  1.00  0.00    -0.360 N 
HETATM    4  C   UNL     1      63.037   8.164   3.002  1.00  0.00     0.045 A 
HETATM    5  C   UNL     1      64.625   7.661   4.765  1.00  0.00     0.053 A 
HETATM    6  C   UNL     1      62.096  10.101   3.676  1.00  0.00     0.091 A 
HETATM    7  C   UNL     1      63.392   7.000   2.302  1.00  0.00     0.030 A 
HETATM    8  C   UNL     1      61.313   9.184   1.494  1.00  0.00     0.155 C 
HETATM    9  C   UNL     1      64.981   6.496   4.060  1.00  0.00     0.019 A 
HETATM   10  C   UNL     1      64.372   6.173   2.850  1.00  0.00     0.003 A 
ENDROOT
BRANCH   5  11
HETATM   11  C   UNL     1      65.278   8.002   6.053  1.00  0.00     0.210 C 
HETATM   12  O   UNL     1      66.076   8.895   6.264  1.00  0.00    -0.644 OA
HETATM   13  O   UNL     1      64.894   7.184   7.054  1.00  0.00    -0.644 OA
ENDBRANCH   5  11
TORSDOF 1
ENDMDL
MODEL 6
REMARK VINA RESULT:      -5.0      8.465     10.565
REMARK  1 active torsions:
REMARK  status: ('A' for Active; 'I' for Inactive)
REMARK    1  A    between atoms: C_5  and  C_7 
ROOT
HETATM    1  C   UNL     1      68.581   3.616   8.786  1.00  0.00     0.009 A 
HETATM    2  C   UNL     1      68.431   4.788   9.587  1.00  0.00     0.032 A 
HETATM    3  N   UNL     1      68.118   5.373   7.473  1.00  0.00    -0.360 N 
HETATM    4  C   UNL     1      68.369   4.014   7.458  1.00  0.00     0.045 A 
HETATM    5  C   UNL     1      68.875   2.253   9.047  1.00  0.00     0.053 A 
HETATM    6  C   UNL     1      68.146   5.847   8.754  1.00  0.00     0.091 A 
HETATM    7  C   UNL     1      68.429   3.111   6.385  1.00  0.00     0.030 A 
HETATM    8  C   UNL     1      67.873   6.181   6.299  1.00  0.00     0.155 C 
HETATM    9  C   UNL     1      68.938   1.350   7.969  1.00  0.00     0.019 A 
HETATM   10  C   UNL     1      68.716   1.775   6.661  1.00  0.00     0.003 A 
ENDROOT
BRANCH   5  11
HETATM   11  C   UNL     1      69.114   1.797  10.439  1.00  0.00     0.210 C 
HETATM   12  O   UNL     1      70.165   1.807  11.051  1.00  0.00    -0.644 OA
HETATM   13  O   UNL     1      67.992   1.331  11.024  1.00  0.00    -0.644 OA
ENDBRANCH   5  11
TORSDOF 1
ENDMDL
MODEL 7
REMARK VINA RESULT:      -5.0      6.235      7.887
REMARK  1 active torsions:
REMARK  status: ('A' for Active; 'I' for Inactive)
REMARK    1  A    between atoms: C_5  and  C_7 
ROOT
HETATM    1  C   UNL     1      67.426   5.046   6.761  1.00  0.00     0.009 A 
HETATM    2  C   UNL     1      66.918   4.759   5.458  1.00  0.00     0.032 A 
HETATM    3  N   UNL     1      68.304   3.123   6.016  1.00  0.00    -0.360 N 
HETATM    4  C   UNL     1      68.290   3.991   7.091  1.00  0.00     0.045 A 
HETATM    5  C   UNL     1      67.243   6.092   7.702  1.00  0.00     0.053 A 
HETATM    6  C   UNL     1      67.474   3.575   5.029  1.00  0.00     0.091 A 
HETATM    7  C   UNL     1      68.970   3.933   8.318  1.00  0.00     0.030 A 
HETATM    8  C   UNL     1      69.095   1.915   5.940  1.00  0.00     0.155 C 
HETATM    9  C   UNL     1      67.928   6.032   8.930  1.00  0.00     0.019 A 
HETATM   10  C   UNL     1      68.775   4.968   9.230  1.00  0.00     0.003 A 
ENDROOT
BRANCH   5  11
HETATM   11  C   UNL     1      66.342   7.228   7.385  1.00  0.00     0.210 C 
HETATM   12  O   UNL     1      66.655   8.324   6.960  1.00  0.00    -0.644 OA
HETATM   13  O   UNL     1      65.047   6.937   7.624  1.00  0.00    -0.644 OA
ENDBRANCH   5  11
TORSDOF 1
ENDMDL
MODEL 8
REMARK VINA RESULT:      -4.8      8.476     10.484
REMARK  1 active torsions:
REMARK  status: ('A' for Active; 'I' for Inactive)
REMARK    1  A    between atoms: C_5  and  C_7 
ROOT
HETATM    1  C   UNL     1      68.515   2.910   7.920  1.00  0.00     0.009 A 
HETATM    2  C   UNL     1      68.326   1.749   7.112  1.00  0.00     0.032 A 
HETATM    3  N   UNL     1      67.839   3.520   5.872  1.00  0.00    -0.360 N 
HETATM    4  C   UNL     1      68.209   4.013   7.109  1.00  0.00     0.045 A 
HETATM    5  C   UNL     1      68.914   3.146   9.261  1.00  0.00     0.053 A 
HETATM    6  C   UNL     1      67.914   2.155   5.862  1.00  0.00     0.091 A 
HETATM    7  C   UNL     1      68.294   5.334   7.574  1.00  0.00     0.030 A 
HETATM    8  C   UNL     1      67.420   4.331   4.751  1.00  0.00     0.155 C 
HETATM    9  C   UNL     1      68.996   4.472   9.726  1.00  0.00     0.019 A 
HETATM   10  C   UNL     1      68.691   5.546   8.893  1.00  0.00     0.003 A 
ENDROOT
BRANCH   5  11
HETATM   11  C   UNL     1      69.238   2.004  10.152  1.00  0.00     0.210 C 
HETATM   12  O   UNL     1      68.478   1.395  10.880  1.00  0.00    -0.644 OA
HETATM   13  O   UNL     1      70.542   1.663  10.094  1.00  0.00    -0.644 OA
ENDBRANCH   5  11
TORSDOF 1
ENDMDL
MODEL 9
REMARK VINA RESULT:      -4.8      2.877      4.073
REMARK  1 active torsions:
REMARK  status: ('A' for Active; 'I' for Inactive)
REMARK    1  A    between atoms: C_5  and  C_7 
ROOT
HETATM    1  C   UNL     1      62.610   8.766   3.312  1.00  0.00     0.009 A 
HETATM    2  C   UNL     1      62.603   9.575   4.488  1.00  0.00     0.032 A 
HETATM    3  N   UNL     1      61.990  10.854   2.786  1.00  0.00    -0.360 N 
HETATM    4  C   UNL     1      62.210   9.598   2.256  1.00  0.00     0.045 A 
HETATM    5  C   UNL     1      62.914   7.409   3.029  1.00  0.00     0.053 A 
HETATM    6  C   UNL     1      62.217  10.848   4.134  1.00  0.00     0.091 A 
HETATM    7  C   UNL     1      62.093   9.133   0.937  1.00  0.00     0.030 A 
HETATM    8  C   UNL     1      61.589  12.015   2.023  1.00  0.00     0.155 C 
HETATM    9  C   UNL     1      62.799   6.947   1.705  1.00  0.00     0.019 A 
HETATM   10  C   UNL     1      62.394   7.796   0.679  1.00  0.00     0.003 A 
ENDROOT
BRANCH   5  11
HETATM   11  C   UNL     1      63.348   6.501   4.120  1.00  0.00     0.210 C 
HETATM   12  O   UNL     1      62.647   5.786   4.810  1.00  0.00    -0.644 OA
HETATM   13  O   UNL     1      64.684   6.527   4.306  1.00  0.00    -0.644 OA
ENDBRANCH   5  11
TORSDOF 1
ENDMDL
