MODEL 1
REMARK VINA RESULT:      -5.9      0.000      0.000
REMARK  4 active torsions:
REMARK  status: ('A' for Active; 'I' for Inactive)
REMARK    1  A    between atoms: N_1  and  C_3 
REMARK    2  A    between atoms: C_3  and  C_4 
REMARK    3  A    between atoms: C_10  and  C_15 
REMARK    4  A    between atoms: O_12  and  C_15 
ROOT
HETATM    1  C   UNL     1      64.449   6.874   4.633  1.00  0.00     0.273 C 
ENDROOT
BRANCH   1   2
HETATM    2  N   UNL     1      65.602   7.143   5.513  1.00  0.00    -0.064 N 
HETATM    3  C   UNL     1      65.443   6.514   6.840  1.00  0.00     0.263 C 
HETATM    4  C   UNL     1      66.678   6.728   7.743  1.00  0.00     0.262 C 
HETATM    5  N   UNL     1      67.959   6.293   7.154  1.00  0.00    -0.072 N 
HETATM    6  C   UNL     1      68.087   6.882   5.807  1.00  0.00     0.262 C 
HETATM    7  C   UNL     1      68.066   4.836   7.124  1.00  0.00     0.269 C 
HETATM    8  H   UNL     1      68.730   6.623   7.736  1.00  0.00     0.279 HD
HETATM    9  C   UNL     1      66.856   6.692   4.885  1.00  0.00     0.263 C 
HETATM   10  H   UNL     1      65.642   8.153   5.651  1.00  0.00     0.280 HD
ENDBRANCH   1   2
BRANCH   1  11
HETATM   11  C   UNL     1      63.659   8.127   4.313  1.00  0.00    -0.032 A 
HETATM   12  C   UNL     1      63.764   9.256   5.142  1.00  0.00     0.018 A 
HETATM   13  C   UNL     1      62.947  10.377   4.943  1.00  0.00    -0.034 A 
HETATM   14  C   UNL     1      62.046  10.376   3.869  1.00  0.00     0.009 A 
HETATM   15  C   UNL     1      61.961   9.275   3.016  1.00  0.00     0.001 A 
HETATM   16  C   UNL     1      62.760   8.154   3.238  1.00  0.00     0.009 A 
BRANCH  13  17
HETATM   17  C   UNL     1      62.981  11.529   5.911  1.00  0.00     0.202 C 
BRANCH  17  18
HETATM   18  O   UNL     1      64.268  11.660   6.501  1.00  0.00    -0.396 OA
HETATM   19  H   UNL     1      64.579  10.789   6.797  1.00  0.00     0.209 HD
ENDBRANCH  17  18
ENDBRANCH  13  17
ENDBRANCH   1  11
TORSDOF 4
ENDMDL
MODEL 2
REMARK VINA RESULT:      -5.5      2.028      2.664
REMARK  4 active torsions:
REMARK  status: ('A' for Active; 'I' for Inactive)
REMARK    1  A    between atoms: N_1  and  C_3 
REMARK    2  A    between atoms: C_3  and  C_4 
REMARK    3  A    between atoms: C_10  and  C_15 
REMARK    4  A    between atoms: O_12  and  C_15 
ROOT
HETATM    1  C   UNL     1      63.540   7.401   5.509  1.00  0.00     0.273 C 
ENDROOT
BRANCH   1   2
HETATM    2  N   UNL     1      64.860   7.694   6.098  1.00  0.00    -0.064 N 
HETATM    3  C   UNL     1      65.177   6.791   7.223  1.00  0.00     0.263 C 
HETATM    4  C   UNL     1      66.590   7.043   7.798  1.00  0.00     0.262 C 
HETATM    5  N   UNL     1      67.681   6.981   6.808  1.00  0.00    -0.072 N 
HETATM    6  C   UNL     1      67.333   7.844   5.662  1.00  0.00     0.262 C 
HETATM    7  C   UNL     1      67.949   5.606   6.393  1.00  0.00     0.269 C 
HETATM    8  H   UNL     1      68.544   7.324   7.232  1.00  0.00     0.279 HD
HETATM    9  C   UNL     1      65.918   7.619   5.074  1.00  0.00     0.263 C 
HETATM   10  H   UNL     1      64.818   8.645   6.465  1.00  0.00     0.280 HD
ENDBRANCH   1   2
BRANCH   1  11
HETATM   11  C   UNL     1      62.940   8.599   4.802  1.00  0.00    -0.032 A 
HETATM   12  C   UNL     1      62.425   8.464   3.502  1.00  0.00     0.018 A 
HETATM   13  C   UNL     1      61.986   9.581   2.780  1.00  0.00    -0.034 A 
HETATM   14  C   UNL     1      62.025  10.841   3.392  1.00  0.00     0.009 A 
HETATM   15  C   UNL     1      62.499  10.982   4.697  1.00  0.00     0.001 A 
HETATM   16  C   UNL     1      62.958   9.867   5.398  1.00  0.00     0.009 A 
BRANCH  13  17
HETATM   17  C   UNL     1      61.552   9.441   1.345  1.00  0.00     0.202 C 
BRANCH  17  18
HETATM   18  O   UNL     1      60.238   8.907   1.260  1.00  0.00    -0.396 OA
HETATM   19  H   UNL     1      59.595   9.586   1.518  1.00  0.00     0.209 HD
ENDBRANCH  17  18
ENDBRANCH  13  17
ENDBRANCH   1  11
TORSDOF 4
ENDMDL
MODEL 3
REMARK VINA RESULT:      -5.3      2.454      3.514
REMARK  4 active torsions:
REMARK  status: ('A' for Active; 'I' for Inactive)
REMARK    1  A    between atoms: N_1  and  C_3 
REMARK    2  A    between atoms: C_3  and  C_4 
REMARK    3  A    between atoms: C_10  and  C_15 
REMARK    4  A    between atoms: O_12  and  C_15 
ROOT
HETATM    1  C   UNL     1      62.794   8.682   5.483  1.00  0.00     0.273 C 
ENDROOT
BRANCH   1   2
HETATM    2  N   UNL     1      63.925   7.752   5.311  1.00  0.00    -0.064 N 
HETATM    3  C   UNL     1      65.225   8.454   5.315  1.00  0.00     0.263 C 
HETATM    4  C   UNL     1      66.420   7.479   5.210  1.00  0.00     0.262 C 
HETATM    5  N   UNL     1      66.444   6.416   6.231  1.00  0.00    -0.072 N 
HETATM    6  C   UNL     1      65.124   5.753   6.259  1.00  0.00     0.262 C 
HETATM    7  C   UNL     1      66.815   6.942   7.543  1.00  0.00     0.269 C 
HETATM    8  H   UNL     1      67.156   5.727   5.988  1.00  0.00     0.279 HD
HETATM    9  C   UNL     1      63.909   6.709   6.352  1.00  0.00     0.263 C 
HETATM   10  H   UNL     1      63.813   7.312   4.397  1.00  0.00     0.280 HD
ENDBRANCH   1   2
BRANCH   1  11
HETATM   11  C   UNL     1      62.395   9.357   4.187  1.00  0.00    -0.032 A 
HETATM   12  C   UNL     1      62.354   8.619   2.992  1.00  0.00     0.018 A 
HETATM   13  C   UNL     1      62.115   9.247   1.763  1.00  0.00    -0.034 A 
HETATM   14  C   UNL     1      61.871  10.627   1.744  1.00  0.00     0.009 A 
HETATM   15  C   UNL     1      61.872  11.363   2.929  1.00  0.00     0.001 A 
HETATM   16  C   UNL     1      62.135  10.733   4.144  1.00  0.00     0.009 A 
BRANCH  13  17
HETATM   17  C   UNL     1      62.197   8.467   0.478  1.00  0.00     0.202 C 
BRANCH  17  18
HETATM   18  O   UNL     1      60.957   7.836   0.186  1.00  0.00    -0.396 OA
HETATM   19  H   UNL     1      60.410   8.431  -0.351  1.00  0.00     0.209 HD
ENDBRANCH  17  18
ENDBRANCH  13  17
ENDBRANCH   1  11
TORSDOF 4
ENDMDL
MODEL 4
REMARK VINA RESULT:      -5.1      3.604      7.502
REMARK  4 active torsions:
REMARK  status: ('A' for Active; 'I' for Inactive)
REMARK    1  A    between atoms: N_1  and  C_3 
REMARK    2  A    between atoms: C_3  and  C_4 
REMARK    3  A    between atoms: C_10  and  C_15 
REMARK    4  A    between atoms: O_12  and  C_15 
ROOT
HETATM    1  C   UNL     1      66.986   4.799   6.242  1.00  0.00     0.273 C 
ENDROOT
BRANCH   1   2
HETATM    2  N   UNL     1      66.167   6.004   6.469  1.00  0.00    -0.064 N 
HETATM    3  C   UNL     1      66.544   7.109   5.564  1.00  0.00     0.263 C 
HETATM    4  C   UNL     1      65.641   8.350   5.743  1.00  0.00     0.262 C 
HETATM    5  N   UNL     1      64.196   8.089   5.607  1.00  0.00    -0.072 N 
HETATM    6  C   UNL     1      63.835   6.950   6.474  1.00  0.00     0.262 C 
HETATM    7  C   UNL     1      63.824   7.853   4.214  1.00  0.00     0.269 C 
HETATM    8  H   UNL     1      63.673   8.913   5.907  1.00  0.00     0.279 HD
HETATM    9  C   UNL     1      64.733   5.697   6.322  1.00  0.00     0.263 C 
HETATM   10  H   UNL     1      66.345   6.311   7.425  1.00  0.00     0.280 HD
ENDBRANCH   1   2
BRANCH   1  11
HETATM   11  C   UNL     1      67.867   4.465   7.430  1.00  0.00    -0.032 A 
HETATM   12  C   UNL     1      67.646   3.284   8.158  1.00  0.00     0.018 A 
HETATM   13  C   UNL     1      68.360   3.017   9.334  1.00  0.00    -0.034 A 
HETATM   14  C   UNL     1      69.336   3.929   9.755  1.00  0.00     0.009 A 
HETATM   15  C   UNL     1      69.590   5.087   9.018  1.00  0.00     0.001 A 
HETATM   16  C   UNL     1      68.857   5.356   7.863  1.00  0.00     0.009 A 
BRANCH  13  17
HETATM   17  C   UNL     1      68.029   1.811  10.171  1.00  0.00     0.202 C 
BRANCH  17  18
HETATM   18  O   UNL     1      68.897   1.715  11.293  1.00  0.00    -0.396 OA
HETATM   19  H   UNL     1      69.348   2.564  11.427  1.00  0.00     0.209 HD
ENDBRANCH  17  18
ENDBRANCH  13  17
ENDBRANCH   1  11
TORSDOF 4
ENDMDL
MODEL 5
REMARK VINA RESULT:      -5.0     16.808     19.495
REMARK  4 active torsions:
REMARK  status: ('A' for Active; 'I' for Inactive)
REMARK    1  A    between atoms: N_1  and  C_3 
REMARK    2  A    between atoms: C_3  and  C_4 
REMARK    3  A    between atoms: C_10  and  C_15 
REMARK    4  A    between atoms: O_12  and  C_15 
ROOT
HETATM    1  C   UNL     1      77.176   0.074  18.164  1.00  0.00     0.273 C 
ENDROOT
BRANCH   1   2
HETATM    2  N   UNL     1      77.070  -0.067  19.629  1.00  0.00    -0.064 N 
HETATM    3  C   UNL     1      76.426  -1.339  20.017  1.00  0.00     0.263 C 
HETATM    4  C   UNL     1      76.378  -1.528  21.550  1.00  0.00     0.262 C 
HETATM    5  N   UNL     1      77.683  -1.422  22.229  1.00  0.00    -0.072 N 
HETATM    6  C   UNL     1      78.345  -0.176  21.795  1.00  0.00     0.262 C 
HETATM    7  C   UNL     1      78.515  -2.596  21.974  1.00  0.00     0.269 C 
HETATM    8  H   UNL     1      77.539  -1.388  23.238  1.00  0.00     0.279 HD
HETATM    9  C   UNL     1      78.395   0.044  20.262  1.00  0.00     0.263 C 
HETATM   10  H   UNL     1      76.477   0.695  19.960  1.00  0.00     0.280 HD
ENDBRANCH   1   2
BRANCH   1  11
HETATM   11  C   UNL     1      76.478   1.317  17.649  1.00  0.00    -0.032 A 
HETATM   12  C   UNL     1      77.063   2.580  17.833  1.00  0.00     0.018 A 
HETATM   13  C   UNL     1      76.378   3.751  17.483  1.00  0.00    -0.034 A 
HETATM   14  C   UNL     1      75.109   3.644  16.900  1.00  0.00     0.009 A 
HETATM   15  C   UNL     1      74.534   2.392  16.677  1.00  0.00     0.001 A 
HETATM   16  C   UNL     1      75.213   1.234  17.052  1.00  0.00     0.009 A 
BRANCH  13  17
HETATM   17  C   UNL     1      76.963   5.102  17.799  1.00  0.00     0.202 C 
BRANCH  17  18
HETATM   18  O   UNL     1      75.950   6.015  18.198  1.00  0.00    -0.396 OA
HETATM   19  H   UNL     1      76.252   6.516  18.972  1.00  0.00     0.209 HD
ENDBRANCH  17  18
ENDBRANCH  13  17
ENDBRANCH   1  11
TORSDOF 4
ENDMDL
MODEL 6
REMARK VINA RESULT:      -4.9      3.152      5.025
REMARK  4 active torsions:
REMARK  status: ('A' for Active; 'I' for Inactive)
REMARK    1  A    between atoms: N_1  and  C_3 
REMARK    2  A    between atoms: C_3  and  C_4 
REMARK    3  A    between atoms: C_10  and  C_15 
REMARK    4  A    between atoms: O_12  and  C_15 
ROOT
HETATM    1  C   UNL     1      67.868   4.174   6.669  1.00  0.00     0.273 C 
ENDROOT
BRANCH   1   2
HETATM    2  N   UNL     1      67.990   3.855   8.103  1.00  0.00    -0.064 N 
HETATM    3  C   UNL     1      67.600   2.460   8.396  1.00  0.00     0.263 C 
HETATM    4  C   UNL     1      67.796   2.095   9.884  1.00  0.00     0.262 C 
HETATM    5  N   UNL     1      69.154   2.335  10.407  1.00  0.00    -0.072 N 
HETATM    6  C   UNL     1      69.559   3.713  10.065  1.00  0.00     0.262 C 
HETATM    7  C   UNL     1      70.104   1.347   9.901  1.00  0.00     0.269 C 
HETATM    8  H   UNL     1      69.150   2.232  11.422  1.00  0.00     0.279 HD
HETATM    9  C   UNL     1      69.362   4.108   8.580  1.00  0.00     0.263 C 
HETATM   10  H   UNL     1      67.345   4.469   8.602  1.00  0.00     0.280 HD
ENDBRANCH   1   2
BRANCH   1  11
HETATM   11  C   UNL     1      67.117   5.467   6.424  1.00  0.00    -0.032 A 
HETATM   12  C   UNL     1      65.721   5.510   6.577  1.00  0.00     0.018 A 
HETATM   13  C   UNL     1      64.991   6.655   6.231  1.00  0.00    -0.034 A 
HETATM   14  C   UNL     1      65.681   7.784   5.768  1.00  0.00     0.009 A 
HETATM   15  C   UNL     1      67.072   7.765   5.648  1.00  0.00     0.001 A 
HETATM   16  C   UNL     1      67.786   6.612   5.971  1.00  0.00     0.009 A 
BRANCH  13  17
HETATM   17  C   UNL     1      63.487   6.647   6.283  1.00  0.00     0.202 C 
BRANCH  17  18
HETATM   18  O   UNL     1      62.995   7.781   6.983  1.00  0.00    -0.396 OA
HETATM   19  H   UNL     1      62.090   7.975   6.691  1.00  0.00     0.209 HD
ENDBRANCH  17  18
ENDBRANCH  13  17
ENDBRANCH   1  11
TORSDOF 4
ENDMDL
MODEL 7
REMARK VINA RESULT:      -4.7      2.075      2.420
REMARK  4 active torsions:
REMARK  status: ('A' for Active; 'I' for Inactive)
REMARK    1  A    between atoms: N_1  and  C_3 
REMARK    2  A    between atoms: C_3  and  C_4 
REMARK    3  A    between atoms: C_10  and  C_15 
REMARK    4  A    between atoms: O_12  and  C_15 
ROOT
HETATM    1  C   UNL     1      63.383   6.698   2.503  1.00  0.00     0.273 C 
ENDROOT
BRANCH   1   2
HETATM    2  N   UNL     1      64.158   6.266   3.681  1.00  0.00    -0.064 N 
HETATM    3  C   UNL     1      63.545   5.100   4.351  1.00  0.00     0.263 C 
HETATM    4  C   UNL     1      64.390   4.595   5.541  1.00  0.00     0.262 C 
HETATM    5  N   UNL     1      65.794   4.280   5.215  1.00  0.00    -0.072 N 
HETATM    6  C   UNL     1      66.385   5.428   4.500  1.00  0.00     0.262 C 
HETATM    7  C   UNL     1      65.899   3.045   4.443  1.00  0.00     0.269 C 
HETATM    8  H   UNL     1      66.316   4.123   6.078  1.00  0.00     0.279 HD
HETATM    9  C   UNL     1      65.551   5.962   3.308  1.00  0.00     0.263 C 
HETATM   10  H   UNL     1      64.152   7.042   4.343  1.00  0.00     0.280 HD
ENDBRANCH   1   2
BRANCH   1  11
HETATM   11  C   UNL     1      62.937   8.143   2.600  1.00  0.00    -0.032 A 
HETATM   12  C   UNL     1      63.114   8.856   3.797  1.00  0.00     0.018 A 
HETATM   13  C   UNL     1      62.594  10.147   3.953  1.00  0.00    -0.034 A 
HETATM   14  C   UNL     1      61.927  10.743   2.873  1.00  0.00     0.009 A 
HETATM   15  C   UNL     1      61.779  10.059   1.666  1.00  0.00     0.001 A 
HETATM   16  C   UNL     1      62.278   8.764   1.530  1.00  0.00     0.009 A 
BRANCH  13  17
HETATM   17  C   UNL     1      62.682  10.852   5.280  1.00  0.00     0.202 C 
BRANCH  17  18
HETATM   18  O   UNL     1      64.024  10.895   5.746  1.00  0.00    -0.396 OA
HETATM   19  H   UNL     1      64.070  10.513   6.637  1.00  0.00     0.209 HD
ENDBRANCH  17  18
ENDBRANCH  13  17
ENDBRANCH   1  11
TORSDOF 4
ENDMDL
MODEL 8
REMARK VINA RESULT:      -4.6     18.367     20.886
REMARK  4 active torsions:
REMARK  status: ('A' for Active; 'I' for Inactive)
REMARK    1  A    between atoms: N_1  and  C_3 
REMARK    2  A    between atoms: C_3  and  C_4 
REMARK    3  A    between atoms: C_10  and  C_15 
REMARK    4  A    between atoms: O_12  and  C_15 
ROOT
HETATM    1  C   UNL     1      47.618  20.470   2.557  1.00  0.00     0.273 C 
ENDROOT
BRANCH   1   2
HETATM    2  N   UNL     1      48.333  21.390   3.462  1.00  0.00    -0.064 N 
HETATM    3  C   UNL     1      48.998  22.485   2.727  1.00  0.00     0.263 C 
HETATM    4  C   UNL     1      49.686  23.495   3.673  1.00  0.00     0.262 C 
HETATM    5  N   UNL     1      48.808  24.073   4.707  1.00  0.00    -0.072 N 
HETATM    6  C   UNL     1      48.106  22.976   5.403  1.00  0.00     0.262 C 
HETATM    7  C   UNL     1      47.874  25.040   4.136  1.00  0.00     0.269 C 
HETATM    8  H   UNL     1      49.372  24.587   5.384  1.00  0.00     0.279 HD
HETATM    9  C   UNL     1      47.417  21.943   4.476  1.00  0.00     0.263 C 
HETATM   10  H   UNL     1      49.058  20.845   3.930  1.00  0.00     0.280 HD
ENDBRANCH   1   2
BRANCH   1  11
HETATM   11  C   UNL     1      48.381  19.183   2.318  1.00  0.00    -0.032 A 
HETATM   12  C   UNL     1      48.225  18.099   3.197  1.00  0.00     0.018 A 
HETATM   13  C   UNL     1      49.015  16.948   3.072  1.00  0.00    -0.034 A 
HETATM   14  C   UNL     1      49.939  16.873   2.021  1.00  0.00     0.009 A 
HETATM   15  C   UNL     1      50.075  17.928   1.119  1.00  0.00     0.001 A 
HETATM   16  C   UNL     1      49.302  19.079   1.267  1.00  0.00     0.009 A 
BRANCH  13  17
HETATM   17  C   UNL     1      48.926  15.846   4.093  1.00  0.00     0.202 C 
BRANCH  17  18
HETATM   18  O   UNL     1      49.804  16.090   5.184  1.00  0.00    -0.396 OA
HETATM   19  H   UNL     1      50.460  16.758   4.928  1.00  0.00     0.209 HD
ENDBRANCH  17  18
ENDBRANCH  13  17
ENDBRANCH   1  11
TORSDOF 4
ENDMDL
MODEL 9
REMARK VINA RESULT:      -4.6      3.013      6.662
REMARK  4 active torsions:
REMARK  status: ('A' for Active; 'I' for Inactive)
REMARK    1  A    between atoms: N_1  and  C_3 
REMARK    2  A    between atoms: C_3  and  C_4 
REMARK    3  A    between atoms: C_10  and  C_15 
REMARK    4  A    between atoms: O_12  and  C_15 
ROOT
HETATM    1  C   UNL     1      65.885   6.089   5.622  1.00  0.00     0.273 C 
ENDROOT
BRANCH   1   2
HETATM    2  N   UNL     1      64.733   7.008   5.680  1.00  0.00    -0.064 N 
HETATM    3  C   UNL     1      65.026   8.304   5.033  1.00  0.00     0.263 C 
HETATM    4  C   UNL     1      63.801   9.246   5.023  1.00  0.00     0.262 C 
HETATM    5  N   UNL     1      62.583   8.672   4.422  1.00  0.00    -0.072 N 
HETATM    6  C   UNL     1      62.326   7.353   5.035  1.00  0.00     0.262 C 
HETATM    7  C   UNL     1      62.695   8.583   2.968  1.00  0.00     0.269 C 
HETATM    8  H   UNL     1      61.789   9.285   4.609  1.00  0.00     0.279 HD
HETATM    9  C   UNL     1      63.542   6.394   5.068  1.00  0.00     0.263 C 
HETATM   10  H   UNL     1      64.545   7.190   6.666  1.00  0.00     0.280 HD
ENDBRANCH   1   2
BRANCH   1  11
HETATM   11  C   UNL     1      66.670   6.060   6.918  1.00  0.00    -0.032 A 
HETATM   12  C   UNL     1      67.831   5.276   7.020  1.00  0.00     0.018 A 
HETATM   13  C   UNL     1      68.500   5.131   8.242  1.00  0.00    -0.034 A 
HETATM   14  C   UNL     1      68.018   5.820   9.363  1.00  0.00     0.009 A 
HETATM   15  C   UNL     1      66.887   6.633   9.264  1.00  0.00     0.001 A 
HETATM   16  C   UNL     1      66.214   6.750   8.049  1.00  0.00     0.009 A 
BRANCH  13  17
HETATM   17  C   UNL     1      69.669   4.192   8.367  1.00  0.00     0.202 C 
BRANCH  17  18
HETATM   18  O   UNL     1      69.241   2.837   8.317  1.00  0.00    -0.396 OA
HETATM   19  H   UNL     1      69.410   2.412   9.174  1.00  0.00     0.209 HD
ENDBRANCH  17  18
ENDBRANCH  13  17
ENDBRANCH   1  11
TORSDOF 4
ENDMDL
