MODEL 1
REMARK VINA RESULT:      -5.4      0.000      0.000
REMARK  4 active torsions:
REMARK  status: ('A' for Active; 'I' for Inactive)
REMARK    1  A    between atoms: N_1  and  C_3 
REMARK    2  A    between atoms: C_3  and  C_8 
REMARK    3  A    between atoms: C_9  and  C_16 
REMARK    4  A    between atoms: N_10  and  C_16 
ROOT
HETATM    1  C   UNL     1      63.517   7.835   4.981  1.00  0.00    -0.033 A 
HETATM    2  C   UNL     1      62.415   9.377   2.882  1.00  0.00    -0.033 A 
HETATM    3  C   UNL     1      63.146   9.166   5.194  1.00  0.00     0.009 A 
HETATM    4  C   UNL     1      63.414   7.310   3.681  1.00  0.00     0.009 A 
HETATM    5  C   UNL     1      62.573   9.922   4.165  1.00  0.00     0.009 A 
HETATM    6  C   UNL     1      62.878   8.082   2.638  1.00  0.00     0.009 A 
ENDROOT
BRANCH   1   7
HETATM    7  C   UNL     1      63.966   6.958   6.145  1.00  0.00     0.273 C 
BRANCH   7   8
HETATM    8  N   UNL     1      65.355   7.222   6.583  1.00  0.00    -0.064 N 
HETATM    9  C   UNL     1      65.629   6.574   7.884  1.00  0.00     0.263 C 
HETATM   10  C   UNL     1      67.097   6.736   8.345  1.00  0.00     0.262 C 
HETATM   11  N   UNL     1      68.112   6.279   7.375  1.00  0.00    -0.072 N 
HETATM   12  C   UNL     1      67.819   6.892   6.066  1.00  0.00     0.262 C 
HETATM   13  C   UNL     1      68.170   4.821   7.286  1.00  0.00     0.269 C 
HETATM   14  H   UNL     1      69.034   6.576   7.693  1.00  0.00     0.279 HD
HETATM   15  C   UNL     1      66.348   6.756   5.590  1.00  0.00     0.263 C 
HETATM   16  H   UNL     1      65.445   8.233   6.678  1.00  0.00     0.280 HD
ENDBRANCH   7   8
ENDBRANCH   1   7
BRANCH   2  17
HETATM   17  C   UNL     1      61.738  10.180   1.798  1.00  0.00     0.268 C 
BRANCH  17  18
HETATM   18  N   UNL     1      61.610  11.582   2.175  1.00  0.00    -0.075 N 
HETATM   19  H   UNL     1      61.120  12.090   1.438  1.00  0.00     0.274 HD
HETATM   20  H   UNL     1      62.539  11.984   2.304  1.00  0.00     0.274 HD
HETATM   21  H   UNL     1      61.084  11.654   3.045  1.00  0.00     0.274 HD
ENDBRANCH  17  18
ENDBRANCH   2  17
TORSDOF 4
ENDMDL
MODEL 2
REMARK VINA RESULT:      -5.2      2.109      7.211
REMARK  4 active torsions:
REMARK  status: ('A' for Active; 'I' for Inactive)
REMARK    1  A    between atoms: N_1  and  C_3 
REMARK    2  A    between atoms: C_3  and  C_8 
REMARK    3  A    between atoms: C_9  and  C_16 
REMARK    4  A    between atoms: N_10  and  C_16 
ROOT
HETATM    1  C   UNL     1      67.136   6.623   7.044  1.00  0.00    -0.033 A 
HETATM    2  C   UNL     1      68.419   4.854   8.838  1.00  0.00    -0.033 A 
HETATM    3  C   UNL     1      67.108   6.861   8.421  1.00  0.00     0.009 A 
HETATM    4  C   UNL     1      67.737   5.441   6.580  1.00  0.00     0.009 A 
HETATM    5  C   UNL     1      67.768   6.004   9.309  1.00  0.00     0.009 A 
HETATM    6  C   UNL     1      68.362   4.557   7.475  1.00  0.00     0.009 A 
ENDROOT
BRANCH   1   7
HETATM    7  C   UNL     1      66.579   7.653   6.067  1.00  0.00     0.273 C 
BRANCH   7   8
HETATM    8  N   UNL     1      65.126   7.889   6.219  1.00  0.00    -0.064 N 
HETATM    9  C   UNL     1      64.623   8.786   5.156  1.00  0.00     0.263 C 
HETATM   10  C   UNL     1      63.091   8.990   5.209  1.00  0.00     0.262 C 
HETATM   11  N   UNL     1      62.292   7.749   5.185  1.00  0.00    -0.072 N 
HETATM   12  C   UNL     1      62.816   6.835   6.217  1.00  0.00     0.262 C 
HETATM   13  C   UNL     1      62.288   7.123   3.865  1.00  0.00     0.269 C 
HETATM   14  H   UNL     1      61.319   7.974   5.390  1.00  0.00     0.279 HD
HETATM   15  C   UNL     1      64.353   6.626   6.193  1.00  0.00     0.263 C 
HETATM   16  H   UNL     1      64.995   8.328   7.129  1.00  0.00     0.280 HD
ENDBRANCH   7   8
ENDBRANCH   1   7
BRANCH   2  17
HETATM   17  C   UNL     1      69.181   3.971   9.796  1.00  0.00     0.268 C 
BRANCH  17  18
HETATM   18  N   UNL     1      70.619   4.060   9.572  1.00  0.00    -0.075 N 
HETATM   19  H   UNL     1      70.847   4.976   9.185  1.00  0.00     0.274 HD
HETATM   20  H   UNL     1      70.906   3.333   8.917  1.00  0.00     0.274 HD
HETATM   21  H   UNL     1      71.110   3.932  10.457  1.00  0.00     0.274 HD
ENDBRANCH  17  18
ENDBRANCH   2  17
TORSDOF 4
ENDMDL
MODEL 3
REMARK VINA RESULT:      -5.1      2.247      7.830
REMARK  4 active torsions:
REMARK  status: ('A' for Active; 'I' for Inactive)
REMARK    1  A    between atoms: N_1  and  C_3 
REMARK    2  A    between atoms: C_3  and  C_8 
REMARK    3  A    between atoms: C_9  and  C_16 
REMARK    4  A    between atoms: N_10  and  C_16 
ROOT
HETATM    1  C   UNL     1      68.106   5.489   7.403  1.00  0.00    -0.033 A 
HETATM    2  C   UNL     1      68.990   3.232   8.860  1.00  0.00    -0.033 A 
HETATM    3  C   UNL     1      68.174   4.231   6.796  1.00  0.00     0.009 A 
HETATM    4  C   UNL     1      68.571   5.623   8.723  1.00  0.00     0.009 A 
HETATM    5  C   UNL     1      68.583   3.107   7.523  1.00  0.00     0.009 A 
HETATM    6  C   UNL     1      69.022   4.502   9.439  1.00  0.00     0.009 A 
ENDROOT
BRANCH   1   7
HETATM    7  C   UNL     1      67.486   6.673   6.669  1.00  0.00     0.273 C 
BRANCH   7   8
HETATM    8  N   UNL     1      66.189   6.359   6.029  1.00  0.00    -0.064 N 
HETATM    9  C   UNL     1      65.064   6.669   6.939  1.00  0.00     0.263 C 
HETATM   10  C   UNL     1      63.679   6.451   6.285  1.00  0.00     0.262 C 
HETATM   11  N   UNL     1      63.464   7.174   5.016  1.00  0.00    -0.072 N 
HETATM   12  C   UNL     1      64.603   6.900   4.121  1.00  0.00     0.262 C 
HETATM   13  C   UNL     1      63.278   8.609   5.225  1.00  0.00     0.269 C 
HETATM   14  H   UNL     1      62.602   6.841   4.585  1.00  0.00     0.279 HD
HETATM   15  C   UNL     1      66.004   7.096   4.759  1.00  0.00     0.263 C 
HETATM   16  H   UNL     1      66.198   5.361   5.823  1.00  0.00     0.280 HD
ENDBRANCH   7   8
ENDBRANCH   1   7
BRANCH   2  17
HETATM   17  C   UNL     1      69.369   2.004   9.653  1.00  0.00     0.268 C 
BRANCH  17  18
HETATM   18  N   UNL     1      69.792   2.354  11.004  1.00  0.00    -0.075 N 
HETATM   19  H   UNL     1      69.279   1.785  11.679  1.00  0.00     0.274 HD
HETATM   20  H   UNL     1      69.598   3.341  11.175  1.00  0.00     0.274 HD
HETATM   21  H   UNL     1      70.792   2.181  11.103  1.00  0.00     0.274 HD
ENDBRANCH  17  18
ENDBRANCH   2  17
TORSDOF 4
ENDMDL
MODEL 4
REMARK VINA RESULT:      -5.1      1.163      2.194
REMARK  4 active torsions:
REMARK  status: ('A' for Active; 'I' for Inactive)
REMARK    1  A    between atoms: N_1  and  C_3 
REMARK    2  A    between atoms: C_3  and  C_8 
REMARK    3  A    between atoms: C_9  and  C_16 
REMARK    4  A    between atoms: N_10  and  C_16 
ROOT
HETATM    1  C   UNL     1      64.870   8.182   5.013  1.00  0.00    -0.033 A 
HETATM    2  C   UNL     1      62.667   8.603   3.291  1.00  0.00    -0.033 A 
HETATM    3  C   UNL     1      64.571   7.265   4.002  1.00  0.00     0.009 A 
HETATM    4  C   UNL     1      64.000   9.268   5.212  1.00  0.00     0.009 A 
HETATM    5  C   UNL     1      63.500   7.486   3.129  1.00  0.00     0.009 A 
HETATM    6  C   UNL     1      62.899   9.467   4.364  1.00  0.00     0.009 A 
ENDROOT
BRANCH   1   7
HETATM    7  C   UNL     1      66.143   8.039   5.841  1.00  0.00     0.273 C 
BRANCH   7   8
HETATM    8  N   UNL     1      66.317   6.692   6.430  1.00  0.00    -0.064 N 
HETATM    9  C   UNL     1      67.590   6.084   5.987  1.00  0.00     0.263 C 
HETATM   10  C   UNL     1      67.870   4.714   6.649  1.00  0.00     0.262 C 
HETATM   11  N   UNL     1      67.844   4.714   8.126  1.00  0.00    -0.072 N 
HETATM   12  C   UNL     1      66.594   5.357   8.572  1.00  0.00     0.262 C 
HETATM   13  C   UNL     1      69.019   5.370   8.696  1.00  0.00     0.269 C 
HETATM   14  H   UNL     1      67.872   3.752   8.460  1.00  0.00     0.279 HD
HETATM   15  C   UNL     1      66.284   6.725   7.910  1.00  0.00     0.263 C 
HETATM   16  H   UNL     1      65.534   6.127   6.103  1.00  0.00     0.280 HD
ENDBRANCH   7   8
ENDBRANCH   1   7
BRANCH   2  17
HETATM   17  C   UNL     1      61.553   8.865   2.307  1.00  0.00     0.268 C 
BRANCH  17  18
HETATM   18  N   UNL     1      61.469  10.279   1.963  1.00  0.00    -0.075 N 
HETATM   19  H   UNL     1      62.380  10.605   1.637  1.00  0.00     0.274 HD
HETATM   20  H   UNL     1      61.193  10.813   2.788  1.00  0.00     0.274 HD
HETATM   21  H   UNL     1      60.777  10.410   1.226  1.00  0.00     0.274 HD
ENDBRANCH  17  18
ENDBRANCH   2  17
TORSDOF 4
ENDMDL
MODEL 5
REMARK VINA RESULT:      -4.8      2.408      7.955
REMARK  4 active torsions:
REMARK  status: ('A' for Active; 'I' for Inactive)
REMARK    1  A    between atoms: N_1  and  C_3 
REMARK    2  A    between atoms: C_3  and  C_8 
REMARK    3  A    between atoms: C_9  and  C_16 
REMARK    4  A    between atoms: N_10  and  C_16 
ROOT
HETATM    1  C   UNL     1      68.138   4.942   7.389  1.00  0.00    -0.033 A 
HETATM    2  C   UNL     1      68.883   3.113   9.414  1.00  0.00    -0.033 A 
HETATM    3  C   UNL     1      68.490   5.395   8.664  1.00  0.00     0.009 A 
HETATM    4  C   UNL     1      68.076   3.556   7.164  1.00  0.00     0.009 A 
HETATM    5  C   UNL     1      68.888   4.495   9.659  1.00  0.00     0.009 A 
HETATM    6  C   UNL     1      68.434   2.650   8.175  1.00  0.00     0.009 A 
ENDROOT
BRANCH   1   7
HETATM    7  C   UNL     1      67.887   5.930   6.256  1.00  0.00     0.273 C 
BRANCH   7   8
HETATM    8  N   UNL     1      66.631   6.698   6.408  1.00  0.00    -0.064 N 
HETATM    9  C   UNL     1      66.521   7.742   5.365  1.00  0.00     0.263 C 
HETATM   10  C   UNL     1      65.181   8.513   5.417  1.00  0.00     0.262 C 
HETATM   11  N   UNL     1      63.970   7.669   5.360  1.00  0.00    -0.072 N 
HETATM   12  C   UNL     1      64.094   6.603   6.371  1.00  0.00     0.262 C 
HETATM   13  C   UNL     1      63.746   7.120   4.024  1.00  0.00     0.269 C 
HETATM   14  H   UNL     1      63.154   8.244   5.566  1.00  0.00     0.279 HD
HETATM   15  C   UNL     1      65.436   5.826   6.349  1.00  0.00     0.263 C 
HETATM   16  H   UNL     1      66.665   7.135   7.328  1.00  0.00     0.280 HD
ENDBRANCH   7   8
ENDBRANCH   1   7
BRANCH   2  17
HETATM   17  C   UNL     1      69.374   2.155  10.472  1.00  0.00     0.268 C 
BRANCH  17  18
HETATM   18  N   UNL     1      70.535   1.404  10.012  1.00  0.00    -0.075 N 
HETATM   19  H   UNL     1      70.449   1.225   9.010  1.00  0.00     0.274 HD
HETATM   20  H   UNL     1      70.585   0.517  10.512  1.00  0.00     0.274 HD
HETATM   21  H   UNL     1      71.382   1.943  10.189  1.00  0.00     0.274 HD
ENDBRANCH  17  18
ENDBRANCH   2  17
TORSDOF 4
ENDMDL
MODEL 6
REMARK VINA RESULT:      -4.7     16.051     20.022
REMARK  4 active torsions:
REMARK  status: ('A' for Active; 'I' for Inactive)
REMARK    1  A    between atoms: N_1  and  C_3 
REMARK    2  A    between atoms: C_3  and  C_8 
REMARK    3  A    between atoms: C_9  and  C_16 
REMARK    4  A    between atoms: N_10  and  C_16 
ROOT
HETATM    1  C   UNL     1      76.422   0.836  18.215  1.00  0.00    -0.033 A 
HETATM    2  C   UNL     1      75.490   3.286  17.152  1.00  0.00    -0.033 A 
HETATM    3  C   UNL     1      77.265   1.950  18.146  1.00  0.00     0.009 A 
HETATM    4  C   UNL     1      75.133   0.936  17.664  1.00  0.00     0.009 A 
HETATM    5  C   UNL     1      76.798   3.171  17.648  1.00  0.00     0.009 A 
HETATM    6  C   UNL     1      74.678   2.150  17.124  1.00  0.00     0.009 A 
ENDROOT
BRANCH   1   7
HETATM    7  C   UNL     1      76.872  -0.435  18.927  1.00  0.00     0.273 C 
BRANCH   7   8
HETATM    8  N   UNL     1      78.255  -0.364  19.450  1.00  0.00    -0.064 N 
HETATM    9  C   UNL     1      78.254  -0.179  20.917  1.00  0.00     0.263 C 
HETATM   10  C   UNL     1      79.675  -0.194  21.530  1.00  0.00     0.262 C 
HETATM   11  N   UNL     1      80.482  -1.388  21.212  1.00  0.00    -0.072 N 
HETATM   12  C   UNL     1      80.452  -1.599  19.753  1.00  0.00     0.262 C 
HETATM   13  C   UNL     1      80.022  -2.572  21.936  1.00  0.00     0.269 C 
HETATM   14  H   UNL     1      81.442  -1.232  21.515  1.00  0.00     0.279 HD
HETATM   15  C   UNL     1      79.039  -1.572  19.112  1.00  0.00     0.263 C 
HETATM   16  H   UNL     1      78.695   0.440  19.003  1.00  0.00     0.280 HD
ENDBRANCH   7   8
ENDBRANCH   1   7
BRANCH   2  17
HETATM   17  C   UNL     1      74.976   4.623  16.676  1.00  0.00     0.268 C 
BRANCH  17  18
HETATM   18  N   UNL     1      73.527   4.713  16.810  1.00  0.00    -0.075 N 
HETATM   19  H   UNL     1      73.179   3.891  17.303  1.00  0.00     0.274 HD
HETATM   20  H   UNL     1      73.103   4.758  15.883  1.00  0.00     0.274 HD
HETATM   21  H   UNL     1      73.286   5.553  17.335  1.00  0.00     0.274 HD
ENDBRANCH  17  18
ENDBRANCH   2  17
TORSDOF 4
ENDMDL
MODEL 7
REMARK VINA RESULT:      -4.6     16.261     17.826
REMARK  4 active torsions:
REMARK  status: ('A' for Active; 'I' for Inactive)
REMARK    1  A    between atoms: N_1  and  C_3 
REMARK    2  A    between atoms: C_3  and  C_8 
REMARK    3  A    between atoms: C_9  and  C_16 
REMARK    4  A    between atoms: N_10  and  C_16 
ROOT
HETATM    1  C   UNL     1      75.176   2.212  17.560  1.00  0.00    -0.033 A 
HETATM    2  C   UNL     1      76.268   4.794  17.185  1.00  0.00    -0.033 A 
HETATM    3  C   UNL     1      76.446   2.527  18.053  1.00  0.00     0.009 A 
HETATM    4  C   UNL     1      74.495   3.177  16.798  1.00  0.00     0.009 A 
HETATM    5  C   UNL     1      76.976   3.813  17.896  1.00  0.00     0.009 A 
HETATM    6  C   UNL     1      75.045   4.454  16.602  1.00  0.00     0.009 A 
ENDROOT
BRANCH   1   7
HETATM    7  C   UNL     1      74.524   0.875  17.893  1.00  0.00     0.273 C 
BRANCH   7   8
HETATM    8  N   UNL     1      75.005  -0.244  17.052  1.00  0.00    -0.064 N 
HETATM    9  C   UNL     1      75.790  -1.207  17.856  1.00  0.00     0.263 C 
HETATM   10  C   UNL     1      76.238  -2.448  17.048  1.00  0.00     0.262 C 
HETATM   11  N   UNL     1      75.149  -3.183  16.374  1.00  0.00    -0.072 N 
HETATM   12  C   UNL     1      74.340  -2.221  15.604  1.00  0.00     0.262 C 
HETATM   13  C   UNL     1      74.330  -3.939  17.319  1.00  0.00     0.269 C 
HETATM   14  H   UNL     1      75.554  -3.873  15.742  1.00  0.00     0.279 HD
HETATM   15  C   UNL     1      73.892  -0.959  16.389  1.00  0.00     0.263 C 
HETATM   16  H   UNL     1      75.599   0.166  16.332  1.00  0.00     0.280 HD
ENDBRANCH   7   8
ENDBRANCH   1   7
BRANCH   2  17
HETATM   17  C   UNL     1      76.820   6.195  17.076  1.00  0.00     0.268 C 
BRANCH  17  18
HETATM   18  N   UNL     1      76.857   6.645  15.689  1.00  0.00    -0.075 N 
HETATM   19  H   UNL     1      76.007   7.170  15.479  1.00  0.00     0.274 HD
HETATM   20  H   UNL     1      76.917   5.835  15.072  1.00  0.00     0.274 HD
HETATM   21  H   UNL     1      77.670   7.243  15.547  1.00  0.00     0.274 HD
ENDBRANCH  17  18
ENDBRANCH   2  17
TORSDOF 4
ENDMDL
MODEL 8
REMARK VINA RESULT:      -4.6     16.384     17.460
REMARK  4 active torsions:
REMARK  status: ('A' for Active; 'I' for Inactive)
REMARK    1  A    between atoms: N_1  and  C_3 
REMARK    2  A    between atoms: C_3  and  C_8 
REMARK    3  A    between atoms: C_9  and  C_16 
REMARK    4  A    between atoms: N_10  and  C_16 
ROOT
HETATM    1  C   UNL     1      75.093   2.348  17.428  1.00  0.00    -0.033 A 
HETATM    2  C   UNL     1      76.341   4.871  17.161  1.00  0.00    -0.033 A 
HETATM    3  C   UNL     1      76.396   2.550  17.892  1.00  0.00     0.009 A 
HETATM    4  C   UNL     1      74.452   3.398  16.747  1.00  0.00     0.009 A 
HETATM    5  C   UNL     1      77.005   3.806  17.789  1.00  0.00     0.009 A 
HETATM    6  C   UNL     1      75.080   4.646  16.605  1.00  0.00     0.009 A 
ENDROOT
BRANCH   1   7
HETATM    7  C   UNL     1      74.364   1.038  17.708  1.00  0.00     0.273 C 
BRANCH   7   8
HETATM    8  N   UNL     1      74.569   0.011  16.662  1.00  0.00    -0.064 N 
HETATM    9  C   UNL     1      74.768   0.640  15.338  1.00  0.00     0.263 C 
HETATM   10  C   UNL     1      75.083  -0.385  14.222  1.00  0.00     0.262 C 
HETATM   11  N   UNL     1      76.232  -1.272  14.493  1.00  0.00    -0.072 N 
HETATM   12  C   UNL     1      76.057  -1.870  15.829  1.00  0.00     0.262 C 
HETATM   13  C   UNL     1      77.508  -0.570  14.381  1.00  0.00     0.269 C 
HETATM   14  H   UNL     1      76.256  -2.009  13.789  1.00  0.00     0.279 HD
HETATM   15  C   UNL     1      75.724  -0.864  16.963  1.00  0.00     0.263 C 
HETATM   16  H   UNL     1      73.726  -0.563  16.646  1.00  0.00     0.280 HD
ENDBRANCH   7   8
ENDBRANCH   1   7
BRANCH   2  17
HETATM   17  C   UNL     1      76.981   6.237  17.112  1.00  0.00     0.268 C 
BRANCH  17  18
HETATM   18  N   UNL     1      76.341   7.159  18.043  1.00  0.00    -0.075 N 
HETATM   19  H   UNL     1      76.172   8.051  17.577  1.00  0.00     0.274 HD
HETATM   20  H   UNL     1      76.951   7.306  18.847  1.00  0.00     0.274 HD
HETATM   21  H   UNL     1      75.455   6.765  18.356  1.00  0.00     0.274 HD
ENDBRANCH  17  18
ENDBRANCH   2  17
TORSDOF 4
ENDMDL
MODEL 9
REMARK VINA RESULT:      -4.6     13.501     15.524
REMARK  4 active torsions:
REMARK  status: ('A' for Active; 'I' for Inactive)
REMARK    1  A    between atoms: N_1  and  C_3 
REMARK    2  A    between atoms: C_3  and  C_8 
REMARK    3  A    between atoms: C_9  and  C_16 
REMARK    4  A    between atoms: N_10  and  C_16 
ROOT
HETATM    1  C   UNL     1      76.512  13.971   5.448  1.00  0.00    -0.033 A 
HETATM    2  C   UNL     1      77.451  11.345   5.919  1.00  0.00    -0.033 A 
HETATM    3  C   UNL     1      77.116  13.235   4.424  1.00  0.00     0.009 A 
HETATM    4  C   UNL     1      76.464  13.411   6.737  1.00  0.00     0.009 A 
HETATM    5  C   UNL     1      77.554  11.925   4.646  1.00  0.00     0.009 A 
HETATM    6  C   UNL     1      76.943  12.112   6.970  1.00  0.00     0.009 A 
ENDROOT
BRANCH   1   7
HETATM    7  C   UNL     1      75.869  15.323   5.159  1.00  0.00     0.273 C 
BRANCH   7   8
HETATM    8  N   UNL     1      76.490  16.445   5.898  1.00  0.00    -0.064 N 
HETATM    9  C   UNL     1      77.638  16.998   5.149  1.00  0.00     0.263 C 
HETATM   10  C   UNL     1      78.266  18.237   5.831  1.00  0.00     0.262 C 
HETATM   11  N   UNL     1      77.325  19.337   6.120  1.00  0.00    -0.072 N 
HETATM   12  C   UNL     1      76.160  18.782   6.832  1.00  0.00     0.262 C 
HETATM   13  C   UNL     1      76.926  20.052   4.909  1.00  0.00     0.269 C 
HETATM   14  H   UNL     1      77.790  20.027   6.710  1.00  0.00     0.279 HD
HETATM   15  C   UNL     1      75.522  17.529   6.175  1.00  0.00     0.263 C 
HETATM   16  H   UNL     1      76.811  16.065   6.788  1.00  0.00     0.280 HD
ENDBRANCH   7   8
ENDBRANCH   1   7
BRANCH   2  17
HETATM   17  C   UNL     1      77.868   9.910   6.133  1.00  0.00     0.268 C 
BRANCH  17  18
HETATM   18  N   UNL     1      78.316   9.685   7.502  1.00  0.00    -0.075 N 
HETATM   19  H   UNL     1      78.970  10.420   7.771  1.00  0.00     0.274 HD
HETATM   20  H   UNL     1      78.779   8.778   7.562  1.00  0.00     0.274 HD
HETATM   21  H   UNL     1      77.512   9.698   8.130  1.00  0.00     0.274 HD
ENDBRANCH  17  18
ENDBRANCH   2  17
TORSDOF 4
ENDMDL
