MODEL 1
REMARK VINA RESULT:      -6.0      0.000      0.000
REMARK  4 active torsions:
REMARK  status: ('A' for Active; 'I' for Inactive)
REMARK    1  A    between atoms: N_1  and  C_3 
REMARK    2  A    between atoms: C_3  and  C_8 
REMARK    3  A    between atoms: C_9  and  C_16 
REMARK    4  A    between atoms: O_15  and  C_16 
ROOT
HETATM    1  C   UNL     1      75.191   4.589  16.495  1.00  0.00     0.273 C 
ENDROOT
BRANCH   1   2
HETATM    2  N   UNL     1      75.490   3.563  17.513  1.00  0.00    -0.064 N 
HETATM    3  C   UNL     1      74.776   2.297  17.246  1.00  0.00     0.263 C 
HETATM    4  C   UNL     1      75.156   1.176  18.240  1.00  0.00     0.262 C 
HETATM    5  N   UNL     1      76.601   0.896  18.338  1.00  0.00    -0.072 N 
HETATM    6  C   UNL     1      77.315   2.169  18.563  1.00  0.00     0.262 C 
HETATM    7  C   UNL     1      77.093   0.197  17.154  1.00  0.00     0.269 C 
HETATM    8  H   UNL     1      76.773   0.273  19.127  1.00  0.00     0.279 HD
HETATM    9  C   UNL     1      76.943   3.315  17.588  1.00  0.00     0.263 C 
HETATM   10  H   UNL     1      75.164   3.924  18.409  1.00  0.00     0.280 HD
ENDBRANCH   1   2
BRANCH   1  11
HETATM   11  C   UNL     1      76.005   5.857  16.674  1.00  0.00    -0.033 A 
HETATM   12  C   UNL     1      76.068   6.489  17.923  1.00  0.00     0.009 A 
HETATM   13  C   UNL     1      76.709   7.723  18.064  1.00  0.00     0.010 A 
HETATM   14  C   UNL     1      77.308   8.343  16.962  1.00  0.00    -0.035 A 
HETATM   15  C   UNL     1      77.296   7.682  15.725  1.00  0.00     0.010 A 
HETATM   16  C   UNL     1      76.652   6.451  15.582  1.00  0.00     0.009 A 
BRANCH  14  17
HETATM   17  C   UNL     1      77.911   9.717  17.082  1.00  0.00     0.202 C 
BRANCH  17  18
HETATM   18  O   UNL     1      79.117   9.686  17.832  1.00  0.00    -0.396 OA
HETATM   19  H   UNL     1      79.469   8.783  17.841  1.00  0.00     0.209 HD
ENDBRANCH  17  18
ENDBRANCH  14  17
ENDBRANCH   1  11
TORSDOF 4
ENDMDL
MODEL 2
REMARK VINA RESULT:      -5.9     16.862     18.000
REMARK  4 active torsions:
REMARK  status: ('A' for Active; 'I' for Inactive)
REMARK    1  A    between atoms: N_1  and  C_3 
REMARK    2  A    between atoms: C_3  and  C_8 
REMARK    3  A    between atoms: C_9  and  C_16 
REMARK    4  A    between atoms: O_15  and  C_16 
ROOT
HETATM    1  C   UNL     1      63.707   7.277   5.921  1.00  0.00     0.273 C 
ENDROOT
BRANCH   1   2
HETATM    2  N   UNL     1      65.081   7.531   6.396  1.00  0.00    -0.064 N 
HETATM    3  C   UNL     1      65.417   6.708   7.576  1.00  0.00     0.263 C 
HETATM    4  C   UNL     1      66.886   6.882   8.026  1.00  0.00     0.262 C 
HETATM    5  N   UNL     1      67.890   6.638   6.974  1.00  0.00    -0.072 N 
HETATM    6  C   UNL     1      67.529   7.430   5.781  1.00  0.00     0.262 C 
HETATM    7  C   UNL     1      68.012   5.216   6.667  1.00  0.00     0.269 C 
HETATM    8  H   UNL     1      68.808   6.935   7.306  1.00  0.00     0.279 HD
HETATM    9  C   UNL     1      66.057   7.286   5.316  1.00  0.00     0.263 C 
HETATM   10  H   UNL     1      65.127   8.512   6.673  1.00  0.00     0.280 HD
ENDBRANCH   1   2
BRANCH   1  11
HETATM   11  C   UNL     1      63.251   8.268   4.866  1.00  0.00    -0.033 A 
HETATM   12  C   UNL     1      62.944   9.589   5.219  1.00  0.00     0.009 A 
HETATM   13  C   UNL     1      62.403  10.470   4.280  1.00  0.00     0.010 A 
HETATM   14  C   UNL     1      62.168  10.050   2.965  1.00  0.00    -0.035 A 
HETATM   15  C   UNL     1      62.530   8.747   2.597  1.00  0.00     0.010 A 
HETATM   16  C   UNL     1      63.068   7.865   3.537  1.00  0.00     0.009 A 
BRANCH  14  17
HETATM   17  C   UNL     1      61.493  10.959   1.974  1.00  0.00     0.202 C 
BRANCH  17  18
HETATM   18  O   UNL     1      62.153  12.213   1.892  1.00  0.00    -0.396 OA
HETATM   19  H   UNL     1      61.577  12.854   1.446  1.00  0.00     0.209 HD
ENDBRANCH  17  18
ENDBRANCH  14  17
ENDBRANCH   1  11
TORSDOF 4
ENDMDL
MODEL 3
REMARK VINA RESULT:      -5.8      4.132      7.746
REMARK  4 active torsions:
REMARK  status: ('A' for Active; 'I' for Inactive)
REMARK    1  A    between atoms: N_1  and  C_3 
REMARK    2  A    between atoms: C_3  and  C_8 
REMARK    3  A    between atoms: C_9  and  C_16 
REMARK    4  A    between atoms: O_15  and  C_16 
ROOT
HETATM    1  C   UNL     1      77.700   9.877  17.187  1.00  0.00     0.273 C 
ENDROOT
BRANCH   1   2
HETATM    2  N   UNL     1      77.021  10.582  18.291  1.00  0.00    -0.064 N 
HETATM    3  C   UNL     1      77.947  10.893  19.400  1.00  0.00     0.263 C 
HETATM    4  C   UNL     1      77.280  11.723  20.520  1.00  0.00     0.262 C 
HETATM    5  N   UNL     1      76.641  12.973  20.069  1.00  0.00    -0.072 N 
HETATM    6  C   UNL     1      75.747  12.666  18.935  1.00  0.00     0.262 C 
HETATM    7  C   UNL     1      77.632  13.989  19.723  1.00  0.00     0.269 C 
HETATM    8  H   UNL     1      76.088  13.366  20.832  1.00  0.00     0.279 HD
HETATM    9  C   UNL     1      76.386  11.822  17.802  1.00  0.00     0.263 C 
HETATM   10  H   UNL     1      76.300   9.956  18.651  1.00  0.00     0.280 HD
ENDBRANCH   1   2
BRANCH   1  11
HETATM   11  C   UNL     1      77.250   8.436  17.037  1.00  0.00    -0.033 A 
HETATM   12  C   UNL     1      77.275   7.811  15.783  1.00  0.00     0.009 A 
HETATM   13  C   UNL     1      76.745   6.530  15.614  1.00  0.00     0.010 A 
HETATM   14  C   UNL     1      76.188   5.844  16.700  1.00  0.00    -0.035 A 
HETATM   15  C   UNL     1      76.216   6.444  17.966  1.00  0.00     0.010 A 
HETATM   16  C   UNL     1      76.743   7.727  18.134  1.00  0.00     0.009 A 
BRANCH  14  17
HETATM   17  C   UNL     1      75.523   4.507  16.509  1.00  0.00     0.202 C 
BRANCH  17  18
HETATM   18  O   UNL     1      74.153   4.556  16.878  1.00  0.00    -0.396 OA
HETATM   19  H   UNL     1      73.761   5.385  16.563  1.00  0.00     0.209 HD
ENDBRANCH  17  18
ENDBRANCH  14  17
ENDBRANCH   1  11
TORSDOF 4
ENDMDL
MODEL 4
REMARK VINA RESULT:      -5.8      6.444      9.630
REMARK  4 active torsions:
REMARK  status: ('A' for Active; 'I' for Inactive)
REMARK    1  A    between atoms: N_1  and  C_3 
REMARK    2  A    between atoms: C_3  and  C_8 
REMARK    3  A    between atoms: C_9  and  C_16 
REMARK    4  A    between atoms: O_15  and  C_16 
ROOT
HETATM    1  C   UNL     1      78.529  12.816  21.005  1.00  0.00     0.273 C 
ENDROOT
BRANCH   1   2
HETATM    2  N   UNL     1      79.513  12.375  22.012  1.00  0.00    -0.064 N 
HETATM    3  C   UNL     1      80.680  13.280  22.075  1.00  0.00     0.263 C 
HETATM    4  C   UNL     1      81.673  12.896  23.196  1.00  0.00     0.262 C 
HETATM    5  N   UNL     1      81.079  12.792  24.542  1.00  0.00    -0.072 N 
HETATM    6  C   UNL     1      79.889  11.920  24.468  1.00  0.00     0.262 C 
HETATM    7  C   UNL     1      80.758  14.106  25.092  1.00  0.00     0.269 C 
HETATM    8  H   UNL     1      81.757  12.376  25.181  1.00  0.00     0.279 HD
HETATM    9  C   UNL     1      78.882  12.274  23.343  1.00  0.00     0.263 C 
HETATM   10  H   UNL     1      79.845  11.454  21.727  1.00  0.00     0.280 HD
ENDBRANCH   1   2
BRANCH   1  11
HETATM   11  C   UNL     1      78.267  11.771  19.935  1.00  0.00    -0.033 A 
HETATM   12  C   UNL     1      77.073  11.791  19.202  1.00  0.00     0.009 A 
HETATM   13  C   UNL     1      76.770  10.762  18.307  1.00  0.00     0.010 A 
HETATM   14  C   UNL     1      77.661   9.698  18.120  1.00  0.00    -0.035 A 
HETATM   15  C   UNL     1      78.882   9.709  18.809  1.00  0.00     0.010 A 
HETATM   16  C   UNL     1      79.183  10.736  19.707  1.00  0.00     0.009 A 
BRANCH  14  17
HETATM   17  C   UNL     1      77.299   8.535  17.237  1.00  0.00     0.202 C 
BRANCH  17  18
HETATM   18  O   UNL     1      76.941   7.396  18.006  1.00  0.00    -0.396 OA
HETATM   19  H   UNL     1      76.663   7.677  18.891  1.00  0.00     0.209 HD
ENDBRANCH  17  18
ENDBRANCH  14  17
ENDBRANCH   1  11
TORSDOF 4
ENDMDL
MODEL 5
REMARK VINA RESULT:      -5.6     13.188     14.949
REMARK  4 active torsions:
REMARK  status: ('A' for Active; 'I' for Inactive)
REMARK    1  A    between atoms: N_1  and  C_3 
REMARK    2  A    between atoms: C_3  and  C_8 
REMARK    3  A    between atoms: C_9  and  C_16 
REMARK    4  A    between atoms: O_15  and  C_16 
ROOT
HETATM    1  C   UNL     1      67.902   6.280   6.617  1.00  0.00     0.273 C 
ENDROOT
BRANCH   1   2
HETATM    2  N   UNL     1      66.542   6.177   6.055  1.00  0.00    -0.064 N 
HETATM    3  C   UNL     1      65.532   6.795   6.940  1.00  0.00     0.263 C 
HETATM    4  C   UNL     1      64.115   6.791   6.321  1.00  0.00     0.262 C 
HETATM    5  N   UNL     1      64.019   7.407   4.985  1.00  0.00    -0.072 N 
HETATM    6  C   UNL     1      65.056   6.818   4.116  1.00  0.00     0.262 C 
HETATM    7  C   UNL     1      64.130   8.862   5.056  1.00  0.00     0.269 C 
HETATM    8  H   UNL     1      63.100   7.213   4.587  1.00  0.00     0.279 HD
HETATM    9  C   UNL     1      66.485   6.796   4.716  1.00  0.00     0.263 C 
HETATM   10  H   UNL     1      66.323   5.184   5.975  1.00  0.00     0.280 HD
ENDBRANCH   1   2
BRANCH   1  11
HETATM   11  C   UNL     1      68.269   5.104   7.504  1.00  0.00    -0.033 A 
HETATM   12  C   UNL     1      68.638   5.311   8.840  1.00  0.00     0.009 A 
HETATM   13  C   UNL     1      69.098   4.250   9.624  1.00  0.00     0.010 A 
HETATM   14  C   UNL     1      69.187   2.959   9.090  1.00  0.00    -0.035 A 
HETATM   15  C   UNL     1      68.762   2.741   7.772  1.00  0.00     0.010 A 
HETATM   16  C   UNL     1      68.305   3.803   6.987  1.00  0.00     0.009 A 
BRANCH  14  17
HETATM   17  C   UNL     1      69.776   1.831   9.893  1.00  0.00     0.202 C 
BRANCH  17  18
HETATM   18  O   UNL     1      69.762   2.126  11.282  1.00  0.00    -0.396 OA
HETATM   19  H   UNL     1      69.967   3.064  11.416  1.00  0.00     0.209 HD
ENDBRANCH  17  18
ENDBRANCH  14  17
ENDBRANCH   1  11
TORSDOF 4
ENDMDL
MODEL 6
REMARK VINA RESULT:      -5.6      7.798      9.996
REMARK  4 active torsions:
REMARK  status: ('A' for Active; 'I' for Inactive)
REMARK    1  A    between atoms: N_1  and  C_3 
REMARK    2  A    between atoms: C_3  and  C_8 
REMARK    3  A    between atoms: C_9  and  C_16 
REMARK    4  A    between atoms: O_15  and  C_16 
ROOT
HETATM    1  C   UNL     1      77.576  11.887  22.493  1.00  0.00     0.273 C 
ENDROOT
BRANCH   1   2
HETATM    2  N   UNL     1      78.999  11.859  22.884  1.00  0.00    -0.064 N 
HETATM    3  C   UNL     1      79.776  12.921  22.210  1.00  0.00     0.263 C 
HETATM    4  C   UNL     1      81.246  12.976  22.685  1.00  0.00     0.262 C 
HETATM    5  N   UNL     1      81.423  13.108  24.143  1.00  0.00    -0.072 N 
HETATM    6  C   UNL     1      80.613  12.073  24.815  1.00  0.00     0.262 C 
HETATM    7  C   UNL     1      81.084  14.451  24.605  1.00  0.00     0.269 C 
HETATM    8  H   UNL     1      82.406  12.968  24.380  1.00  0.00     0.279 HD
HETATM    9  C   UNL     1      79.137  11.986  24.348  1.00  0.00     0.263 C 
HETATM   10  H   UNL     1      79.375  10.959  22.588  1.00  0.00     0.280 HD
ENDBRANCH   1   2
BRANCH   1  11
HETATM   11  C   UNL     1      77.370  12.193  21.021  1.00  0.00    -0.033 A 
HETATM   12  C   UNL     1      76.973  13.472  20.611  1.00  0.00     0.009 A 
HETATM   13  C   UNL     1      76.660  13.725  19.273  1.00  0.00     0.010 A 
HETATM   14  C   UNL     1      76.748  12.706  18.318  1.00  0.00    -0.035 A 
HETATM   15  C   UNL     1      77.203  11.441  18.718  1.00  0.00     0.010 A 
HETATM   16  C   UNL     1      77.513  11.187  20.056  1.00  0.00     0.009 A 
BRANCH  14  17
HETATM   17  C   UNL     1      76.316  12.941  16.895  1.00  0.00     0.202 C 
BRANCH  17  18
HETATM   18  O   UNL     1      77.071  13.983  16.293  1.00  0.00    -0.396 OA
HETATM   19  H   UNL     1      77.984  13.685  16.160  1.00  0.00     0.209 HD
ENDBRANCH  17  18
ENDBRANCH  14  17
ENDBRANCH   1  11
TORSDOF 4
ENDMDL
MODEL 7
REMARK VINA RESULT:      -5.5      5.000      8.035
REMARK  4 active torsions:
REMARK  status: ('A' for Active; 'I' for Inactive)
REMARK    1  A    between atoms: N_1  and  C_3 
REMARK    2  A    between atoms: C_3  and  C_8 
REMARK    3  A    between atoms: C_9  and  C_16 
REMARK    4  A    between atoms: O_15  and  C_16 
ROOT
HETATM    1  C   UNL     1      78.606   9.986  19.082  1.00  0.00     0.273 C 
ENDROOT
BRANCH   1   2
HETATM    2  N   UNL     1      77.665  10.945  19.692  1.00  0.00    -0.064 N 
HETATM    3  C   UNL     1      78.368  12.003  20.447  1.00  0.00     0.263 C 
HETATM    4  C   UNL     1      77.406  13.076  21.007  1.00  0.00     0.262 C 
HETATM    5  N   UNL     1      76.531  13.709  20.003  1.00  0.00    -0.072 N 
HETATM    6  C   UNL     1      75.862  12.650  19.222  1.00  0.00     0.262 C 
HETATM    7  C   UNL     1      77.275  14.630  19.146  1.00  0.00     0.269 C 
HETATM    8  H   UNL     1      75.824  14.272  20.476  1.00  0.00     0.279 HD
HETATM    9  C   UNL     1      76.801  11.552  18.660  1.00  0.00     0.263 C 
HETATM   10  H   UNL     1      77.086  10.422  20.349  1.00  0.00     0.280 HD
ENDBRANCH   1   2
BRANCH   1  11
HETATM   11  C   UNL     1      78.065   9.348  17.816  1.00  0.00    -0.033 A 
HETATM   12  C   UNL     1      77.373   8.131  17.875  1.00  0.00     0.009 A 
HETATM   13  C   UNL     1      76.985   7.475  16.703  1.00  0.00     0.010 A 
HETATM   14  C   UNL     1      77.271   8.030  15.451  1.00  0.00    -0.035 A 
HETATM   15  C   UNL     1      77.911   9.276  15.393  1.00  0.00     0.010 A 
HETATM   16  C   UNL     1      78.302   9.930  16.564  1.00  0.00     0.009 A 
BRANCH  14  17
HETATM   17  C   UNL     1      76.948   7.284  14.184  1.00  0.00     0.202 C 
BRANCH  17  18
HETATM   18  O   UNL     1      77.467   7.954  13.045  1.00  0.00    -0.396 OA
HETATM   19  H   UNL     1      77.708   8.862  13.285  1.00  0.00     0.209 HD
ENDBRANCH  17  18
ENDBRANCH  14  17
ENDBRANCH   1  11
TORSDOF 4
ENDMDL
MODEL 8
REMARK VINA RESULT:      -5.4      5.452      7.879
REMARK  4 active torsions:
REMARK  status: ('A' for Active; 'I' for Inactive)
REMARK    1  A    between atoms: N_1  and  C_3 
REMARK    2  A    between atoms: C_3  and  C_8 
REMARK    3  A    between atoms: C_9  and  C_16 
REMARK    4  A    between atoms: O_15  and  C_16 
ROOT
HETATM    1  C   UNL     1      77.545   9.702  19.096  1.00  0.00     0.273 C 
ENDROOT
BRANCH   1   2
HETATM    2  N   UNL     1      78.105  10.985  19.560  1.00  0.00    -0.064 N 
HETATM    3  C   UNL     1      77.180  11.691  20.472  1.00  0.00     0.263 C 
HETATM    4  C   UNL     1      77.791  12.988  21.053  1.00  0.00     0.262 C 
HETATM    5  N   UNL     1      79.088  12.813  21.732  1.00  0.00    -0.072 N 
HETATM    6  C   UNL     1      79.996  12.071  20.835  1.00  0.00     0.262 C 
HETATM    7  C   UNL     1      78.934  12.148  23.023  1.00  0.00     0.269 C 
HETATM    8  H   UNL     1      79.492  13.728  21.932  1.00  0.00     0.279 HD
HETATM    9  C   UNL     1      79.405  10.773  20.226  1.00  0.00     0.263 C 
HETATM   10  H   UNL     1      78.241  11.571  18.736  1.00  0.00     0.280 HD
ENDBRANCH   1   2
BRANCH   1  11
HETATM   11  C   UNL     1      77.493   9.589  17.583  1.00  0.00    -0.033 A 
HETATM   12  C   UNL     1      77.371   8.336  16.968  1.00  0.00     0.009 A 
HETATM   13  C   UNL     1      77.450   8.214  15.578  1.00  0.00     0.010 A 
HETATM   14  C   UNL     1      77.641   9.345  14.776  1.00  0.00    -0.035 A 
HETATM   15  C   UNL     1      77.703  10.606  15.387  1.00  0.00     0.010 A 
HETATM   16  C   UNL     1      77.628  10.727  16.777  1.00  0.00     0.009 A 
BRANCH  14  17
HETATM   17  C   UNL     1      77.829   9.214  13.289  1.00  0.00     0.202 C 
BRANCH  17  18
HETATM   18  O   UNL     1      77.546   7.893  12.849  1.00  0.00    -0.396 OA
HETATM   19  H   UNL     1      77.409   7.894  11.889  1.00  0.00     0.209 HD
ENDBRANCH  17  18
ENDBRANCH  14  17
ENDBRANCH   1  11
TORSDOF 4
ENDMDL
MODEL 9
REMARK VINA RESULT:      -5.3     15.738     16.905
REMARK  4 active torsions:
REMARK  status: ('A' for Active; 'I' for Inactive)
REMARK    1  A    between atoms: N_1  and  C_3 
REMARK    2  A    between atoms: C_3  and  C_8 
REMARK    3  A    between atoms: C_9  and  C_16 
REMARK    4  A    between atoms: O_15  and  C_16 
ROOT
HETATM    1  C   UNL     1      66.419   6.989   5.167  1.00  0.00     0.273 C 
ENDROOT
BRANCH   1   2
HETATM    2  N   UNL     1      66.257   6.250   6.433  1.00  0.00    -0.064 N 
HETATM    3  C   UNL     1      66.959   4.949   6.405  1.00  0.00     0.263 C 
HETATM    4  C   UNL     1      66.890   4.205   7.759  1.00  0.00     0.262 C 
HETATM    5  N   UNL     1      67.370   4.981   8.918  1.00  0.00    -0.072 N 
HETATM    6  C   UNL     1      66.698   6.295   8.920  1.00  0.00     0.262 C 
HETATM    7  C   UNL     1      68.824   5.112   8.912  1.00  0.00     0.269 C 
HETATM    8  H   UNL     1      67.134   4.485   9.779  1.00  0.00     0.279 HD
HETATM    9  C   UNL     1      66.739   7.058   7.571  1.00  0.00     0.263 C 
HETATM   10  H   UNL     1      65.261   6.066   6.550  1.00  0.00     0.280 HD
ENDBRANCH   1   2
BRANCH   1  11
HETATM   11  C   UNL     1      65.112   7.544   4.632  1.00  0.00    -0.033 A 
HETATM   12  C   UNL     1      64.472   6.932   3.546  1.00  0.00     0.009 A 
HETATM   13  C   UNL     1      63.338   7.509   2.969  1.00  0.00     0.010 A 
HETATM   14  C   UNL     1      62.816   8.706   3.474  1.00  0.00    -0.035 A 
HETATM   15  C   UNL     1      63.420   9.287   4.598  1.00  0.00     0.010 A 
HETATM   16  C   UNL     1      64.556   8.711   5.173  1.00  0.00     0.009 A 
BRANCH  14  17
HETATM   17  C   UNL     1      61.658   9.388   2.798  1.00  0.00     0.202 C 
BRANCH  17  18
HETATM   18  O   UNL     1      61.097  10.395   3.628  1.00  0.00    -0.396 OA
HETATM   19  H   UNL     1      60.593  11.020   3.084  1.00  0.00     0.209 HD
ENDBRANCH  17  18
ENDBRANCH  14  17
ENDBRANCH   1  11
TORSDOF 4
ENDMDL
