MODEL 1
REMARK VINA RESULT:      -6.4      0.000      0.000
REMARK  4 active torsions:
REMARK  status: ('A' for Active; 'I' for Inactive)
REMARK    1  A    between atoms: C_1  and  C_3 
REMARK    2  A    between atoms: C_1  and  O_9 
REMARK    3  A    between atoms: N_2  and  C_5 
REMARK    4  A    between atoms: C_5  and  C_8 
ROOT
HETATM    1  C   UNL     1      77.360   8.402  15.493  1.00  0.00     0.039 A 
HETATM    2  C   UNL     1      77.033   7.146  14.961  1.00  0.00     0.018 A 
HETATM    3  C   UNL     1      77.325   8.575  16.883  1.00  0.00     0.018 A 
HETATM    4  C   UNL     1      76.686   6.244  17.198  1.00  0.00    -0.033 A 
HETATM    5  C   UNL     1      76.696   6.078  15.806  1.00  0.00     0.010 A 
HETATM    6  C   UNL     1      76.984   7.509  17.724  1.00  0.00     0.010 A 
ENDROOT
BRANCH   4   7
HETATM    7  C   UNL     1      76.385   5.074  18.123  1.00  0.00     0.273 C 
BRANCH   7   8
HETATM    8  N   UNL     1      76.309   3.772  17.430  1.00  0.00    -0.067 N 
HETATM    9  C   UNL     1      77.020   2.716  18.173  1.00  0.00     0.235 C 
HETATM   10  C   UNL     1      76.967   1.377  17.432  1.00  0.00     0.028 C 
HETATM   11  C   UNL     1      75.532   0.957  17.141  1.00  0.00     0.003 C 
HETATM   12  C   UNL     1      74.797   2.082  16.423  1.00  0.00     0.028 C 
HETATM   13  C   UNL     1      74.902   3.393  17.208  1.00  0.00     0.235 C 
HETATM   14  H   UNL     1      76.773   3.875  16.527  1.00  0.00     0.280 HD
ENDBRANCH   7   8
ENDBRANCH   4   7
BRANCH   1  15
HETATM   15  C   UNL     1      77.746   9.506  14.559  1.00  0.00     0.292 C 
HETATM   16  O   UNL     1      78.049  10.626  14.930  1.00  0.00    -0.259 OA
BRANCH  15  17
HETATM   17  O   UNL     1      77.696   9.082  13.268  1.00  0.00    -0.323 OA
HETATM   18  C   UNL     1      77.908  10.085  12.268  1.00  0.00     0.213 C 
ENDBRANCH  15  17
ENDBRANCH   1  15
TORSDOF 4
ENDMDL
MODEL 2
REMARK VINA RESULT:      -5.8      1.747      2.808
REMARK  4 active torsions:
REMARK  status: ('A' for Active; 'I' for Inactive)
REMARK    1  A    between atoms: C_1  and  C_3 
REMARK    2  A    between atoms: C_1  and  O_9 
REMARK    3  A    between atoms: N_2  and  C_5 
REMARK    4  A    between atoms: C_5  and  C_8 
ROOT
HETATM    1  C   UNL     1      77.263   8.127  17.141  1.00  0.00     0.039 A 
HETATM    2  C   UNL     1      77.242   7.544  15.866  1.00  0.00     0.018 A 
HETATM    3  C   UNL     1      76.535   7.520  18.173  1.00  0.00     0.018 A 
HETATM    4  C   UNL     1      75.813   5.741  16.670  1.00  0.00    -0.033 A 
HETATM    5  C   UNL     1      76.521   6.363  15.632  1.00  0.00     0.010 A 
HETATM    6  C   UNL     1      75.812   6.344  17.936  1.00  0.00     0.010 A 
ENDROOT
BRANCH   4   7
HETATM    7  C   UNL     1      75.082   4.427  16.441  1.00  0.00     0.273 C 
BRANCH   7   8
HETATM    8  N   UNL     1      75.453   3.364  17.398  1.00  0.00    -0.067 N 
HETATM    9  C   UNL     1      74.764   2.097  17.101  1.00  0.00     0.235 C 
HETATM   10  C   UNL     1      75.127   1.010  18.117  1.00  0.00     0.028 C 
HETATM   11  C   UNL     1      76.633   0.798  18.193  1.00  0.00     0.003 C 
HETATM   12  C   UNL     1      77.333   2.128  18.445  1.00  0.00     0.028 C 
HETATM   13  C   UNL     1      76.914   3.171  17.405  1.00  0.00     0.235 C 
HETATM   14  H   UNL     1      75.153   3.665  18.325  1.00  0.00     0.280 HD
ENDBRANCH   7   8
ENDBRANCH   4   7
BRANCH   1  15
HETATM   15  C   UNL     1      78.072   9.368  17.356  1.00  0.00     0.292 C 
HETATM   16  O   UNL     1      78.499  10.058  16.448  1.00  0.00    -0.259 OA
BRANCH  15  17
HETATM   17  O   UNL     1      78.260   9.594  18.683  1.00  0.00    -0.323 OA
HETATM   18  C   UNL     1      77.756  10.837  19.188  1.00  0.00     0.213 C 
ENDBRANCH  15  17
ENDBRANCH   1  15
TORSDOF 4
ENDMDL
MODEL 3
REMARK VINA RESULT:      -5.8      2.588      4.279
REMARK  4 active torsions:
REMARK  status: ('A' for Active; 'I' for Inactive)
REMARK    1  A    between atoms: C_1  and  C_3 
REMARK    2  A    between atoms: C_1  and  O_9 
REMARK    3  A    between atoms: N_2  and  C_5 
REMARK    4  A    between atoms: C_5  and  C_8 
ROOT
HETATM    1  C   UNL     1      76.247   5.106  17.182  1.00  0.00     0.039 A 
HETATM    2  C   UNL     1      75.083   4.661  16.540  1.00  0.00     0.018 A 
HETATM    3  C   UNL     1      76.965   4.204  17.978  1.00  0.00     0.018 A 
HETATM    4  C   UNL     1      75.385   2.422  17.453  1.00  0.00    -0.033 A 
HETATM    5  C   UNL     1      74.654   3.333  16.677  1.00  0.00     0.010 A 
HETATM    6  C   UNL     1      76.533   2.879  18.117  1.00  0.00     0.010 A 
ENDROOT
BRANCH   4   7
HETATM    7  C   UNL     1      74.963   0.964  17.555  1.00  0.00     0.273 C 
BRANCH   7   8
HETATM    8  N   UNL     1      75.441   0.127  16.435  1.00  0.00    -0.067 N 
HETATM    9  C   UNL     1      74.804   0.504  15.161  1.00  0.00     0.235 C 
HETATM   10  C   UNL     1      75.279  -0.390  14.011  1.00  0.00     0.028 C 
HETATM   11  C   UNL     1      76.796  -0.372  13.881  1.00  0.00     0.003 C 
HETATM   12  C   UNL     1      77.437  -0.709  15.221  1.00  0.00     0.028 C 
HETATM   13  C   UNL     1      76.909   0.210  16.327  1.00  0.00     0.235 C 
HETATM   14  H   UNL     1      75.176  -0.837  16.636  1.00  0.00     0.280 HD
ENDBRANCH   7   8
ENDBRANCH   4   7
BRANCH   1  15
HETATM   15  C   UNL     1      76.688   6.522  16.983  1.00  0.00     0.292 C 
HETATM   16  O   UNL     1      76.983   6.988  15.897  1.00  0.00    -0.259 OA
BRANCH  15  17
HETATM   17  O   UNL     1      76.719   7.187  18.168  1.00  0.00    -0.323 OA
HETATM   18  C   UNL     1      77.138   8.555  18.112  1.00  0.00     0.213 C 
ENDBRANCH  15  17
ENDBRANCH   1  15
TORSDOF 4
ENDMDL
MODEL 4
REMARK VINA RESULT:      -5.6      2.698      4.554
REMARK  4 active torsions:
REMARK  status: ('A' for Active; 'I' for Inactive)
REMARK    1  A    between atoms: C_1  and  C_3 
REMARK    2  A    between atoms: C_1  and  O_9 
REMARK    3  A    between atoms: N_2  and  C_5 
REMARK    4  A    between atoms: C_5  and  C_8 
ROOT
HETATM    1  C   UNL     1      76.104   4.922  17.151  1.00  0.00     0.039 A 
HETATM    2  C   UNL     1      74.840   4.608  16.632  1.00  0.00     0.018 A 
HETATM    3  C   UNL     1      76.815   3.931  17.841  1.00  0.00     0.018 A 
HETATM    4  C   UNL     1      75.026   2.321  17.454  1.00  0.00    -0.033 A 
HETATM    5  C   UNL     1      74.304   3.320  16.786  1.00  0.00     0.010 A 
HETATM    6  C   UNL     1      76.277   2.647  17.996  1.00  0.00     0.010 A 
ENDROOT
BRANCH   4   7
HETATM    7  C   UNL     1      74.481   0.905  17.568  1.00  0.00     0.273 C 
BRANCH   7   8
HETATM    8  N   UNL     1      75.201   0.067  18.549  1.00  0.00    -0.067 N 
HETATM    9  C   UNL     1      74.274  -0.724  19.376  1.00  0.00     0.235 C 
HETATM   10  C   UNL     1      75.025  -1.564  20.413  1.00  0.00     0.028 C 
HETATM   11  C   UNL     1      76.063  -2.465  19.755  1.00  0.00     0.003 C 
HETATM   12  C   UNL     1      76.977  -1.637  18.861  1.00  0.00     0.028 C 
HETATM   13  C   UNL     1      76.163  -0.812  17.860  1.00  0.00     0.235 C 
HETATM   14  H   UNL     1      75.711   0.692  19.174  1.00  0.00     0.280 HD
ENDBRANCH   7   8
ENDBRANCH   4   7
BRANCH   1  15
HETATM   15  C   UNL     1      76.654   6.298  16.937  1.00  0.00     0.292 C 
HETATM   16  O   UNL     1      76.981   6.729  15.846  1.00  0.00    -0.259 OA
BRANCH  15  17
HETATM   17  O   UNL     1      76.740   6.969  18.116  1.00  0.00    -0.323 OA
HETATM   18  C   UNL     1      77.085   8.356  18.026  1.00  0.00     0.213 C 
ENDBRANCH  15  17
ENDBRANCH   1  15
TORSDOF 4
ENDMDL
MODEL 5
REMARK VINA RESULT:      -5.4      7.389      9.749
REMARK  4 active torsions:
REMARK  status: ('A' for Active; 'I' for Inactive)
REMARK    1  A    between atoms: C_1  and  C_3 
REMARK    2  A    between atoms: C_1  and  O_9 
REMARK    3  A    between atoms: N_2  and  C_5 
REMARK    4  A    between atoms: C_5  and  C_8 
ROOT
HETATM    1  C   UNL     1      78.233  11.191  19.851  1.00  0.00     0.039 A 
HETATM    2  C   UNL     1      79.576  10.919  20.145  1.00  0.00     0.018 A 
HETATM    3  C   UNL     1      77.556  12.153  20.613  1.00  0.00     0.018 A 
HETATM    4  C   UNL     1      79.568  12.591  21.919  1.00  0.00    -0.033 A 
HETATM    5  C   UNL     1      80.237  11.610  21.173  1.00  0.00     0.010 A 
HETATM    6  C   UNL     1      78.217  12.839  21.640  1.00  0.00     0.010 A 
ENDROOT
BRANCH   4   7
HETATM    7  C   UNL     1      80.295  13.390  22.990  1.00  0.00     0.273 C 
BRANCH   7   8
HETATM    8  N   UNL     1      79.955  12.983  24.369  1.00  0.00    -0.067 N 
HETATM    9  C   UNL     1      79.458  11.597  24.423  1.00  0.00     0.235 C 
HETATM   10  C   UNL     1      79.075  11.194  25.850  1.00  0.00     0.028 C 
HETATM   11  C   UNL     1      80.238  11.387  26.815  1.00  0.00     0.003 C 
HETATM   12  C   UNL     1      80.774  12.808  26.705  1.00  0.00     0.028 C 
HETATM   13  C   UNL     1      81.122  13.151  25.254  1.00  0.00     0.235 C 
HETATM   14  H   UNL     1      79.202  13.590  24.694  1.00  0.00     0.280 HD
ENDBRANCH   7   8
ENDBRANCH   4   7
BRANCH   1  15
HETATM   15  C   UNL     1      77.575  10.455  18.726  1.00  0.00     0.292 C 
HETATM   16  O   UNL     1      77.189  10.995  17.704  1.00  0.00    -0.259 OA
BRANCH  15  17
HETATM   17  O   UNL     1      77.467   9.132  19.016  1.00  0.00    -0.323 OA
HETATM   18  C   UNL     1      77.012   8.289  17.951  1.00  0.00     0.213 C 
ENDBRANCH  15  17
ENDBRANCH   1  15
TORSDOF 4
ENDMDL
MODEL 6
REMARK VINA RESULT:      -5.3     12.258     14.048
REMARK  4 active torsions:
REMARK  status: ('A' for Active; 'I' for Inactive)
REMARK    1  A    between atoms: C_1  and  C_3 
REMARK    2  A    between atoms: C_1  and  O_9 
REMARK    3  A    between atoms: N_2  and  C_5 
REMARK    4  A    between atoms: C_5  and  C_8 
ROOT
HETATM    1  C   UNL     1      68.884   3.074   9.306  1.00  0.00     0.039 A 
HETATM    2  C   UNL     1      68.452   2.785   8.004  1.00  0.00     0.018 A 
HETATM    3  C   UNL     1      69.040   4.414   9.683  1.00  0.00     0.018 A 
HETATM    4  C   UNL     1      68.294   5.161   7.486  1.00  0.00    -0.033 A 
HETATM    5  C   UNL     1      68.163   3.819   7.101  1.00  0.00     0.010 A 
HETATM    6  C   UNL     1      68.754   5.445   8.779  1.00  0.00     0.010 A 
ENDROOT
BRANCH   4   7
HETATM    7  C   UNL     1      67.921   6.288   6.534  1.00  0.00     0.273 C 
BRANCH   7   8
HETATM    8  N   UNL     1      66.532   6.211   6.037  1.00  0.00    -0.067 N 
HETATM    9  C   UNL     1      65.579   6.816   6.985  1.00  0.00     0.235 C 
HETATM   10  C   UNL     1      64.138   6.703   6.480  1.00  0.00     0.028 C 
HETATM   11  C   UNL     1      63.982   7.317   5.094  1.00  0.00     0.003 C 
HETATM   12  C   UNL     1      65.011   6.720   4.143  1.00  0.00     0.028 C 
HETATM   13  C   UNL     1      66.426   6.853   4.714  1.00  0.00     0.235 C 
HETATM   14  H   UNL     1      66.289   5.225   5.949  1.00  0.00     0.280 HD
ENDBRANCH   7   8
ENDBRANCH   4   7
BRANCH   1  15
HETATM   15  C   UNL     1      69.150   1.942  10.249  1.00  0.00     0.292 C 
HETATM   16  O   UNL     1      68.280   1.388  10.897  1.00  0.00    -0.259 OA
BRANCH  15  17
HETATM   17  O   UNL     1      70.475   1.643  10.279  1.00  0.00    -0.323 OA
HETATM   18  C   UNL     1      70.828   0.307   9.904  1.00  0.00     0.213 C 
ENDBRANCH  15  17
ENDBRANCH   1  15
TORSDOF 4
ENDMDL
MODEL 7
REMARK VINA RESULT:      -5.3     13.073     14.681
REMARK  4 active torsions:
REMARK  status: ('A' for Active; 'I' for Inactive)
REMARK    1  A    between atoms: C_1  and  C_3 
REMARK    2  A    between atoms: C_1  and  O_9 
REMARK    3  A    between atoms: N_2  and  C_5 
REMARK    4  A    between atoms: C_5  and  C_8 
ROOT
HETATM    1  C   UNL     1      68.617   4.556   8.680  1.00  0.00     0.039 A 
HETATM    2  C   UNL     1      68.084   5.620   9.422  1.00  0.00     0.018 A 
HETATM    3  C   UNL     1      68.418   4.534   7.294  1.00  0.00     0.018 A 
HETATM    4  C   UNL     1      67.204   6.646   7.394  1.00  0.00    -0.033 A 
HETATM    5  C   UNL     1      67.381   6.654   8.785  1.00  0.00     0.010 A 
HETATM    6  C   UNL     1      67.713   5.566   6.660  1.00  0.00     0.010 A 
ENDROOT
BRANCH   4   7
HETATM    7  C   UNL     1      66.500   7.796   6.689  1.00  0.00     0.273 C 
BRANCH   7   8
HETATM    8  N   UNL     1      65.369   7.369   5.840  1.00  0.00    -0.067 N 
HETATM    9  C   UNL     1      64.286   6.766   6.636  1.00  0.00     0.235 C 
HETATM   10  C   UNL     1      63.131   6.295   5.746  1.00  0.00     0.028 C 
HETATM   11  C   UNL     1      62.596   7.429   4.881  1.00  0.00     0.003 C 
HETATM   12  C   UNL     1      63.738   8.076   4.108  1.00  0.00     0.028 C 
HETATM   13  C   UNL     1      64.862   8.509   5.053  1.00  0.00     0.235 C 
HETATM   14  H   UNL     1      65.714   6.652   5.202  1.00  0.00     0.280 HD
ENDBRANCH   7   8
ENDBRANCH   4   7
BRANCH   1  15
HETATM   15  C   UNL     1      69.388   3.490   9.394  1.00  0.00     0.292 C 
HETATM   16  O   UNL     1      70.312   3.723  10.153  1.00  0.00    -0.259 OA
BRANCH  15  17
HETATM   17  O   UNL     1      68.919   2.257   9.066  1.00  0.00    -0.323 OA
HETATM   18  C   UNL     1      67.882   1.735   9.904  1.00  0.00     0.213 C 
ENDBRANCH  15  17
ENDBRANCH   1  15
TORSDOF 4
ENDMDL
MODEL 8
REMARK VINA RESULT:      -5.3     15.161     16.224
REMARK  4 active torsions:
REMARK  status: ('A' for Active; 'I' for Inactive)
REMARK    1  A    between atoms: C_1  and  C_3 
REMARK    2  A    between atoms: C_1  and  O_9 
REMARK    3  A    between atoms: N_2  and  C_5 
REMARK    4  A    between atoms: C_5  and  C_8 
ROOT
HETATM    1  C   UNL     1      63.101   8.982   4.948  1.00  0.00     0.039 A 
HETATM    2  C   UNL     1      62.440   7.865   5.478  1.00  0.00     0.018 A 
HETATM    3  C   UNL     1      64.500   8.965   4.871  1.00  0.00     0.018 A 
HETATM    4  C   UNL     1      64.563   6.714   5.806  1.00  0.00    -0.033 A 
HETATM    5  C   UNL     1      63.165   6.743   5.907  1.00  0.00     0.010 A 
HETATM    6  C   UNL     1      65.222   7.845   5.303  1.00  0.00     0.010 A 
ENDROOT
BRANCH   4   7
HETATM    7  C   UNL     1      65.351   5.476   6.208  1.00  0.00     0.273 C 
BRANCH   7   8
HETATM    8  N   UNL     1      66.533   5.769   7.044  1.00  0.00    -0.067 N 
HETATM    9  C   UNL     1      66.152   6.137   8.419  1.00  0.00     0.235 C 
HETATM   10  C   UNL     1      67.380   6.472   9.271  1.00  0.00     0.028 C 
HETATM   11  C   UNL     1      68.382   5.326   9.279  1.00  0.00     0.003 C 
HETATM   12  C   UNL     1      68.722   4.922   7.850  1.00  0.00     0.028 C 
HETATM   13  C   UNL     1      67.452   4.616   7.051  1.00  0.00     0.235 C 
HETATM   14  H   UNL     1      67.011   6.572   6.635  1.00  0.00     0.280 HD
ENDBRANCH   7   8
ENDBRANCH   4   7
BRANCH   1  15
HETATM   15  C   UNL     1      62.289  10.146   4.472  1.00  0.00     0.292 C 
HETATM   16  O   UNL     1      62.407  11.274   4.916  1.00  0.00    -0.259 OA
BRANCH  15  17
HETATM   17  O   UNL     1      61.417   9.759   3.504  1.00  0.00    -0.323 OA
HETATM   18  C   UNL     1      61.925   9.751   2.165  1.00  0.00     0.213 C 
ENDBRANCH  15  17
ENDBRANCH   1  15
TORSDOF 4
ENDMDL
MODEL 9
REMARK VINA RESULT:      -5.2     13.196     14.311
REMARK  4 active torsions:
REMARK  status: ('A' for Active; 'I' for Inactive)
REMARK    1  A    between atoms: C_1  and  C_3 
REMARK    2  A    between atoms: C_1  and  O_9 
REMARK    3  A    between atoms: N_2  and  C_5 
REMARK    4  A    between atoms: C_5  and  C_8 
ROOT
HETATM    1  C   UNL     1      65.502   7.592   5.435  1.00  0.00     0.039 A 
HETATM    2  C   UNL     1      65.095   6.695   6.432  1.00  0.00     0.018 A 
HETATM    3  C   UNL     1      66.709   7.352   4.764  1.00  0.00     0.018 A 
HETATM    4  C   UNL     1      67.067   5.314   6.053  1.00  0.00    -0.033 A 
HETATM    5  C   UNL     1      65.872   5.568   6.741  1.00  0.00     0.010 A 
HETATM    6  C   UNL     1      67.485   6.229   5.076  1.00  0.00     0.010 A 
ENDROOT
BRANCH   4   7
HETATM    7  C   UNL     1      67.882   4.061   6.336  1.00  0.00     0.273 C 
BRANCH   7   8
HETATM    8  N   UNL     1      68.017   3.751   7.774  1.00  0.00    -0.067 N 
HETATM    9  C   UNL     1      67.852   2.312   8.040  1.00  0.00     0.235 C 
HETATM   10  C   UNL     1      67.960   2.003   9.537  1.00  0.00     0.028 C 
HETATM   11  C   UNL     1      69.272   2.511  10.118  1.00  0.00     0.003 C 
HETATM   12  C   UNL     1      69.451   3.987   9.785  1.00  0.00     0.028 C 
HETATM   13  C   UNL     1      69.317   4.228   8.279  1.00  0.00     0.235 C 
HETATM   14  H   UNL     1      67.269   4.240   8.267  1.00  0.00     0.280 HD
ENDBRANCH   7   8
ENDBRANCH   4   7
BRANCH   1  15
HETATM   15  C   UNL     1      64.628   8.764   5.114  1.00  0.00     0.292 C 
HETATM   16  O   UNL     1      64.674   9.822   5.716  1.00  0.00    -0.259 OA
BRANCH  15  17
HETATM   17  O   UNL     1      63.791   8.471   4.083  1.00  0.00    -0.323 OA
HETATM   18  C   UNL     1      62.391   8.508   4.380  1.00  0.00     0.213 C 
ENDBRANCH  15  17
ENDBRANCH   1  15
TORSDOF 4
ENDMDL
