MODEL 1
REMARK VINA RESULT:      -5.7      0.000      0.000
REMARK  3 active torsions:
REMARK  status: ('A' for Active; 'I' for Inactive)
REMARK    1  A    between atoms: C_4  and  C_7 
REMARK    2  A    between atoms: C_6  and  C_9 
REMARK    3  A    between atoms: C_9  and  N_10 
ROOT
HETATM    1  N   UNL     1      76.979  12.014  19.134  1.00  0.00    -0.296 N 
HETATM    2  N   UNL     1      77.442  12.787  20.143  1.00  0.00    -0.301 N 
ATOM      3  HN  UNL     1      77.069  13.679  20.468  1.00  0.00     0.187 HD
HETATM    4  C   UNL     1      77.729  10.876  18.917  1.00  0.00     0.062 A 
HETATM    5  C   UNL     1      78.704  10.924  19.901  1.00  0.00     0.060 A 
HETATM    6  C   UNL     1      78.497  12.119  20.619  1.00  0.00     0.053 A 
HETATM    7  C   UNL     1      75.786  12.477  18.465  1.00  0.00     0.178 C 
ENDROOT
BRANCH   4   8
HETATM    8  C   UNL     1      77.523   9.835  17.895  1.00  0.00    -0.008 A 
HETATM    9  C   UNL     1      77.750  10.057  16.531  1.00  0.00     0.014 A 
HETATM   10  C   UNL     1      77.551   9.037  15.591  1.00  0.00     0.001 A 
HETATM   11  C   UNL     1      77.166   7.767  16.006  1.00  0.00     0.000 A 
HETATM   12  C   UNL     1      76.971   7.513  17.360  1.00  0.00     0.001 A 
HETATM   13  C   UNL     1      77.140   8.541  18.292  1.00  0.00     0.014 A 
ENDBRANCH   4   8
BRANCH   6  14
HETATM   14  C   UNL     1      79.293  12.648  21.767  1.00  0.00     0.288 C 
BRANCH  14  15
HETATM   15  N   UNL     1      80.385  11.719  22.068  1.00  0.00    -0.074 N 
HETATM   16  H   UNL     1      80.044  10.760  22.005  1.00  0.00     0.274 HD
HETATM   17  H   UNL     1      80.732  11.895  23.011  1.00  0.00     0.274 HD
HETATM   18  H   UNL     1      81.142  11.855  21.397  1.00  0.00     0.274 HD
ENDBRANCH  14  15
ENDBRANCH   6  14
TORSDOF 3
ENDMDL
MODEL 2
REMARK VINA RESULT:      -5.5     18.181     20.152
REMARK  3 active torsions:
REMARK  status: ('A' for Active; 'I' for Inactive)
REMARK    1  A    between atoms: C_4  and  C_7 
REMARK    2  A    between atoms: C_6  and  C_9 
REMARK    3  A    between atoms: C_9  and  N_10 
ROOT
HETATM    1  N   UNL     1      63.478   7.437   6.016  1.00  0.00    -0.296 N 
HETATM    2  N   UNL     1      64.458   6.998   6.838  1.00  0.00    -0.301 N 
ATOM      3  HN  UNL     1      64.359   6.425   7.677  1.00  0.00     0.187 HD
HETATM    4  C   UNL     1      63.935   8.227   4.980  1.00  0.00     0.062 A 
HETATM    5  C   UNL     1      65.311   8.236   5.147  1.00  0.00     0.060 A 
HETATM    6  C   UNL     1      65.584   7.482   6.307  1.00  0.00     0.053 A 
HETATM    7  C   UNL     1      62.135   7.007   6.327  1.00  0.00     0.178 C 
ENDROOT
BRANCH   4   8
HETATM    8  C   UNL     1      63.147   8.882   3.922  1.00  0.00    -0.008 A 
HETATM    9  C   UNL     1      62.590  10.158   4.074  1.00  0.00     0.014 A 
HETATM   10  C   UNL     1      61.853  10.751   3.040  1.00  0.00     0.001 A 
HETATM   11  C   UNL     1      61.701  10.097   1.822  1.00  0.00     0.000 A 
HETATM   12  C   UNL     1      62.277   8.844   1.636  1.00  0.00     0.001 A 
HETATM   13  C   UNL     1      62.985   8.241   2.680  1.00  0.00     0.014 A 
ENDBRANCH   4   8
BRANCH   6  14
HETATM   14  C   UNL     1      66.914   7.206   6.929  1.00  0.00     0.288 C 
BRANCH  14  15
HETATM   15  N   UNL     1      67.972   7.744   6.069  1.00  0.00    -0.074 N 
HETATM   16  H   UNL     1      68.469   6.975   5.621  1.00  0.00     0.274 HD
HETATM   17  H   UNL     1      68.624   8.289   6.633  1.00  0.00     0.274 HD
HETATM   18  H   UNL     1      67.557   8.342   5.354  1.00  0.00     0.274 HD
ENDBRANCH  14  15
ENDBRANCH   6  14
TORSDOF 3
ENDMDL
MODEL 3
REMARK VINA RESULT:      -5.1     19.136     21.034
REMARK  3 active torsions:
REMARK  status: ('A' for Active; 'I' for Inactive)
REMARK    1  A    between atoms: C_4  and  C_7 
REMARK    2  A    between atoms: C_6  and  C_9 
REMARK    3  A    between atoms: C_9  and  N_10 
ROOT
HETATM    1  N   UNL     1      63.548   9.540   4.958  1.00  0.00    -0.296 N 
HETATM    2  N   UNL     1      64.639   9.358   5.735  1.00  0.00    -0.301 N 
ATOM      3  HN  UNL     1      65.000   9.978   6.461  1.00  0.00     0.187 HD
HETATM    4  C   UNL     1      63.345   8.531   4.039  1.00  0.00     0.062 A 
HETATM    5  C   UNL     1      64.365   7.629   4.301  1.00  0.00     0.060 A 
HETATM    6  C   UNL     1      65.141   8.185   5.338  1.00  0.00     0.053 A 
HETATM    7  C   UNL     1      62.765  10.727   5.215  1.00  0.00     0.178 C 
ENDROOT
BRANCH   4   8
HETATM    8  C   UNL     1      62.275   8.421   3.033  1.00  0.00    -0.008 A 
HETATM    9  C   UNL     1      62.441   8.828   1.703  1.00  0.00     0.014 A 
HETATM   10  C   UNL     1      61.400   8.699   0.773  1.00  0.00     0.001 A 
HETATM   11  C   UNL     1      60.194   8.118   1.148  1.00  0.00     0.000 A 
HETATM   12  C   UNL     1      60.019   7.671   2.454  1.00  0.00     0.001 A 
HETATM   13  C   UNL     1      61.048   7.831   3.388  1.00  0.00     0.014 A 
ENDBRANCH   4   8
BRANCH   6  14
HETATM   14  C   UNL     1      66.368   7.615   5.971  1.00  0.00     0.288 C 
BRANCH  14  15
HETATM   15  N   UNL     1      66.849   8.531   7.008  1.00  0.00    -0.074 N 
HETATM   16  H   UNL     1      67.781   8.862   6.763  1.00  0.00     0.274 HD
HETATM   17  H   UNL     1      66.886   8.042   7.903  1.00  0.00     0.274 HD
HETATM   18  H   UNL     1      66.213   9.326   7.080  1.00  0.00     0.274 HD
ENDBRANCH  14  15
ENDBRANCH   6  14
TORSDOF 3
ENDMDL
MODEL 4
REMARK VINA RESULT:      -4.8     15.216     17.414
REMARK  3 active torsions:
REMARK  status: ('A' for Active; 'I' for Inactive)
REMARK    1  A    between atoms: C_4  and  C_7 
REMARK    2  A    between atoms: C_6  and  C_9 
REMARK    3  A    between atoms: C_9  and  N_10 
ROOT
HETATM    1  N   UNL     1      66.673   7.373   5.789  1.00  0.00    -0.296 N 
HETATM    2  N   UNL     1      65.544   8.008   5.399  1.00  0.00    -0.301 N 
ATOM      3  HN  UNL     1      65.462   8.801   4.762  1.00  0.00     0.187 HD
HETATM    4  C   UNL     1      66.452   6.353   6.693  1.00  0.00     0.062 A 
HETATM    5  C   UNL     1      65.073   6.324   6.835  1.00  0.00     0.060 A 
HETATM    6  C   UNL     1      64.561   7.365   6.035  1.00  0.00     0.053 A 
HETATM    7  C   UNL     1      67.907   7.834   5.200  1.00  0.00     0.178 C 
ENDROOT
BRANCH   4   8
HETATM    8  C   UNL     1      67.448   5.477   7.335  1.00  0.00    -0.008 A 
HETATM    9  C   UNL     1      67.976   4.344   6.704  1.00  0.00     0.014 A 
HETATM   10  C   UNL     1      68.929   3.541   7.344  1.00  0.00     0.001 A 
HETATM   11  C   UNL     1      69.402   3.884   8.606  1.00  0.00     0.000 A 
HETATM   12  C   UNL     1      68.918   5.026   9.237  1.00  0.00     0.001 A 
HETATM   13  C   UNL     1      67.944   5.808   8.609  1.00  0.00     0.014 A 
ENDBRANCH   4   8
BRANCH   6  14
HETATM   14  C   UNL     1      63.133   7.766   5.858  1.00  0.00     0.288 C 
BRANCH  14  15
HETATM   15  N   UNL     1      63.052   9.224   5.730  1.00  0.00    -0.074 N 
HETATM   16  H   UNL     1      62.359   9.465   5.022  1.00  0.00     0.274 HD
HETATM   17  H   UNL     1      63.962   9.592   5.455  1.00  0.00     0.274 HD
HETATM   18  H   UNL     1      62.777   9.628   6.626  1.00  0.00     0.274 HD
ENDBRANCH  14  15
ENDBRANCH   6  14
TORSDOF 3
ENDMDL
MODEL 5
REMARK VINA RESULT:      -4.8     33.418     34.467
REMARK  3 active torsions:
REMARK  status: ('A' for Active; 'I' for Inactive)
REMARK    1  A    between atoms: C_4  and  C_7 
REMARK    2  A    between atoms: C_6  and  C_9 
REMARK    3  A    between atoms: C_9  and  N_10 
ROOT
HETATM    1  N   UNL     1      48.317  19.862   2.452  1.00  0.00    -0.296 N 
HETATM    2  N   UNL     1      48.430  21.060   3.070  1.00  0.00    -0.301 N 
ATOM      3  HN  UNL     1      47.835  21.442   3.805  1.00  0.00     0.187 HD
HETATM    4  C   UNL     1      49.263  19.652   1.469  1.00  0.00     0.062 A 
HETATM    5  C   UNL     1      50.055  20.789   1.518  1.00  0.00     0.060 A 
HETATM    6  C   UNL     1      49.498  21.629   2.503  1.00  0.00     0.053 A 
HETATM    7  C   UNL     1      47.259  18.996   2.916  1.00  0.00     0.178 C 
ENDROOT
BRANCH   4   8
HETATM    8  C   UNL     1      49.417  18.478   0.593  1.00  0.00    -0.008 A 
HETATM    9  C   UNL     1      48.939  18.447  -0.722  1.00  0.00     0.014 A 
HETATM   10  C   UNL     1      49.113  17.313  -1.527  1.00  0.00     0.001 A 
HETATM   11  C   UNL     1      49.808  16.210  -1.044  1.00  0.00     0.000 A 
HETATM   12  C   UNL     1      50.324  16.232   0.248  1.00  0.00     0.001 A 
HETATM   13  C   UNL     1      50.122  17.353   1.060  1.00  0.00     0.014 A 
ENDBRANCH   4   8
BRANCH   6  14
HETATM   14  C   UNL     1      49.967  22.983   2.924  1.00  0.00     0.288 C 
BRANCH  14  15
HETATM   15  N   UNL     1      51.037  22.838   3.916  1.00  0.00    -0.074 N 
HETATM   16  H   UNL     1      51.650  23.652   3.876  1.00  0.00     0.274 HD
HETATM   17  H   UNL     1      51.575  21.996   3.714  1.00  0.00     0.274 HD
HETATM   18  H   UNL     1      50.628  22.765   4.848  1.00  0.00     0.274 HD
ENDBRANCH  14  15
ENDBRANCH   6  14
TORSDOF 3
ENDMDL
MODEL 6
REMARK VINA RESULT:      -4.7     17.705     19.952
REMARK  3 active torsions:
REMARK  status: ('A' for Active; 'I' for Inactive)
REMARK    1  A    between atoms: C_4  and  C_7 
REMARK    2  A    between atoms: C_6  and  C_9 
REMARK    3  A    between atoms: C_9  and  N_10 
ROOT
HETATM    1  N   UNL     1      63.734   7.772   3.575  1.00  0.00    -0.296 N 
HETATM    2  N   UNL     1      62.784   8.615   3.111  1.00  0.00    -0.301 N 
ATOM      3  HN  UNL     1      62.205   8.506   2.278  1.00  0.00     0.187 HD
HETATM    4  C   UNL     1      64.370   8.223   4.714  1.00  0.00     0.062 A 
HETATM    5  C   UNL     1      63.728   9.416   5.005  1.00  0.00     0.060 A 
HETATM    6  C   UNL     1      62.774   9.623   3.988  1.00  0.00     0.053 A 
HETATM    7  C   UNL     1      63.923   6.545   2.836  1.00  0.00     0.178 C 
ENDROOT
BRANCH   4   8
HETATM    8  C   UNL     1      65.458   7.572   5.465  1.00  0.00    -0.008 A 
HETATM    9  C   UNL     1      65.234   6.838   6.636  1.00  0.00     0.014 A 
HETATM   10  C   UNL     1      66.295   6.225   7.317  1.00  0.00     0.001 A 
HETATM   11  C   UNL     1      67.588   6.300   6.813  1.00  0.00     0.000 A 
HETATM   12  C   UNL     1      67.829   6.994   5.630  1.00  0.00     0.001 A 
HETATM   13  C   UNL     1      66.773   7.630   4.970  1.00  0.00     0.014 A 
ENDBRANCH   4   8
BRANCH   6  14
HETATM   14  C   UNL     1      61.837  10.775   3.831  1.00  0.00     0.288 C 
BRANCH  14  15
HETATM   15  N   UNL     1      61.590  11.008   2.406  1.00  0.00    -0.074 N 
HETATM   16  H   UNL     1      61.285  11.970   2.266  1.00  0.00     0.274 HD
HETATM   17  H   UNL     1      60.864  10.370   2.078  1.00  0.00     0.274 HD
HETATM   18  H   UNL     1      62.449  10.844   1.881  1.00  0.00     0.274 HD
ENDBRANCH  14  15
ENDBRANCH   6  14
TORSDOF 3
ENDMDL
MODEL 7
REMARK VINA RESULT:      -4.7     19.171     21.181
REMARK  3 active torsions:
REMARK  status: ('A' for Active; 'I' for Inactive)
REMARK    1  A    between atoms: C_4  and  C_7 
REMARK    2  A    between atoms: C_6  and  C_9 
REMARK    3  A    between atoms: C_9  and  N_10 
ROOT
HETATM    1  N   UNL     1      62.366   6.823   4.788  1.00  0.00    -0.296 N 
HETATM    2  N   UNL     1      62.993   6.057   5.710  1.00  0.00    -0.301 N 
ATOM      3  HN  UNL     1      62.681   5.167   6.099  1.00  0.00     0.187 HD
HETATM    4  C   UNL     1      63.032   7.995   4.494  1.00  0.00     0.062 A 
HETATM    5  C   UNL     1      64.187   7.925   5.257  1.00  0.00     0.060 A 
HETATM    6  C   UNL     1      64.112   6.728   5.996  1.00  0.00     0.053 A 
HETATM    7  C   UNL     1      61.132   6.301   4.250  1.00  0.00     0.178 C 
ENDROOT
BRANCH   4   8
HETATM    8  C   UNL     1      62.626   9.060   3.560  1.00  0.00    -0.008 A 
HETATM    9  C   UNL     1      62.504   8.852   2.181  1.00  0.00     0.014 A 
HETATM   10  C   UNL     1      62.106   9.889   1.326  1.00  0.00     0.001 A 
HETATM   11  C   UNL     1      61.781  11.137   1.844  1.00  0.00     0.000 A 
HETATM   12  C   UNL     1      61.859  11.357   3.216  1.00  0.00     0.001 A 
HETATM   13  C   UNL     1      62.286  10.330   4.062  1.00  0.00     0.014 A 
ENDBRANCH   4   8
BRANCH   6  14
HETATM   14  C   UNL     1      65.099   6.198   6.984  1.00  0.00     0.288 C 
BRANCH  14  15
HETATM   15  N   UNL     1      65.333   4.775   6.721  1.00  0.00    -0.074 N 
HETATM   16  H   UNL     1      64.527   4.383   6.236  1.00  0.00     0.274 HD
HETATM   17  H   UNL     1      65.470   4.284   7.605  1.00  0.00     0.274 HD
HETATM   18  H   UNL     1      66.165   4.670   6.140  1.00  0.00     0.274 HD
ENDBRANCH  14  15
ENDBRANCH   6  14
TORSDOF 3
ENDMDL
MODEL 8
REMARK VINA RESULT:      -4.6     14.836     16.799
REMARK  3 active torsions:
REMARK  status: ('A' for Active; 'I' for Inactive)
REMARK    1  A    between atoms: C_4  and  C_7 
REMARK    2  A    between atoms: C_6  and  C_9 
REMARK    3  A    between atoms: C_9  and  N_10 
ROOT
HETATM    1  N   UNL     1      66.598   3.388   7.710  1.00  0.00    -0.296 N 
HETATM    2  N   UNL     1      67.030   2.486   8.619  1.00  0.00    -0.301 N 
ATOM      3  HN  UNL     1      66.565   1.628   8.918  1.00  0.00     0.187 HD
HETATM    4  C   UNL     1      67.444   4.468   7.553  1.00  0.00     0.062 A 
HETATM    5  C   UNL     1      68.507   4.186   8.396  1.00  0.00     0.060 A 
HETATM    6  C   UNL     1      68.203   2.969   9.040  1.00  0.00     0.053 A 
HETATM    7  C   UNL     1      65.355   3.084   7.041  1.00  0.00     0.178 C 
ENDROOT
BRANCH   4   8
HETATM    8  C   UNL     1      67.273   5.634   6.670  1.00  0.00    -0.008 A 
HETATM    9  C   UNL     1      67.407   5.556   5.278  1.00  0.00     0.014 A 
HETATM   10  C   UNL     1      67.227   6.687   4.470  1.00  0.00     0.001 A 
HETATM   11  C   UNL     1      66.867   7.904   5.039  1.00  0.00     0.000 A 
HETATM   12  C   UNL     1      66.693   7.997   6.416  1.00  0.00     0.001 A 
HETATM   13  C   UNL     1      66.903   6.874   7.222  1.00  0.00     0.014 A 
ENDBRANCH   4   8
BRANCH   6  14
HETATM   14  C   UNL     1      69.017   2.244  10.061  1.00  0.00     0.288 C 
BRANCH  14  15
HETATM   15  N   UNL     1      69.845   3.206  10.793  1.00  0.00    -0.074 N 
HETATM   16  H   UNL     1      70.816   2.894  10.785  1.00  0.00     0.274 HD
HETATM   17  H   UNL     1      69.517   3.273  11.756  1.00  0.00     0.274 HD
HETATM   18  H   UNL     1      69.778   4.121  10.346  1.00  0.00     0.274 HD
ENDBRANCH  14  15
ENDBRANCH   6  14
TORSDOF 3
ENDMDL
MODEL 9
REMARK VINA RESULT:      -4.5     15.523     17.634
REMARK  3 active torsions:
REMARK  status: ('A' for Active; 'I' for Inactive)
REMARK    1  A    between atoms: C_4  and  C_7 
REMARK    2  A    between atoms: C_6  and  C_9 
REMARK    3  A    between atoms: C_9  and  N_10 
ROOT
HETATM    1  N   UNL     1      64.934   5.637   6.488  1.00  0.00    -0.296 N 
HETATM    2  N   UNL     1      64.155   6.558   5.877  1.00  0.00    -0.301 N 
ATOM      3  HN  UNL     1      63.181   6.461   5.590  1.00  0.00     0.187 HD
HETATM    4  C   UNL     1      66.227   6.065   6.713  1.00  0.00     0.062 A 
HETATM    5  C   UNL     1      66.234   7.371   6.249  1.00  0.00     0.060 A 
HETATM    6  C   UNL     1      64.948   7.624   5.733  1.00  0.00     0.053 A 
HETATM    7  C   UNL     1      64.304   4.382   6.822  1.00  0.00     0.178 C 
ENDROOT
BRANCH   4   8
HETATM    8  C   UNL     1      67.335   5.317   7.333  1.00  0.00    -0.008 A 
HETATM    9  C   UNL     1      67.947   4.219   6.715  1.00  0.00     0.014 A 
HETATM   10  C   UNL     1      69.005   3.540   7.334  1.00  0.00     0.001 A 
HETATM   11  C   UNL     1      69.497   3.976   8.559  1.00  0.00     0.000 A 
HETATM   12  C   UNL     1      68.929   5.087   9.175  1.00  0.00     0.001 A 
HETATM   13  C   UNL     1      67.853   5.744   8.570  1.00  0.00     0.014 A 
ENDBRANCH   4   8
BRANCH   6  14
HETATM   14  C   UNL     1      64.447   8.880   5.096  1.00  0.00     0.288 C 
BRANCH  14  15
HETATM   15  N   UNL     1      63.161   9.247   5.694  1.00  0.00    -0.074 N 
HETATM   16  H   UNL     1      62.747   8.429   6.139  1.00  0.00     0.274 HD
HETATM   17  H   UNL     1      62.534   9.593   4.967  1.00  0.00     0.274 HD
HETATM   18  H   UNL     1      63.307   9.977   6.393  1.00  0.00     0.274 HD
ENDBRANCH  14  15
ENDBRANCH   6  14
TORSDOF 3
ENDMDL
