MODEL 1
REMARK VINA RESULT:      -5.4      0.000      0.000
REMARK  3 active torsions:
REMARK  status: ('A' for Active; 'I' for Inactive)
REMARK    1  A    between atoms: C_4  and  C_8 
REMARK    2  A    between atoms: C_6  and  C_7 
REMARK    3  A    between atoms: C_8  and  N_10 
ROOT
HETATM    1  N   UNL     1      63.746   6.880   5.717  1.00  0.00    -0.298 N 
ATOM      2  HN  UNL     1      62.803   6.515   5.589  1.00  0.00     0.187 HD
HETATM    3  N   UNL     1      64.790   6.267   6.304  1.00  0.00    -0.299 N 
HETATM    4  C   UNL     1      65.927   7.030   6.325  1.00  0.00     0.056 A 
HETATM    5  C   UNL     1      65.574   8.217   5.715  1.00  0.00     0.060 A 
HETATM    6  C   UNL     1      64.216   8.078   5.335  1.00  0.00     0.060 A 
HETATM    7  C   UNL     1      64.607   4.905   6.750  1.00  0.00     0.177 C 
ENDROOT
BRANCH   6   8
HETATM    8  C   UNL     1      63.382   9.036   4.608  1.00  0.00    -0.008 A 
HETATM    9  C   UNL     1      62.917   8.732   3.322  1.00  0.00     0.014 A 
HETATM   10  C   UNL     1      62.135   9.649   2.613  1.00  0.00     0.001 A 
HETATM   11  C   UNL     1      61.814  10.879   3.186  1.00  0.00     0.000 A 
HETATM   12  C   UNL     1      62.270  11.191   4.464  1.00  0.00     0.001 A 
HETATM   13  C   UNL     1      63.053  10.277   5.173  1.00  0.00     0.014 A 
ENDBRANCH   6   8
BRANCH   4  14
HETATM   14  C   UNL     1      67.242   6.591   6.857  1.00  0.00     0.290 C 
BRANCH  14  15
HETATM   15  N   UNL     1      67.539   7.174   8.166  1.00  0.00    -0.074 N 
HETATM   16  C   UNL     1      67.165   6.295   9.270  1.00  0.00     0.267 C 
HETATM   17  H   UNL     1      67.023   8.051   8.257  1.00  0.00     0.277 HD
HETATM   18  H   UNL     1      68.547   7.324   8.216  1.00  0.00     0.277 HD
ENDBRANCH  14  15
ENDBRANCH   4  14
TORSDOF 3
ENDMDL
MODEL 2
REMARK VINA RESULT:      -5.4      1.299      1.660
REMARK  3 active torsions:
REMARK  status: ('A' for Active; 'I' for Inactive)
REMARK    1  A    between atoms: C_4  and  C_8 
REMARK    2  A    between atoms: C_6  and  C_7 
REMARK    3  A    between atoms: C_8  and  N_10 
ROOT
HETATM    1  N   UNL     1      62.020   7.190   5.008  1.00  0.00    -0.298 N 
ATOM      2  HN  UNL     1      61.077   7.034   4.653  1.00  0.00     0.187 HD
HETATM    3  N   UNL     1      62.713   6.413   5.862  1.00  0.00    -0.299 N 
HETATM    4  C   UNL     1      63.957   6.903   6.153  1.00  0.00     0.056 A 
HETATM    5  C   UNL     1      64.057   8.080   5.439  1.00  0.00     0.060 A 
HETATM    6  C   UNL     1      62.839   8.215   4.727  1.00  0.00     0.060 A 
HETATM    7  C   UNL     1      62.108   5.171   6.283  1.00  0.00     0.177 C 
ENDROOT
BRANCH   6   8
HETATM    8  C   UNL     1      62.461   9.267   3.783  1.00  0.00    -0.008 A 
HETATM    9  C   UNL     1      62.357   8.983   2.415  1.00  0.00     0.014 A 
HETATM   10  C   UNL     1      62.014   9.987   1.504  1.00  0.00     0.001 A 
HETATM   11  C   UNL     1      61.772  11.284   1.957  1.00  0.00     0.000 A 
HETATM   12  C   UNL     1      61.870  11.576   3.315  1.00  0.00     0.001 A 
HETATM   13  C   UNL     1      62.215  10.575   4.226  1.00  0.00     0.014 A 
ENDBRANCH   6   8
BRANCH   4  14
HETATM   14  C   UNL     1      64.960   6.229   7.018  1.00  0.00     0.290 C 
BRANCH  14  15
HETATM   15  N   UNL     1      65.944   7.163   7.564  1.00  0.00    -0.074 N 
HETATM   16  C   UNL     1      66.772   6.561   8.606  1.00  0.00     0.267 C 
HETATM   17  H   UNL     1      65.449   7.963   7.962  1.00  0.00     0.277 HD
HETATM   18  H   UNL     1      66.561   7.445   6.802  1.00  0.00     0.277 HD
ENDBRANCH  14  15
ENDBRANCH   4  14
TORSDOF 3
ENDMDL
MODEL 3
REMARK VINA RESULT:      -5.0      2.184      6.060
REMARK  3 active torsions:
REMARK  status: ('A' for Active; 'I' for Inactive)
REMARK    1  A    between atoms: C_4  and  C_8 
REMARK    2  A    between atoms: C_6  and  C_7 
REMARK    3  A    between atoms: C_8  and  N_10 
ROOT
HETATM    1  N   UNL     1      64.292   9.370   5.603  1.00  0.00    -0.298 N 
ATOM      2  HN  UNL     1      64.922   9.691   6.338  1.00  0.00     0.187 HD
HETATM    3  N   UNL     1      63.180   9.979   5.152  1.00  0.00    -0.299 N 
HETATM    4  C   UNL     1      62.546   9.285   4.157  1.00  0.00     0.056 A 
HETATM    5  C   UNL     1      63.307   8.149   3.970  1.00  0.00     0.060 A 
HETATM    6  C   UNL     1      64.393   8.247   4.875  1.00  0.00     0.060 A 
HETATM    7  C   UNL     1      62.854  11.275   5.701  1.00  0.00     0.177 C 
ENDROOT
BRANCH   6   8
HETATM    8  C   UNL     1      65.515   7.322   5.038  1.00  0.00    -0.008 A 
HETATM    9  C   UNL     1      65.994   6.594   3.940  1.00  0.00     0.014 A 
HETATM   10  C   UNL     1      67.053   5.694   4.091  1.00  0.00     0.001 A 
HETATM   11  C   UNL     1      67.642   5.516   5.343  1.00  0.00     0.000 A 
HETATM   12  C   UNL     1      67.175   6.235   6.440  1.00  0.00     0.001 A 
HETATM   13  C   UNL     1      66.114   7.132   6.292  1.00  0.00     0.014 A 
ENDBRANCH   6   8
BRANCH   4  14
HETATM   14  C   UNL     1      61.331   9.744   3.436  1.00  0.00     0.290 C 
BRANCH  14  15
HETATM   15  N   UNL     1      61.634  10.252   2.098  1.00  0.00    -0.074 N 
HETATM   16  C   UNL     1      61.789  11.703   2.070  1.00  0.00     0.267 C 
HETATM   17  H   UNL     1      60.873   9.992   1.470  1.00  0.00     0.277 HD
HETATM   18  H   UNL     1      62.520   9.840   1.804  1.00  0.00     0.277 HD
ENDBRANCH  14  15
ENDBRANCH   4  14
TORSDOF 3
ENDMDL
MODEL 4
REMARK VINA RESULT:      -4.9      1.477      2.208
REMARK  3 active torsions:
REMARK  status: ('A' for Active; 'I' for Inactive)
REMARK    1  A    between atoms: C_4  and  C_8 
REMARK    2  A    between atoms: C_6  and  C_7 
REMARK    3  A    between atoms: C_8  and  N_10 
ROOT
HETATM    1  N   UNL     1      65.191   8.311   6.148  1.00  0.00    -0.298 N 
ATOM      2  HN  UNL     1      65.394   9.230   6.542  1.00  0.00     0.187 HD
HETATM    3  N   UNL     1      65.749   7.134   6.486  1.00  0.00    -0.299 N 
HETATM    4  C   UNL     1      65.265   6.077   5.763  1.00  0.00     0.056 A 
HETATM    5  C   UNL     1      64.339   6.625   4.899  1.00  0.00     0.060 A 
HETATM    6  C   UNL     1      64.309   8.014   5.181  1.00  0.00     0.060 A 
HETATM    7  C   UNL     1      66.694   7.126   7.578  1.00  0.00     0.177 C 
ENDROOT
BRANCH   6   8
HETATM    8  C   UNL     1      63.455   9.037   4.577  1.00  0.00    -0.008 A 
HETATM    9  C   UNL     1      62.903   8.833   3.305  1.00  0.00     0.014 A 
HETATM   10  C   UNL     1      62.101   9.814   2.712  1.00  0.00     0.001 A 
HETATM   11  C   UNL     1      61.847  11.007   3.389  1.00  0.00     0.000 A 
HETATM   12  C   UNL     1      62.389  11.219   4.653  1.00  0.00     0.001 A 
HETATM   13  C   UNL     1      63.193  10.241   5.246  1.00  0.00     0.014 A 
ENDBRANCH   6   8
BRANCH   4  14
HETATM   14  C   UNL     1      65.656   4.657   5.959  1.00  0.00     0.290 C 
BRANCH  14  15
HETATM   15  N   UNL     1      67.026   4.389   5.521  1.00  0.00    -0.074 N 
HETATM   16  C   UNL     1      67.270   4.819   4.147  1.00  0.00     0.267 C 
HETATM   17  H   UNL     1      67.199   3.385   5.586  1.00  0.00     0.277 HD
HETATM   18  H   UNL     1      67.653   4.918   6.127  1.00  0.00     0.277 HD
ENDBRANCH  14  15
ENDBRANCH   4  14
TORSDOF 3
ENDMDL
MODEL 5
REMARK VINA RESULT:      -4.8     16.373     19.215
REMARK  3 active torsions:
REMARK  status: ('A' for Active; 'I' for Inactive)
REMARK    1  A    between atoms: C_4  and  C_8 
REMARK    2  A    between atoms: C_6  and  C_7 
REMARK    3  A    between atoms: C_8  and  N_10 
ROOT
HETATM    1  N   UNL     1      76.927   0.387  17.474  1.00  0.00    -0.298 N 
ATOM      2  HN  UNL     1      76.308   0.137  16.703  1.00  0.00     0.187 HD
HETATM    3  N   UNL     1      77.784  -0.418  18.129  1.00  0.00    -0.299 N 
HETATM    4  C   UNL     1      78.472   0.219  19.127  1.00  0.00     0.056 A 
HETATM    5  C   UNL     1      78.010   1.520  19.108  1.00  0.00     0.060 A 
HETATM    6  C   UNL     1      77.064   1.588  18.056  1.00  0.00     0.060 A 
HETATM    7  C   UNL     1      77.920  -1.778  17.663  1.00  0.00     0.177 C 
ENDROOT
BRANCH   6   8
HETATM    8  C   UNL     1      76.322   2.759  17.587  1.00  0.00    -0.008 A 
HETATM    9  C   UNL     1      75.045   2.609  17.030  1.00  0.00     0.014 A 
HETATM   10  C   UNL     1      74.337   3.720  16.562  1.00  0.00     0.001 A 
HETATM   11  C   UNL     1      74.902   4.992  16.650  1.00  0.00     0.000 A 
HETATM   12  C   UNL     1      76.169   5.153  17.204  1.00  0.00     0.001 A 
HETATM   13  C   UNL     1      76.880   4.044  17.669  1.00  0.00     0.014 A 
ENDBRANCH   6   8
BRANCH   4  14
HETATM   14  C   UNL     1      79.521  -0.403  19.974  1.00  0.00     0.290 C 
BRANCH  14  15
HETATM   15  N   UNL     1      79.440   0.027  21.370  1.00  0.00    -0.074 N 
HETATM   16  C   UNL     1      78.488  -0.763  22.146  1.00  0.00     0.267 C 
HETATM   17  H   UNL     1      79.150   1.005  21.394  1.00  0.00     0.277 HD
HETATM   18  H   UNL     1      80.362  -0.101  21.788  1.00  0.00     0.277 HD
ENDBRANCH  14  15
ENDBRANCH   4  14
TORSDOF 3
ENDMDL
MODEL 6
REMARK VINA RESULT:      -4.8      2.457      7.204
REMARK  3 active torsions:
REMARK  status: ('A' for Active; 'I' for Inactive)
REMARK    1  A    between atoms: C_4  and  C_8 
REMARK    2  A    between atoms: C_6  and  C_7 
REMARK    3  A    between atoms: C_8  and  N_10 
ROOT
HETATM    1  N   UNL     1      67.626   5.304   5.706  1.00  0.00    -0.298 N 
ATOM      2  HN  UNL     1      68.075   4.500   5.267  1.00  0.00     0.187 HD
HETATM    3  N   UNL     1      66.911   6.273   5.105  1.00  0.00    -0.299 N 
HETATM    4  C   UNL     1      66.444   7.222   5.974  1.00  0.00     0.056 A 
HETATM    5  C   UNL     1      66.904   6.831   7.215  1.00  0.00     0.060 A 
HETATM    6  C   UNL     1      67.620   5.625   7.009  1.00  0.00     0.060 A 
HETATM    7  C   UNL     1      66.671   6.149   3.685  1.00  0.00     0.177 C 
ENDROOT
BRANCH   6   8
HETATM    8  C   UNL     1      68.263   4.778   8.014  1.00  0.00    -0.008 A 
HETATM    9  C   UNL     1      69.557   5.074   8.464  1.00  0.00     0.014 A 
HETATM   10  C   UNL     1      70.185   4.258   9.409  1.00  0.00     0.001 A 
HETATM   11  C   UNL     1      69.523   3.139   9.913  1.00  0.00     0.000 A 
HETATM   12  C   UNL     1      68.237   2.836   9.475  1.00  0.00     0.001 A 
HETATM   13  C   UNL     1      67.608   3.648   8.527  1.00  0.00     0.014 A 
ENDBRANCH   6   8
BRANCH   4  14
HETATM   14  C   UNL     1      65.582   8.372   5.600  1.00  0.00     0.290 C 
BRANCH  14  15
HETATM   15  N   UNL     1      64.169   8.130   5.894  1.00  0.00    -0.074 N 
HETATM   16  C   UNL     1      63.280   9.005   5.135  1.00  0.00     0.267 C 
HETATM   17  H   UNL     1      64.011   8.288   6.890  1.00  0.00     0.277 HD
HETATM   18  H   UNL     1      63.958   7.168   5.629  1.00  0.00     0.277 HD
ENDBRANCH  14  15
ENDBRANCH   4  14
TORSDOF 3
ENDMDL
MODEL 7
REMARK VINA RESULT:      -4.7      1.763      6.381
REMARK  3 active torsions:
REMARK  status: ('A' for Active; 'I' for Inactive)
REMARK    1  A    between atoms: C_4  and  C_8 
REMARK    2  A    between atoms: C_6  and  C_7 
REMARK    3  A    between atoms: C_8  and  N_10 
ROOT
HETATM    1  N   UNL     1      64.763   5.581   6.509  1.00  0.00    -0.298 N 
ATOM      2  HN  UNL     1      64.503   4.645   6.820  1.00  0.00     0.187 HD
HETATM    3  N   UNL     1      63.985   6.480   5.878  1.00  0.00    -0.299 N 
HETATM    4  C   UNL     1      64.635   7.649   5.585  1.00  0.00     0.056 A 
HETATM    5  C   UNL     1      65.920   7.474   6.056  1.00  0.00     0.060 A 
HETATM    6  C   UNL     1      65.955   6.182   6.639  1.00  0.00     0.060 A 
HETATM    7  C   UNL     1      62.597   6.140   5.669  1.00  0.00     0.177 C 
ENDROOT
BRANCH   6   8
HETATM    8  C   UNL     1      67.073   5.535   7.326  1.00  0.00    -0.008 A 
HETATM    9  C   UNL     1      67.559   6.059   8.532  1.00  0.00     0.014 A 
HETATM   10  C   UNL     1      68.639   5.457   9.184  1.00  0.00     0.001 A 
HETATM   11  C   UNL     1      69.242   4.326   8.635  1.00  0.00     0.000 A 
HETATM   12  C   UNL     1      68.766   3.796   7.438  1.00  0.00     0.001 A 
HETATM   13  C   UNL     1      67.689   4.398   6.783  1.00  0.00     0.014 A 
ENDBRANCH   6   8
BRANCH   4  14
HETATM   14  C   UNL     1      64.012   8.836   4.945  1.00  0.00     0.290 C 
BRANCH  14  15
HETATM   15  N   UNL     1      63.151   9.579   5.865  1.00  0.00    -0.074 N 
HETATM   16  C   UNL     1      62.938  10.960   5.443  1.00  0.00     0.267 C 
HETATM   17  H   UNL     1      63.586   9.583   6.789  1.00  0.00     0.277 HD
HETATM   18  H   UNL     1      62.242   9.116   5.881  1.00  0.00     0.277 HD
ENDBRANCH  14  15
ENDBRANCH   4  14
TORSDOF 3
ENDMDL
MODEL 8
REMARK VINA RESULT:      -4.6      2.358      6.342
REMARK  3 active torsions:
REMARK  status: ('A' for Active; 'I' for Inactive)
REMARK    1  A    between atoms: C_4  and  C_8 
REMARK    2  A    between atoms: C_6  and  C_7 
REMARK    3  A    between atoms: C_8  and  N_10 
ROOT
HETATM    1  N   UNL     1      63.196   9.772   4.676  1.00  0.00    -0.298 N 
ATOM      2  HN  UNL     1      63.386  10.395   5.461  1.00  0.00     0.187 HD
HETATM    3  N   UNL     1      62.421  10.018   3.603  1.00  0.00    -0.299 N 
HETATM    4  C   UNL     1      62.363   8.971   2.724  1.00  0.00     0.056 A 
HETATM    5  C   UNL     1      63.151   7.986   3.284  1.00  0.00     0.060 A 
HETATM    6  C   UNL     1      63.666   8.529   4.488  1.00  0.00     0.060 A 
HETATM    7  C   UNL     1      61.835  11.334   3.485  1.00  0.00     0.177 C 
ENDROOT
BRANCH   6   8
HETATM    8  C   UNL     1      64.596   7.907   5.430  1.00  0.00    -0.008 A 
HETATM    9  C   UNL     1      64.166   6.865   6.262  1.00  0.00     0.014 A 
HETATM   10  C   UNL     1      65.045   6.278   7.179  1.00  0.00     0.001 A 
HETATM   11  C   UNL     1      66.361   6.729   7.268  1.00  0.00     0.000 A 
HETATM   12  C   UNL     1      66.800   7.762   6.444  1.00  0.00     0.001 A 
HETATM   13  C   UNL     1      65.923   8.352   5.530  1.00  0.00     0.014 A 
ENDBRANCH   6   8
BRANCH   4  14
HETATM   14  C   UNL     1      61.632   8.981   1.430  1.00  0.00     0.290 C 
BRANCH  14  15
HETATM   15  N   UNL     1      60.198   8.749   1.597  1.00  0.00    -0.074 N 
HETATM   16  C   UNL     1      59.610   8.033   0.469  1.00  0.00     0.267 C 
HETATM   17  H   UNL     1      59.730   9.651   1.692  1.00  0.00     0.277 HD
HETATM   18  H   UNL     1      60.072   8.172   2.429  1.00  0.00     0.277 HD
ENDBRANCH  14  15
ENDBRANCH   4  14
TORSDOF 3
ENDMDL
MODEL 9
REMARK VINA RESULT:      -4.5      2.336      5.965
REMARK  3 active torsions:
REMARK  status: ('A' for Active; 'I' for Inactive)
REMARK    1  A    between atoms: C_4  and  C_8 
REMARK    2  A    between atoms: C_6  and  C_7 
REMARK    3  A    between atoms: C_8  and  N_10 
ROOT
HETATM    1  N   UNL     1      63.980   6.741   3.160  1.00  0.00    -0.298 N 
ATOM      2  HN  UNL     1      64.437   5.833   3.087  1.00  0.00     0.187 HD
HETATM    3  N   UNL     1      63.072   7.272   2.321  1.00  0.00    -0.299 N 
HETATM    4  C   UNL     1      62.653   8.521   2.694  1.00  0.00     0.056 A 
HETATM    5  C   UNL     1      63.354   8.806   3.848  1.00  0.00     0.060 A 
HETATM    6  C   UNL     1      64.156   7.668   4.115  1.00  0.00     0.060 A 
HETATM    7  C   UNL     1      62.615   6.456   1.220  1.00  0.00     0.177 C 
ENDROOT
BRANCH   6   8
HETATM    8  C   UNL     1      65.047   7.442   5.253  1.00  0.00    -0.008 A 
HETATM    9  C   UNL     1      66.382   7.864   5.198  1.00  0.00     0.014 A 
HETATM   10  C   UNL     1      67.246   7.635   6.273  1.00  0.00     0.001 A 
HETATM   11  C   UNL     1      66.779   6.982   7.414  1.00  0.00     0.000 A 
HETATM   12  C   UNL     1      65.454   6.560   7.480  1.00  0.00     0.001 A 
HETATM   13  C   UNL     1      64.590   6.785   6.405  1.00  0.00     0.014 A 
ENDBRANCH   6   8
BRANCH   4  14
HETATM   14  C   UNL     1      61.617   9.321   1.990  1.00  0.00     0.290 C 
BRANCH  14  15
HETATM   15  N   UNL     1      61.280  10.551   2.706  1.00  0.00    -0.074 N 
HETATM   16  C   UNL     1      61.807  11.744   2.049  1.00  0.00     0.267 C 
HETATM   17  H   UNL     1      61.669  10.498   3.648  1.00  0.00     0.277 HD
HETATM   18  H   UNL     1      60.263  10.631   2.723  1.00  0.00     0.277 HD
ENDBRANCH  14  15
ENDBRANCH   4  14
TORSDOF 3
ENDMDL
