MODEL 1
REMARK VINA RESULT:      -5.9      0.000      0.000
REMARK  2 active torsions:
REMARK  status: ('A' for Active; 'I' for Inactive)
REMARK    1  A    between atoms: C_1  and  C_3 
REMARK    2  A    between atoms: C_2  and  C_4 
ROOT
HETATM    1  C   UNL     1      63.199   8.643   3.747  1.00  0.00     0.015 A 
HETATM    2  C   UNL     1      62.572   9.906   3.755  1.00  0.00     0.053 A 
HETATM    3  C   UNL     1      61.834  10.333   2.631  1.00  0.00     0.019 A 
HETATM    4  C   UNL     1      63.053   7.849   2.587  1.00  0.00     0.015 A 
HETATM    5  C   UNL     1      62.320   8.283   1.479  1.00  0.00     0.001 A 
HETATM    6  C   UNL     1      61.711   9.527   1.500  1.00  0.00     0.001 A 
ENDROOT
BRANCH   1   7
HETATM    7  C   UNL     1      64.034   8.112   4.826  1.00  0.00     0.086 A 
HETATM    8  O   UNL     1      65.303   8.628   4.894  1.00  0.00    -0.322 OA
HETATM    9  C   UNL     1      65.920   8.069   5.964  1.00  0.00     0.142 A 
HETATM   10  C   UNL     1      65.074   7.195   6.601  1.00  0.00     0.027 A 
HETATM   11  C   UNL     1      63.860   7.222   5.871  1.00  0.00     0.040 A 
ENDBRANCH   1   7
BRANCH   2  12
HETATM   12  C   UNL     1      62.593  10.809   4.934  1.00  0.00     0.210 C 
HETATM   13  O   UNL     1      63.058  10.594   6.035  1.00  0.00    -0.644 OA
HETATM   14  O   UNL     1      62.002  11.991   4.660  1.00  0.00    -0.644 OA
ENDBRANCH   2  12
TORSDOF 2
ENDMDL
MODEL 2
REMARK VINA RESULT:      -5.5      1.956      2.874
REMARK  2 active torsions:
REMARK  status: ('A' for Active; 'I' for Inactive)
REMARK    1  A    between atoms: C_1  and  C_3 
REMARK    2  A    between atoms: C_2  and  C_4 
ROOT
HETATM    1  C   UNL     1      62.878   8.566   2.987  1.00  0.00     0.015 A 
HETATM    2  C   UNL     1      62.886   9.417   4.111  1.00  0.00     0.053 A 
HETATM    3  C   UNL     1      62.335  10.713   4.016  1.00  0.00     0.019 A 
HETATM    4  C   UNL     1      62.305   9.064   1.794  1.00  0.00     0.015 A 
HETATM    5  C   UNL     1      61.763  10.349   1.713  1.00  0.00     0.001 A 
HETATM    6  C   UNL     1      61.780  11.176   2.825  1.00  0.00     0.001 A 
ENDROOT
BRANCH   1   7
HETATM    7  C   UNL     1      63.465   7.225   2.944  1.00  0.00     0.086 A 
HETATM    8  O   UNL     1      62.700   6.270   2.325  1.00  0.00    -0.322 OA
HETATM    9  C   UNL     1      63.400   5.109   2.332  1.00  0.00     0.142 A 
HETATM   10  C   UNL     1      64.616   5.289   2.945  1.00  0.00     0.027 A 
HETATM   11  C   UNL     1      64.659   6.650   3.338  1.00  0.00     0.040 A 
ENDBRANCH   1   7
BRANCH   2  12
HETATM   12  C   UNL     1      63.398   8.994   5.439  1.00  0.00     0.210 C 
HETATM   13  O   UNL     1      62.833   8.326   6.282  1.00  0.00    -0.644 OA
HETATM   14  O   UNL     1      64.649   9.452   5.654  1.00  0.00    -0.644 OA
ENDBRANCH   2  12
TORSDOF 2
ENDMDL
MODEL 3
REMARK VINA RESULT:      -5.3      7.381      9.963
REMARK  2 active torsions:
REMARK  status: ('A' for Active; 'I' for Inactive)
REMARK    1  A    between atoms: C_1  and  C_3 
REMARK    2  A    between atoms: C_2  and  C_4 
ROOT
HETATM    1  C   UNL     1      68.663   2.794   7.934  1.00  0.00     0.015 A 
HETATM    2  C   UNL     1      68.920   1.688   8.769  1.00  0.00     0.053 A 
HETATM    3  C   UNL     1      69.312   0.455   8.204  1.00  0.00     0.019 A 
HETATM    4  C   UNL     1      68.815   2.611   6.541  1.00  0.00     0.015 A 
HETATM    5  C   UNL     1      69.203   1.386   5.993  1.00  0.00     0.001 A 
HETATM    6  C   UNL     1      69.450   0.306   6.825  1.00  0.00     0.001 A 
ENDROOT
BRANCH   1   7
HETATM    7  C   UNL     1      68.200   4.105   8.395  1.00  0.00     0.086 A 
HETATM    8  O   UNL     1      66.839   4.252   8.471  1.00  0.00    -0.322 OA
HETATM    9  C   UNL     1      66.583   5.494   8.952  1.00  0.00     0.142 A 
HETATM   10  C   UNL     1      67.757   6.163   9.195  1.00  0.00     0.027 A 
HETATM   11  C   UNL     1      68.798   5.271   8.838  1.00  0.00     0.040 A 
ENDBRANCH   1   7
BRANCH   2  12
HETATM   12  C   UNL     1      68.861   1.764  10.251  1.00  0.00     0.210 C 
HETATM   13  O   UNL     1      67.952   1.429  10.983  1.00  0.00    -0.644 OA
HETATM   14  O   UNL     1      69.998   2.280  10.764  1.00  0.00    -0.644 OA
ENDBRANCH   2  12
TORSDOF 2
ENDMDL
MODEL 4
REMARK VINA RESULT:      -5.3      1.899      2.995
REMARK  2 active torsions:
REMARK  status: ('A' for Active; 'I' for Inactive)
REMARK    1  A    between atoms: C_1  and  C_3 
REMARK    2  A    between atoms: C_2  and  C_4 
ROOT
HETATM    1  C   UNL     1      63.642   8.949   4.861  1.00  0.00     0.015 A 
HETATM    2  C   UNL     1      62.966   8.454   3.727  1.00  0.00     0.053 A 
HETATM    3  C   UNL     1      62.049   9.277   3.040  1.00  0.00     0.019 A 
HETATM    4  C   UNL     1      63.361  10.274   5.263  1.00  0.00     0.015 A 
HETATM    5  C   UNL     1      62.450  11.079   4.575  1.00  0.00     0.001 A 
HETATM    6  C   UNL     1      61.791  10.580   3.463  1.00  0.00     0.001 A 
ENDROOT
BRANCH   1   7
HETATM    7  C   UNL     1      64.573   8.177   5.688  1.00  0.00     0.086 A 
HETATM    8  O   UNL     1      65.789   8.771   5.911  1.00  0.00    -0.322 OA
HETATM    9  C   UNL     1      66.506   7.954   6.721  1.00  0.00     0.142 A 
HETATM   10  C   UNL     1      65.778   6.833   7.035  1.00  0.00     0.027 A 
HETATM   11  C   UNL     1      64.533   6.976   6.372  1.00  0.00     0.040 A 
ENDBRANCH   1   7
BRANCH   2  12
HETATM   12  C   UNL     1      63.218   7.103   3.163  1.00  0.00     0.210 C 
HETATM   13  O   UNL     1      64.196   6.715   2.556  1.00  0.00    -0.644 OA
HETATM   14  O   UNL     1      62.184   6.270   3.399  1.00  0.00    -0.644 OA
ENDBRANCH   2  12
TORSDOF 2
ENDMDL
MODEL 5
REMARK VINA RESULT:      -5.1      4.949      8.074
REMARK  2 active torsions:
REMARK  status: ('A' for Active; 'I' for Inactive)
REMARK    1  A    between atoms: C_1  and  C_3 
REMARK    2  A    between atoms: C_2  and  C_4 
ROOT
HETATM    1  C   UNL     1      68.102   5.112   7.719  1.00  0.00     0.015 A 
HETATM    2  C   UNL     1      67.488   3.847   7.818  1.00  0.00     0.053 A 
HETATM    3  C   UNL     1      68.041   2.861   8.662  1.00  0.00     0.019 A 
HETATM    4  C   UNL     1      69.267   5.335   8.488  1.00  0.00     0.015 A 
HETATM    5  C   UNL     1      69.805   4.351   9.320  1.00  0.00     0.001 A 
HETATM    6  C   UNL     1      69.193   3.111   9.406  1.00  0.00     0.001 A 
ENDROOT
BRANCH   1   7
HETATM    7  C   UNL     1      67.657   6.196   6.840  1.00  0.00     0.086 A 
HETATM    8  O   UNL     1      66.953   7.198   7.456  1.00  0.00    -0.322 OA
HETATM    9  C   UNL     1      66.658   8.133   6.520  1.00  0.00     0.142 A 
HETATM   10  C   UNL     1      67.161   7.761   5.298  1.00  0.00     0.027 A 
HETATM   11  C   UNL     1      67.805   6.515   5.502  1.00  0.00     0.040 A 
ENDBRANCH   1   7
BRANCH   2  12
HETATM   12  C   UNL     1      66.225   3.506   7.115  1.00  0.00     0.210 C 
HETATM   13  O   UNL     1      66.090   2.942   6.048  1.00  0.00    -0.644 OA
HETATM   14  O   UNL     1      65.146   3.908   7.818  1.00  0.00    -0.644 OA
ENDBRANCH   2  12
TORSDOF 2
ENDMDL
MODEL 6
REMARK VINA RESULT:      -5.1      2.092      4.520
REMARK  2 active torsions:
REMARK  status: ('A' for Active; 'I' for Inactive)
REMARK    1  A    between atoms: C_1  and  C_3 
REMARK    2  A    between atoms: C_2  and  C_4 
ROOT
HETATM    1  C   UNL     1      62.222   8.312   3.100  1.00  0.00     0.015 A 
HETATM    2  C   UNL     1      62.569   9.547   3.684  1.00  0.00     0.053 A 
HETATM    3  C   UNL     1      63.542   9.594   4.706  1.00  0.00     0.019 A 
HETATM    4  C   UNL     1      62.881   7.156   3.575  1.00  0.00     0.015 A 
HETATM    5  C   UNL     1      63.842   7.214   4.587  1.00  0.00     0.001 A 
HETATM    6  C   UNL     1      64.172   8.434   5.155  1.00  0.00     0.001 A 
ENDROOT
BRANCH   1   7
HETATM    7  C   UNL     1      61.193   8.128   2.074  1.00  0.00     0.086 A 
HETATM    8  O   UNL     1      59.940   7.832   2.548  1.00  0.00    -0.322 OA
HETATM    9  C   UNL     1      59.106   7.738   1.482  1.00  0.00     0.142 A 
HETATM   10  C   UNL     1      59.794   7.971   0.317  1.00  0.00     0.027 A 
HETATM   11  C   UNL     1      61.136   8.222   0.696  1.00  0.00     0.040 A 
ENDBRANCH   1   7
BRANCH   2  12
HETATM   12  C   UNL     1      62.001  10.842   3.232  1.00  0.00     0.210 C 
HETATM   13  O   UNL     1      61.780  11.208   2.095  1.00  0.00    -0.644 OA
HETATM   14  O   UNL     1      61.724  11.651   4.277  1.00  0.00    -0.644 OA
ENDBRANCH   2  12
TORSDOF 2
ENDMDL
MODEL 7
REMARK VINA RESULT:      -5.1     22.385     24.472
REMARK  2 active torsions:
REMARK  status: ('A' for Active; 'I' for Inactive)
REMARK    1  A    between atoms: C_1  and  C_3 
REMARK    2  A    between atoms: C_2  and  C_4 
ROOT
HETATM    1  C   UNL     1      50.351  20.106  21.970  1.00  0.00     0.015 A 
HETATM    2  C   UNL     1      51.757  20.004  21.922  1.00  0.00     0.053 A 
HETATM    3  C   UNL     1      52.499  19.937  23.121  1.00  0.00     0.019 A 
HETATM    4  C   UNL     1      49.741  20.135  23.244  1.00  0.00     0.015 A 
HETATM    5  C   UNL     1      50.486  20.069  24.424  1.00  0.00     0.001 A 
HETATM    6  C   UNL     1      51.867  19.971  24.362  1.00  0.00     0.001 A 
ENDROOT
BRANCH   1   7
HETATM    7  C   UNL     1      49.478  20.237  20.801  1.00  0.00     0.086 A 
HETATM    8  O   UNL     1      49.341  21.511  20.312  1.00  0.00    -0.322 OA
HETATM    9  C   UNL     1      48.545  21.450  19.216  1.00  0.00     0.142 A 
HETATM   10  C   UNL     1      48.159  20.154  18.977  1.00  0.00     0.027 A 
HETATM   11  C   UNL     1      48.759  19.372  19.996  1.00  0.00     0.040 A 
ENDBRANCH   1   7
BRANCH   2  12
HETATM   12  C   UNL     1      52.516  19.898  20.650  1.00  0.00     0.210 C 
HETATM   13  O   UNL     1      52.697  20.757  19.811  1.00  0.00    -0.644 OA
HETATM   14  O   UNL     1      53.032  18.662  20.486  1.00  0.00    -0.644 OA
ENDBRANCH   2  12
TORSDOF 2
ENDMDL
MODEL 8
REMARK VINA RESULT:      -5.1      1.897      4.709
REMARK  2 active torsions:
REMARK  status: ('A' for Active; 'I' for Inactive)
REMARK    1  A    between atoms: C_1  and  C_3 
REMARK    2  A    between atoms: C_2  and  C_4 
ROOT
HETATM    1  C   UNL     1      64.204   8.045   5.402  1.00  0.00     0.015 A 
HETATM    2  C   UNL     1      63.720   6.815   5.893  1.00  0.00     0.053 A 
HETATM    3  C   UNL     1      64.627   5.821   6.318  1.00  0.00     0.019 A 
HETATM    4  C   UNL     1      65.605   8.226   5.361  1.00  0.00     0.015 A 
HETATM    5  C   UNL     1      66.493   7.234   5.784  1.00  0.00     0.001 A 
HETATM    6  C   UNL     1      66.003   6.029   6.261  1.00  0.00     0.001 A 
ENDROOT
BRANCH   1   7
HETATM    7  C   UNL     1      63.369   9.131   4.883  1.00  0.00     0.086 A 
HETATM    8  O   UNL     1      63.302  10.248   5.674  1.00  0.00    -0.322 OA
HETATM    9  C   UNL     1      62.533  11.163   5.034  1.00  0.00     0.142 A 
HETATM   10  C   UNL     1      62.097  10.663   3.832  1.00  0.00     0.027 A 
HETATM   11  C   UNL     1      62.634   9.355   3.733  1.00  0.00     0.040 A 
ENDBRANCH   1   7
BRANCH   2  12
HETATM   12  C   UNL     1      62.272   6.523   6.050  1.00  0.00     0.210 C 
HETATM   13  O   UNL     1      61.557   6.765   7.002  1.00  0.00    -0.644 OA
HETATM   14  O   UNL     1      61.771   5.914   4.955  1.00  0.00    -0.644 OA
ENDBRANCH   2  12
TORSDOF 2
ENDMDL
MODEL 9
REMARK VINA RESULT:      -5.0      4.760      6.943
REMARK  2 active torsions:
REMARK  status: ('A' for Active; 'I' for Inactive)
REMARK    1  A    between atoms: C_1  and  C_3 
REMARK    2  A    between atoms: C_2  and  C_4 
ROOT
HETATM    1  C   UNL     1      67.531   5.111   6.742  1.00  0.00     0.015 A 
HETATM    2  C   UNL     1      67.082   6.025   7.717  1.00  0.00     0.053 A 
HETATM    3  C   UNL     1      67.641   6.004   9.012  1.00  0.00     0.019 A 
HETATM    4  C   UNL     1      68.543   4.199   7.118  1.00  0.00     0.015 A 
HETATM    5  C   UNL     1      69.089   4.187   8.404  1.00  0.00     0.001 A 
HETATM    6  C   UNL     1      68.636   5.089   9.353  1.00  0.00     0.001 A 
ENDROOT
BRANCH   1   7
HETATM    7  C   UNL     1      66.994   4.998   5.384  1.00  0.00     0.086 A 
HETATM    8  O   UNL     1      66.101   3.976   5.190  1.00  0.00    -0.322 OA
HETATM    9  C   UNL     1      65.671   4.040   3.906  1.00  0.00     0.142 A 
HETATM   10  C   UNL     1      66.267   5.092   3.254  1.00  0.00     0.027 A 
HETATM   11  C   UNL     1      67.118   5.710   4.204  1.00  0.00     0.040 A 
ENDBRANCH   1   7
BRANCH   2  12
HETATM   12  C   UNL     1      66.073   7.077   7.432  1.00  0.00     0.210 C 
HETATM   13  O   UNL     1      64.863   6.993   7.501  1.00  0.00    -0.644 OA
HETATM   14  O   UNL     1      66.658   8.234   7.060  1.00  0.00    -0.644 OA
ENDBRANCH   2  12
TORSDOF 2
ENDMDL
