MODEL 1
REMARK VINA RESULT:      -6.9      0.000      0.000
REMARK  3 active torsions:
REMARK  status: ('A' for Active; 'I' for Inactive)
REMARK    1  A    between atoms: C_1  and  C_2 
REMARK    2  A    between atoms: C_8  and  C_12 
REMARK    3  A    between atoms: N_9  and  C_12 
ROOT
HETATM    1  C   UNL     1      77.251  11.298  18.970  1.00  0.00    -0.002 A 
HETATM    2  C   UNL     1      78.071  11.307  20.108  1.00  0.00     0.023 A 
HETATM    3  C   UNL     1      78.080  12.389  21.006  1.00  0.00    -0.032 A 
HETATM    4  C   UNL     1      76.399  12.389  18.761  1.00  0.00     0.014 A 
HETATM    5  C   UNL     1      76.378  13.463  19.655  1.00  0.00     0.002 A 
HETATM    6  C   UNL     1      77.218  13.466  20.769  1.00  0.00     0.009 A 
ENDROOT
BRANCH   1   7
HETATM    7  C   UNL     1      77.319  10.181  18.029  1.00  0.00     0.085 A 
HETATM    8  O   UNL     1      77.637  10.484  16.735  1.00  0.00    -0.322 OA
HETATM    9  C   UNL     1      77.674   9.319  16.040  1.00  0.00     0.142 A 
HETATM   10  C   UNL     1      77.381   8.258  16.864  1.00  0.00     0.027 A 
HETATM   11  C   UNL     1      77.147   8.813  18.144  1.00  0.00     0.040 A 
ENDBRANCH   1   7
BRANCH   3  12
HETATM   12  C   UNL     1      79.005  12.381  22.202  1.00  0.00     0.270 C 
BRANCH  12  13
HETATM   13  N   UNL     1      80.381  12.075  21.806  1.00  0.00    -0.075 N 
HETATM   14  C   UNL     1      81.335  12.904  22.524  1.00  0.00     0.267 C 
HETATM   15  H   UNL     1      80.483  12.241  20.805  1.00  0.00     0.277 HD
HETATM   16  H   UNL     1      80.570  11.098  22.030  1.00  0.00     0.277 HD
ENDBRANCH  12  13
ENDBRANCH   3  12
TORSDOF 3
ENDMDL
MODEL 2
REMARK VINA RESULT:      -6.5      2.310      5.351
REMARK  3 active torsions:
REMARK  status: ('A' for Active; 'I' for Inactive)
REMARK    1  A    between atoms: C_1  and  C_2 
REMARK    2  A    between atoms: C_8  and  C_12 
REMARK    3  A    between atoms: N_9  and  C_12 
ROOT
HETATM    1  C   UNL     1      78.364  12.528  20.975  1.00  0.00    -0.002 A 
HETATM    2  C   UNL     1      78.365  11.519  20.000  1.00  0.00     0.023 A 
HETATM    3  C   UNL     1      77.343  11.415  19.039  1.00  0.00    -0.032 A 
HETATM    4  C   UNL     1      77.327  13.470  20.949  1.00  0.00     0.014 A 
HETATM    5  C   UNL     1      76.316  13.396  19.986  1.00  0.00     0.002 A 
HETATM    6  C   UNL     1      76.321  12.371  19.040  1.00  0.00     0.009 A 
ENDROOT
BRANCH   1   7
HETATM    7  C   UNL     1      79.412  12.562  21.993  1.00  0.00     0.085 A 
HETATM    8  O   UNL     1      80.648  12.985  21.591  1.00  0.00    -0.322 OA
HETATM    9  C   UNL     1      81.458  12.968  22.679  1.00  0.00     0.142 A 
HETATM   10  C   UNL     1      80.767  12.537  23.787  1.00  0.00     0.027 A 
HETATM   11  C   UNL     1      79.451  12.271  23.345  1.00  0.00     0.040 A 
ENDBRANCH   1   7
BRANCH   3  12
HETATM   12  C   UNL     1      77.358  10.291  18.028  1.00  0.00     0.270 C 
BRANCH  12  13
HETATM   13  N   UNL     1      77.459   8.987  18.686  1.00  0.00    -0.075 N 
HETATM   14  C   UNL     1      76.958   7.923  17.832  1.00  0.00     0.267 C 
HETATM   15  H   UNL     1      76.912   9.007  19.547  1.00  0.00     0.277 HD
HETATM   16  H   UNL     1      78.441   8.804  18.887  1.00  0.00     0.277 HD
ENDBRANCH  12  13
ENDBRANCH   3  12
TORSDOF 3
ENDMDL
MODEL 3
REMARK VINA RESULT:      -6.3      2.909      6.024
REMARK  3 active torsions:
REMARK  status: ('A' for Active; 'I' for Inactive)
REMARK    1  A    between atoms: C_1  and  C_2 
REMARK    2  A    between atoms: C_8  and  C_12 
REMARK    3  A    between atoms: N_9  and  C_12 
ROOT
HETATM    1  C   UNL     1      77.313   9.822  17.638  1.00  0.00    -0.002 A 
HETATM    2  C   UNL     1      76.916   8.566  18.120  1.00  0.00     0.023 A 
HETATM    3  C   UNL     1      76.846   7.439  17.282  1.00  0.00    -0.032 A 
HETATM    4  C   UNL     1      77.681   9.926  16.291  1.00  0.00     0.014 A 
HETATM    5  C   UNL     1      77.640   8.811  15.448  1.00  0.00     0.002 A 
HETATM    6  C   UNL     1      77.219   7.575  15.940  1.00  0.00     0.009 A 
ENDROOT
BRANCH   1   7
HETATM    7  C   UNL     1      77.312  10.981  18.529  1.00  0.00     0.085 A 
HETATM    8  O   UNL     1      76.792  12.142  18.028  1.00  0.00    -0.322 OA
HETATM    9  C   UNL     1      76.859  13.075  19.011  1.00  0.00     0.142 A 
HETATM   10  C   UNL     1      77.419  12.539  20.147  1.00  0.00     0.027 A 
HETATM   11  C   UNL     1      77.715  11.192  19.835  1.00  0.00     0.040 A 
ENDBRANCH   1   7
BRANCH   3  12
HETATM   12  C   UNL     1      76.377   6.109  17.828  1.00  0.00     0.270 C 
BRANCH  12  13
HETATM   13  N   UNL     1      77.275   5.025  17.426  1.00  0.00    -0.075 N 
HETATM   14  C   UNL     1      76.753   3.729  17.829  1.00  0.00     0.267 C 
HETATM   15  H   UNL     1      78.185   5.168  17.864  1.00  0.00     0.277 HD
HETATM   16  H   UNL     1      77.358   5.037  16.410  1.00  0.00     0.277 HD
ENDBRANCH  12  13
ENDBRANCH   3  12
TORSDOF 3
ENDMDL
MODEL 4
REMARK VINA RESULT:      -6.0      5.228      8.223
REMARK  3 active torsions:
REMARK  status: ('A' for Active; 'I' for Inactive)
REMARK    1  A    between atoms: C_1  and  C_2 
REMARK    2  A    between atoms: C_8  and  C_12 
REMARK    3  A    between atoms: N_9  and  C_12 
ROOT
HETATM    1  C   UNL     1      76.096   5.178  17.139  1.00  0.00    -0.002 A 
HETATM    2  C   UNL     1      76.887   4.145  17.665  1.00  0.00     0.023 A 
HETATM    3  C   UNL     1      76.424   2.818  17.730  1.00  0.00    -0.032 A 
HETATM    4  C   UNL     1      74.830   4.851  16.638  1.00  0.00     0.014 A 
HETATM    5  C   UNL     1      74.364   3.534  16.674  1.00  0.00     0.002 A 
HETATM    6  C   UNL     1      75.154   2.523  17.222  1.00  0.00     0.009 A 
ENDROOT
BRANCH   1   7
HETATM    7  C   UNL     1      76.591   6.553  17.147  1.00  0.00     0.085 A 
HETATM    8  O   UNL     1      76.567   7.209  18.346  1.00  0.00    -0.322 OA
HETATM    9  C   UNL     1      77.088   8.446  18.145  1.00  0.00     0.142 A 
HETATM   10  C   UNL     1      77.449   8.607  16.828  1.00  0.00     0.027 A 
HETATM   11  C   UNL     1      77.125   7.390  16.184  1.00  0.00     0.040 A 
ENDBRANCH   1   7
BRANCH   3  12
HETATM   12  C   UNL     1      77.290   1.738  18.338  1.00  0.00     0.270 C 
BRANCH  12  13
HETATM   13  N   UNL     1      78.038   2.243  19.490  1.00  0.00    -0.075 N 
HETATM   14  C   UNL     1      78.772   1.178  20.153  1.00  0.00     0.267 C 
HETATM   15  H   UNL     1      77.385   2.660  20.154  1.00  0.00     0.277 HD
HETATM   16  H   UNL     1      78.707   2.938  19.159  1.00  0.00     0.277 HD
ENDBRANCH  12  13
ENDBRANCH   3  12
TORSDOF 3
ENDMDL
MODEL 5
REMARK VINA RESULT:      -6.0      3.601      5.816
REMARK  3 active torsions:
REMARK  status: ('A' for Active; 'I' for Inactive)
REMARK    1  A    between atoms: C_1  and  C_2 
REMARK    2  A    between atoms: C_8  and  C_12 
REMARK    3  A    between atoms: N_9  and  C_12 
ROOT
HETATM    1  C   UNL     1      76.673   6.264  16.705  1.00  0.00    -0.002 A 
HETATM    2  C   UNL     1      76.910   7.195  17.728  1.00  0.00     0.023 A 
HETATM    3  C   UNL     1      77.336   8.506  17.452  1.00  0.00    -0.032 A 
HETATM    4  C   UNL     1      76.838   6.684  15.379  1.00  0.00     0.014 A 
HETATM    5  C   UNL     1      77.239   7.991  15.086  1.00  0.00     0.002 A 
HETATM    6  C   UNL     1      77.492   8.896  16.117  1.00  0.00     0.009 A 
ENDROOT
BRANCH   1   7
HETATM    7  C   UNL     1      76.291   4.893  17.039  1.00  0.00     0.085 A 
HETATM    8  O   UNL     1      75.138   4.421  16.476  1.00  0.00    -0.322 OA
HETATM    9  C   UNL     1      74.981   3.137  16.886  1.00  0.00     0.142 A 
HETATM   10  C   UNL     1      76.015   2.766  17.712  1.00  0.00     0.027 A 
HETATM   11  C   UNL     1      76.857   3.898  17.814  1.00  0.00     0.040 A 
ENDBRANCH   1   7
BRANCH   3  12
HETATM   12  C   UNL     1      77.618   9.471  18.582  1.00  0.00     0.270 C 
BRANCH  12  13
HETATM   13  N   UNL     1      77.119  10.812  18.271  1.00  0.00    -0.075 N 
HETATM   14  C   UNL     1      77.283  11.713  19.399  1.00  0.00     0.267 C 
HETATM   15  H   UNL     1      76.128  10.751  18.035  1.00  0.00     0.277 HD
HETATM   16  H   UNL     1      77.654  11.179  17.484  1.00  0.00     0.277 HD
ENDBRANCH  12  13
ENDBRANCH   3  12
TORSDOF 3
ENDMDL
MODEL 6
REMARK VINA RESULT:      -5.5      2.913      5.994
REMARK  3 active torsions:
REMARK  status: ('A' for Active; 'I' for Inactive)
REMARK    1  A    between atoms: C_1  and  C_2 
REMARK    2  A    between atoms: C_8  and  C_12 
REMARK    3  A    between atoms: N_9  and  C_12 
ROOT
HETATM    1  C   UNL     1      77.327  10.554  18.431  1.00  0.00    -0.002 A 
HETATM    2  C   UNL     1      77.588  10.747  17.066  1.00  0.00     0.023 A 
HETATM    3  C   UNL     1      77.668   9.669  16.167  1.00  0.00    -0.032 A 
HETATM    4  C   UNL     1      77.107   9.247  18.882  1.00  0.00     0.014 A 
HETATM    5  C   UNL     1      77.160   8.165  17.998  1.00  0.00     0.002 A 
HETATM    6  C   UNL     1      77.444   8.374  16.648  1.00  0.00     0.009 A 
ENDROOT
BRANCH   1   7
HETATM    7  C   UNL     1      77.314  11.697  19.341  1.00  0.00     0.085 A 
HETATM    8  O   UNL     1      77.103  12.927  18.783  1.00  0.00    -0.322 OA
HETATM    9  C   UNL     1      77.101  13.836  19.790  1.00  0.00     0.142 A 
HETATM   10  C   UNL     1      77.312  13.217  20.999  1.00  0.00     0.027 A 
HETATM   11  C   UNL     1      77.454  11.840  20.710  1.00  0.00     0.040 A 
ENDBRANCH   1   7
BRANCH   3  12
HETATM   12  C   UNL     1      77.989   9.912  14.709  1.00  0.00     0.270 C 
BRANCH  12  13
HETATM   13  N   UNL     1      77.954   8.665  13.943  1.00  0.00    -0.075 N 
HETATM   14  C   UNL     1      78.000   8.921  12.513  1.00  0.00     0.267 C 
HETATM   15  H   UNL     1      77.093   8.164  14.164  1.00  0.00     0.277 HD
HETATM   16  H   UNL     1      78.770   8.109  14.197  1.00  0.00     0.277 HD
ENDBRANCH  12  13
ENDBRANCH   3  12
TORSDOF 3
ENDMDL
MODEL 7
REMARK VINA RESULT:      -5.4     19.615     21.960
REMARK  3 active torsions:
REMARK  status: ('A' for Active; 'I' for Inactive)
REMARK    1  A    between atoms: C_1  and  C_2 
REMARK    2  A    between atoms: C_8  and  C_12 
REMARK    3  A    between atoms: N_9  and  C_12 
ROOT
HETATM    1  C   UNL     1      63.562   9.187   4.785  1.00  0.00    -0.002 A 
HETATM    2  C   UNL     1      63.067   8.768   3.540  1.00  0.00     0.023 A 
HETATM    3  C   UNL     1      62.170   9.556   2.797  1.00  0.00    -0.032 A 
HETATM    4  C   UNL     1      63.168  10.442   5.264  1.00  0.00     0.014 A 
HETATM    5  C   UNL     1      62.295  11.249   4.528  1.00  0.00     0.002 A 
HETATM    6  C   UNL     1      61.794  10.806   3.303  1.00  0.00     0.009 A 
ENDROOT
BRANCH   1   7
HETATM    7  C   UNL     1      64.443   8.309   5.553  1.00  0.00     0.085 A 
HETATM    8  O   UNL     1      65.669   8.811   5.891  1.00  0.00    -0.322 OA
HETATM    9  C   UNL     1      66.312   7.861   6.616  1.00  0.00     0.142 A 
HETATM   10  C   UNL     1      65.523   6.743   6.752  1.00  0.00     0.027 A 
HETATM   11  C   UNL     1      64.321   7.030   6.064  1.00  0.00     0.040 A 
ENDBRANCH   1   7
BRANCH   3  12
HETATM   12  C   UNL     1      61.627   9.056   1.477  1.00  0.00     0.270 C 
BRANCH  12  13
HETATM   13  N   UNL     1      60.207   8.715   1.583  1.00  0.00    -0.075 N 
HETATM   14  C   UNL     1      59.749   7.991   0.408  1.00  0.00     0.267 C 
HETATM   15  H   UNL     1      59.666   9.574   1.676  1.00  0.00     0.277 HD
HETATM   16  H   UNL     1      60.080   8.118   2.400  1.00  0.00     0.277 HD
ENDBRANCH  12  13
ENDBRANCH   3  12
TORSDOF 3
ENDMDL
MODEL 8
REMARK VINA RESULT:      -5.3      2.640      4.415
REMARK  3 active torsions:
REMARK  status: ('A' for Active; 'I' for Inactive)
REMARK    1  A    between atoms: C_1  and  C_2 
REMARK    2  A    between atoms: C_8  and  C_12 
REMARK    3  A    between atoms: N_9  and  C_12 
ROOT
HETATM    1  C   UNL     1      78.801  12.458  21.780  1.00  0.00    -0.002 A 
HETATM    2  C   UNL     1      78.357  11.798  22.936  1.00  0.00     0.023 A 
HETATM    3  C   UNL     1      79.154  11.710  24.091  1.00  0.00    -0.032 A 
HETATM    4  C   UNL     1      80.060  13.070  21.811  1.00  0.00     0.014 A 
HETATM    5  C   UNL     1      80.856  13.013  22.959  1.00  0.00     0.002 A 
HETATM    6  C   UNL     1      80.408  12.332  24.091  1.00  0.00     0.009 A 
ENDROOT
BRANCH   1   7
HETATM    7  C   UNL     1      77.966  12.471  20.580  1.00  0.00     0.085 A 
HETATM    8  O   UNL     1      77.632  13.697  20.076  1.00  0.00    -0.322 OA
HETATM    9  C   UNL     1      76.887  13.490  18.961  1.00  0.00     0.142 A 
HETATM   10  C   UNL     1      76.727  12.144  18.732  1.00  0.00     0.027 A 
HETATM   11  C   UNL     1      77.418  11.488  19.777  1.00  0.00     0.040 A 
ENDBRANCH   1   7
BRANCH   3  12
HETATM   12  C   UNL     1      78.658  10.959  25.306  1.00  0.00     0.270 C 
BRANCH  12  13
HETATM   13  N   UNL     1      77.608  10.004  24.946  1.00  0.00    -0.075 N 
HETATM   14  C   UNL     1      76.435  10.165  25.788  1.00  0.00     0.267 C 
HETATM   15  H   UNL     1      77.970   9.056  25.057  1.00  0.00     0.277 HD
HETATM   16  H   UNL     1      77.337  10.174  23.978  1.00  0.00     0.277 HD
ENDBRANCH  12  13
ENDBRANCH   3  12
TORSDOF 3
ENDMDL
MODEL 9
REMARK VINA RESULT:      -5.1     16.420     18.881
REMARK  3 active torsions:
REMARK  status: ('A' for Active; 'I' for Inactive)
REMARK    1  A    between atoms: C_1  and  C_2 
REMARK    2  A    between atoms: C_8  and  C_12 
REMARK    3  A    between atoms: N_9  and  C_12 
ROOT
HETATM    1  C   UNL     1      65.477   7.707   5.217  1.00  0.00    -0.002 A 
HETATM    2  C   UNL     1      65.913   7.501   6.535  1.00  0.00     0.023 A 
HETATM    3  C   UNL     1      66.937   6.587   6.841  1.00  0.00    -0.032 A 
HETATM    4  C   UNL     1      66.117   7.001   4.191  1.00  0.00     0.014 A 
HETATM    5  C   UNL     1      67.153   6.106   4.476  1.00  0.00     0.002 A 
HETATM    6  C   UNL     1      67.557   5.896   5.794  1.00  0.00     0.009 A 
ENDROOT
BRANCH   1   7
HETATM    7  C   UNL     1      64.367   8.620   4.949  1.00  0.00     0.085 A 
HETATM    8  O   UNL     1      64.317   9.764   5.695  1.00  0.00    -0.322 OA
HETATM    9  C   UNL     1      63.241  10.477   5.277  1.00  0.00     0.142 A 
HETATM   10  C   UNL     1      62.585   9.811   4.269  1.00  0.00     0.027 A 
HETATM   11  C   UNL     1      63.307   8.613   4.061  1.00  0.00     0.040 A 
ENDBRANCH   1   7
BRANCH   3  12
HETATM   12  C   UNL     1      67.355   6.362   8.277  1.00  0.00     0.270 C 
BRANCH  12  13
HETATM   13  N   UNL     1      68.768   5.993   8.366  1.00  0.00    -0.075 N 
HETATM   14  C   UNL     1      68.949   4.771   9.132  1.00  0.00     0.267 C 
HETATM   15  H   UNL     1      69.281   6.749   8.821  1.00  0.00     0.277 HD
HETATM   16  H   UNL     1      69.120   5.838   7.422  1.00  0.00     0.277 HD
ENDBRANCH  12  13
ENDBRANCH   3  12
TORSDOF 3
ENDMDL
