MODEL 1
REMARK VINA RESULT:      -5.5      0.000      0.000
REMARK  3 active torsions:
REMARK  status: ('A' for Active; 'I' for Inactive)
REMARK    1  A    between atoms: C_3  and  C_7 
REMARK    2  A    between atoms: C_5  and  C_11 
REMARK    3  A    between atoms: C_11  and  O_12 
ROOT
HETATM    1  N   UNK     1      65.326   8.149   5.915  1.00  0.00    -0.351 N 
ATOM      2  HN  UNK     1      65.918   8.954   5.706  1.00  0.00     0.166 HD
HETATM    3  C   UNK     1      64.060   8.031   5.554  1.00  0.00     0.084 A 
HETATM    4  S   UNK     1      63.321   6.542   6.014  1.00  0.00    -0.081 SA
HETATM    5  C   UNK     1      65.740   7.022   6.619  1.00  0.00     0.040 A 
HETATM    6  C   UNK     1      64.770   6.052   6.774  1.00  0.00     0.079 A 
ENDROOT
BRANCH   3   7
HETATM    7  C   UNK     1      63.315   9.041   4.781  1.00  0.00    -0.001 A 
HETATM    8  C   UNK     1      62.898   8.738   3.474  1.00  0.00     0.038 A 
HETATM    9  C   UNK     1      62.189   9.677   2.722  1.00  0.00     0.035 A 
HETATM   10 CL   UNK     1      61.672   9.280   1.129  1.00  0.00    -0.084 Cl
HETATM   11  C   UNK     1      61.893  10.931   3.249  1.00  0.00     0.024 A 
HETATM   12  C   UNK     1      62.311  11.253   4.537  1.00  0.00     0.003 A 
HETATM   13  C   UNK     1      63.018  10.314   5.297  1.00  0.00     0.014 A 
ENDBRANCH   3   7
BRANCH   5  14
HETATM   14  C   UNK     1      67.136   6.977   7.147  1.00  0.00     0.221 C 
BRANCH  14  15
HETATM   15  O   UNK     1      67.201   7.451   8.488  1.00  0.00    -0.395 OA
HETATM   16  H   UNK     1      66.510   8.117   8.631  1.00  0.00     0.209 HD
ENDBRANCH  14  15
ENDBRANCH   5  14
TORSDOF 3
ENDMDL
MODEL 2
REMARK VINA RESULT:      -5.2      1.935      2.540
REMARK  3 active torsions:
REMARK  status: ('A' for Active; 'I' for Inactive)
REMARK    1  A    between atoms: C_3  and  C_7 
REMARK    2  A    between atoms: C_5  and  C_11 
REMARK    3  A    between atoms: C_11  and  O_12 
ROOT
HETATM    1  N   UNK     1      65.508   7.452   6.939  1.00  0.00    -0.351 N 
ATOM      2  HN  UNK     1      64.749   7.749   7.552  1.00  0.00     0.166 HD
HETATM    3  C   UNK     1      65.496   7.556   5.622  1.00  0.00     0.084 A 
HETATM    4  S   UNK     1      66.936   7.003   4.847  1.00  0.00    -0.081 SA
HETATM    5  C   UNK     1      66.700   6.879   7.373  1.00  0.00     0.040 A 
HETATM    6  C   UNK     1      67.588   6.563   6.364  1.00  0.00     0.079 A 
ENDROOT
BRANCH   3   7
HETATM    7  C   UNK     1      64.389   8.134   4.840  1.00  0.00    -0.001 A 
HETATM    8  C   UNK     1      63.891   9.402   5.183  1.00  0.00     0.038 A 
HETATM    9  C   UNK     1      62.844   9.972   4.457  1.00  0.00     0.035 A 
HETATM   10 CL   UNK     1      62.260  11.535   4.883  1.00  0.00    -0.084 Cl
HETATM   11  C   UNK     1      62.269   9.291   3.387  1.00  0.00     0.024 A 
HETATM   12  C   UNK     1      62.740   8.028   3.043  1.00  0.00     0.003 A 
HETATM   13  C   UNK     1      63.792   7.454   3.764  1.00  0.00     0.014 A 
ENDBRANCH   3   7
BRANCH   5  14
HETATM   14  C   UNK     1      66.893   6.641   8.834  1.00  0.00     0.221 C 
BRANCH  14  15
HETATM   15  O   UNK     1      68.250   6.333   9.137  1.00  0.00    -0.395 OA
HETATM   16  H   UNK     1      68.329   5.389   9.350  1.00  0.00     0.209 HD
ENDBRANCH  14  15
ENDBRANCH   5  14
TORSDOF 3
ENDMDL
MODEL 3
REMARK VINA RESULT:      -5.1     23.619     24.557
REMARK  3 active torsions:
REMARK  status: ('A' for Active; 'I' for Inactive)
REMARK    1  A    between atoms: C_3  and  C_7 
REMARK    2  A    between atoms: C_5  and  C_11 
REMARK    3  A    between atoms: C_11  and  O_12 
ROOT
HETATM    1  N   UNK     1      56.109  18.421  25.627  1.00  0.00    -0.351 N 
ATOM      2  HN  UNK     1      55.978  17.735  24.884  1.00  0.00     0.166 HD
HETATM    3  C   UNK     1      57.256  18.662  26.237  1.00  0.00     0.084 A 
HETATM    4  S   UNK     1      57.185  19.905  27.432  1.00  0.00    -0.081 SA
HETATM    5  C   UNK     1      55.103  19.235  26.142  1.00  0.00     0.040 A 
HETATM    6  C   UNK     1      55.513  20.097  27.139  1.00  0.00     0.079 A 
ENDROOT
BRANCH   3   7
HETATM    7  C   UNK     1      58.527  17.985  25.922  1.00  0.00    -0.001 A 
HETATM    8  C   UNK     1      59.097  17.115  26.866  1.00  0.00     0.038 A 
HETATM    9  C   UNK     1      60.299  16.460  26.591  1.00  0.00     0.035 A 
HETATM   10 CL   UNK     1      60.972  15.385  27.755  1.00  0.00    -0.084 Cl
HETATM   11  C   UNK     1      60.958  16.665  25.381  1.00  0.00     0.024 A 
HETATM   12  C   UNK     1      60.414  17.535  24.440  1.00  0.00     0.003 A 
HETATM   13  C   UNK     1      59.207  18.190  24.710  1.00  0.00     0.014 A 
ENDBRANCH   3   7
BRANCH   5  14
HETATM   14  C   UNK     1      53.717  19.089  25.607  1.00  0.00     0.221 C 
BRANCH  14  15
HETATM   15  O   UNK     1      53.015  18.034  26.259  1.00  0.00    -0.395 OA
HETATM   16  H   UNK     1      53.460  17.190  26.081  1.00  0.00     0.209 HD
ENDBRANCH  14  15
ENDBRANCH   5  14
TORSDOF 3
ENDMDL
MODEL 4
REMARK VINA RESULT:      -5.0      3.030      4.300
REMARK  3 active torsions:
REMARK  status: ('A' for Active; 'I' for Inactive)
REMARK    1  A    between atoms: C_3  and  C_7 
REMARK    2  A    between atoms: C_5  and  C_11 
REMARK    3  A    between atoms: C_11  and  O_12 
ROOT
HETATM    1  N   UNK     1      62.263   9.905   4.064  1.00  0.00    -0.351 N 
ATOM      2  HN  UNK     1      61.530  10.577   3.839  1.00  0.00     0.166 HD
HETATM    3  C   UNK     1      62.464   8.766   3.425  1.00  0.00     0.084 A 
HETATM    4  S   UNK     1      63.805   7.846   4.004  1.00  0.00    -0.081 SA
HETATM    5  C   UNK     1      63.192  10.059   5.090  1.00  0.00     0.040 A 
HETATM    6  C   UNK     1      64.100   9.025   5.204  1.00  0.00     0.079 A 
ENDROOT
BRANCH   3   7
HETATM    7  C   UNK     1      61.667   8.302   2.275  1.00  0.00    -0.001 A 
HETATM    8  C   UNK     1      60.297   8.042   2.447  1.00  0.00     0.038 A 
HETATM    9  C   UNK     1      59.520   7.603   1.373  1.00  0.00     0.035 A 
HETATM   10 CL   UNK     1      57.839   7.306   1.600  1.00  0.00    -0.084 Cl
HETATM   11  C   UNK     1      60.090   7.407   0.118  1.00  0.00     0.024 A 
HETATM   12  C   UNK     1      61.448   7.647  -0.066  1.00  0.00     0.003 A 
HETATM   13  C   UNK     1      62.231   8.091   1.006  1.00  0.00     0.014 A 
ENDBRANCH   3   7
BRANCH   5  14
HETATM   14  C   UNK     1      63.110  11.271   5.957  1.00  0.00     0.221 C 
BRANCH  14  15
HETATM   15  O   UNK     1      64.382  11.610   6.501  1.00  0.00    -0.395 OA
HETATM   16  H   UNK     1      65.079  11.140   6.016  1.00  0.00     0.209 HD
ENDBRANCH  14  15
ENDBRANCH   5  14
TORSDOF 3
ENDMDL
MODEL 5
REMARK VINA RESULT:      -5.0      4.278      7.039
REMARK  3 active torsions:
REMARK  status: ('A' for Active; 'I' for Inactive)
REMARK    1  A    between atoms: C_3  and  C_7 
REMARK    2  A    between atoms: C_5  and  C_11 
REMARK    3  A    between atoms: C_11  and  O_12 
ROOT
HETATM    1  N   UNK     1      65.203   6.377   6.611  1.00  0.00    -0.351 N 
ATOM      2  HN  UNK     1      64.718   5.672   7.166  1.00  0.00     0.166 HD
HETATM    3  C   UNK     1      66.517   6.472   6.495  1.00  0.00     0.084 A 
HETATM    4  S   UNK     1      67.054   7.743   5.459  1.00  0.00    -0.081 SA
HETATM    5  C   UNK     1      64.575   7.374   5.870  1.00  0.00     0.040 A 
HETATM    6  C   UNK     1      65.434   8.212   5.187  1.00  0.00     0.079 A 
ENDROOT
BRANCH   3   7
HETATM    7  C   UNK     1      67.479   5.561   7.140  1.00  0.00    -0.001 A 
HETATM    8  C   UNK     1      67.818   4.355   6.505  1.00  0.00     0.038 A 
HETATM    9  C   UNK     1      68.729   3.477   7.095  1.00  0.00     0.035 A 
HETATM   10 CL   UNK     1      69.145   2.011   6.292  1.00  0.00    -0.084 Cl
HETATM   11  C   UNK     1      69.309   3.775   8.325  1.00  0.00     0.024 A 
HETATM   12  C   UNK     1      68.973   4.960   8.975  1.00  0.00     0.003 A 
HETATM   13  C   UNK     1      68.064   5.845   8.386  1.00  0.00     0.014 A 
ENDBRANCH   3   7
BRANCH   5  14
HETATM   14  C   UNK     1      63.085   7.459   5.899  1.00  0.00     0.221 C 
BRANCH  14  15
HETATM   15  O   UNK     1      62.617   7.994   7.133  1.00  0.00    -0.395 OA
HETATM   16  H   UNK     1      61.774   8.453   6.990  1.00  0.00     0.209 HD
ENDBRANCH  14  15
ENDBRANCH   5  14
TORSDOF 3
ENDMDL
MODEL 6
REMARK VINA RESULT:      -4.9      1.557      1.868
REMARK  3 active torsions:
REMARK  status: ('A' for Active; 'I' for Inactive)
REMARK    1  A    between atoms: C_3  and  C_7 
REMARK    2  A    between atoms: C_5  and  C_11 
REMARK    3  A    between atoms: C_11  and  O_12 
ROOT
HETATM    1  N   UNK     1      63.730   6.536   5.696  1.00  0.00    -0.351 N 
ATOM      2  HN  UNK     1      62.785   6.199   5.512  1.00  0.00     0.166 HD
HETATM    3  C   UNK     1      64.194   7.717   5.328  1.00  0.00     0.084 A 
HETATM    4  S   UNK     1      65.822   8.029   5.809  1.00  0.00    -0.081 SA
HETATM    5  C   UNK     1      64.712   5.815   6.371  1.00  0.00     0.040 A 
HETATM    6  C   UNK     1      65.916   6.476   6.513  1.00  0.00     0.079 A 
ENDROOT
BRANCH   3   7
HETATM    7  C   UNK     1      63.408   8.735   4.607  1.00  0.00    -0.001 A 
HETATM    8  C   UNK     1      63.002   8.484   3.286  1.00  0.00     0.038 A 
HETATM    9  C   UNK     1      62.256   9.431   2.583  1.00  0.00     0.035 A 
HETATM   10 CL   UNK     1      61.752   9.098   0.971  1.00  0.00    -0.084 Cl
HETATM   11  C   UNK     1      61.910  10.644   3.175  1.00  0.00     0.024 A 
HETATM   12  C   UNK     1      62.316  10.914   4.478  1.00  0.00     0.003 A 
HETATM   13  C   UNK     1      63.061   9.966   5.188  1.00  0.00     0.014 A 
ENDBRANCH   3   7
BRANCH   5  14
HETATM   14  C   UNK     1      64.394   4.434   6.840  1.00  0.00     0.221 C 
BRANCH  14  15
HETATM   15  O   UNK     1      65.346   3.976   7.796  1.00  0.00    -0.395 OA
HETATM   16  H   UNK     1      66.224   3.932   7.384  1.00  0.00     0.209 HD
ENDBRANCH  14  15
ENDBRANCH   5  14
TORSDOF 3
ENDMDL
MODEL 7
REMARK VINA RESULT:      -4.8      4.777      6.208
REMARK  3 active torsions:
REMARK  status: ('A' for Active; 'I' for Inactive)
REMARK    1  A    between atoms: C_3  and  C_7 
REMARK    2  A    between atoms: C_5  and  C_11 
REMARK    3  A    between atoms: C_11  and  O_12 
ROOT
HETATM    1  N   UNK     1      67.263   3.454   8.806  1.00  0.00    -0.351 N 
ATOM      2  HN  UNK     1      66.296   3.166   8.659  1.00  0.00     0.166 HD
HETATM    3  C   UNK     1      67.803   4.557   8.319  1.00  0.00     0.084 A 
HETATM    4  S   UNK     1      69.452   4.804   8.762  1.00  0.00    -0.081 SA
HETATM    5  C   UNK     1      68.200   2.738   9.547  1.00  0.00     0.040 A 
HETATM    6  C   UNK     1      69.447   3.325   9.618  1.00  0.00     0.079 A 
ENDROOT
BRANCH   3   7
HETATM    7  C   UNK     1      67.081   5.549   7.502  1.00  0.00    -0.001 A 
HETATM    8  C   UNK     1      67.784   6.295   6.543  1.00  0.00     0.038 A 
HETATM    9  C   UNK     1      67.123   7.239   5.755  1.00  0.00     0.035 A 
HETATM   10 CL   UNK     1      68.000   8.131   4.572  1.00  0.00    -0.084 Cl
HETATM   11  C   UNK     1      65.758   7.465   5.914  1.00  0.00     0.024 A 
HETATM   12  C   UNK     1      65.048   6.744   6.870  1.00  0.00     0.003 A 
HETATM   13  C   UNK     1      65.706   5.794   7.659  1.00  0.00     0.014 A 
ENDBRANCH   3   7
BRANCH   5  14
HETATM   14  C   UNK     1      67.794   1.436  10.154  1.00  0.00     0.221 C 
BRANCH  14  15
HETATM   15  O   UNK     1      68.062   1.406  11.552  1.00  0.00    -0.395 OA
HETATM   16  H   UNK     1      67.434   0.810  11.991  1.00  0.00     0.209 HD
ENDBRANCH  14  15
ENDBRANCH   5  14
TORSDOF 3
ENDMDL
MODEL 8
REMARK VINA RESULT:      -4.8      7.802      9.287
REMARK  3 active torsions:
REMARK  status: ('A' for Active; 'I' for Inactive)
REMARK    1  A    between atoms: C_3  and  C_7 
REMARK    2  A    between atoms: C_5  and  C_11 
REMARK    3  A    between atoms: C_11  and  O_12 
ROOT
HETATM    1  N   UNK     1      67.158   1.407  11.205  1.00  0.00    -0.351 N 
ATOM      2  HN  UNK     1      67.393   2.023  11.983  1.00  0.00     0.166 HD
HETATM    3  C   UNK     1      67.499   1.620   9.946  1.00  0.00     0.084 A 
HETATM    4  S   UNK     1      66.994   0.388   8.849  1.00  0.00    -0.081 SA
HETATM    5  C   UNK     1      66.431   0.225  11.320  1.00  0.00     0.040 A 
HETATM    6  C   UNK     1      66.241  -0.452  10.132  1.00  0.00     0.079 A 
ENDROOT
BRANCH   3   7
HETATM    7  C   UNK     1      68.288   2.774   9.479  1.00  0.00    -0.001 A 
HETATM    8  C   UNK     1      67.755   3.620   8.493  1.00  0.00     0.038 A 
HETATM    9  C   UNK     1      68.482   4.720   8.035  1.00  0.00     0.035 A 
HETATM   10 CL   UNK     1      67.802   5.756   6.839  1.00  0.00    -0.084 Cl
HETATM   11  C   UNK     1      69.751   4.992   8.540  1.00  0.00     0.024 A 
HETATM   12  C   UNK     1      70.301   4.156   9.507  1.00  0.00     0.003 A 
HETATM   13  C   UNK     1      69.574   3.054   9.972  1.00  0.00     0.014 A 
ENDBRANCH   3   7
BRANCH   5  14
HETATM   14  C   UNK     1      65.919  -0.175  12.664  1.00  0.00     0.221 C 
BRANCH  14  15
HETATM   15  O   UNK     1      66.465   0.643  13.695  1.00  0.00    -0.395 OA
HETATM   16  H   UNK     1      67.274   0.232  14.040  1.00  0.00     0.209 HD
ENDBRANCH  14  15
ENDBRANCH   5  14
TORSDOF 3
ENDMDL
MODEL 9
REMARK VINA RESULT:      -4.8      4.689      7.718
REMARK  3 active torsions:
REMARK  status: ('A' for Active; 'I' for Inactive)
REMARK    1  A    between atoms: C_3  and  C_7 
REMARK    2  A    between atoms: C_5  and  C_11 
REMARK    3  A    between atoms: C_11  and  O_12 
ROOT
HETATM    1  N   UNK     1      66.435   6.569   6.861  1.00  0.00    -0.351 N 
ATOM      2  HN  UNK     1      67.144   7.294   6.979  1.00  0.00     0.166 HD
HETATM    3  C   UNK     1      66.537   5.335   7.323  1.00  0.00     0.084 A 
HETATM    4  S   UNK     1      65.166   4.336   7.005  1.00  0.00    -0.081 SA
HETATM    5  C   UNK     1      65.227   6.742   6.192  1.00  0.00     0.040 A 
HETATM    6  C   UNK     1      64.418   5.623   6.166  1.00  0.00     0.079 A 
ENDROOT
BRANCH   3   7
HETATM    7  C   UNK     1      67.684   4.823   8.093  1.00  0.00    -0.001 A 
HETATM    8  C   UNK     1      67.543   3.641   8.838  1.00  0.00     0.038 A 
HETATM    9  C   UNK     1      68.616   3.136   9.575  1.00  0.00     0.035 A 
HETATM   10 CL   UNK     1      68.427   1.675  10.467  1.00  0.00    -0.084 Cl
HETATM   11  C   UNK     1      69.840   3.799   9.592  1.00  0.00     0.024 A 
HETATM   12  C   UNK     1      69.993   4.979   8.871  1.00  0.00     0.003 A 
HETATM   13  C   UNK     1      68.922   5.488   8.128  1.00  0.00     0.014 A 
ENDBRANCH   3   7
BRANCH   5  14
HETATM   14  C   UNK     1      64.937   8.064   5.562  1.00  0.00     0.221 C 
BRANCH  14  15
HETATM   15  O   UNK     1      65.741   9.097   6.125  1.00  0.00    -0.395 OA
HETATM   16  H   UNK     1      65.926   9.769   5.450  1.00  0.00     0.209 HD
ENDBRANCH  14  15
ENDBRANCH   5  14
TORSDOF 3
ENDMDL
