MODEL 1
REMARK VINA RESULT:      -5.7      0.000      0.000
REMARK  3 active torsions:
REMARK  status: ('A' for Active; 'I' for Inactive)
REMARK    1  A    between atoms: C_1  and  C_2 
REMARK    2  A    between atoms: C_7  and  C_9 
REMARK    3  A    between atoms: N_8  and  C_9 
ROOT
HETATM    1  C   UNL     1      75.192   2.571  17.358  1.00  0.00     0.006 A 
HETATM    2  C   UNL     1      76.476   2.943  17.822  1.00  0.00    -0.020 A 
HETATM    3  C   UNL     1      74.392   3.562  16.751  1.00  0.00     0.015 A 
HETATM    4  C   UNL     1      76.917   4.273  17.634  1.00  0.00     0.010 A 
HETATM    5  C   UNL     1      74.840   4.875  16.588  1.00  0.00     0.001 A 
HETATM    6  C   UNL     1      76.107   5.229  17.028  1.00  0.00     0.001 A 
ENDROOT
BRANCH   1   7
HETATM    7  C   UNL     1      74.645   1.212  17.461  1.00  0.00     0.085 A 
HETATM    8  O   UNL     1      74.385   0.779  18.737  1.00  0.00    -0.322 OA
HETATM    9  C   UNL     1      73.876  -0.475  18.652  1.00  0.00     0.142 A 
HETATM   10  C   UNL     1      73.796  -0.873  17.342  1.00  0.00     0.027 A 
HETATM   11  C   UNL     1      74.287   0.212  16.576  1.00  0.00     0.040 A 
ENDBRANCH   1   7
BRANCH   2  12
HETATM   12  C   UNL     1      77.431   1.997  18.509  1.00  0.00     0.269 C 
BRANCH  12  13
HETATM   13  N   UNL     1      78.027   2.610  19.691  1.00  0.00    -0.075 N 
HETATM   14  H   UNL     1      77.586   3.513  19.864  1.00  0.00     0.274 HD
HETATM   15  H   UNL     1      79.027   2.743  19.538  1.00  0.00     0.274 HD
HETATM   16  H   UNL     1      77.885   2.002  20.497  1.00  0.00     0.274 HD
ENDBRANCH  12  13
ENDBRANCH   2  12
TORSDOF 3
ENDMDL
MODEL 2
REMARK VINA RESULT:      -5.5     18.311     19.692
REMARK  3 active torsions:
REMARK  status: ('A' for Active; 'I' for Inactive)
REMARK    1  A    between atoms: C_1  and  C_2 
REMARK    2  A    between atoms: C_7  and  C_9 
REMARK    3  A    between atoms: N_8  and  C_9 
ROOT
HETATM    1  C   UNL     1      62.702   9.338   3.973  1.00  0.00     0.006 A 
HETATM    2  C   UNL     1      62.405  10.675   4.331  1.00  0.00    -0.020 A 
HETATM    3  C   UNL     1      62.484   8.945   2.636  1.00  0.00     0.015 A 
HETATM    4  C   UNL     1      61.935  11.565   3.338  1.00  0.00     0.010 A 
HETATM    5  C   UNL     1      62.004   9.835   1.672  1.00  0.00     0.001 A 
HETATM    6  C   UNL     1      61.732  11.149   2.025  1.00  0.00     0.001 A 
ENDROOT
BRANCH   1   7
HETATM    7  C   UNL     1      63.233   8.338   4.908  1.00  0.00     0.085 A 
HETATM    8  O   UNL     1      64.593   8.369   5.090  1.00  0.00    -0.322 OA
HETATM    9  C   UNL     1      64.911   7.401   5.985  1.00  0.00     0.142 A 
HETATM   10  C   UNL     1      63.783   6.736   6.395  1.00  0.00     0.027 A 
HETATM   11  C   UNL     1      62.704   7.341   5.706  1.00  0.00     0.040 A 
ENDBRANCH   1   7
BRANCH   2  12
HETATM   12  C   UNL     1      62.568  11.231   5.725  1.00  0.00     0.269 C 
BRANCH  12  13
HETATM   13  N   UNL     1      63.973  11.299   6.108  1.00  0.00    -0.075 N 
HETATM   14  H   UNL     1      64.233  12.270   6.280  1.00  0.00     0.274 HD
HETATM   15  H   UNL     1      64.550  10.921   5.356  1.00  0.00     0.274 HD
HETATM   16  H   UNL     1      64.121  10.752   6.956  1.00  0.00     0.274 HD
ENDBRANCH  12  13
ENDBRANCH   2  12
TORSDOF 3
ENDMDL
MODEL 3
REMARK VINA RESULT:      -5.0      2.137      3.489
REMARK  3 active torsions:
REMARK  status: ('A' for Active; 'I' for Inactive)
REMARK    1  A    between atoms: C_1  and  C_2 
REMARK    2  A    between atoms: C_7  and  C_9 
REMARK    3  A    between atoms: N_8  and  C_9 
ROOT
HETATM    1  C   UNL     1      76.434   2.772  17.818  1.00  0.00     0.006 A 
HETATM    2  C   UNL     1      75.143   2.478  17.319  1.00  0.00    -0.020 A 
HETATM    3  C   UNL     1      76.913   4.092  17.683  1.00  0.00     0.015 A 
HETATM    4  C   UNL     1      74.378   3.514  16.736  1.00  0.00     0.010 A 
HETATM    5  C   UNL     1      76.147   5.099  17.090  1.00  0.00     0.001 A 
HETATM    6  C   UNL     1      74.875   4.808  16.619  1.00  0.00     0.001 A 
ENDROOT
BRANCH   1   7
HETATM    7  C   UNL     1      77.302   1.789  18.479  1.00  0.00     0.085 A 
HETATM    8  O   UNL     1      77.887   2.212  19.645  1.00  0.00    -0.322 OA
HETATM    9  C   UNL     1      78.636   1.188  20.126  1.00  0.00     0.142 A 
HETATM   10  C   UNL     1      78.549   0.100  19.297  1.00  0.00     0.027 A 
HETATM   11  C   UNL     1      77.689   0.483  18.240  1.00  0.00     0.040 A 
ENDBRANCH   1   7
BRANCH   2  12
HETATM   12  C   UNL     1      74.510   1.108  17.374  1.00  0.00     0.269 C 
BRANCH  12  13
HETATM   13  N   UNL     1      74.302   0.566  16.036  1.00  0.00    -0.075 N 
HETATM   14  H   UNL     1      73.597  -0.169  16.073  1.00  0.00     0.274 HD
HETATM   15  H   UNL     1      75.179   0.179  15.686  1.00  0.00     0.274 HD
HETATM   16  H   UNL     1      73.987   1.309  15.413  1.00  0.00     0.274 HD
ENDBRANCH  12  13
ENDBRANCH   2  12
TORSDOF 3
ENDMDL
MODEL 4
REMARK VINA RESULT:      -5.0     17.501     18.897
REMARK  3 active torsions:
REMARK  status: ('A' for Active; 'I' for Inactive)
REMARK    1  A    between atoms: C_1  and  C_2 
REMARK    2  A    between atoms: C_7  and  C_9 
REMARK    3  A    between atoms: N_8  and  C_9 
ROOT
HETATM    1  C   UNL     1      63.566   9.048   4.764  1.00  0.00     0.006 A 
HETATM    2  C   UNL     1      63.071   8.638   3.503  1.00  0.00    -0.020 A 
HETATM    3  C   UNL     1      63.184  10.317   5.246  1.00  0.00     0.015 A 
HETATM    4  C   UNL     1      62.198   9.495   2.795  1.00  0.00     0.010 A 
HETATM    5  C   UNL     1      62.331  11.156   4.525  1.00  0.00     0.001 A 
HETATM    6  C   UNL     1      61.835  10.741   3.297  1.00  0.00     0.001 A 
ENDROOT
BRANCH   1   7
HETATM    7  C   UNL     1      64.446   8.227   5.606  1.00  0.00     0.085 A 
HETATM    8  O   UNL     1      65.690   8.753   5.842  1.00  0.00    -0.322 OA
HETATM    9  C   UNL     1      66.361   7.884   6.639  1.00  0.00     0.142 A 
HETATM   10  C   UNL     1      65.577   6.798   6.931  1.00  0.00     0.027 A 
HETATM   11  C   UNL     1      64.344   7.018   6.271  1.00  0.00     0.040 A 
ENDBRANCH   1   7
BRANCH   2  12
HETATM   12  C   UNL     1      63.412   7.319   2.851  1.00  0.00     0.269 C 
BRANCH  12  13
HETATM   13  N   UNL     1      62.402   6.307   3.143  1.00  0.00    -0.075 N 
HETATM   14  H   UNL     1      62.523   5.972   4.098  1.00  0.00     0.274 HD
HETATM   15  H   UNL     1      62.504   5.528   2.493  1.00  0.00     0.274 HD
HETATM   16  H   UNL     1      61.473   6.715   3.041  1.00  0.00     0.274 HD
ENDBRANCH  12  13
ENDBRANCH   2  12
TORSDOF 3
ENDMDL
MODEL 5
REMARK VINA RESULT:      -4.9     13.010     14.486
REMARK  3 active torsions:
REMARK  status: ('A' for Active; 'I' for Inactive)
REMARK    1  A    between atoms: C_1  and  C_2 
REMARK    2  A    between atoms: C_7  and  C_9 
REMARK    3  A    between atoms: N_8  and  C_9 
ROOT
HETATM    1  C   UNL     1      81.041  12.941  26.124  1.00  0.00     0.006 A 
HETATM    2  C   UNL     1      81.102  13.347  24.769  1.00  0.00    -0.020 A 
HETATM    3  C   UNL     1      81.536  13.826  27.104  1.00  0.00     0.015 A 
HETATM    4  C   UNL     1      81.622  14.623  24.456  1.00  0.00     0.010 A 
HETATM    5  C   UNL     1      82.061  15.078  26.773  1.00  0.00     0.001 A 
HETATM    6  C   UNL     1      82.101  15.477  25.445  1.00  0.00     0.001 A 
ENDROOT
BRANCH   1   7
HETATM    7  C   UNL     1      80.485  11.658  26.571  1.00  0.00     0.085 A 
HETATM    8  O   UNL     1      81.409  10.717  26.948  1.00  0.00    -0.322 OA
HETATM    9  C   UNL     1      80.733   9.609  27.343  1.00  0.00     0.142 A 
HETATM   10  C   UNL     1      79.380   9.808  27.233  1.00  0.00     0.027 A 
HETATM   11  C   UNL     1      79.220  11.126  26.741  1.00  0.00     0.040 A 
ENDBRANCH   1   7
BRANCH   2  12
HETATM   12  C   UNL     1      80.631  12.498  23.613  1.00  0.00     0.269 C 
BRANCH  12  13
HETATM   13  N   UNL     1      81.637  12.432  22.559  1.00  0.00    -0.075 N 
HETATM   14  H   UNL     1      81.288  12.902  21.726  1.00  0.00     0.274 HD
HETATM   15  H   UNL     1      81.837  11.455  22.340  1.00  0.00     0.274 HD
HETATM   16  H   UNL     1      82.492  12.889  22.877  1.00  0.00     0.274 HD
ENDBRANCH  12  13
ENDBRANCH   2  12
TORSDOF 3
ENDMDL
MODEL 6
REMARK VINA RESULT:      -4.8     14.152     15.492
REMARK  3 active torsions:
REMARK  status: ('A' for Active; 'I' for Inactive)
REMARK    1  A    between atoms: C_1  and  C_2 
REMARK    2  A    between atoms: C_7  and  C_9 
REMARK    3  A    between atoms: N_8  and  C_9 
ROOT
HETATM    1  C   UNL     1      66.283   6.575   7.215  1.00  0.00     0.006 A 
HETATM    2  C   UNL     1      67.332   5.868   6.580  1.00  0.00    -0.020 A 
HETATM    3  C   UNL     1      66.331   6.715   8.618  1.00  0.00     0.015 A 
HETATM    4  C   UNL     1      68.394   5.362   7.363  1.00  0.00     0.010 A 
HETATM    5  C   UNL     1      67.382   6.194   9.377  1.00  0.00     0.001 A 
HETATM    6  C   UNL     1      68.417   5.518   8.746  1.00  0.00     0.001 A 
ENDROOT
BRANCH   1   7
HETATM    7  C   UNL     1      65.152   7.179   6.501  1.00  0.00     0.085 A 
HETATM    8  O   UNL     1      65.415   8.382   5.895  1.00  0.00    -0.322 OA
HETATM    9  C   UNL     1      64.279   8.789   5.275  1.00  0.00     0.142 A 
HETATM   10  C   UNL     1      63.276   7.873   5.462  1.00  0.00     0.027 A 
HETATM   11  C   UNL     1      63.836   6.836   6.247  1.00  0.00     0.040 A 
ENDBRANCH   1   7
BRANCH   2  12
HETATM   12  C   UNL     1      67.403   5.621   5.092  1.00  0.00     0.269 C 
BRANCH  12  13
HETATM   13  N   UNL     1      67.759   6.837   4.369  1.00  0.00    -0.075 N 
HETATM   14  H   UNL     1      68.741   7.054   4.532  1.00  0.00     0.274 HD
HETATM   15  H   UNL     1      67.181   7.611   4.698  1.00  0.00     0.274 HD
HETATM   16  H   UNL     1      67.602   6.697   3.371  1.00  0.00     0.274 HD
ENDBRANCH  12  13
ENDBRANCH   2  12
TORSDOF 3
ENDMDL
MODEL 7
REMARK VINA RESULT:      -4.8     19.051     20.356
REMARK  3 active torsions:
REMARK  status: ('A' for Active; 'I' for Inactive)
REMARK    1  A    between atoms: C_1  and  C_2 
REMARK    2  A    between atoms: C_7  and  C_9 
REMARK    3  A    between atoms: N_8  and  C_9 
ROOT
HETATM    1  C   UNL     1      62.509   9.187   3.806  1.00  0.00     0.006 A 
HETATM    2  C   UNL     1      62.401   8.897   2.425  1.00  0.00    -0.020 A 
HETATM    3  C   UNL     1      62.254  10.509   4.229  1.00  0.00     0.015 A 
HETATM    4  C   UNL     1      62.016   9.925   1.534  1.00  0.00     0.010 A 
HETATM    5  C   UNL     1      61.889  11.515   3.330  1.00  0.00     0.001 A 
HETATM    6  C   UNL     1      61.766  11.219   1.980  1.00  0.00     0.001 A 
ENDROOT
BRANCH   1   7
HETATM    7  C   UNL     1      62.862   8.193   4.828  1.00  0.00     0.085 A 
HETATM    8  O   UNL     1      61.831   7.391   5.246  1.00  0.00    -0.322 OA
HETATM    9  C   UNL     1      62.327   6.530   6.169  1.00  0.00     0.142 A 
HETATM   10  C   UNL     1      63.666   6.752   6.362  1.00  0.00     0.027 A 
HETATM   11  C   UNL     1      64.012   7.819   5.498  1.00  0.00     0.040 A 
ENDBRANCH   1   7
BRANCH   2  12
HETATM   12  C   UNL     1      62.665   7.537   1.826  1.00  0.00     0.269 C 
BRANCH  12  13
HETATM   13  N   UNL     1      61.615   7.158   0.887  1.00  0.00    -0.075 N 
HETATM   14  H   UNL     1      60.745   7.004   1.395  1.00  0.00     0.274 HD
HETATM   15  H   UNL     1      61.883   6.299   0.405  1.00  0.00     0.274 HD
HETATM   16  H   UNL     1      61.484   7.904   0.205  1.00  0.00     0.274 HD
ENDBRANCH  12  13
ENDBRANCH   2  12
TORSDOF 3
ENDMDL
MODEL 8
REMARK VINA RESULT:      -4.8     10.945     12.351
REMARK  3 active torsions:
REMARK  status: ('A' for Active; 'I' for Inactive)
REMARK    1  A    between atoms: C_1  and  C_2 
REMARK    2  A    between atoms: C_7  and  C_9 
REMARK    3  A    between atoms: N_8  and  C_9 
ROOT
HETATM    1  C   UNL     1      68.437   3.025   7.940  1.00  0.00     0.006 A 
HETATM    2  C   UNL     1      68.681   1.918   8.788  1.00  0.00    -0.020 A 
HETATM    3  C   UNL     1      68.656   2.861   6.556  1.00  0.00     0.015 A 
HETATM    4  C   UNL     1      69.102   0.695   8.219  1.00  0.00     0.010 A 
HETATM    5  C   UNL     1      69.086   1.648   6.014  1.00  0.00     0.001 A 
HETATM    6  C   UNL     1      69.306   0.561   6.848  1.00  0.00     0.001 A 
ENDROOT
BRANCH   1   7
HETATM    7  C   UNL     1      67.959   4.330   8.413  1.00  0.00     0.085 A 
HETATM    8  O   UNL     1      66.596   4.479   8.447  1.00  0.00    -0.322 OA
HETATM    9  C   UNL     1      66.329   5.724   8.916  1.00  0.00     0.142 A 
HETATM   10  C   UNL     1      67.493   6.393   9.192  1.00  0.00     0.027 A 
HETATM   11  C   UNL     1      68.542   5.497   8.872  1.00  0.00     0.040 A 
ENDBRANCH   1   7
BRANCH   2  12
HETATM   12  C   UNL     1      68.512   1.952  10.288  1.00  0.00     0.269 C 
BRANCH  12  13
HETATM   13  N   UNL     1      69.741   2.374  10.951  1.00  0.00    -0.075 N 
HETATM   14  H   UNL     1      70.486   1.711  10.740  1.00  0.00     0.274 HD
HETATM   15  H   UNL     1      69.590   2.406  11.959  1.00  0.00     0.274 HD
HETATM   16  H   UNL     1      70.005   3.300  10.618  1.00  0.00     0.274 HD
ENDBRANCH  12  13
ENDBRANCH   2  12
TORSDOF 3
ENDMDL
MODEL 9
REMARK VINA RESULT:      -4.7     11.726     13.604
REMARK  3 active torsions:
REMARK  status: ('A' for Active; 'I' for Inactive)
REMARK    1  A    between atoms: C_1  and  C_2 
REMARK    2  A    between atoms: C_7  and  C_9 
REMARK    3  A    between atoms: N_8  and  C_9 
ROOT
HETATM    1  C   UNL     1      80.369  12.428  24.362  1.00  0.00     0.006 A 
HETATM    2  C   UNL     1      79.142  11.785  24.071  1.00  0.00    -0.020 A 
HETATM    3  C   UNL     1      81.066  13.040  23.299  1.00  0.00     0.015 A 
HETATM    4  C   UNL     1      78.651  11.806  22.745  1.00  0.00     0.010 A 
HETATM    5  C   UNL     1      80.571  13.038  21.992  1.00  0.00     0.001 A 
HETATM    6  C   UNL     1      79.359  12.422  21.717  1.00  0.00     0.001 A 
ENDROOT
BRANCH   1   7
HETATM    7  C   UNL     1      80.955  12.505  25.706  1.00  0.00     0.085 A 
HETATM    8  O   UNL     1      81.390  11.312  26.226  1.00  0.00    -0.322 OA
HETATM    9  C   UNL     1      81.911  11.562  27.452  1.00  0.00     0.142 A 
HETATM   10  C   UNL     1      81.828  12.899  27.746  1.00  0.00     0.027 A 
HETATM   11  C   UNL     1      81.217  13.507  26.622  1.00  0.00     0.040 A 
ENDBRANCH   1   7
BRANCH   2  12
HETATM   12  C   UNL     1      78.299  11.071  25.100  1.00  0.00     0.269 C 
BRANCH  12  13
HETATM   13  N   UNL     1      77.394  10.114  24.473  1.00  0.00    -0.075 N 
HETATM   14  H   UNL     1      77.801   9.181  24.520  1.00  0.00     0.274 HD
HETATM   15  H   UNL     1      77.249  10.372  23.496  1.00  0.00     0.274 HD
HETATM   16  H   UNL     1      76.500  10.121  24.962  1.00  0.00     0.274 HD
ENDBRANCH  12  13
ENDBRANCH   2  12
TORSDOF 3
ENDMDL
