MODEL 1
REMARK VINA RESULT:      -6.7      0.000      0.000
REMARK  3 active torsions:
REMARK  status: ('A' for Active; 'I' for Inactive)
REMARK    1  A    between atoms: C_4  and  C_8 
REMARK    2  A    between atoms: C_6  and  C_7 
REMARK    3  A    between atoms: C_8  and  O_10 
ROOT
HETATM    1  N   UNL     1      77.430  10.069  16.707  1.00  0.00    -0.298 N 
ATOM      2  HN  UNL     1      77.573  10.907  16.142  1.00  0.00     0.187 HD
HETATM    3  N   UNL     1      77.356   8.797  16.277  1.00  0.00    -0.298 N 
HETATM    4  C   UNL     1      77.137   7.896  17.285  1.00  0.00     0.053 A 
HETATM    5  C   UNL     1      77.095   8.650  18.440  1.00  0.00     0.060 A 
HETATM    6  C   UNL     1      77.276   9.999  18.037  1.00  0.00     0.060 A 
HETATM    7  C   UNL     1      77.542   8.551  14.867  1.00  0.00     0.177 C 
ENDROOT
BRANCH   6   8
HETATM    8  C   UNL     1      77.326  11.193  18.879  1.00  0.00    -0.008 A 
HETATM    9  C   UNL     1      78.222  11.259  19.957  1.00  0.00     0.014 A 
HETATM   10  C   UNL     1      78.268  12.385  20.780  1.00  0.00     0.001 A 
HETATM   11  C   UNL     1      77.422  13.463  20.529  1.00  0.00     0.000 A 
HETATM   12  C   UNL     1      76.532  13.415  19.458  1.00  0.00     0.001 A 
HETATM   13  C   UNL     1      76.481  12.287  18.638  1.00  0.00     0.014 A 
ENDBRANCH   6   8
BRANCH   4  14
HETATM   14  C   UNL     1      77.019   6.436  17.091  1.00  0.00     0.222 C 
BRANCH  14  15
HETATM   15  O   UNL     1      76.270   5.928  18.182  1.00  0.00    -0.395 OA
HETATM   16  H   UNL     1      76.024   6.658  18.772  1.00  0.00     0.209 HD
ENDBRANCH  14  15
ENDBRANCH   4  14
TORSDOF 3
ENDMDL
MODEL 2
REMARK VINA RESULT:      -5.3     16.475     18.542
REMARK  3 active torsions:
REMARK  status: ('A' for Active; 'I' for Inactive)
REMARK    1  A    between atoms: C_4  and  C_8 
REMARK    2  A    between atoms: C_6  and  C_7 
REMARK    3  A    between atoms: C_8  and  O_10 
ROOT
HETATM    1  N   UNL     1      64.576   7.587   6.456  1.00  0.00    -0.298 N 
ATOM      2  HN  UNL     1      63.705   7.536   6.986  1.00  0.00     0.187 HD
HETATM    3  N   UNL     1      65.747   6.994   6.750  1.00  0.00    -0.298 N 
HETATM    4  C   UNL     1      66.738   7.274   5.847  1.00  0.00     0.053 A 
HETATM    5  C   UNL     1      66.145   8.083   4.899  1.00  0.00     0.060 A 
HETATM    6  C   UNL     1      64.800   8.258   5.317  1.00  0.00     0.060 A 
HETATM    7  C   UNL     1      65.797   6.144   7.916  1.00  0.00     0.177 C 
ENDROOT
BRANCH   6   8
HETATM    8  C   UNL     1      63.742   9.020   4.655  1.00  0.00    -0.008 A 
HETATM    9  C   UNL     1      63.162   8.538   3.471  1.00  0.00     0.014 A 
HETATM   10  C   UNL     1      62.165   9.263   2.818  1.00  0.00     0.001 A 
HETATM   11  C   UNL     1      61.728  10.476   3.347  1.00  0.00     0.000 A 
HETATM   12  C   UNL     1      62.289  10.963   4.527  1.00  0.00     0.001 A 
HETATM   13  C   UNL     1      63.291  10.241   5.177  1.00  0.00     0.014 A 
ENDBRANCH   6   8
BRANCH   4  14
HETATM   14  C   UNL     1      68.117   6.748   5.929  1.00  0.00     0.222 C 
BRANCH  14  15
HETATM   15  O   UNL     1      68.984   7.781   5.491  1.00  0.00    -0.395 OA
HETATM   16  H   UNL     1      69.558   7.444   4.785  1.00  0.00     0.209 HD
ENDBRANCH  14  15
ENDBRANCH   4  14
TORSDOF 3
ENDMDL
MODEL 3
REMARK VINA RESULT:      -5.2     18.113     20.048
REMARK  3 active torsions:
REMARK  status: ('A' for Active; 'I' for Inactive)
REMARK    1  A    between atoms: C_4  and  C_8 
REMARK    2  A    between atoms: C_6  and  C_7 
REMARK    3  A    between atoms: C_8  and  O_10 
ROOT
HETATM    1  N   UNL     1      62.193   7.193   5.019  1.00  0.00    -0.298 N 
ATOM      2  HN  UNL     1      61.222   7.060   4.733  1.00  0.00     0.187 HD
HETATM    3  N   UNL     1      62.926   6.398   5.819  1.00  0.00    -0.298 N 
HETATM    4  C   UNL     1      64.196   6.864   6.028  1.00  0.00     0.053 A 
HETATM    5  C   UNL     1      64.282   8.025   5.287  1.00  0.00     0.060 A 
HETATM    6  C   UNL     1      63.013   8.198   4.677  1.00  0.00     0.060 A 
HETATM    7  C   UNL     1      62.313   5.187   6.308  1.00  0.00     0.177 C 
ENDROOT
BRANCH   6   8
HETATM    8  C   UNL     1      62.582   9.268   3.778  1.00  0.00    -0.008 A 
HETATM    9  C   UNL     1      62.314  10.549   4.284  1.00  0.00     0.014 A 
HETATM   10  C   UNL     1      61.884  11.574   3.440  1.00  0.00     0.001 A 
HETATM   11  C   UNL     1      61.725  11.331   2.078  1.00  0.00     0.000 A 
HETATM   12  C   UNL     1      61.994  10.066   1.560  1.00  0.00     0.001 A 
HETATM   13  C   UNL     1      62.419   9.038   2.403  1.00  0.00     0.014 A 
ENDBRANCH   6   8
BRANCH   4  14
HETATM   14  C   UNL     1      65.210   6.183   6.861  1.00  0.00     0.222 C 
BRANCH  14  15
HETATM   15  O   UNL     1      65.301   6.903   8.080  1.00  0.00    -0.395 OA
HETATM   16  H   UNL     1      66.005   7.566   8.012  1.00  0.00     0.209 HD
ENDBRANCH  14  15
ENDBRANCH   4  14
TORSDOF 3
ENDMDL
MODEL 4
REMARK VINA RESULT:      -5.0     16.876     18.861
REMARK  3 active torsions:
REMARK  status: ('A' for Active; 'I' for Inactive)
REMARK    1  A    between atoms: C_4  and  C_8 
REMARK    2  A    between atoms: C_6  and  C_7 
REMARK    3  A    between atoms: C_8  and  O_10 
ROOT
HETATM    1  N   UNL     1      65.213   8.206   6.154  1.00  0.00    -0.298 N 
ATOM      2  HN  UNL     1      65.495   9.152   6.412  1.00  0.00     0.187 HD
HETATM    3  N   UNL     1      65.727   7.048   6.606  1.00  0.00    -0.298 N 
HETATM    4  C   UNL     1      65.142   5.942   6.049  1.00  0.00     0.053 A 
HETATM    5  C   UNL     1      64.171   6.435   5.201  1.00  0.00     0.060 A 
HETATM    6  C   UNL     1      64.250   7.849   5.291  1.00  0.00     0.060 A 
HETATM    7  C   UNL     1      66.764   7.118   7.607  1.00  0.00     0.177 C 
ENDROOT
BRANCH   6   8
HETATM    8  C   UNL     1      63.430   8.844   4.602  1.00  0.00    -0.008 A 
HETATM    9  C   UNL     1      62.944   8.586   3.311  1.00  0.00     0.014 A 
HETATM   10  C   UNL     1      62.176   9.534   2.635  1.00  0.00     0.001 A 
HETATM   11  C   UNL     1      61.877  10.750   3.245  1.00  0.00     0.000 A 
HETATM   12  C   UNL     1      62.347  11.017   4.530  1.00  0.00     0.001 A 
HETATM   13  C   UNL     1      63.120  10.072   5.206  1.00  0.00     0.014 A 
ENDBRANCH   6   8
BRANCH   4  14
HETATM   14  C   UNL     1      65.513   4.548   6.372  1.00  0.00     0.222 C 
BRANCH  14  15
HETATM   15  O   UNL     1      64.822   4.197   7.560  1.00  0.00    -0.395 OA
HETATM   16  H   UNL     1      65.331   3.529   8.044  1.00  0.00     0.209 HD
ENDBRANCH  14  15
ENDBRANCH   4  14
TORSDOF 3
ENDMDL
MODEL 5
REMARK VINA RESULT:      -4.9     14.114     16.133
REMARK  3 active torsions:
REMARK  status: ('A' for Active; 'I' for Inactive)
REMARK    1  A    between atoms: C_4  and  C_8 
REMARK    2  A    between atoms: C_6  and  C_7 
REMARK    3  A    between atoms: C_8  and  O_10 
ROOT
HETATM    1  N   UNL     1      65.624   5.211   7.278  1.00  0.00    -0.298 N 
ATOM      2  HN  UNL     1      65.192   4.406   7.733  1.00  0.00     0.187 HD
HETATM    3  N   UNL     1      65.027   6.120   6.486  1.00  0.00    -0.298 N 
HETATM    4  C   UNL     1      65.887   7.074   6.011  1.00  0.00     0.053 A 
HETATM    5  C   UNL     1      67.113   6.761   6.563  1.00  0.00     0.060 A 
HETATM    6  C   UNL     1      66.908   5.593   7.342  1.00  0.00     0.060 A 
HETATM    7  C   UNL     1      63.605   5.995   6.273  1.00  0.00     0.177 C 
ENDROOT
BRANCH   6   8
HETATM    8  C   UNL     1      67.887   4.860   8.145  1.00  0.00    -0.008 A 
HETATM    9  C   UNL     1      69.193   5.352   8.285  1.00  0.00     0.014 A 
HETATM   10  C   UNL     1      70.142   4.654   9.033  1.00  0.00     0.001 A 
HETATM   11  C   UNL     1      69.793   3.458   9.657  1.00  0.00     0.000 A 
HETATM   12  C   UNL     1      68.497   2.961   9.532  1.00  0.00     0.001 A 
HETATM   13  C   UNL     1      67.548   3.656   8.780  1.00  0.00     0.014 A 
ENDBRANCH   6   8
BRANCH   4  14
HETATM   14  C   UNL     1      65.493   8.189   5.126  1.00  0.00     0.222 C 
BRANCH  14  15
HETATM   15  O   UNL     1      65.272   9.320   5.952  1.00  0.00    -0.395 OA
HETATM   16  H   UNL     1      64.353   9.615   5.857  1.00  0.00     0.209 HD
ENDBRANCH  14  15
ENDBRANCH   4  14
TORSDOF 3
ENDMDL
MODEL 6
REMARK VINA RESULT:      -4.9     13.819     15.869
REMARK  3 active torsions:
REMARK  status: ('A' for Active; 'I' for Inactive)
REMARK    1  A    between atoms: C_4  and  C_8 
REMARK    2  A    between atoms: C_6  and  C_7 
REMARK    3  A    between atoms: C_8  and  O_10 
ROOT
HETATM    1  N   UNL     1      67.444   6.665   6.847  1.00  0.00    -0.298 N 
ATOM      2  HN  UNL     1      68.378   7.061   6.743  1.00  0.00     0.187 HD
HETATM    3  N   UNL     1      66.303   7.101   6.283  1.00  0.00    -0.298 N 
HETATM    4  C   UNL     1      65.206   6.362   6.637  1.00  0.00     0.053 A 
HETATM    5  C   UNL     1      65.691   5.371   7.466  1.00  0.00     0.060 A 
HETATM    6  C   UNL     1      67.087   5.597   7.576  1.00  0.00     0.060 A 
HETATM    7  C   UNL     1      66.385   8.228   5.386  1.00  0.00     0.177 C 
ENDROOT
BRANCH   6   8
HETATM    8  C   UNL     1      68.071   4.819   8.328  1.00  0.00    -0.008 A 
HETATM    9  C   UNL     1      67.703   3.602   8.922  1.00  0.00     0.014 A 
HETATM   10  C   UNL     1      68.626   2.858   9.658  1.00  0.00     0.001 A 
HETATM   11  C   UNL     1      69.933   3.320   9.802  1.00  0.00     0.000 A 
HETATM   12  C   UNL     1      70.315   4.523   9.212  1.00  0.00     0.001 A 
HETATM   13  C   UNL     1      69.391   5.271   8.480  1.00  0.00     0.014 A 
ENDBRANCH   6   8
BRANCH   4  14
HETATM   14  C   UNL     1      63.833   6.622   6.158  1.00  0.00     0.222 C 
BRANCH  14  15
HETATM   15  O   UNL     1      63.276   7.617   7.001  1.00  0.00    -0.395 OA
HETATM   16  H   UNL     1      63.391   7.357   7.928  1.00  0.00     0.209 HD
ENDBRANCH  14  15
ENDBRANCH   4  14
TORSDOF 3
ENDMDL
MODEL 7
REMARK VINA RESULT:      -4.8     16.969     19.053
REMARK  3 active torsions:
REMARK  status: ('A' for Active; 'I' for Inactive)
REMARK    1  A    between atoms: C_4  and  C_8 
REMARK    2  A    between atoms: C_6  and  C_7 
REMARK    3  A    between atoms: C_8  and  O_10 
ROOT
HETATM    1  N   UNL     1      63.992   7.726   3.530  1.00  0.00    -0.298 N 
ATOM      2  HN  UNL     1      64.345   6.901   3.044  1.00  0.00     0.187 HD
HETATM    3  N   UNL     1      63.013   8.556   3.127  1.00  0.00    -0.298 N 
HETATM    4  C   UNL     1      62.784   9.587   3.999  1.00  0.00     0.053 A 
HETATM    5  C   UNL     1      63.664   9.380   5.042  1.00  0.00     0.060 A 
HETATM    6  C   UNL     1      64.401   8.214   4.710  1.00  0.00     0.060 A 
HETATM    7  C   UNL     1      62.335   8.246   1.892  1.00  0.00     0.177 C 
ENDROOT
BRANCH   6   8
HETATM    8  C   UNL     1      65.452   7.559   5.489  1.00  0.00    -0.008 A 
HETATM    9  C   UNL     1      66.776   7.559   5.026  1.00  0.00     0.014 A 
HETATM   10  C   UNL     1      67.785   6.921   5.749  1.00  0.00     0.001 A 
HETATM   11  C   UNL     1      67.482   6.283   6.950  1.00  0.00     0.000 A 
HETATM   12  C   UNL     1      66.172   6.282   7.426  1.00  0.00     0.001 A 
HETATM   13  C   UNL     1      65.161   6.914   6.701  1.00  0.00     0.014 A 
ENDBRANCH   6   8
BRANCH   4  14
HETATM   14  C   UNL     1      61.763  10.637   3.802  1.00  0.00     0.222 C 
BRANCH  14  15
HETATM   15  O   UNL     1      62.253  11.817   4.418  1.00  0.00    -0.395 OA
HETATM   16  H   UNL     1      61.508  12.379   4.679  1.00  0.00     0.209 HD
ENDBRANCH  14  15
ENDBRANCH   4  14
TORSDOF 3
ENDMDL
MODEL 8
REMARK VINA RESULT:      -4.8     16.887     18.955
REMARK  3 active torsions:
REMARK  status: ('A' for Active; 'I' for Inactive)
REMARK    1  A    between atoms: C_4  and  C_8 
REMARK    2  A    between atoms: C_6  and  C_7 
REMARK    3  A    between atoms: C_8  and  O_10 
ROOT
HETATM    1  N   UNL     1      64.149   9.457   5.632  1.00  0.00    -0.298 N 
ATOM      2  HN  UNL     1      64.571   9.860   6.469  1.00  0.00     0.187 HD
HETATM    3  N   UNL     1      63.148   9.968   4.894  1.00  0.00    -0.298 N 
HETATM    4  C   UNL     1      62.794   9.174   3.836  1.00  0.00     0.053 A 
HETATM    5  C   UNL     1      63.651   8.093   3.894  1.00  0.00     0.060 A 
HETATM    6  C   UNL     1      64.476   8.304   5.029  1.00  0.00     0.060 A 
HETATM    7  C   UNL     1      62.618  11.255   5.278  1.00  0.00     0.177 C 
ENDROOT
BRANCH   6   8
HETATM    8  C   UNL     1      65.560   7.458   5.527  1.00  0.00    -0.008 A 
HETATM    9  C   UNL     1      65.520   6.960   6.838  1.00  0.00     0.014 A 
HETATM   10  C   UNL     1      66.556   6.167   7.332  1.00  0.00     0.001 A 
HETATM   11  C   UNL     1      67.642   5.856   6.517  1.00  0.00     0.000 A 
HETATM   12  C   UNL     1      67.691   6.337   5.210  1.00  0.00     0.001 A 
HETATM   13  C   UNL     1      66.658   7.135   4.716  1.00  0.00     0.014 A 
ENDBRANCH   6   8
BRANCH   4  14
HETATM   14  C   UNL     1      61.729   9.500   2.864  1.00  0.00     0.222 C 
BRANCH  14  15
HETATM   15  O   UNL     1      60.513   8.996   3.393  1.00  0.00    -0.395 OA
HETATM   16  H   UNL     1      60.466   8.040   3.241  1.00  0.00     0.209 HD
ENDBRANCH  14  15
ENDBRANCH   4  14
TORSDOF 3
ENDMDL
MODEL 9
REMARK VINA RESULT:      -4.6     17.622     19.871
REMARK  3 active torsions:
REMARK  status: ('A' for Active; 'I' for Inactive)
REMARK    1  A    between atoms: C_4  and  C_8 
REMARK    2  A    between atoms: C_6  and  C_7 
REMARK    3  A    between atoms: C_8  and  O_10 
ROOT
HETATM    1  N   UNL     1      65.083   6.545   3.766  1.00  0.00    -0.298 N 
ATOM      2  HN  UNL     1      65.012   5.922   2.960  1.00  0.00     0.187 HD
HETATM    3  N   UNL     1      65.944   6.454   4.796  1.00  0.00    -0.298 N 
HETATM    4  C   UNL     1      65.773   7.437   5.733  1.00  0.00     0.053 A 
HETATM    5  C   UNL     1      64.745   8.222   5.250  1.00  0.00     0.060 A 
HETATM    6  C   UNL     1      64.340   7.631   4.026  1.00  0.00     0.060 A 
HETATM    7  C   UNL     1      66.921   5.393   4.764  1.00  0.00     0.177 C 
ENDROOT
BRANCH   6   8
HETATM    8  C   UNL     1      63.295   8.082   3.108  1.00  0.00    -0.008 A 
HETATM    9  C   UNL     1      62.942   7.296   2.000  1.00  0.00     0.014 A 
HETATM   10  C   UNL     1      61.959   7.723   1.106  1.00  0.00     0.001 A 
HETATM   11  C   UNL     1      61.312   8.940   1.313  1.00  0.00     0.000 A 
HETATM   12  C   UNL     1      61.647   9.727   2.413  1.00  0.00     0.001 A 
HETATM   13  C   UNL     1      62.634   9.304   3.305  1.00  0.00     0.014 A 
ENDBRANCH   6   8
BRANCH   4  14
HETATM   14  C   UNL     1      66.586   7.574   6.960  1.00  0.00     0.222 C 
BRANCH  14  15
HETATM   15  O   UNL     1      66.917   8.947   7.090  1.00  0.00    -0.395 OA
HETATM   16  H   UNL     1      67.866   9.035   7.270  1.00  0.00     0.209 HD
ENDBRANCH  14  15
ENDBRANCH   4  14
TORSDOF 3
ENDMDL
