MODEL 1
REMARK VINA RESULT:      -5.2      0.000      0.000
REMARK  3 active torsions:
REMARK  status: ('A' for Active; 'I' for Inactive)
REMARK    1  A    between atoms: C_1  and  C_3 
REMARK    2  A    between atoms: C_5  and  C_12 
REMARK    3  A    between atoms: N_11  and  C_12 
ROOT
HETATM    1  C   UNL     1      78.891  12.307  21.204  1.00  0.00     0.039 A 
HETATM    2  S   UNL     1      79.105  11.123  19.987  1.00  0.00    -0.090 SA
HETATM    3  C   UNL     1      77.660  12.924  21.085  1.00  0.00     0.023 A 
HETATM    4  C   UNL     1      77.543  11.386  19.336  1.00  0.00     0.009 A 
HETATM    5  C   UNL     1      76.881  12.390  20.016  1.00  0.00     0.017 A 
ENDROOT
BRANCH   1   6
HETATM    6  C   UNL     1      79.889  12.575  22.207  1.00  0.00     0.092 A 
HETATM    7  O   UNL     1      81.118  13.107  21.893  1.00  0.00    -0.321 OA
HETATM    8  C   UNL     1      81.812  13.269  23.047  1.00  0.00     0.142 A 
HETATM    9  C   UNL     1      81.063  12.854  24.118  1.00  0.00     0.027 A 
HETATM   10  C   UNL     1      79.835  12.403  23.583  1.00  0.00     0.040 A 
ENDBRANCH   1   6
BRANCH   4  11
HETATM   11  C   UNL     1      77.053  10.539  18.195  1.00  0.00     0.277 C 
BRANCH  11  12
HETATM   12  N   UNL     1      77.952   9.408  17.959  1.00  0.00    -0.075 N 
HETATM   13  C   UNL     1      77.198   8.168  17.836  1.00  0.00     0.267 C 
HETATM   14  H   UNL     1      78.602   9.329  18.741  1.00  0.00     0.277 HD
HETATM   15  H   UNL     1      78.461   9.570  17.091  1.00  0.00     0.277 HD
ENDBRANCH  11  12
ENDBRANCH   4  11
TORSDOF 3
ENDMDL
MODEL 2
REMARK VINA RESULT:      -5.2      3.181      4.925
REMARK  3 active torsions:
REMARK  status: ('A' for Active; 'I' for Inactive)
REMARK    1  A    between atoms: C_1  and  C_3 
REMARK    2  A    between atoms: C_5  and  C_12 
REMARK    3  A    between atoms: N_11  and  C_12 
ROOT
HETATM    1  C   UNL     1      77.319   9.940  17.682  1.00  0.00     0.039 A 
HETATM    2  S   UNL     1      76.896   8.383  18.256  1.00  0.00    -0.090 SA
HETATM    3  C   UNL     1      77.668   9.898  16.346  1.00  0.00     0.023 A 
HETATM    4  C   UNL     1      77.117   7.662  16.718  1.00  0.00     0.009 A 
HETATM    5  C   UNL     1      77.544   8.591  15.788  1.00  0.00     0.017 A 
ENDROOT
BRANCH   1   6
HETATM    6  C   UNL     1      77.285  11.110  18.522  1.00  0.00     0.092 A 
HETATM    7  O   UNL     1      78.240  11.348  19.484  1.00  0.00    -0.321 OA
HETATM    8  C   UNL     1      77.951  12.534  20.076  1.00  0.00     0.142 A 
HETATM    9  C   UNL     1      76.823  13.083  19.523  1.00  0.00     0.027 A 
HETATM   10  C   UNL     1      76.391  12.171  18.533  1.00  0.00     0.040 A 
ENDBRANCH   1   6
BRANCH   4  11
HETATM   11  C   UNL     1      76.811   6.204  16.522  1.00  0.00     0.277 C 
BRANCH  11  12
HETATM   12  N   UNL     1      76.189   5.635  17.718  1.00  0.00    -0.075 N 
HETATM   13  C   UNL     1      76.820   4.372  18.076  1.00  0.00     0.267 C 
HETATM   14  H   UNL     1      75.198   5.474  17.536  1.00  0.00     0.277 HD
HETATM   15  H   UNL     1      76.305   6.290  18.492  1.00  0.00     0.277 HD
ENDBRANCH  11  12
ENDBRANCH   4  11
TORSDOF 3
ENDMDL
MODEL 3
REMARK VINA RESULT:      -4.8     17.417     20.592
REMARK  3 active torsions:
REMARK  status: ('A' for Active; 'I' for Inactive)
REMARK    1  A    between atoms: C_1  and  C_3 
REMARK    2  A    between atoms: C_5  and  C_12 
REMARK    3  A    between atoms: N_11  and  C_12 
ROOT
HETATM    1  C   UNL     1      65.784   7.886   5.602  1.00  0.00     0.039 A 
HETATM    2  S   UNL     1      65.791   6.872   6.982  1.00  0.00    -0.090 SA
HETATM    3  C   UNL     1      67.002   7.845   4.951  1.00  0.00     0.023 A 
HETATM    4  C   UNL     1      67.389   6.333   6.683  1.00  0.00     0.009 A 
HETATM    5  C   UNL     1      67.923   6.947   5.567  1.00  0.00     0.017 A 
ENDROOT
BRANCH   1   6
HETATM    6  C   UNL     1      64.628   8.649   5.208  1.00  0.00     0.092 A 
HETATM    7  O   UNL     1      64.324   9.864   5.777  1.00  0.00    -0.321 OA
HETATM    8  C   UNL     1      63.205  10.341   5.175  1.00  0.00     0.142 A 
HETATM    9  C   UNL     1      62.765   9.462   4.219  1.00  0.00     0.027 A 
HETATM   10  C   UNL     1      63.669   8.376   4.242  1.00  0.00     0.040 A 
ENDBRANCH   1   6
BRANCH   4  11
HETATM   11  C   UNL     1      68.006   5.290   7.572  1.00  0.00     0.277 C 
BRANCH  11  12
HETATM   12  N   UNL     1      68.953   5.895   8.510  1.00  0.00    -0.075 N 
HETATM   13  C   UNL     1      70.129   5.052   8.670  1.00  0.00     0.267 C 
HETATM   14  H   UNL     1      68.498   6.012   9.415  1.00  0.00     0.277 HD
HETATM   15  H   UNL     1      69.246   6.800   8.141  1.00  0.00     0.277 HD
ENDBRANCH  11  12
ENDBRANCH   4  11
TORSDOF 3
ENDMDL
MODEL 4
REMARK VINA RESULT:      -4.7     17.477     19.202
REMARK  3 active torsions:
REMARK  status: ('A' for Active; 'I' for Inactive)
REMARK    1  A    between atoms: C_1  and  C_3 
REMARK    2  A    between atoms: C_5  and  C_12 
REMARK    3  A    between atoms: N_11  and  C_12 
ROOT
HETATM    1  C   UNL     1      66.781   6.460   7.569  1.00  0.00     0.039 A 
HETATM    2  S   UNL     1      67.941   5.298   7.085  1.00  0.00    -0.090 SA
HETATM    3  C   UNL     1      66.840   6.683   8.932  1.00  0.00     0.023 A 
HETATM    4  C   UNL     1      68.562   5.132   8.672  1.00  0.00     0.009 A 
HETATM    5  C   UNL     1      67.869   5.925   9.566  1.00  0.00     0.017 A 
ENDROOT
BRANCH   1   6
HETATM    6  C   UNL     1      65.893   7.103   6.634  1.00  0.00     0.092 A 
HETATM    7  O   UNL     1      64.527   7.096   6.799  1.00  0.00    -0.321 OA
HETATM    8  C   UNL     1      63.979   7.806   5.781  1.00  0.00     0.142 A 
HETATM    9  C   UNL     1      64.958   8.281   4.947  1.00  0.00     0.027 A 
HETATM   10  C   UNL     1      66.183   7.827   5.487  1.00  0.00     0.040 A 
ENDBRANCH   1   6
BRANCH   4  11
HETATM   11  C   UNL     1      69.742   4.236   8.926  1.00  0.00     0.277 C 
BRANCH  11  12
HETATM   12  N   UNL     1      69.683   3.660  10.270  1.00  0.00    -0.075 N 
HETATM   13  C   UNL     1      69.242   2.273  10.217  1.00  0.00     0.267 C 
HETATM   14  H   UNL     1      69.027   4.199  10.836  1.00  0.00     0.277 HD
HETATM   15  H   UNL     1      70.615   3.692  10.682  1.00  0.00     0.277 HD
ENDBRANCH  11  12
ENDBRANCH   4  11
TORSDOF 3
ENDMDL
MODEL 5
REMARK VINA RESULT:      -4.6     17.706     18.873
REMARK  3 active torsions:
REMARK  status: ('A' for Active; 'I' for Inactive)
REMARK    1  A    between atoms: C_1  and  C_3 
REMARK    2  A    between atoms: C_5  and  C_12 
REMARK    3  A    between atoms: N_11  and  C_12 
ROOT
HETATM    1  C   UNL     1      67.466   4.721   8.761  1.00  0.00     0.039 A 
HETATM    2  S   UNL     1      66.238   4.601   7.575  1.00  0.00    -0.090 SA
HETATM    3  C   UNL     1      67.767   6.042   9.031  1.00  0.00     0.023 A 
HETATM    4  C   UNL     1      66.062   6.301   7.462  1.00  0.00     0.009 A 
HETATM    5  C   UNL     1      66.955   6.951   8.291  1.00  0.00     0.017 A 
ENDROOT
BRANCH   1   6
HETATM    6  C   UNL     1      68.064   3.564   9.376  1.00  0.00     0.092 A 
HETATM    7  O   UNL     1      67.378   2.382   9.533  1.00  0.00    -0.321 OA
HETATM    8  C   UNL     1      68.217   1.484  10.109  1.00  0.00     0.142 A 
HETATM    9  C   UNL     1      69.444   2.052  10.334  1.00  0.00     0.027 A 
HETATM   10  C   UNL     1      69.348   3.384   9.872  1.00  0.00     0.040 A 
ENDBRANCH   1   6
BRANCH   4  11
HETATM   11  C   UNL     1      65.005   6.887   6.568  1.00  0.00     0.277 C 
BRANCH  11  12
HETATM   12  N   UNL     1      65.339   8.263   6.196  1.00  0.00    -0.075 N 
HETATM   13  C   UNL     1      64.567   8.684   5.035  1.00  0.00     0.267 C 
HETATM   14  H   UNL     1      66.333   8.318   5.975  1.00  0.00     0.277 HD
HETATM   15  H   UNL     1      65.115   8.878   6.978  1.00  0.00     0.277 HD
ENDBRANCH  11  12
ENDBRANCH   4  11
TORSDOF 3
ENDMDL
MODEL 6
REMARK VINA RESULT:      -4.4     17.873     19.665
REMARK  3 active torsions:
REMARK  status: ('A' for Active; 'I' for Inactive)
REMARK    1  A    between atoms: C_1  and  C_3 
REMARK    2  A    between atoms: C_5  and  C_12 
REMARK    3  A    between atoms: N_11  and  C_12 
ROOT
HETATM    1  C   UNL     1      67.254   6.256   6.889  1.00  0.00     0.039 A 
HETATM    2  S   UNL     1      65.622   6.768   6.963  1.00  0.00    -0.090 SA
HETATM    3  C   UNL     1      67.904   6.828   5.812  1.00  0.00     0.023 A 
HETATM    4  C   UNL     1      65.792   7.794   5.603  1.00  0.00     0.009 A 
HETATM    5  C   UNL     1      67.067   7.718   5.076  1.00  0.00     0.017 A 
ENDROOT
BRANCH   1   6
HETATM    6  C   UNL     1      67.828   5.356   7.856  1.00  0.00     0.092 A 
HETATM    7  O   UNL     1      67.258   4.139   8.152  1.00  0.00    -0.321 OA
HETATM    8  C   UNL     1      68.045   3.520   9.067  1.00  0.00     0.142 A 
HETATM    9  C   UNL     1      69.124   4.306   9.382  1.00  0.00     0.027 A 
HETATM   10  C   UNL     1      68.983   5.485   8.613  1.00  0.00     0.040 A 
ENDBRANCH   1   6
BRANCH   4  11
HETATM   11  C   UNL     1      64.639   8.650   5.160  1.00  0.00     0.277 C 
BRANCH  11  12
HETATM   12  N   UNL     1      63.433   8.343   5.931  1.00  0.00    -0.075 N 
HETATM   13  C   UNL     1      62.409   7.761   5.073  1.00  0.00     0.267 C 
HETATM   14  H   UNL     1      63.073   9.202   6.346  1.00  0.00     0.277 HD
HETATM   15  H   UNL     1      63.672   7.670   6.658  1.00  0.00     0.277 HD
ENDBRANCH  11  12
ENDBRANCH   4  11
TORSDOF 3
ENDMDL
MODEL 7
REMARK VINA RESULT:      -4.1     20.139     23.280
REMARK  3 active torsions:
REMARK  status: ('A' for Active; 'I' for Inactive)
REMARK    1  A    between atoms: C_1  and  C_3 
REMARK    2  A    between atoms: C_5  and  C_12 
REMARK    3  A    between atoms: N_11  and  C_12 
ROOT
HETATM    1  C   UNL     1      63.273   8.206   3.768  1.00  0.00     0.039 A 
HETATM    2  S   UNL     1      63.903   8.223   5.360  1.00  0.00    -0.090 SA
HETATM    3  C   UNL     1      63.446   6.968   3.179  1.00  0.00     0.023 A 
HETATM    4  C   UNL     1      64.351   6.572   5.292  1.00  0.00     0.009 A 
HETATM    5  C   UNL     1      64.058   6.025   4.057  1.00  0.00     0.017 A 
ENDROOT
BRANCH   1   6
HETATM    6  C   UNL     1      62.643   9.357   3.172  1.00  0.00     0.092 A 
HETATM    7  O   UNL     1      62.375  10.499   3.892  1.00  0.00    -0.321 OA
HETATM    8  C   UNL     1      61.815  11.403   3.049  1.00  0.00     0.142 A 
HETATM    9  C   UNL     1      61.708  10.878   1.787  1.00  0.00     0.027 A 
HETATM   10  C   UNL     1      62.231   9.567   1.864  1.00  0.00     0.040 A 
ENDBRANCH   1   6
BRANCH   4  11
HETATM   11  C   UNL     1      64.942   5.905   6.502  1.00  0.00     0.277 C 
BRANCH  11  12
HETATM   12  N   UNL     1      65.317   6.893   7.514  1.00  0.00    -0.075 N 
HETATM   13  C   UNL     1      66.754   6.865   7.753  1.00  0.00     0.267 C 
HETATM   14  H   UNL     1      64.829   6.684   8.384  1.00  0.00     0.277 HD
HETATM   15  H   UNL     1      65.059   7.821   7.177  1.00  0.00     0.277 HD
ENDBRANCH  11  12
ENDBRANCH   4  11
TORSDOF 3
ENDMDL
MODEL 8
REMARK VINA RESULT:      -4.0     19.723     22.368
REMARK  3 active torsions:
REMARK  status: ('A' for Active; 'I' for Inactive)
REMARK    1  A    between atoms: C_1  and  C_3 
REMARK    2  A    between atoms: C_5  and  C_12 
REMARK    3  A    between atoms: N_11  and  C_12 
ROOT
HETATM    1  C   UNL     1      63.630   7.251   5.645  1.00  0.00     0.039 A 
HETATM    2  S   UNL     1      63.494   8.734   4.801  1.00  0.00    -0.090 SA
HETATM    3  C   UNL     1      62.523   6.453   5.426  1.00  0.00     0.023 A 
HETATM    4  C   UNL     1      61.996   8.295   4.096  1.00  0.00     0.009 A 
HETATM    5  C   UNL     1      61.587   7.048   4.530  1.00  0.00     0.017 A 
ENDROOT
BRANCH   1   6
HETATM    6  C   UNL     1      64.776   6.922   6.453  1.00  0.00     0.092 A 
HETATM    7  O   UNL     1      65.768   7.837   6.723  1.00  0.00    -0.321 OA
HETATM    8  C   UNL     1      66.681   7.239   7.528  1.00  0.00     0.142 A 
HETATM    9  C   UNL     1      66.311   5.946   7.795  1.00  0.00     0.027 A 
HETATM   10  C   UNL     1      65.095   5.739   7.103  1.00  0.00     0.040 A 
ENDBRANCH   1   6
BRANCH   4  11
HETATM   11  C   UNL     1      61.330   9.217   3.115  1.00  0.00     0.277 C 
BRANCH  11  12
HETATM   12  N   UNL     1      61.680  10.612   3.387  1.00  0.00    -0.075 N 
HETATM   13  C   UNL     1      61.808  11.362   2.145  1.00  0.00     0.267 C 
HETATM   14  H   UNL     1      62.566  10.643   3.890  1.00  0.00     0.277 HD
HETATM   15  H   UNL     1      60.938  11.032   3.948  1.00  0.00     0.277 HD
ENDBRANCH  11  12
ENDBRANCH   4  11
TORSDOF 3
ENDMDL
MODEL 9
REMARK VINA RESULT:      -3.9     35.172     36.022
REMARK  3 active torsions:
REMARK  status: ('A' for Active; 'I' for Inactive)
REMARK    1  A    between atoms: C_1  and  C_3 
REMARK    2  A    between atoms: C_5  and  C_12 
REMARK    3  A    between atoms: N_11  and  C_12 
ROOT
HETATM    1  C   UNL     1      48.677  17.126   2.764  1.00  0.00     0.039 A 
HETATM    2  S   UNL     1      48.110  18.740   2.692  1.00  0.00    -0.090 SA
HETATM    3  C   UNL     1      49.766  16.945   1.933  1.00  0.00     0.023 A 
HETATM    4  C   UNL     1      49.345  19.215   1.604  1.00  0.00     0.009 A 
HETATM    5  C   UNL     1      50.156  18.147   1.272  1.00  0.00     0.017 A 
ENDROOT
BRANCH   1   6
HETATM    6  C   UNL     1      48.069  16.130   3.608  1.00  0.00     0.092 A 
HETATM    7  O   UNL     1      46.711  16.083   3.825  1.00  0.00    -0.321 OA
HETATM    8  C   UNL     1      46.452  15.022   4.630  1.00  0.00     0.142 A 
HETATM    9  C   UNL     1      47.614  14.368   4.949  1.00  0.00     0.027 A 
HETATM   10  C   UNL     1      48.651  15.078   4.302  1.00  0.00     0.040 A 
ENDBRANCH   1   6
BRANCH   4  11
HETATM   11  C   UNL     1      49.452  20.651   1.172  1.00  0.00     0.277 C 
BRANCH  11  12
HETATM   12  N   UNL     1      50.273  21.419   2.109  1.00  0.00    -0.075 N 
HETATM   13  C   UNL     1      50.012  22.846   1.971  1.00  0.00     0.267 C 
HETATM   14  H   UNL     1      51.258  21.239   1.917  1.00  0.00     0.277 HD
HETATM   15  H   UNL     1      50.039  21.134   3.060  1.00  0.00     0.277 HD
ENDBRANCH  11  12
ENDBRANCH   4  11
TORSDOF 3
ENDMDL
