MODEL 1
REMARK VINA RESULT:      -5.5      0.000      0.000
REMARK  3 active torsions:
REMARK  status: ('A' for Active; 'I' for Inactive)
REMARK    1  A    between atoms: C_3  and  C_7 
REMARK    2  A    between atoms: C_6  and  C_12 
REMARK    3  A    between atoms: C_12  and  N_14 
ROOT
HETATM    1  N   UNL     1      77.414  10.180  16.726  1.00  0.00    -0.297 N 
ATOM      2  HN  UNL     1      77.518  11.018  16.154  1.00  0.00     0.187 HD
HETATM    3  C   UNL     1      77.278  10.107  18.055  1.00  0.00     0.067 A 
HETATM    4  N   UNL     1      77.383   8.896  16.313  1.00  0.00    -0.299 N 
HETATM    5  C   UNL     1      77.130   8.768  18.482  1.00  0.00     0.060 A 
HETATM    6  C   UNL     1      77.170   8.003  17.332  1.00  0.00     0.055 A 
HETATM    7  C   UNL     1      77.607   8.628  14.913  1.00  0.00     0.177 C 
ENDROOT
BRANCH   3   8
HETATM    8  C   UNL     1      77.300  11.328  18.928  1.00  0.00     0.033 A 
HETATM    9  S   UNL     1      76.244  12.661  18.752  1.00  0.00    -0.100 SA
HETATM   10  C   UNL     1      76.930  13.463  20.099  1.00  0.00     0.050 A 
HETATM   11  C   UNL     1      77.967  12.745  20.654  1.00  0.00     0.008 A 
HETATM   12  C   UNL     1      78.177  11.506  19.977  1.00  0.00     0.021 A 
ENDBRANCH   3   8
BRANCH   6  13
HETATM   13  C   UNL     1      77.049   6.537  17.157  1.00  0.00     0.288 C 
BRANCH  13  14
HETATM   14  N   UNL     1      75.919   6.040  17.926  1.00  0.00    -0.074 N 
HETATM   15  H   UNL     1      75.659   6.726  18.633  1.00  0.00     0.274 HD
HETATM   16  H   UNL     1      76.177   5.164  18.381  1.00  0.00     0.274 HD
HETATM   17  H   UNL     1      75.128   5.878  17.302  1.00  0.00     0.274 HD
ENDBRANCH  13  14
ENDBRANCH   6  13
TORSDOF 3
ENDMDL
MODEL 2
REMARK VINA RESULT:      -5.2      3.712      6.842
REMARK  3 active torsions:
REMARK  status: ('A' for Active; 'I' for Inactive)
REMARK    1  A    between atoms: C_3  and  C_7 
REMARK    2  A    between atoms: C_6  and  C_12 
REMARK    3  A    between atoms: C_12  and  N_14 
ROOT
HETATM    1  N   UNL     1      76.571   6.513  17.843  1.00  0.00    -0.297 N 
ATOM      2  HN  UNL     1      76.402   6.387  18.841  1.00  0.00     0.187 HD
HETATM    3  C   UNL     1      76.413   5.614  16.865  1.00  0.00     0.067 A 
HETATM    4  N   UNL     1      77.003   7.625  17.211  1.00  0.00    -0.299 N 
HETATM    5  C   UNL     1      76.720   6.169  15.603  1.00  0.00     0.060 A 
HETATM    6  C   UNL     1      77.069   7.483  15.848  1.00  0.00     0.055 A 
HETATM    7  C   UNL     1      77.363   8.767  18.017  1.00  0.00     0.177 C 
ENDROOT
BRANCH   3   8
HETATM    8  C   UNL     1      75.976   4.205  17.141  1.00  0.00     0.033 A 
HETATM    9  S   UNL     1      76.868   3.078  18.067  1.00  0.00    -0.100 SA
HETATM   10  C   UNL     1      75.663   1.877  17.883  1.00  0.00     0.050 A 
HETATM   11  C   UNL     1      74.615   2.313  17.103  1.00  0.00     0.008 A 
HETATM   12  C   UNL     1      74.795   3.662  16.677  1.00  0.00     0.021 A 
ENDBRANCH   3   8
BRANCH   6  13
HETATM   13  C   UNL     1      77.470   8.556  14.908  1.00  0.00     0.288 C 
BRANCH  13  14
HETATM   14  N   UNL     1      77.728   7.988  13.594  1.00  0.00    -0.074 N 
HETATM   15  H   UNL     1      78.294   8.637  13.047  1.00  0.00     0.274 HD
HETATM   16  H   UNL     1      76.842   7.824  13.116  1.00  0.00     0.274 HD
HETATM   17  H   UNL     1      78.228   7.105  13.697  1.00  0.00     0.274 HD
ENDBRANCH  13  14
ENDBRANCH   6  13
TORSDOF 3
ENDMDL
MODEL 3
REMARK VINA RESULT:      -5.2      2.514      5.572
REMARK  3 active torsions:
REMARK  status: ('A' for Active; 'I' for Inactive)
REMARK    1  A    between atoms: C_3  and  C_7 
REMARK    2  A    between atoms: C_6  and  C_12 
REMARK    3  A    between atoms: C_12  and  N_14 
ROOT
HETATM    1  N   UNL     1      78.237  10.478  19.622  1.00  0.00    -0.297 N 
ATOM      2  HN  UNL     1      78.812   9.718  19.985  1.00  0.00     0.187 HD
HETATM    3  C   UNL     1      77.426  10.455  18.558  1.00  0.00     0.067 A 
HETATM    4  N   UNL     1      78.122  11.733  20.104  1.00  0.00    -0.299 N 
HETATM    5  C   UNL     1      76.771  11.695  18.385  1.00  0.00     0.060 A 
HETATM    6  C   UNL     1      77.214  12.498  19.418  1.00  0.00     0.055 A 
HETATM    7  C   UNL     1      78.962  12.112  21.216  1.00  0.00     0.177 C 
ENDROOT
BRANCH   3   8
HETATM    8  C   UNL     1      77.283   9.238  17.691  1.00  0.00     0.033 A 
HETATM    9  S   UNL     1      77.633   9.194  16.019  1.00  0.00    -0.100 SA
HETATM   10  C   UNL     1      77.250   7.530  15.916  1.00  0.00     0.050 A 
HETATM   11  C   UNL     1      76.830   7.022  17.126  1.00  0.00     0.008 A 
HETATM   12  C   UNL     1      76.853   8.011  18.154  1.00  0.00     0.021 A 
ENDBRANCH   3   8
BRANCH   6  13
HETATM   13  C   UNL     1      76.861  13.896  19.758  1.00  0.00     0.288 C 
BRANCH  13  14
HETATM   14  N   UNL     1      77.355  14.794  18.726  1.00  0.00    -0.074 N 
HETATM   15  H   UNL     1      76.801  14.677  17.878  1.00  0.00     0.274 HD
HETATM   16  H   UNL     1      78.332  14.578  18.526  1.00  0.00     0.274 HD
HETATM   17  H   UNL     1      77.280  15.759  19.050  1.00  0.00     0.274 HD
ENDBRANCH  13  14
ENDBRANCH   6  13
TORSDOF 3
ENDMDL
MODEL 4
REMARK VINA RESULT:      -4.6      3.211      4.485
REMARK  3 active torsions:
REMARK  status: ('A' for Active; 'I' for Inactive)
REMARK    1  A    between atoms: C_3  and  C_7 
REMARK    2  A    between atoms: C_6  and  C_12 
REMARK    3  A    between atoms: C_12  and  N_14 
ROOT
HETATM    1  N   UNL     1      77.568  12.767  20.733  1.00  0.00    -0.297 N 
ATOM      2  HN  UNL     1      77.211  13.561  21.264  1.00  0.00     0.187 HD
HETATM    3  C   UNL     1      78.679  12.059  20.965  1.00  0.00     0.067 A 
HETATM    4  N   UNL     1      77.026  12.193  19.638  1.00  0.00    -0.299 N 
HETATM    5  C   UNL     1      78.825  11.012  20.028  1.00  0.00     0.060 A 
HETATM    6  C   UNL     1      77.725  11.099  19.196  1.00  0.00     0.055 A 
HETATM    7  C   UNL     1      75.847  12.800  19.068  1.00  0.00     0.177 C 
ENDROOT
BRANCH   3   8
HETATM    8  C   UNL     1      79.617  12.392  22.088  1.00  0.00     0.033 A 
HETATM    9  S   UNL     1      79.315  12.049  23.735  1.00  0.00    -0.100 SA
HETATM   10  C   UNL     1      80.827  12.693  24.213  1.00  0.00     0.050 A 
HETATM   11  C   UNL     1      81.536  13.191  23.142  1.00  0.00     0.008 A 
HETATM   12  C   UNL     1      80.837  13.013  21.912  1.00  0.00     0.021 A 
ENDBRANCH   3   8
BRANCH   6  13
HETATM   13  C   UNL     1      77.332  10.258  18.042  1.00  0.00     0.288 C 
BRANCH  13  14
HETATM   14  N   UNL     1      77.359   8.854  18.423  1.00  0.00    -0.074 N 
HETATM   15  H   UNL     1      76.686   8.692  19.171  1.00  0.00     0.274 HD
HETATM   16  H   UNL     1      78.294   8.609  18.747  1.00  0.00     0.274 HD
HETATM   17  H   UNL     1      77.116   8.278  17.617  1.00  0.00     0.274 HD
ENDBRANCH  13  14
ENDBRANCH   6  13
TORSDOF 3
ENDMDL
MODEL 5
REMARK VINA RESULT:      -4.6     16.614     18.303
REMARK  3 active torsions:
REMARK  status: ('A' for Active; 'I' for Inactive)
REMARK    1  A    between atoms: C_3  and  C_7 
REMARK    2  A    between atoms: C_6  and  C_12 
REMARK    3  A    between atoms: C_12  and  N_14 
ROOT
HETATM    1  N   UNL     1      64.243   7.446   6.318  1.00  0.00    -0.297 N 
ATOM      2  HN  UNL     1      63.336   7.302   6.762  1.00  0.00     0.187 HD
HETATM    3  C   UNL     1      64.553   8.319   5.353  1.00  0.00     0.067 A 
HETATM    4  N   UNL     1      65.400   6.800   6.572  1.00  0.00    -0.299 N 
HETATM    5  C   UNL     1      65.923   8.245   5.015  1.00  0.00     0.060 A 
HETATM    6  C   UNL     1      66.459   7.275   5.840  1.00  0.00     0.055 A 
HETATM    7  C   UNL     1      65.375   5.708   7.516  1.00  0.00     0.177 C 
ENDROOT
BRANCH   3   8
HETATM    8  C   UNL     1      63.528   9.227   4.740  1.00  0.00     0.033 A 
HETATM    9  S   UNL     1      62.628   8.860   3.334  1.00  0.00    -0.100 SA
HETATM   10  C   UNL     1      61.763  10.334   3.424  1.00  0.00     0.050 A 
HETATM   11  C   UNL     1      62.174  11.108   4.487  1.00  0.00     0.008 A 
HETATM   12  C   UNL     1      63.193  10.465   5.250  1.00  0.00     0.021 A 
ENDBRANCH   3   8
BRANCH   6  13
HETATM   13  C   UNL     1      67.850   6.777   5.950  1.00  0.00     0.288 C 
BRANCH  13  14
HETATM   14  N   UNL     1      68.767   7.747   5.372  1.00  0.00    -0.074 N 
HETATM   15  H   UNL     1      68.245   8.415   4.806  1.00  0.00     0.274 HD
HETATM   16  H   UNL     1      69.447   7.262   4.785  1.00  0.00     0.274 HD
HETATM   17  H   UNL     1      69.254   8.242   6.119  1.00  0.00     0.274 HD
ENDBRANCH  13  14
ENDBRANCH   6  13
TORSDOF 3
ENDMDL
MODEL 6
REMARK VINA RESULT:      -4.5     17.170     18.937
REMARK  3 active torsions:
REMARK  status: ('A' for Active; 'I' for Inactive)
REMARK    1  A    between atoms: C_3  and  C_7 
REMARK    2  A    between atoms: C_6  and  C_12 
REMARK    3  A    between atoms: C_12  and  N_14 
ROOT
HETATM    1  N   UNL     1      64.135   9.565   5.575  1.00  0.00    -0.297 N 
ATOM      2  HN  UNL     1      64.520  10.029   6.398  1.00  0.00     0.187 HD
HETATM    3  C   UNL     1      64.538   8.418   5.017  1.00  0.00     0.067 A 
HETATM    4  N   UNL     1      63.105   9.971   4.804  1.00  0.00    -0.299 N 
HETATM    5  C   UNL     1      63.737   8.081   3.903  1.00  0.00     0.060 A 
HETATM    6  C   UNL     1      62.795   9.086   3.802  1.00  0.00     0.055 A 
HETATM    7  C   UNL     1      62.504  11.251   5.092  1.00  0.00     0.177 C 
ENDROOT
BRANCH   3   8
HETATM    8  C   UNL     1      65.706   7.640   5.548  1.00  0.00     0.033 A 
HETATM    9  S   UNL     1      65.690   6.741   7.002  1.00  0.00    -0.100 SA
HETATM   10  C   UNL     1      67.301   6.214   6.770  1.00  0.00     0.050 A 
HETATM   11  C   UNL     1      67.855   6.739   5.623  1.00  0.00     0.008 A 
HETATM   12  C   UNL     1      66.929   7.561   4.914  1.00  0.00     0.021 A 
ENDBRANCH   3   8
BRANCH   6  13
HETATM   13  C   UNL     1      61.685   9.261   2.837  1.00  0.00     0.288 C 
BRANCH  13  14
HETATM   14  N   UNL     1      60.464   8.686   3.380  1.00  0.00    -0.074 N 
HETATM   15  H   UNL     1      60.253   9.120   4.278  1.00  0.00     0.274 HD
HETATM   16  H   UNL     1      60.590   7.682   3.509  1.00  0.00     0.274 HD
HETATM   17  H   UNL     1      59.693   8.851   2.733  1.00  0.00     0.274 HD
ENDBRANCH  13  14
ENDBRANCH   6  13
TORSDOF 3
ENDMDL
MODEL 7
REMARK VINA RESULT:      -4.4      3.045      6.088
REMARK  3 active torsions:
REMARK  status: ('A' for Active; 'I' for Inactive)
REMARK    1  A    between atoms: C_3  and  C_7 
REMARK    2  A    between atoms: C_6  and  C_12 
REMARK    3  A    between atoms: C_12  and  N_14 
ROOT
HETATM    1  N   UNL     1      76.846   7.657  17.897  1.00  0.00    -0.297 N 
ATOM      2  HN  UNL     1      76.548   7.499  18.860  1.00  0.00     0.187 HD
HETATM    3  C   UNL     1      76.784   6.804  16.869  1.00  0.00     0.067 A 
HETATM    4  N   UNL     1      77.391   8.775  17.374  1.00  0.00    -0.299 N 
HETATM    5  C   UNL     1      77.266   7.396  15.681  1.00  0.00     0.060 A 
HETATM    6  C   UNL     1      77.625   8.685  16.025  1.00  0.00     0.055 A 
HETATM    7  C   UNL     1      77.684   9.870  18.268  1.00  0.00     0.177 C 
ENDROOT
BRANCH   3   8
HETATM    8  C   UNL     1      76.268   5.403  17.026  1.00  0.00     0.033 A 
HETATM    9  S   UNL     1      74.795   4.835  16.371  1.00  0.00    -0.100 SA
HETATM   10  C   UNL     1      75.060   3.257  16.975  1.00  0.00     0.050 A 
HETATM   11  C   UNL     1      76.233   3.169  17.692  1.00  0.00     0.008 A 
HETATM   12  C   UNL     1      76.934   4.412  17.717  1.00  0.00     0.021 A 
ENDBRANCH   3   8
BRANCH   6  13
HETATM   13  C   UNL     1      78.177   9.777  15.191  1.00  0.00     0.288 C 
BRANCH  13  14
HETATM   14  N   UNL     1      77.169  10.808  14.998  1.00  0.00    -0.074 N 
HETATM   15  H   UNL     1      76.280  10.492  15.384  1.00  0.00     0.274 HD
HETATM   16  H   UNL     1      77.060  10.993  14.000  1.00  0.00     0.274 HD
HETATM   17  H   UNL     1      77.461  11.663  15.472  1.00  0.00     0.274 HD
ENDBRANCH  13  14
ENDBRANCH   6  13
TORSDOF 3
ENDMDL
MODEL 8
REMARK VINA RESULT:      -4.4     17.749     19.564
REMARK  3 active torsions:
REMARK  status: ('A' for Active; 'I' for Inactive)
REMARK    1  A    between atoms: C_3  and  C_7 
REMARK    2  A    between atoms: C_6  and  C_12 
REMARK    3  A    between atoms: C_12  and  N_14 
ROOT
HETATM    1  N   UNL     1      63.287   6.833   4.778  1.00  0.00    -0.297 N 
ATOM      2  HN  UNL     1      62.489   6.299   4.433  1.00  0.00     0.187 HD
HETATM    3  C   UNL     1      63.639   8.081   4.452  1.00  0.00     0.067 A 
HETATM    4  N   UNL     1      64.223   6.439   5.666  1.00  0.00    -0.299 N 
HETATM    5  C   UNL     1      64.791   8.490   5.161  1.00  0.00     0.060 A 
HETATM    6  C   UNL     1      65.133   7.421   5.966  1.00  0.00     0.055 A 
HETATM    7  C   UNL     1      64.177   5.078   6.143  1.00  0.00     0.177 C 
ENDROOT
BRANCH   3   8
HETATM    8  C   UNL     1      62.875   8.889   3.445  1.00  0.00     0.033 A 
HETATM    9  S   UNL     1      62.176  10.417   3.758  1.00  0.00    -0.100 SA
HETATM   10  C   UNL     1      61.611  10.561   2.150  1.00  0.00     0.050 A 
HETATM   11  C   UNL     1      61.919   9.451   1.394  1.00  0.00     0.008 A 
HETATM   12  C   UNL     1      62.654   8.485   2.144  1.00  0.00     0.021 A 
ENDBRANCH   3   8
BRANCH   6  13
HETATM   13  C   UNL     1      66.242   7.274   6.938  1.00  0.00     0.288 C 
BRANCH  13  14
HETATM   14  N   UNL     1      66.923   8.548   7.105  1.00  0.00    -0.074 N 
HETATM   15  H   UNL     1      67.927   8.415   6.990  1.00  0.00     0.274 HD
HETATM   16  H   UNL     1      66.733   8.915   8.037  1.00  0.00     0.274 HD
HETATM   17  H   UNL     1      66.585   9.209   6.404  1.00  0.00     0.274 HD
ENDBRANCH  13  14
ENDBRANCH   6  13
TORSDOF 3
ENDMDL
MODEL 9
REMARK VINA RESULT:      -4.3     13.787     15.257
REMARK  3 active torsions:
REMARK  status: ('A' for Active; 'I' for Inactive)
REMARK    1  A    between atoms: C_3  and  C_7 
REMARK    2  A    between atoms: C_6  and  C_12 
REMARK    3  A    between atoms: C_12  and  N_14 
ROOT
HETATM    1  N   UNL     1      68.178   3.558   6.440  1.00  0.00    -0.297 N 
ATOM      2  HN  UNL     1      67.863   3.438   5.478  1.00  0.00     0.187 HD
HETATM    3  C   UNL     1      68.108   4.660   7.195  1.00  0.00     0.067 A 
HETATM    4  N   UNL     1      68.761   2.640   7.240  1.00  0.00    -0.299 N 
HETATM    5  C   UNL     1      68.622   4.429   8.490  1.00  0.00     0.060 A 
HETATM    6  C   UNL     1      69.011   3.103   8.506  1.00  0.00     0.055 A 
HETATM    7  C   UNL     1      69.071   1.348   6.675  1.00  0.00     0.177 C 
ENDROOT
BRANCH   3   8
HETATM    8  C   UNL     1      67.552   5.952   6.670  1.00  0.00     0.033 A 
HETATM    9  S   UNL     1      66.619   7.049   7.591  1.00  0.00    -0.100 SA
HETATM   10  C   UNL     1      66.494   8.142   6.280  1.00  0.00     0.050 A 
HETATM   11  C   UNL     1      67.123   7.667   5.151  1.00  0.00     0.008 A 
HETATM   12  C   UNL     1      67.739   6.400   5.378  1.00  0.00     0.021 A 
ENDBRANCH   3   8
BRANCH   6  13
HETATM   13  C   UNL     1      69.604   2.295   9.597  1.00  0.00     0.288 C 
BRANCH  13  14
HETATM   14  N   UNL     1      69.841   3.136  10.760  1.00  0.00    -0.074 N 
HETATM   15  H   UNL     1      70.752   3.586  10.676  1.00  0.00     0.274 HD
HETATM   16  H   UNL     1      69.822   2.562  11.603  1.00  0.00     0.274 HD
HETATM   17  H   UNL     1      69.114   3.850  10.818  1.00  0.00     0.274 HD
ENDBRANCH  13  14
ENDBRANCH   6  13
TORSDOF 3
ENDMDL
