MODEL 1
REMARK VINA RESULT:      -5.8      0.000      0.000
REMARK  2 active torsions:
REMARK  status: ('A' for Active; 'I' for Inactive)
REMARK    1  A    between atoms: C_6  and  C_13 
REMARK    2  A    between atoms: C_13  and  O_14 
ROOT
HETATM    1  C   UNL     1      77.196   9.751  17.693  1.00  0.00     0.069 A 
HETATM    2  N   UNL     1      77.410   9.502  16.355  1.00  0.00    -0.295 N 
HETATM    3  N   UNL     1      77.375   8.186  16.040  1.00  0.00    -0.300 N 
ATOM      4  HN  UNL     1      77.478   7.759  15.120  1.00  0.00     0.187 HD
HETATM    5  C   UNL     1      77.068   8.499  18.269  1.00  0.00     0.061 A 
HETATM    6  C   UNL     1      77.174   7.573  17.214  1.00  0.00     0.051 A 
HETATM    7  C   UNL     1      77.142  11.038  18.336  1.00  0.00     0.033 A 
HETATM    8  S   UNL     1      77.743  11.248  19.935  1.00  0.00    -0.100 SA
HETATM    9  C   UNL     1      76.615  12.222  17.855  1.00  0.00     0.021 A 
HETATM   10  C   UNL     1      77.333  12.905  19.954  1.00  0.00     0.050 A 
HETATM   11  C   UNL     1      76.745  13.303  18.777  1.00  0.00     0.008 A 
HETATM   12  C   UNL     1      77.695  10.427  15.283  1.00  0.00     0.178 C 
ENDROOT
BRANCH   6  13
HETATM   13  C   UNL     1      77.091   6.083  17.280  1.00  0.00     0.222 C 
BRANCH  13  14
HETATM   14  O   UNL     1      76.308   5.643  18.392  1.00  0.00    -0.395 OA
HETATM   15  H   UNL     1      75.623   6.301  18.587  1.00  0.00     0.209 HD
ENDBRANCH  13  14
ENDBRANCH   6  13
TORSDOF 2
ENDMDL
MODEL 2
REMARK VINA RESULT:      -5.0      5.629      8.915
REMARK  2 active torsions:
REMARK  status: ('A' for Active; 'I' for Inactive)
REMARK    1  A    between atoms: C_6  and  C_13 
REMARK    2  A    between atoms: C_13  and  O_14 
ROOT
HETATM    1  C   UNL     1      75.815   2.604  17.499  1.00  0.00     0.069 A 
HETATM    2  N   UNL     1      76.939   2.846  18.257  1.00  0.00    -0.295 N 
HETATM    3  N   UNL     1      77.351   4.134  18.212  1.00  0.00    -0.300 N 
ATOM      4  HN  UNL     1      78.137   4.559  18.706  1.00  0.00     0.187 HD
HETATM    5  C   UNL     1      75.529   3.815  16.894  1.00  0.00     0.061 A 
HETATM    6  C   UNL     1      76.492   4.725  17.371  1.00  0.00     0.051 A 
HETATM    7  C   UNL     1      75.116   1.353  17.362  1.00  0.00     0.033 A 
HETATM    8  S   UNL     1      74.383   0.913  15.868  1.00  0.00    -0.100 SA
HETATM    9  C   UNL     1      74.890   0.381  18.319  1.00  0.00     0.021 A 
HETATM   10  C   UNL     1      73.812  -0.568  16.496  1.00  0.00     0.050 A 
HETATM   11  C   UNL     1      74.159  -0.736  17.815  1.00  0.00     0.008 A 
HETATM   12  C   UNL     1      77.735   1.929  19.039  1.00  0.00     0.178 C 
ENDROOT
BRANCH   6  13
HETATM   13  C   UNL     1      76.633   6.176  17.048  1.00  0.00     0.222 C 
BRANCH  13  14
HETATM   14  O   UNL     1      76.705   6.980  18.228  1.00  0.00    -0.395 OA
HETATM   15  H   UNL     1      75.958   7.598  18.244  1.00  0.00     0.209 HD
ENDBRANCH  13  14
ENDBRANCH   6  13
TORSDOF 2
ENDMDL
MODEL 3
REMARK VINA RESULT:      -5.0     19.554     20.757
REMARK  2 active torsions:
REMARK  status: ('A' for Active; 'I' for Inactive)
REMARK    1  A    between atoms: C_6  and  C_13 
REMARK    2  A    between atoms: C_13  and  O_14 
ROOT
HETATM    1  C   UNL     1      63.016   8.622   3.402  1.00  0.00     0.069 A 
HETATM    2  N   UNL     1      63.998   8.255   4.295  1.00  0.00    -0.295 N 
HETATM    3  N   UNL     1      64.125   9.111   5.336  1.00  0.00    -0.300 N 
ATOM      4  HN  UNL     1      64.759   9.040   6.132  1.00  0.00     0.187 HD
HETATM    5  C   UNL     1      62.524   9.820   3.889  1.00  0.00     0.061 A 
HETATM    6  C   UNL     1      63.228  10.072   5.082  1.00  0.00     0.051 A 
HETATM    7  C   UNL     1      62.616   7.912   2.215  1.00  0.00     0.033 A 
HETATM    8  S   UNL     1      62.115   8.764   0.806  1.00  0.00    -0.100 SA
HETATM    9  C   UNL     1      62.530   6.546   2.013  1.00  0.00     0.021 A 
HETATM   10  C   UNL     1      61.829   7.320  -0.060  1.00  0.00     0.050 A 
HETATM   11  C   UNL     1      62.099   6.205   0.697  1.00  0.00     0.008 A 
HETATM   12  C   UNL     1      64.909   7.136   4.250  1.00  0.00     0.178 C 
ENDROOT
BRANCH   6  13
HETATM   13  C   UNL     1      63.077  11.227   6.018  1.00  0.00     0.222 C 
BRANCH  13  14
HETATM   14  O   UNL     1      64.338  11.663   6.532  1.00  0.00    -0.395 OA
HETATM   15  H   UNL     1      64.913  10.894   6.674  1.00  0.00     0.209 HD
ENDBRANCH  13  14
ENDBRANCH   6  13
TORSDOF 2
ENDMDL
MODEL 4
REMARK VINA RESULT:      -4.9     18.899     19.972
REMARK  2 active torsions:
REMARK  status: ('A' for Active; 'I' for Inactive)
REMARK    1  A    between atoms: C_6  and  C_13 
REMARK    2  A    between atoms: C_13  and  O_14 
ROOT
HETATM    1  C   UNL     1      63.529   8.406   3.834  1.00  0.00     0.069 A 
HETATM    2  N   UNL     1      63.483   9.448   4.733  1.00  0.00    -0.295 N 
HETATM    3  N   UNL     1      64.433   9.373   5.694  1.00  0.00    -0.300 N 
ATOM      4  HN  UNL     1      64.615  10.035   6.448  1.00  0.00     0.187 HD
HETATM    5  C   UNL     1      64.548   7.589   4.292  1.00  0.00     0.061 A 
HETATM    6  C   UNL     1      65.079   8.230   5.428  1.00  0.00     0.051 A 
HETATM    7  C   UNL     1      62.680   8.213   2.688  1.00  0.00     0.033 A 
HETATM    8  S   UNL     1      62.203   6.632   2.202  1.00  0.00    -0.100 SA
HETATM    9  C   UNL     1      62.169   9.163   1.822  1.00  0.00     0.021 A 
HETATM   10  C   UNL     1      61.299   7.227   0.881  1.00  0.00     0.050 A 
HETATM   11  C   UNL     1      61.355   8.598   0.795  1.00  0.00     0.008 A 
HETATM   12  C   UNL     1      62.560  10.557   4.807  1.00  0.00     0.178 C 
ENDROOT
BRANCH   6  13
HETATM   13  C   UNL     1      66.209   7.785   6.297  1.00  0.00     0.222 C 
BRANCH  13  14
HETATM   14  O   UNL     1      66.830   8.885   6.967  1.00  0.00    -0.395 OA
HETATM   15  H   UNL     1      67.562   9.222   6.427  1.00  0.00     0.209 HD
ENDBRANCH  13  14
ENDBRANCH   6  13
TORSDOF 2
ENDMDL
MODEL 5
REMARK VINA RESULT:      -4.8      2.262      3.248
REMARK  2 active torsions:
REMARK  status: ('A' for Active; 'I' for Inactive)
REMARK    1  A    between atoms: C_6  and  C_13 
REMARK    2  A    between atoms: C_13  and  O_14 
ROOT
HETATM    1  C   UNL     1      78.054  11.216  19.651  1.00  0.00     0.069 A 
HETATM    2  N   UNL     1      77.133  11.743  18.775  1.00  0.00    -0.295 N 
HETATM    3  N   UNL     1      76.713  10.860  17.838  1.00  0.00    -0.300 N 
ATOM      4  HN  UNL     1      76.021  11.006  17.103  1.00  0.00     0.187 HD
HETATM    5  C   UNL     1      78.268   9.923  19.205  1.00  0.00     0.061 A 
HETATM    6  C   UNL     1      77.415   9.749  18.098  1.00  0.00     0.051 A 
HETATM    7  C   UNL     1      78.666  11.885  20.770  1.00  0.00     0.033 A 
HETATM    8  S   UNL     1      80.297  11.553  21.209  1.00  0.00    -0.100 SA
HETATM    9  C   UNL     1      78.104  12.800  21.641  1.00  0.00     0.021 A 
HETATM   10  C   UNL     1      80.249  12.649  22.517  1.00  0.00     0.050 A 
HETATM   11  C   UNL     1      79.021  13.258  22.633  1.00  0.00     0.008 A 
HETATM   12  C   UNL     1      76.599  13.083  18.698  1.00  0.00     0.178 C 
ENDROOT
BRANCH   6  13
HETATM   13  C   UNL     1      77.237   8.532  17.251  1.00  0.00     0.222 C 
BRANCH  13  14
HETATM   14  O   UNL     1      76.902   7.383  18.034  1.00  0.00    -0.395 OA
HETATM   15  H   UNL     1      76.371   7.656  18.798  1.00  0.00     0.209 HD
ENDBRANCH  13  14
ENDBRANCH   6  13
TORSDOF 2
ENDMDL
MODEL 6
REMARK VINA RESULT:      -4.7     13.661     14.893
REMARK  2 active torsions:
REMARK  status: ('A' for Active; 'I' for Inactive)
REMARK    1  A    between atoms: C_6  and  C_13 
REMARK    2  A    between atoms: C_13  and  O_14 
ROOT
HETATM    1  C   UNL     1      68.273   4.552   7.562  1.00  0.00     0.069 A 
HETATM    2  N   UNL     1      68.182   5.047   8.844  1.00  0.00    -0.295 N 
HETATM    3  N   UNL     1      68.732   4.233   9.775  1.00  0.00    -0.300 N 
ATOM      4  HN  UNL     1      68.809   4.392  10.780  1.00  0.00     0.187 HD
HETATM    5  C   UNL     1      68.880   3.316   7.702  1.00  0.00     0.061 A 
HETATM    6  C   UNL     1      69.151   3.170   9.076  1.00  0.00     0.051 A 
HETATM    7  C   UNL     1      67.814   5.187   6.354  1.00  0.00     0.033 A 
HETATM    8  S   UNL     1      67.171   4.255   5.059  1.00  0.00    -0.100 SA
HETATM    9  C   UNL     1      67.837   6.530   6.022  1.00  0.00     0.021 A 
HETATM   10  C   UNL     1      66.897   5.638   4.096  1.00  0.00     0.050 A 
HETATM   11  C   UNL     1      67.288   6.793   4.732  1.00  0.00     0.008 A 
HETATM   12  C   UNL     1      67.561   6.262   9.317  1.00  0.00     0.178 C 
ENDROOT
BRANCH   6  13
HETATM   13  C   UNL     1      69.813   2.026   9.771  1.00  0.00     0.222 C 
BRANCH  13  14
HETATM   14  O   UNL     1      69.714   2.138  11.193  1.00  0.00    -0.395 OA
HETATM   15  H   UNL     1      69.583   1.258  11.579  1.00  0.00     0.209 HD
ENDBRANCH  13  14
ENDBRANCH   6  13
TORSDOF 2
ENDMDL
MODEL 7
REMARK VINA RESULT:      -4.5     14.952     16.020
REMARK  2 active torsions:
REMARK  status: ('A' for Active; 'I' for Inactive)
REMARK    1  A    between atoms: C_6  and  C_13 
REMARK    2  A    between atoms: C_13  and  O_14 
ROOT
HETATM    1  C   UNL     1      66.574   5.862   7.129  1.00  0.00     0.069 A 
HETATM    2  N   UNL     1      66.711   6.865   6.196  1.00  0.00    -0.295 N 
HETATM    3  N   UNL     1      65.531   7.383   5.784  1.00  0.00    -0.300 N 
ATOM      4  HN  UNL     1      65.377   8.146   5.125  1.00  0.00     0.187 HD
HETATM    5  C   UNL     1      65.207   5.702   7.278  1.00  0.00     0.061 A 
HETATM    6  C   UNL     1      64.611   6.665   6.441  1.00  0.00     0.051 A 
HETATM    7  C   UNL     1      67.631   5.135   7.781  1.00  0.00     0.033 A 
HETATM    8  S   UNL     1      67.443   3.469   8.173  1.00  0.00    -0.100 SA
HETATM    9  C   UNL     1      68.862   5.599   8.209  1.00  0.00     0.021 A 
HETATM   10  C   UNL     1      69.000   3.377   8.866  1.00  0.00     0.050 A 
HETATM   11  C   UNL     1      69.660   4.582   8.813  1.00  0.00     0.008 A 
HETATM   12  C   UNL     1      67.909   7.396   5.588  1.00  0.00     0.178 C 
ENDROOT
BRANCH   6  13
HETATM   13  C   UNL     1      63.156   6.936   6.233  1.00  0.00     0.222 C 
BRANCH  13  14
HETATM   14  O   UNL     1      62.679   7.970   7.098  1.00  0.00    -0.395 OA
HETATM   15  H   UNL     1      62.247   8.660   6.570  1.00  0.00     0.209 HD
ENDBRANCH  13  14
ENDBRANCH   6  13
TORSDOF 2
ENDMDL
MODEL 8
REMARK VINA RESULT:      -4.4     15.666     16.600
REMARK  2 active torsions:
REMARK  status: ('A' for Active; 'I' for Inactive)
REMARK    1  A    between atoms: C_6  and  C_13 
REMARK    2  A    between atoms: C_13  and  O_14 
ROOT
HETATM    1  C   UNL     1      65.474   6.220   7.081  1.00  0.00     0.069 A 
HETATM    2  N   UNL     1      65.322   4.893   7.414  1.00  0.00    -0.295 N 
HETATM    3  N   UNL     1      66.304   4.423   8.218  1.00  0.00    -0.300 N 
ATOM      4  HN  UNL     1      66.396   3.489   8.617  1.00  0.00     0.187 HD
HETATM    5  C   UNL     1      66.664   6.601   7.677  1.00  0.00     0.061 A 
HETATM    6  C   UNL     1      67.129   5.468   8.371  1.00  0.00     0.051 A 
HETATM    7  C   UNL     1      64.589   7.016   6.271  1.00  0.00     0.033 A 
HETATM    8  S   UNL     1      65.210   8.238   5.229  1.00  0.00    -0.100 SA
HETATM    9  C   UNL     1      63.208   6.982   6.211  1.00  0.00     0.021 A 
HETATM   10  C   UNL     1      63.651   8.676   4.687  1.00  0.00     0.050 A 
HETATM   11  C   UNL     1      62.668   7.921   5.282  1.00  0.00     0.008 A 
HETATM   12  C   UNL     1      64.307   3.953   7.000  1.00  0.00     0.178 C 
ENDROOT
BRANCH   6  13
HETATM   13  C   UNL     1      68.365   5.334   9.200  1.00  0.00     0.222 C 
BRANCH  13  14
HETATM   14  O   UNL     1      69.509   5.886   8.542  1.00  0.00    -0.395 OA
HETATM   15  H   UNL     1      69.417   5.772   7.583  1.00  0.00     0.209 HD
ENDBRANCH  13  14
ENDBRANCH   6  13
TORSDOF 2
ENDMDL
MODEL 9
REMARK VINA RESULT:      -4.4      7.329     10.730
REMARK  2 active torsions:
REMARK  status: ('A' for Active; 'I' for Inactive)
REMARK    1  A    between atoms: C_6  and  C_13 
REMARK    2  A    between atoms: C_13  and  O_14 
ROOT
HETATM    1  C   UNL     1      77.441   0.394  18.147  1.00  0.00     0.069 A 
HETATM    2  N   UNL     1      78.082   1.077  19.155  1.00  0.00    -0.295 N 
HETATM    3  N   UNL     1      77.853   2.411  19.132  1.00  0.00    -0.300 N 
ATOM      4  HN  UNL     1      78.194   3.117  19.785  1.00  0.00     0.187 HD
HETATM    5  C   UNL     1      76.803   1.373  17.405  1.00  0.00     0.061 A 
HETATM    6  C   UNL     1      77.077   2.592  18.055  1.00  0.00     0.051 A 
HETATM    7  C   UNL     1      77.458  -1.027  17.917  1.00  0.00     0.033 A 
HETATM    8  S   UNL     1      77.433  -1.661  16.317  1.00  0.00    -0.100 SA
HETATM    9  C   UNL     1      77.458  -2.052  18.846  1.00  0.00     0.021 A 
HETATM   10  C   UNL     1      77.461  -3.275  16.872  1.00  0.00     0.050 A 
HETATM   11  C   UNL     1      77.483  -3.346  18.245  1.00  0.00     0.008 A 
HETATM   12  C   UNL     1      78.971   0.581  20.180  1.00  0.00     0.178 C 
ENDROOT
BRANCH   6  13
HETATM   13  C   UNL     1      76.617   3.963  17.682  1.00  0.00     0.222 C 
BRANCH  13  14
HETATM   14  O   UNL     1      77.275   4.973  18.450  1.00  0.00    -0.395 OA
HETATM   15  H   UNL     1      77.943   5.414  17.901  1.00  0.00     0.209 HD
ENDBRANCH  13  14
ENDBRANCH   6  13
TORSDOF 2
ENDMDL
