MODEL 1
REMARK VINA RESULT:      -5.1      0.000      0.000
REMARK  0 active torsions:
REMARK  status: ('A' for Active; 'I' for Inactive)
ROOT
HETATM    1  C   UNL     1      77.429   8.652  16.471  1.00  0.00     0.130 A 
HETATM    2  C   UNL     1      77.311   7.907  15.318  1.00  0.00     0.121 A 
HETATM    3  C   UNL     1      77.076   7.917  17.626  1.00  0.00     0.110 A 
HETATM    4  S   UNL     1      76.849   6.290  15.672  1.00  0.00    -0.085 SA
HETATM    5  C   UNL     1      76.756   6.611  17.355  1.00  0.00     0.090 A 
HETATM    6  C   UNL     1      77.509   8.381  13.987  1.00  0.00     0.110 C 
HETATM    7  N   UNL     1      77.638   8.760  12.897  1.00  0.00    -0.191 NA
HETATM    8  O   UNL     1      77.831   9.944  16.483  1.00  0.00    -0.344 OA
HETATM    9  O   UNL     1      77.031   8.421  18.880  1.00  0.00    -0.346 OA
HETATM   10  C   UNL     1      77.505  10.577  17.729  1.00  0.00     0.202 C 
HETATM   11  C   UNL     1      77.719   9.678  18.958  1.00  0.00     0.202 C 
ENDROOT
TORSDOF 0
ENDMDL
MODEL 2
REMARK VINA RESULT:      -4.4      5.080      6.316
REMARK  0 active torsions:
REMARK  status: ('A' for Active; 'I' for Inactive)
ROOT
HETATM    1  C   UNL     1      76.639   3.322  17.945  1.00  0.00     0.130 A 
HETATM    2  C   UNL     1      76.967   2.021  18.261  1.00  0.00     0.121 A 
HETATM    3  C   UNL     1      75.550   3.400  17.047  1.00  0.00     0.110 A 
HETATM    4  S   UNL     1      75.882   0.913  17.520  1.00  0.00    -0.085 SA
HETATM    5  C   UNL     1      75.019   2.174  16.738  1.00  0.00     0.090 A 
HETATM    6  C   UNL     1      78.066   1.604  19.070  1.00  0.00     0.110 C 
HETATM    7  N   UNL     1      78.973   1.247  19.700  1.00  0.00    -0.191 NA
HETATM    8  O   UNL     1      77.299   4.395  18.439  1.00  0.00    -0.344 OA
HETATM    9  O   UNL     1      75.067   4.545  16.515  1.00  0.00    -0.346 OA
HETATM   10  C   UNL     1      77.016   5.575  17.674  1.00  0.00     0.202 C 
HETATM   11  C   UNL     1      75.547   5.692  17.232  1.00  0.00     0.202 C 
ENDROOT
TORSDOF 0
ENDMDL
MODEL 3
REMARK VINA RESULT:      -4.4     15.697     16.637
REMARK  0 active torsions:
REMARK  status: ('A' for Active; 'I' for Inactive)
ROOT
HETATM    1  C   UNL     1      71.245  23.076  13.340  1.00  0.00     0.130 A 
HETATM    2  C   UNL     1      71.266  23.926  14.425  1.00  0.00     0.121 A 
HETATM    3  C   UNL     1      72.543  22.693  12.930  1.00  0.00     0.110 A 
HETATM    4  S   UNL     1      72.873  24.178  14.981  1.00  0.00    -0.085 SA
HETATM    5  C   UNL     1      73.531  23.196  13.736  1.00  0.00     0.090 A 
HETATM    6  C   UNL     1      70.134  24.556  15.022  1.00  0.00     0.110 C 
HETATM    7  N   UNL     1      69.225  25.099  15.499  1.00  0.00    -0.191 NA
HETATM    8  O   UNL     1      70.103  22.668  12.739  1.00  0.00    -0.344 OA
HETATM    9  O   UNL     1      72.818  21.925  11.852  1.00  0.00    -0.346 OA
HETATM   10  C   UNL     1      70.370  22.118  11.440  1.00  0.00     0.202 C 
HETATM   11  C   UNL     1      71.640  21.254  11.380  1.00  0.00     0.202 C 
ENDROOT
TORSDOF 0
ENDMDL
MODEL 4
REMARK VINA RESULT:      -4.3     24.569     24.930
REMARK  0 active torsions:
REMARK  status: ('A' for Active; 'I' for Inactive)
ROOT
HETATM    1  C   UNL     1      52.725   7.616  15.238  1.00  0.00     0.130 A 
HETATM    2  C   UNL     1      52.251   6.363  14.916  1.00  0.00     0.121 A 
HETATM    3  C   UNL     1      51.864   8.308  16.120  1.00  0.00     0.110 A 
HETATM    4  S   UNL     1      50.797   6.016  15.765  1.00  0.00    -0.085 SA
HETATM    5  C   UNL     1      50.783   7.562  16.511  1.00  0.00     0.090 A 
HETATM    6  C   UNL     1      52.840   5.453  13.988  1.00  0.00     0.110 C 
HETATM    7  N   UNL     1      53.291   4.715  13.214  1.00  0.00    -0.191 NA
HETATM    8  O   UNL     1      53.884   8.119  14.751  1.00  0.00    -0.344 OA
HETATM    9  O   UNL     1      52.049   9.580  16.541  1.00  0.00    -0.346 OA
HETATM   10  C   UNL     1      53.946   9.541  14.930  1.00  0.00     0.202 C 
HETATM   11  C   UNL     1      53.388  10.023  16.279  1.00  0.00     0.202 C 
ENDROOT
TORSDOF 0
ENDMDL
MODEL 5
REMARK VINA RESULT:      -4.3     15.920     17.100
REMARK  0 active torsions:
REMARK  status: ('A' for Active; 'I' for Inactive)
ROOT
HETATM    1  C   UNL     1      65.052   8.404   5.267  1.00  0.00     0.130 A 
HETATM    2  C   UNL     1      63.886   9.029   4.881  1.00  0.00     0.121 A 
HETATM    3  C   UNL     1      65.278   7.201   4.559  1.00  0.00     0.110 A 
HETATM    4  S   UNL     1      63.125   8.179   3.596  1.00  0.00    -0.085 SA
HETATM    5  C   UNL     1      64.326   6.954   3.603  1.00  0.00     0.090 A 
HETATM    6  C   UNL     1      63.334  10.211   5.460  1.00  0.00     0.110 C 
HETATM    7  N   UNL     1      62.858  11.154   5.941  1.00  0.00    -0.191 NA
HETATM    8  O   UNL     1      65.876   8.892   6.223  1.00  0.00    -0.344 OA
HETATM    9  O   UNL     1      66.305   6.352   4.785  1.00  0.00    -0.346 OA
HETATM   10  C   UNL     1      66.785   7.885   6.688  1.00  0.00     0.202 C 
HETATM   11  C   UNL     1      67.329   6.977   5.573  1.00  0.00     0.202 C 
ENDROOT
TORSDOF 0
ENDMDL
MODEL 6
REMARK VINA RESULT:      -4.2      6.054      7.562
REMARK  0 active torsions:
REMARK  status: ('A' for Active; 'I' for Inactive)
ROOT
HETATM    1  C   UNL     1      76.953   1.780  18.143  1.00  0.00     0.130 A 
HETATM    2  C   UNL     1      76.281   2.901  17.709  1.00  0.00     0.121 A 
HETATM    3  C   UNL     1      76.231   0.589  17.897  1.00  0.00     0.110 A 
HETATM    4  S   UNL     1      74.810   2.476  16.929  1.00  0.00    -0.085 SA
HETATM    5  C   UNL     1      75.054   0.804  17.227  1.00  0.00     0.090 A 
HETATM    6  C   UNL     1      76.700   4.254  17.885  1.00  0.00     0.110 C 
HETATM    7  N   UNL     1      77.013   5.360  18.047  1.00  0.00    -0.191 NA
HETATM    8  O   UNL     1      78.165   1.826  18.743  1.00  0.00    -0.344 OA
HETATM    9  O   UNL     1      76.622  -0.646  18.284  1.00  0.00    -0.346 OA
HETATM   10  C   UNL     1      78.455   0.596  19.423  1.00  0.00     0.202 C 
HETATM   11  C   UNL     1      78.008  -0.658  18.654  1.00  0.00     0.202 C 
ENDROOT
TORSDOF 0
ENDMDL
MODEL 7
REMARK VINA RESULT:      -4.2     15.902     17.059
REMARK  0 active torsions:
REMARK  status: ('A' for Active; 'I' for Inactive)
ROOT
HETATM    1  C   UNL     1      70.688  23.826  14.067  1.00  0.00     0.130 A 
HETATM    2  C   UNL     1      71.694  23.131  13.432  1.00  0.00     0.121 A 
HETATM    3  C   UNL     1      71.186  24.859  14.894  1.00  0.00     0.110 A 
HETATM    4  S   UNL     1      73.233  23.805  13.791  1.00  0.00    -0.085 SA
HETATM    5  C   UNL     1      72.551  24.984  14.835  1.00  0.00     0.090 A 
HETATM    6  C   UNL     1      71.527  21.984  12.600  1.00  0.00     0.110 C 
HETATM    7  N   UNL     1      71.410  21.032  11.946  1.00  0.00    -0.191 NA
HETATM    8  O   UNL     1      69.375  23.538  13.914  1.00  0.00    -0.344 OA
HETATM    9  O   UNL     1      70.428  25.649  15.687  1.00  0.00    -0.346 OA
HETATM   10  C   UNL     1      68.588  24.141  14.952  1.00  0.00     0.202 C 
HETATM   11  C   UNL     1      69.040  25.561  15.330  1.00  0.00     0.202 C 
ENDROOT
TORSDOF 0
ENDMDL
MODEL 8
REMARK VINA RESULT:      -4.2     13.715     14.796
REMARK  0 active torsions:
REMARK  status: ('A' for Active; 'I' for Inactive)
ROOT
HETATM    1  C   UNL     1      66.731   6.892   6.770  1.00  0.00     0.130 A 
HETATM    2  C   UNL     1      66.156   7.373   5.614  1.00  0.00     0.121 A 
HETATM    3  C   UNL     1      67.487   5.718   6.547  1.00  0.00     0.110 A 
HETATM    4  S   UNL     1      66.618   6.429   4.255  1.00  0.00    -0.085 SA
HETATM    5  C   UNL     1      67.535   5.353   5.227  1.00  0.00     0.090 A 
HETATM    6  C   UNL     1      65.269   8.487   5.516  1.00  0.00     0.110 C 
HETATM    7  N   UNL     1      64.523   9.371   5.425  1.00  0.00    -0.191 NA
HETATM    8  O   UNL     1      66.575   7.482   7.978  1.00  0.00    -0.344 OA
HETATM    9  O   UNL     1      68.098   4.997   7.514  1.00  0.00    -0.346 OA
HETATM   10  C   UNL     1      66.945   6.591   9.040  1.00  0.00     0.202 C 
HETATM   11  C   UNL     1      68.191   5.744   8.736  1.00  0.00     0.202 C 
ENDROOT
TORSDOF 0
ENDMDL
MODEL 9
REMARK VINA RESULT:      -4.1     16.494     17.597
REMARK  0 active torsions:
REMARK  status: ('A' for Active; 'I' for Inactive)
ROOT
HETATM    1  C   UNL     1      63.830   7.448   6.063  1.00  0.00     0.130 A 
HETATM    2  C   UNL     1      62.498   7.258   5.767  1.00  0.00     0.121 A 
HETATM    3  C   UNL     1      64.507   8.172   5.055  1.00  0.00     0.110 A 
HETATM    4  S   UNL     1      62.073   8.041   4.298  1.00  0.00    -0.085 SA
HETATM    5  C   UNL     1      63.681   8.580   4.039  1.00  0.00     0.090 A 
HETATM    6  C   UNL     1      61.566   6.497   6.536  1.00  0.00     0.110 C 
HETATM    7  N   UNL     1      60.805   5.857   7.134  1.00  0.00    -0.191 NA
HETATM    8  O   UNL     1      64.415   6.982   7.191  1.00  0.00    -0.344 OA
HETATM    9  O   UNL     1      65.833   8.438   5.052  1.00  0.00    -0.346 OA
HETATM   10  C   UNL     1      65.844   6.981   7.071  1.00  0.00     0.202 C 
HETATM   11  C   UNL     1      66.408   8.215   6.348  1.00  0.00     0.202 C 
ENDROOT
TORSDOF 0
ENDMDL
