MODEL 1
REMARK VINA RESULT:      -4.9      0.000      0.000
REMARK  2 active torsions:
REMARK  status: ('A' for Active; 'I' for Inactive)
REMARK    1  A    between atoms: C_3  and  C_8 
REMARK    2  A    between atoms: C_8  and  O_9 
ROOT
HETATM    1  C   UNL     1      64.183   9.023   5.052  1.00  0.00     0.117 A 
HETATM    2  C   UNL     1      63.972   8.079   4.017  1.00  0.00     0.109 A 
HETATM    3  C   UNL     1      63.240  10.025   5.066  1.00  0.00     0.042 A 
HETATM    4  S   UNL     1      62.085   9.789   3.812  1.00  0.00    -0.099 SA
HETATM    5  C   UNL     1      62.873   8.372   3.250  1.00  0.00     0.090 A 
HETATM    6  O   UNL     1      65.206   8.971   5.939  1.00  0.00    -0.345 OA
HETATM    7  O   UNL     1      64.766   7.010   3.777  1.00  0.00    -0.346 OA
HETATM    8  C   UNL     1      66.220   8.059   5.481  1.00  0.00     0.202 C 
HETATM    9  C   UNL     1      65.633   6.767   4.898  1.00  0.00     0.202 C 
ENDROOT
BRANCH   3  10
HETATM   10  C   UNL     1      63.138  11.198   5.980  1.00  0.00     0.213 C 
BRANCH  10  11
HETATM   11  O   UNL     1      64.449  11.509   6.438  1.00  0.00    -0.396 OA
HETATM   12  H   UNL     1      64.473  12.427   6.751  1.00  0.00     0.209 HD
ENDBRANCH  10  11
ENDBRANCH   3  10
TORSDOF 2
ENDMDL
MODEL 2
REMARK VINA RESULT:      -4.7     16.597     17.572
REMARK  2 active torsions:
REMARK  status: ('A' for Active; 'I' for Inactive)
REMARK    1  A    between atoms: C_3  and  C_8 
REMARK    2  A    between atoms: C_8  and  O_9 
ROOT
HETATM    1  C   UNL     1      77.115   7.461  16.143  1.00  0.00     0.117 A 
HETATM    2  C   UNL     1      76.954   7.475  17.549  1.00  0.00     0.109 A 
HETATM    3  C   UNL     1      77.552   8.665  15.639  1.00  0.00     0.042 A 
HETATM    4  S   UNL     1      77.780   9.806  16.907  1.00  0.00    -0.099 SA
HETATM    5  C   UNL     1      77.266   8.690  18.105  1.00  0.00     0.090 A 
HETATM    6  O   UNL     1      76.861   6.389  15.354  1.00  0.00    -0.345 OA
HETATM    7  O   UNL     1      76.521   6.427  18.285  1.00  0.00    -0.346 OA
HETATM    8  C   UNL     1      76.087   5.411  16.072  1.00  0.00     0.202 C 
HETATM    9  C   UNL     1      76.576   5.215  17.513  1.00  0.00     0.202 C 
ENDROOT
BRANCH   3  10
HETATM   10  C   UNL     1      77.816   9.043  14.221  1.00  0.00     0.213 C 
BRANCH  10  11
HETATM   11  O   UNL     1      77.168   8.087  13.388  1.00  0.00    -0.396 OA
HETATM   12  H   UNL     1      77.522   7.203  13.574  1.00  0.00     0.209 HD
ENDBRANCH  10  11
ENDBRANCH   3  10
TORSDOF 2
ENDMDL
MODEL 3
REMARK VINA RESULT:      -4.6     16.687     17.715
REMARK  2 active torsions:
REMARK  status: ('A' for Active; 'I' for Inactive)
REMARK    1  A    between atoms: C_3  and  C_8 
REMARK    2  A    between atoms: C_8  and  O_9 
ROOT
HETATM    1  C   UNL     1      77.359   8.311  15.766  1.00  0.00     0.117 A 
HETATM    2  C   UNL     1      77.660   9.652  16.106  1.00  0.00     0.109 A 
HETATM    3  C   UNL     1      77.082   7.527  16.863  1.00  0.00     0.042 A 
HETATM    4  S   UNL     1      77.176   8.454  18.310  1.00  0.00    -0.099 SA
HETATM    5  C   UNL     1      77.613   9.878  17.458  1.00  0.00     0.090 A 
HETATM    6  O   UNL     1      77.349   7.825  14.501  1.00  0.00    -0.345 OA
HETATM    7  O   UNL     1      77.983  10.617  15.216  1.00  0.00    -0.346 OA
HETATM    8  C   UNL     1      78.016   8.736  13.609  1.00  0.00     0.202 C 
HETATM    9  C   UNL     1      77.649  10.201  13.880  1.00  0.00     0.202 C 
ENDROOT
BRANCH   3  10
HETATM   10  C   UNL     1      76.744   6.076  16.912  1.00  0.00     0.213 C 
BRANCH  10  11
HETATM   11  O   UNL     1      76.380   5.759  18.252  1.00  0.00    -0.396 OA
HETATM   12  H   UNL     1      77.114   5.296  18.686  1.00  0.00     0.209 HD
ENDBRANCH  10  11
ENDBRANCH   3  10
TORSDOF 2
ENDMDL
MODEL 4
REMARK VINA RESULT:      -4.3     17.230     19.247
REMARK  2 active torsions:
REMARK  status: ('A' for Active; 'I' for Inactive)
REMARK    1  A    between atoms: C_3  and  C_8 
REMARK    2  A    between atoms: C_8  and  O_9 
ROOT
HETATM    1  C   UNL     1      70.638  23.794  13.982  1.00  0.00     0.117 A 
HETATM    2  C   UNL     1      71.104  24.817  14.842  1.00  0.00     0.109 A 
HETATM    3  C   UNL     1      71.654  23.136  13.328  1.00  0.00     0.042 A 
HETATM    4  S   UNL     1      73.185  23.773  13.791  1.00  0.00    -0.099 SA
HETATM    5  C   UNL     1      72.470  24.934  14.834  1.00  0.00     0.090 A 
HETATM    6  O   UNL     1      69.331  23.483  13.799  1.00  0.00    -0.345 OA
HETATM    7  O   UNL     1      70.308  25.621  15.585  1.00  0.00    -0.346 OA
HETATM    8  C   UNL     1      68.490  24.537  14.303  1.00  0.00     0.202 C 
HETATM    9  C   UNL     1      68.975  25.083  15.652  1.00  0.00     0.202 C 
ENDROOT
BRANCH   3  10
HETATM   10  C   UNL     1      71.563  22.027  12.337  1.00  0.00     0.213 C 
BRANCH  10  11
HETATM   11  O   UNL     1      72.734  22.068  11.528  1.00  0.00    -0.396 OA
HETATM   12  H   UNL     1      73.162  21.197  11.534  1.00  0.00     0.209 HD
ENDBRANCH  10  11
ENDBRANCH   3  10
TORSDOF 2
ENDMDL
MODEL 5
REMARK VINA RESULT:      -4.2      1.906      3.303
REMARK  2 active torsions:
REMARK  status: ('A' for Active; 'I' for Inactive)
REMARK    1  A    between atoms: C_3  and  C_8 
REMARK    2  A    between atoms: C_8  and  O_9 
ROOT
HETATM    1  C   UNL     1      64.199   8.980   4.851  1.00  0.00     0.117 A 
HETATM    2  C   UNL     1      63.086   8.655   4.040  1.00  0.00     0.109 A 
HETATM    3  C   UNL     1      65.164   7.999   4.860  1.00  0.00     0.042 A 
HETATM    4  S   UNL     1      64.700   6.684   3.851  1.00  0.00    -0.099 SA
HETATM    5  C   UNL     1      63.209   7.427   3.440  1.00  0.00     0.090 A 
HETATM    6  O   UNL     1      64.319  10.128   5.562  1.00  0.00    -0.345 OA
HETATM    7  O   UNL     1      61.997   9.441   3.876  1.00  0.00    -0.346 OA
HETATM    8  C   UNL     1      63.046  10.789   5.665  1.00  0.00     0.202 C 
HETATM    9  C   UNL     1      62.265  10.774   4.344  1.00  0.00     0.202 C 
ENDROOT
BRANCH   3  10
HETATM   10  C   UNL     1      66.456   7.966   5.601  1.00  0.00     0.213 C 
BRANCH  10  11
HETATM   11  O   UNL     1      66.340   8.842   6.718  1.00  0.00    -0.396 OA
HETATM   12  H   UNL     1      66.716   8.416   7.504  1.00  0.00     0.209 HD
ENDBRANCH  10  11
ENDBRANCH   3  10
TORSDOF 2
ENDMDL
MODEL 6
REMARK VINA RESULT:      -4.0     18.600     19.641
REMARK  2 active torsions:
REMARK  status: ('A' for Active; 'I' for Inactive)
REMARK    1  A    between atoms: C_3  and  C_8 
REMARK    2  A    between atoms: C_8  and  O_9 
ROOT
HETATM    1  C   UNL     1      76.659   1.617  18.206  1.00  0.00     0.117 A 
HETATM    2  C   UNL     1      75.842   0.486  17.967  1.00  0.00     0.109 A 
HETATM    3  C   UNL     1      76.152   2.773  17.657  1.00  0.00     0.042 A 
HETATM    4  S   UNL     1      74.658   2.462  16.863  1.00  0.00    -0.099 SA
HETATM    5  C   UNL     1      74.722   0.788  17.235  1.00  0.00     0.090 A 
HETATM    6  O   UNL     1      77.827   1.586  18.892  1.00  0.00    -0.345 OA
HETATM    7  O   UNL     1      76.124  -0.769  18.384  1.00  0.00    -0.346 OA
HETATM    8  C   UNL     1      78.292   0.232  19.030  1.00  0.00     0.202 C 
HETATM    9  C   UNL     1      77.162  -0.746  19.379  1.00  0.00     0.202 C 
ENDROOT
BRANCH   3  10
HETATM   10  C   UNL     1      76.729   4.147  17.679  1.00  0.00     0.213 C 
BRANCH  10  11
HETATM   11  O   UNL     1      77.078   4.452  19.025  1.00  0.00    -0.396 OA
HETATM   12  H   UNL     1      77.535   5.308  19.054  1.00  0.00     0.209 HD
ENDBRANCH  10  11
ENDBRANCH   3  10
TORSDOF 2
ENDMDL
MODEL 7
REMARK VINA RESULT:      -4.0     15.779     16.809
REMARK  2 active torsions:
REMARK  status: ('A' for Active; 'I' for Inactive)
REMARK    1  A    between atoms: C_3  and  C_8 
REMARK    2  A    between atoms: C_8  and  O_9 
ROOT
HETATM    1  C   UNL     1      51.635   8.573  16.007  1.00  0.00     0.117 A 
HETATM    2  C   UNL     1      52.132   8.203  14.734  1.00  0.00     0.109 A 
HETATM    3  C   UNL     1      50.438   7.967  16.314  1.00  0.00     0.042 A 
HETATM    4  S   UNL     1      49.938   6.929  15.036  1.00  0.00    -0.099 SA
HETATM    5  C   UNL     1      51.308   7.322  14.080  1.00  0.00     0.090 A 
HETATM    6  O   UNL     1      52.252   9.438  16.847  1.00  0.00    -0.345 OA
HETATM    7  O   UNL     1      53.278   8.671  14.189  1.00  0.00    -0.346 OA
HETATM    8  C   UNL     1      53.262  10.185  16.145  1.00  0.00     0.202 C 
HETATM    9  C   UNL     1      54.087   9.309  15.193  1.00  0.00     0.202 C 
ENDROOT
BRANCH   3  10
HETATM   10  C   UNL     1      49.603   8.118  17.539  1.00  0.00     0.213 C 
BRANCH  10  11
HETATM   11  O   UNL     1      49.405   9.510  17.763  1.00  0.00    -0.396 OA
HETATM   12  H   UNL     1      49.869   9.777  18.572  1.00  0.00     0.209 HD
ENDBRANCH  10  11
ENDBRANCH   3  10
TORSDOF 2
ENDMDL
MODEL 8
REMARK VINA RESULT:      -4.0      2.862      4.428
REMARK  2 active torsions:
REMARK  status: ('A' for Active; 'I' for Inactive)
REMARK    1  A    between atoms: C_3  and  C_8 
REMARK    2  A    between atoms: C_8  and  O_9 
ROOT
HETATM    1  C   UNL     1      65.753   7.768   5.839  1.00  0.00     0.117 A 
HETATM    2  C   UNL     1      64.896   7.107   6.753  1.00  0.00     0.109 A 
HETATM    3  C   UNL     1      67.076   7.423   5.997  1.00  0.00     0.042 A 
HETATM    4  S   UNL     1      67.255   6.270   7.261  1.00  0.00    -0.099 SA
HETATM    5  C   UNL     1      65.573   6.268   7.600  1.00  0.00     0.090 A 
HETATM    6  O   UNL     1      65.336   8.659   4.906  1.00  0.00    -0.345 OA
HETATM    7  O   UNL     1      63.556   7.285   6.818  1.00  0.00    -0.346 OA
HETATM    8  C   UNL     1      63.998   9.101   5.197  1.00  0.00     0.202 C 
HETATM    9  C   UNL     1      63.080   7.952   5.636  1.00  0.00     0.202 C 
ENDROOT
BRANCH   3  10
HETATM   10  C   UNL     1      68.265   7.917   5.245  1.00  0.00     0.213 C 
BRANCH  10  11
HETATM   11  O   UNL     1      68.012   7.728   3.857  1.00  0.00    -0.396 OA
HETATM   12  H   UNL     1      68.824   7.429   3.418  1.00  0.00     0.209 HD
ENDBRANCH  10  11
ENDBRANCH   3  10
TORSDOF 2
ENDMDL
MODEL 9
REMARK VINA RESULT:      -4.0     23.206     24.046
REMARK  2 active torsions:
REMARK  status: ('A' for Active; 'I' for Inactive)
REMARK    1  A    between atoms: C_3  and  C_8 
REMARK    2  A    between atoms: C_8  and  O_9 
ROOT
HETATM    1  C   UNL     1      50.841  21.455  20.187  1.00  0.00     0.117 A 
HETATM    2  C   UNL     1      49.947  20.524  20.769  1.00  0.00     0.109 A 
HETATM    3  C   UNL     1      52.073  21.472  20.799  1.00  0.00     0.042 A 
HETATM    4  S   UNL     1      52.129  20.325  22.081  1.00  0.00    -0.099 SA
HETATM    5  C   UNL     1      50.503  19.843  21.822  1.00  0.00     0.090 A 
HETATM    6  O   UNL     1      50.534  22.261  19.142  1.00  0.00    -0.345 OA
HETATM    7  O   UNL     1      48.671  20.325  20.364  1.00  0.00    -0.346 OA
HETATM    8  C   UNL     1      49.109  22.302  18.942  1.00  0.00     0.202 C 
HETATM    9  C   UNL     1      48.457  20.919  19.072  1.00  0.00     0.202 C 
ENDROOT
BRANCH   3  10
HETATM   10  C   UNL     1      53.258  22.321  20.489  1.00  0.00     0.213 C 
BRANCH  10  11
HETATM   11  O   UNL     1      53.261  22.569  19.087  1.00  0.00    -0.396 OA
HETATM   12  H   UNL     1      54.009  22.107  18.678  1.00  0.00     0.209 HD
ENDBRANCH  10  11
ENDBRANCH   3  10
TORSDOF 2
ENDMDL
