MODEL 1
REMARK VINA RESULT:      -5.0      0.000      0.000
REMARK  2 active torsions:
REMARK  status: ('A' for Active; 'I' for Inactive)
REMARK    1  A    between atoms: C_2  and  C_4 
REMARK    2  A    between atoms: C_3  and  C_7 
ROOT
HETATM    1  S   UNL     1      65.812   6.835   6.918  1.00  0.00    -0.081 SA
HETATM    2  C   UNL     1      67.438   6.341   6.712  1.00  0.00     0.039 A 
HETATM    3  C   UNL     1      65.860   7.870   5.555  1.00  0.00     0.082 A 
HETATM    4  C   UNL     1      67.092   7.813   4.931  1.00  0.00     0.027 A 
HETATM    5  C   UNL     1      67.996   6.930   5.594  1.00  0.00     0.023 A 
ENDROOT
BRANCH   2   6
HETATM    6  C   UNL     1      68.096   5.439   7.619  1.00  0.00     0.092 A 
HETATM    7  O   UNL     1      68.449   4.162   7.250  1.00  0.00    -0.321 OA
HETATM    8  C   UNL     1      69.072   3.577   8.303  1.00  0.00     0.142 A 
HETATM    9  C   UNL     1      69.133   4.444   9.365  1.00  0.00     0.027 A 
HETATM   10  C   UNL     1      68.502   5.635   8.932  1.00  0.00     0.040 A 
ENDBRANCH   2   6
BRANCH   3  11
HETATM   11  C   UNL     1      64.693   8.649   5.220  1.00  0.00     0.216 C 
HETATM   12  O   UNL     1      63.751   8.352   4.499  1.00  0.00    -0.643 OA
HETATM   13  O   UNL     1      64.708   9.855   5.834  1.00  0.00    -0.643 OA
ENDBRANCH   3  11
TORSDOF 2
ENDMDL
MODEL 2
REMARK VINA RESULT:      -5.0      2.617      6.433
REMARK  2 active torsions:
REMARK  status: ('A' for Active; 'I' for Inactive)
REMARK    1  A    between atoms: C_2  and  C_4 
REMARK    2  A    between atoms: C_3  and  C_7 
ROOT
HETATM    1  S   UNL     1      67.840   3.471   8.753  1.00  0.00    -0.081 SA
HETATM    2  C   UNL     1      68.457   4.950   8.149  1.00  0.00     0.039 A 
HETATM    3  C   UNL     1      69.273   3.125   9.623  1.00  0.00     0.082 A 
HETATM    4  C   UNL     1      70.198   4.143   9.482  1.00  0.00     0.027 A 
HETATM    5  C   UNL     1      69.726   5.192   8.638  1.00  0.00     0.023 A 
ENDROOT
BRANCH   2   6
HETATM    6  C   UNL     1      67.717   5.786   7.243  1.00  0.00     0.092 A 
HETATM    7  O   UNL     1      67.037   6.902   7.672  1.00  0.00    -0.321 OA
HETATM    8  C   UNL     1      66.470   7.490   6.589  1.00  0.00     0.142 A 
HETATM    9  C   UNL     1      66.760   6.781   5.451  1.00  0.00     0.027 A 
HETATM   10  C   UNL     1      67.553   5.685   5.868  1.00  0.00     0.040 A 
ENDBRANCH   2   6
BRANCH   3  11
HETATM   11  C   UNL     1      69.368   1.890  10.363  1.00  0.00     0.216 C 
HETATM   12  O   UNL     1      70.354   1.205  10.591  1.00  0.00    -0.643 OA
HETATM   13  O   UNL     1      68.163   1.509  10.848  1.00  0.00    -0.643 OA
ENDBRANCH   3  11
TORSDOF 2
ENDMDL
MODEL 3
REMARK VINA RESULT:      -4.8      1.955      2.678
REMARK  2 active torsions:
REMARK  status: ('A' for Active; 'I' for Inactive)
REMARK    1  A    between atoms: C_2  and  C_4 
REMARK    2  A    between atoms: C_3  and  C_7 
ROOT
HETATM    1  S   UNL     1      67.696   5.317   6.950  1.00  0.00    -0.081 SA
HETATM    2  C   UNL     1      67.776   5.098   8.646  1.00  0.00     0.039 A 
HETATM    3  C   UNL     1      67.008   6.878   7.094  1.00  0.00     0.082 A 
HETATM    4  C   UNL     1      66.873   7.241   8.421  1.00  0.00     0.027 A 
HETATM    5  C   UNL     1      67.319   6.219   9.311  1.00  0.00     0.023 A 
ENDROOT
BRANCH   2   6
HETATM    6  C   UNL     1      68.252   3.882   9.249  1.00  0.00     0.092 A 
HETATM    7  O   UNL     1      67.456   2.766   9.368  1.00  0.00    -0.321 OA
HETATM    8  C   UNL     1      68.192   1.785   9.946  1.00  0.00     0.142 A 
HETATM    9  C   UNL     1      69.461   2.232  10.215  1.00  0.00     0.027 A 
HETATM   10  C   UNL     1      69.500   3.578   9.776  1.00  0.00     0.040 A 
ENDBRANCH   2   6
BRANCH   3  11
HETATM   11  C   UNL     1      66.657   7.607   5.900  1.00  0.00     0.216 C 
HETATM   12  O   UNL     1      66.809   7.286   4.730  1.00  0.00    -0.643 OA
HETATM   13  O   UNL     1      66.077   8.793   6.196  1.00  0.00    -0.643 OA
ENDBRANCH   3  11
TORSDOF 2
ENDMDL
MODEL 4
REMARK VINA RESULT:      -4.6      1.348      5.916
REMARK  2 active torsions:
REMARK  status: ('A' for Active; 'I' for Inactive)
REMARK    1  A    between atoms: C_2  and  C_4 
REMARK    2  A    between atoms: C_3  and  C_7 
ROOT
HETATM    1  S   UNL     1      65.347   6.711   6.963  1.00  0.00    -0.081 SA
HETATM    2  C   UNL     1      65.494   7.769   5.626  1.00  0.00     0.039 A 
HETATM    3  C   UNL     1      66.978   6.204   6.856  1.00  0.00     0.082 A 
HETATM    4  C   UNL     1      67.636   6.861   5.833  1.00  0.00     0.027 A 
HETATM    5  C   UNL     1      66.783   7.763   5.130  1.00  0.00     0.023 A 
ENDROOT
BRANCH   2   6
HETATM    6  C   UNL     1      64.387   8.532   5.115  1.00  0.00     0.092 A 
HETATM    7  O   UNL     1      63.960   9.692   5.719  1.00  0.00    -0.321 OA
HETATM    8  C   UNL     1      62.928  10.189   4.993  1.00  0.00     0.142 A 
HETATM    9  C   UNL     1      62.662   9.377   3.921  1.00  0.00     0.027 A 
HETATM   10  C   UNL     1      63.590   8.310   4.000  1.00  0.00     0.040 A 
ENDBRANCH   2   6
BRANCH   3  11
HETATM   11  C   UNL     1      67.470   5.208   7.776  1.00  0.00     0.216 C 
HETATM   12  O   UNL     1      68.615   4.814   7.944  1.00  0.00    -0.643 OA
HETATM   13  O   UNL     1      66.470   4.694   8.530  1.00  0.00    -0.643 OA
ENDBRANCH   3  11
TORSDOF 2
ENDMDL
MODEL 5
REMARK VINA RESULT:      -4.6      1.880      5.877
REMARK  2 active torsions:
REMARK  status: ('A' for Active; 'I' for Inactive)
REMARK    1  A    between atoms: C_2  and  C_4 
REMARK    2  A    between atoms: C_3  and  C_7 
ROOT
HETATM    1  S   UNL     1      66.094   4.643   7.379  1.00  0.00    -0.081 SA
HETATM    2  C   UNL     1      65.964   6.350   7.427  1.00  0.00     0.039 A 
HETATM    3  C   UNL     1      67.324   4.614   8.569  1.00  0.00     0.082 A 
HETATM    4  C   UNL     1      67.607   5.889   9.022  1.00  0.00     0.027 A 
HETATM    5  C   UNL     1      66.822   6.885   8.368  1.00  0.00     0.023 A 
ENDROOT
BRANCH   2   6
HETATM    6  C   UNL     1      65.073   7.084   6.569  1.00  0.00     0.092 A 
HETATM    7  O   UNL     1      63.732   7.211   6.847  1.00  0.00    -0.321 OA
HETATM    8  C   UNL     1      63.172   7.977   5.877  1.00  0.00     0.142 A 
HETATM    9  C   UNL     1      64.119   8.355   4.959  1.00  0.00     0.027 A 
HETATM   10  C   UNL     1      65.336   7.779   5.396  1.00  0.00     0.040 A 
ENDBRANCH   2   6
BRANCH   3  11
HETATM   11  C   UNL     1      67.905   3.351   8.953  1.00  0.00     0.216 C 
HETATM   12  O   UNL     1      67.451   2.487   9.690  1.00  0.00    -0.643 OA
HETATM   13  O   UNL     1      69.110   3.162   8.367  1.00  0.00    -0.643 OA
ENDBRANCH   3  11
TORSDOF 2
ENDMDL
MODEL 6
REMARK VINA RESULT:      -4.4      4.036      7.853
REMARK  2 active torsions:
REMARK  status: ('A' for Active; 'I' for Inactive)
REMARK    1  A    between atoms: C_2  and  C_4 
REMARK    2  A    between atoms: C_3  and  C_7 
ROOT
HETATM    1  S   UNL     1      63.505   7.650   3.600  1.00  0.00    -0.081 SA
HETATM    2  C   UNL     1      62.157   8.656   3.279  1.00  0.00     0.039 A 
HETATM    3  C   UNL     1      64.137   8.721   4.776  1.00  0.00     0.082 A 
HETATM    4  C   UNL     1      63.310   9.816   4.946  1.00  0.00     0.027 A 
HETATM    5  C   UNL     1      62.171   9.775   4.089  1.00  0.00     0.023 A 
ENDROOT
BRANCH   2   6
HETATM    6  C   UNL     1      61.174   8.339   2.278  1.00  0.00     0.092 A 
HETATM    7  O   UNL     1      59.990   7.713   2.591  1.00  0.00    -0.321 OA
HETATM    8  C   UNL     1      59.270   7.580   1.449  1.00  0.00     0.142 A 
HETATM    9  C   UNL     1      59.958   8.104   0.385  1.00  0.00     0.027 A 
HETATM   10  C   UNL     1      61.182   8.585   0.912  1.00  0.00     0.040 A 
ENDBRANCH   2   6
BRANCH   3  11
HETATM   11  C   UNL     1      65.384   8.399   5.425  1.00  0.00     0.216 C 
HETATM   12  O   UNL     1      65.950   8.985   6.337  1.00  0.00    -0.643 OA
HETATM   13  O   UNL     1      65.937   7.277   4.908  1.00  0.00    -0.643 OA
ENDBRANCH   3  11
TORSDOF 2
ENDMDL
MODEL 7
REMARK VINA RESULT:      -4.4      6.893      7.595
REMARK  2 active torsions:
REMARK  status: ('A' for Active; 'I' for Inactive)
REMARK    1  A    between atoms: C_2  and  C_4 
REMARK    2  A    between atoms: C_3  and  C_7 
ROOT
HETATM    1  S   UNL     1      62.771   8.453   3.377  1.00  0.00    -0.081 SA
HETATM    2  C   UNL     1      62.393   8.364   1.710  1.00  0.00     0.039 A 
HETATM    3  C   UNL     1      62.322  10.102   3.482  1.00  0.00     0.082 A 
HETATM    4  C   UNL     1      61.857  10.568   2.266  1.00  0.00     0.027 A 
HETATM    5  C   UNL     1      61.894   9.567   1.250  1.00  0.00     0.023 A 
ENDROOT
BRANCH   2   6
HETATM    6  C   UNL     1      62.599   7.172   0.931  1.00  0.00     0.092 A 
HETATM    7  O   UNL     1      62.595   5.919   1.498  1.00  0.00    -0.321 OA
HETATM    8  C   UNL     1      62.785   5.010   0.511  1.00  0.00     0.142 A 
HETATM    9  C   UNL     1      62.919   5.638  -0.701  1.00  0.00     0.027 A 
HETATM   10  C   UNL     1      62.808   7.025  -0.434  1.00  0.00     0.040 A 
ENDBRANCH   2   6
BRANCH   3  11
HETATM   11  C   UNL     1      62.467  10.794   4.739  1.00  0.00     0.216 C 
HETATM   12  O   UNL     1      62.961  10.395   5.784  1.00  0.00    -0.643 OA
HETATM   13  O   UNL     1      61.978  12.054   4.670  1.00  0.00    -0.643 OA
ENDBRANCH   3  11
TORSDOF 2
ENDMDL
MODEL 8
REMARK VINA RESULT:      -4.3      2.901      6.306
REMARK  2 active torsions:
REMARK  status: ('A' for Active; 'I' for Inactive)
REMARK    1  A    between atoms: C_2  and  C_4 
REMARK    2  A    between atoms: C_3  and  C_7 
ROOT
HETATM    1  S   UNL     1      68.088   4.075   8.816  1.00  0.00    -0.081 SA
HETATM    2  C   UNL     1      68.182   3.991   7.108  1.00  0.00     0.039 A 
HETATM    3  C   UNL     1      68.632   2.464   9.014  1.00  0.00     0.082 A 
HETATM    4  C   UNL     1      68.915   1.882   7.792  1.00  0.00     0.027 A 
HETATM    5  C   UNL     1      68.660   2.762   6.699  1.00  0.00     0.023 A 
ENDROOT
BRANCH   2   6
HETATM    6  C   UNL     1      67.789   5.081   6.256  1.00  0.00     0.092 A 
HETATM    7  O   UNL     1      67.451   4.891   4.936  1.00  0.00    -0.321 OA
HETATM    8  C   UNL     1      67.103   6.092   4.414  1.00  0.00     0.142 A 
HETATM    9  C   UNL     1      67.207   7.077   5.363  1.00  0.00     0.027 A 
HETATM   10  C   UNL     1      67.654   6.433   6.543  1.00  0.00     0.040 A 
ENDBRANCH   2   6
BRANCH   3  11
HETATM   11  C   UNL     1      68.732   1.911  10.342  1.00  0.00     0.216 C 
HETATM   12  O   UNL     1      69.724   1.759  11.040  1.00  0.00    -0.643 OA
HETATM   13  O   UNL     1      67.519   1.545  10.819  1.00  0.00    -0.643 OA
ENDBRANCH   3  11
TORSDOF 2
ENDMDL
MODEL 9
REMARK VINA RESULT:      -4.3      1.763      2.353
REMARK  2 active torsions:
REMARK  status: ('A' for Active; 'I' for Inactive)
REMARK    1  A    between atoms: C_2  and  C_4 
REMARK    2  A    between atoms: C_3  and  C_7 
ROOT
HETATM    1  S   UNL     1      64.139   6.542   6.449  1.00  0.00    -0.081 SA
HETATM    2  C   UNL     1      65.739   7.139   6.562  1.00  0.00     0.039 A 
HETATM    3  C   UNL     1      63.674   7.745   5.324  1.00  0.00     0.082 A 
HETATM    4  C   UNL     1      64.738   8.571   5.012  1.00  0.00     0.027 A 
HETATM    5  C   UNL     1      65.925   8.219   5.721  1.00  0.00     0.023 A 
ENDROOT
BRANCH   2   6
HETATM    6  C   UNL     1      66.721   6.565   7.443  1.00  0.00     0.092 A 
HETATM    7  O   UNL     1      67.813   5.877   6.968  1.00  0.00    -0.321 OA
HETATM    8  C   UNL     1      68.560   5.488   8.032  1.00  0.00     0.142 A 
HETATM    9  C   UNL     1      67.979   5.904   9.203  1.00  0.00     0.027 A 
HETATM   10  C   UNL     1      66.796   6.588   8.829  1.00  0.00     0.040 A 
ENDBRANCH   2   6
BRANCH   3  11
HETATM   11  C   UNL     1      62.313   7.778   4.848  1.00  0.00     0.216 C 
HETATM   12  O   UNL     1      61.770   8.602   4.126  1.00  0.00    -0.643 OA
HETATM   13  O   UNL     1      61.606   6.714   5.295  1.00  0.00    -0.643 OA
ENDBRANCH   3  11
TORSDOF 2
ENDMDL
