MODEL 1
REMARK VINA RESULT:      -5.7      0.000      0.000
REMARK  3 active torsions:
REMARK  status: ('A' for Active; 'I' for Inactive)
REMARK    1  A    between atoms: N_1  and  C_4 
REMARK    2  A    between atoms: C_2  and  C_4 
REMARK    3  A    between atoms: C_5  and  N_10 
ROOT
HETATM    1  C   UNL     1      63.431   7.972   5.623  1.00  0.00     0.275 C 
ENDROOT
BRANCH   1   2
HETATM    2  N   UNL     1      64.856   8.096   6.031  1.00  0.00    -0.064 N 
HETATM    3  C   UNL     1      65.205   7.083   7.052  1.00  0.00     0.263 C 
HETATM    4  C   UNL     1      66.711   7.075   7.414  1.00  0.00     0.262 C 
HETATM    5  N   UNL     1      67.630   6.934   6.270  1.00  0.00    -0.072 N 
HETATM    6  C   UNL     1      67.268   7.941   5.255  1.00  0.00     0.262 C 
HETATM    7  C   UNL     1      67.611   5.581   5.713  1.00  0.00     0.269 C 
HETATM    8  H   UNL     1      68.587   7.092   6.587  1.00  0.00     0.279 HD
HETATM    9  C   UNL     1      65.766   7.963   4.872  1.00  0.00     0.263 C 
HETATM   10  H   UNL     1      64.973   9.027   6.431  1.00  0.00     0.280 HD
ENDBRANCH   1   2
BRANCH   1  11
HETATM   11  C   UNL     1      63.007   9.007   4.581  1.00  0.00    -0.006 A 
HETATM   12  C   UNL     1      62.797  10.364   4.891  1.00  0.00     0.033 A 
HETATM   13  C   UNL     1      62.185  11.201   3.939  1.00  0.00     0.029 A 
HETATM   14  C   UNL     1      61.845  10.723   2.672  1.00  0.00     0.002 A 
HETATM   15  C   UNL     1      62.140   9.414   2.329  1.00  0.00     0.001 A 
HETATM   16  C   UNL     1      62.707   8.557   3.278  1.00  0.00     0.011 A 
BRANCH  12  17
HETATM   17  N   UNL     1      63.279  10.970   6.062  1.00  0.00    -0.399 N 
HETATM   18  H   UNL     1      62.733  11.644   6.529  1.00  0.00     0.156 HD
HETATM   19  H   UNL     1      64.163  10.723   6.417  1.00  0.00     0.156 HD
ENDBRANCH  12  17
ENDBRANCH   1  11
TORSDOF 3
ENDMDL
MODEL 2
REMARK VINA RESULT:      -5.4      1.607      2.127
REMARK  3 active torsions:
REMARK  status: ('A' for Active; 'I' for Inactive)
REMARK    1  A    between atoms: N_1  and  C_4 
REMARK    2  A    between atoms: C_2  and  C_4 
REMARK    3  A    between atoms: C_5  and  N_10 
ROOT
HETATM    1  C   UNL     1      63.734   7.412   4.095  1.00  0.00     0.275 C 
ENDROOT
BRANCH   1   2
HETATM    2  N   UNL     1      64.531   7.669   5.325  1.00  0.00    -0.064 N 
HETATM    3  C   UNL     1      64.493   6.500   6.233  1.00  0.00     0.263 C 
HETATM    4  C   UNL     1      65.417   6.657   7.467  1.00  0.00     0.262 C 
HETATM    5  N   UNL     1      66.824   6.976   7.160  1.00  0.00    -0.072 N 
HETATM    6  C   UNL     1      66.849   8.134   6.247  1.00  0.00     0.262 C 
HETATM    7  C   UNL     1      67.536   5.831   6.594  1.00  0.00     0.269 C 
HETATM    8  H   UNL     1      67.311   7.208   8.026  1.00  0.00     0.279 HD
HETATM    9  C   UNL     1      65.937   7.998   5.002  1.00  0.00     0.263 C 
HETATM   10  H   UNL     1      64.108   8.470   5.793  1.00  0.00     0.280 HD
ENDBRANCH   1   2
BRANCH   1  11
HETATM   11  C   UNL     1      62.937   8.629   3.625  1.00  0.00    -0.006 A 
HETATM   12  C   UNL     1      62.524   8.806   2.292  1.00  0.00     0.033 A 
HETATM   13  C   UNL     1      62.005  10.051   1.890  1.00  0.00     0.029 A 
HETATM   14  C   UNL     1      61.833  11.089   2.807  1.00  0.00     0.002 A 
HETATM   15  C   UNL     1      62.146  10.887   4.141  1.00  0.00     0.001 A 
HETATM   16  C   UNL     1      62.705   9.671   4.548  1.00  0.00     0.011 A 
BRANCH  12  17
HETATM   17  N   UNL     1      62.483   7.761   1.353  1.00  0.00    -0.399 N 
HETATM   18  H   UNL     1      62.622   7.952   0.398  1.00  0.00     0.156 HD
HETATM   19  H   UNL     1      62.315   6.838   1.651  1.00  0.00     0.156 HD
ENDBRANCH  12  17
ENDBRANCH   1  11
TORSDOF 3
ENDMDL
MODEL 3
REMARK VINA RESULT:      -5.0     16.767     20.138
REMARK  3 active torsions:
REMARK  status: ('A' for Active; 'I' for Inactive)
REMARK    1  A    between atoms: N_1  and  C_4 
REMARK    2  A    between atoms: C_2  and  C_4 
REMARK    3  A    between atoms: C_5  and  N_10 
ROOT
HETATM    1  C   UNL     1      77.165   0.767  17.922  1.00  0.00     0.275 C 
ENDROOT
BRANCH   1   2
HETATM    2  N   UNL     1      77.431   0.540  19.368  1.00  0.00    -0.064 N 
HETATM    3  C   UNL     1      77.043  -0.831  19.769  1.00  0.00     0.263 C 
HETATM    4  C   UNL     1      77.424  -1.169  21.232  1.00  0.00     0.262 C 
HETATM    5  N   UNL     1      78.843  -0.956  21.576  1.00  0.00    -0.072 N 
HETATM    6  C   UNL     1      79.221   0.408  21.162  1.00  0.00     0.262 C 
HETATM    7  C   UNL     1      79.713  -1.961  20.966  1.00  0.00     0.269 C 
HETATM    8  H   UNL     1      78.962  -1.057  22.583  1.00  0.00     0.279 HD
HETATM    9  C   UNL     1      78.855   0.767  19.700  1.00  0.00     0.263 C 
HETATM   10  H   UNL     1      76.865   1.213  19.885  1.00  0.00     0.280 HD
ENDBRANCH   1   2
BRANCH   1  11
HETATM   11  C   UNL     1      76.380   2.048  17.644  1.00  0.00    -0.006 A 
HETATM   12  C   UNL     1      75.087   2.049  17.088  1.00  0.00     0.033 A 
HETATM   13  C   UNL     1      74.527   3.263  16.646  1.00  0.00     0.029 A 
HETATM   14  C   UNL     1      75.206   4.471  16.812  1.00  0.00     0.002 A 
HETATM   15  C   UNL     1      76.436   4.487  17.449  1.00  0.00     0.001 A 
HETATM   16  C   UNL     1      77.025   3.285  17.853  1.00  0.00     0.011 A 
BRANCH  12  17
HETATM   17  N   UNL     1      74.261   0.914  17.058  1.00  0.00    -0.399 N 
HETATM   18  H   UNL     1      74.339   0.266  16.321  1.00  0.00     0.156 HD
HETATM   19  H   UNL     1      73.602   0.765  17.775  1.00  0.00     0.156 HD
ENDBRANCH  12  17
ENDBRANCH   1  11
TORSDOF 3
ENDMDL
MODEL 4
REMARK VINA RESULT:      -4.9      3.124      7.669
REMARK  3 active torsions:
REMARK  status: ('A' for Active; 'I' for Inactive)
REMARK    1  A    between atoms: N_1  and  C_4 
REMARK    2  A    between atoms: C_2  and  C_4 
REMARK    3  A    between atoms: C_5  and  N_10 
ROOT
HETATM    1  C   UNL     1      67.755   4.667   6.749  1.00  0.00     0.275 C 
ENDROOT
BRANCH   1   2
HETATM    2  N   UNL     1      66.873   5.840   6.992  1.00  0.00    -0.064 N 
HETATM    3  C   UNL     1      67.330   7.016   6.217  1.00  0.00     0.263 C 
HETATM    4  C   UNL     1      66.370   8.227   6.324  1.00  0.00     0.262 C 
HETATM    5  N   UNL     1      64.965   7.946   5.976  1.00  0.00    -0.072 N 
HETATM    6  C   UNL     1      64.523   6.767   6.746  1.00  0.00     0.262 C 
HETATM    7  C   UNL     1      64.783   7.746   4.539  1.00  0.00     0.269 C 
HETATM    8  H   UNL     1      64.391   8.753   6.222  1.00  0.00     0.279 HD
HETATM    9  C   UNL     1      65.465   5.540   6.649  1.00  0.00     0.263 C 
HETATM   10  H   UNL     1      66.927   6.054   7.987  1.00  0.00     0.280 HD
ENDBRANCH   1   2
BRANCH   1  11
HETATM   11  C   UNL     1      68.249   4.005   8.035  1.00  0.00    -0.006 A 
HETATM   12  C   UNL     1      69.372   4.463   8.750  1.00  0.00     0.033 A 
HETATM   13  C   UNL     1      69.902   3.668   9.784  1.00  0.00     0.029 A 
HETATM   14  C   UNL     1      69.293   2.468  10.154  1.00  0.00     0.002 A 
HETATM   15  C   UNL     1      68.131   2.062   9.518  1.00  0.00     0.001 A 
HETATM   16  C   UNL     1      67.617   2.818   8.459  1.00  0.00     0.011 A 
BRANCH  12  17
HETATM   17  N   UNL     1      69.929   5.740   8.573  1.00  0.00    -0.399 N 
HETATM   18  H   UNL     1      70.164   6.288   9.357  1.00  0.00     0.156 HD
HETATM   19  H   UNL     1      70.084   6.089   7.666  1.00  0.00     0.156 HD
ENDBRANCH  12  17
ENDBRANCH   1  11
TORSDOF 3
ENDMDL
MODEL 5
REMARK VINA RESULT:      -4.9      3.122      4.452
REMARK  3 active torsions:
REMARK  status: ('A' for Active; 'I' for Inactive)
REMARK    1  A    between atoms: N_1  and  C_4 
REMARK    2  A    between atoms: C_2  and  C_4 
REMARK    3  A    between atoms: C_5  and  N_10 
ROOT
HETATM    1  C   UNL     1      62.725   7.555   4.358  1.00  0.00     0.275 C 
ENDROOT
BRANCH   1   2
HETATM    2  N   UNL     1      61.484   7.019   4.978  1.00  0.00    -0.064 N 
HETATM    3  C   UNL     1      60.908   5.931   4.157  1.00  0.00     0.263 C 
HETATM    4  C   UNL     1      59.690   5.243   4.823  1.00  0.00     0.262 C 
HETATM    5  N   UNL     1      59.926   4.735   6.187  1.00  0.00    -0.072 N 
HETATM    6  C   UNL     1      60.508   5.824   6.994  1.00  0.00     0.262 C 
HETATM    7  C   UNL     1      60.780   3.548   6.192  1.00  0.00     0.269 C 
HETATM    8  H   UNL     1      59.037   4.442   6.593  1.00  0.00     0.279 HD
HETATM    9  C   UNL     1      61.732   6.524   6.350  1.00  0.00     0.263 C 
HETATM   10  H   UNL     1      60.817   7.790   5.026  1.00  0.00     0.280 HD
ENDBRANCH   1   2
BRANCH   1  11
HETATM   11  C   UNL     1      62.529   8.913   3.687  1.00  0.00    -0.006 A 
HETATM   12  C   UNL     1      62.484  10.123   4.405  1.00  0.00     0.033 A 
HETATM   13  C   UNL     1      62.067  11.298   3.751  1.00  0.00     0.029 A 
HETATM   14  C   UNL     1      61.763  11.295   2.388  1.00  0.00     0.002 A 
HETATM   15  C   UNL     1      61.902  10.128   1.656  1.00  0.00     0.001 A 
HETATM   16  C   UNL     1      62.271   8.942   2.300  1.00  0.00     0.011 A 
BRANCH  12  17
HETATM   17  N   UNL     1      62.953  10.254   5.722  1.00  0.00    -0.399 N 
HETATM   18  H   UNL     1      62.659  11.013   6.276  1.00  0.00     0.156 HD
HETATM   19  H   UNL     1      63.576   9.588   6.092  1.00  0.00     0.156 HD
ENDBRANCH  12  17
ENDBRANCH   1  11
TORSDOF 3
ENDMDL
MODEL 6
REMARK VINA RESULT:      -4.8      2.283      6.826
REMARK  3 active torsions:
REMARK  status: ('A' for Active; 'I' for Inactive)
REMARK    1  A    between atoms: N_1  and  C_4 
REMARK    2  A    between atoms: C_2  and  C_4 
REMARK    3  A    between atoms: C_5  and  N_10 
ROOT
HETATM    1  C   UNL     1      67.626   6.271   6.078  1.00  0.00     0.275 C 
ENDROOT
BRANCH   1   2
HETATM    2  N   UNL     1      66.199   6.215   5.663  1.00  0.00    -0.064 N 
HETATM    3  C   UNL     1      65.328   6.856   6.675  1.00  0.00     0.263 C 
HETATM    4  C   UNL     1      63.846   6.950   6.232  1.00  0.00     0.262 C 
HETATM    5  N   UNL     1      63.621   7.602   4.929  1.00  0.00    -0.072 N 
HETATM    6  C   UNL     1      64.500   6.963   3.932  1.00  0.00     0.262 C 
HETATM    7  C   UNL     1      63.842   9.046   4.991  1.00  0.00     0.269 C 
HETATM    8  H   UNL     1      62.646   7.480   4.658  1.00  0.00     0.279 HD
HETATM    9  C   UNL     1      65.989   6.863   4.350  1.00  0.00     0.263 C 
HETATM   10  H   UNL     1      65.949   5.230   5.584  1.00  0.00     0.280 HD
ENDBRANCH   1   2
BRANCH   1  11
HETATM   11  C   UNL     1      68.025   5.141   7.026  1.00  0.00    -0.006 A 
HETATM   12  C   UNL     1      68.373   5.358   8.373  1.00  0.00     0.033 A 
HETATM   13  C   UNL     1      68.952   4.309   9.113  1.00  0.00     0.029 A 
HETATM   14  C   UNL     1      69.125   3.042   8.553  1.00  0.00     0.002 A 
HETATM   15  C   UNL     1      68.694   2.798   7.260  1.00  0.00     0.001 A 
HETATM   16  C   UNL     1      68.158   3.840   6.496  1.00  0.00     0.011 A 
BRANCH  12  17
HETATM   17  N   UNL     1      68.059   6.537   9.069  1.00  0.00    -0.399 N 
HETATM   18  H   UNL     1      67.872   7.366   8.573  1.00  0.00     0.156 HD
HETATM   19  H   UNL     1      68.026   6.534  10.053  1.00  0.00     0.156 HD
ENDBRANCH  12  17
ENDBRANCH   1  11
TORSDOF 3
ENDMDL
MODEL 7
REMARK VINA RESULT:      -4.8      4.213      8.792
REMARK  3 active torsions:
REMARK  status: ('A' for Active; 'I' for Inactive)
REMARK    1  A    between atoms: N_1  and  C_4 
REMARK    2  A    between atoms: C_2  and  C_4 
REMARK    3  A    between atoms: C_5  and  N_10 
ROOT
HETATM    1  C   UNL     1      68.973   3.936   7.639  1.00  0.00     0.275 C 
ENDROOT
BRANCH   1   2
HETATM    2  N   UNL     1      67.667   4.604   7.889  1.00  0.00    -0.064 N 
HETATM    3  C   UNL     1      67.854   5.872   8.630  1.00  0.00     0.263 C 
HETATM    4  C   UNL     1      66.542   6.678   8.799  1.00  0.00     0.262 C 
HETATM    5  N   UNL     1      65.814   6.960   7.548  1.00  0.00    -0.072 N 
HETATM    6  C   UNL     1      65.642   5.692   6.814  1.00  0.00     0.262 C 
HETATM    7  C   UNL     1      66.494   7.965   6.731  1.00  0.00     0.269 C 
HETATM    8  H   UNL     1      64.901   7.354   7.774  1.00  0.00     0.279 HD
HETATM    9  C   UNL     1      66.943   4.871   6.627  1.00  0.00     0.263 C 
HETATM   10  H   UNL     1      67.109   3.965   8.456  1.00  0.00     0.280 HD
ENDBRANCH   1   2
BRANCH   1  11
HETATM   11  C   UNL     1      69.094   2.570   8.313  1.00  0.00    -0.006 A 
HETATM   12  C   UNL     1      69.635   2.396   9.601  1.00  0.00     0.033 A 
HETATM   13  C   UNL     1      69.929   1.096  10.055  1.00  0.00     0.029 A 
HETATM   14  C   UNL     1      69.631  -0.024   9.277  1.00  0.00     0.002 A 
HETATM   15  C   UNL     1      69.008   0.138   8.051  1.00  0.00     0.001 A 
HETATM   16  C   UNL     1      68.750   1.424   7.565  1.00  0.00     0.011 A 
BRANCH  12  17
HETATM   17  N   UNL     1      69.787   3.447  10.520  1.00  0.00    -0.399 N 
HETATM   18  H   UNL     1      69.992   3.250  11.463  1.00  0.00     0.156 HD
HETATM   19  H   UNL     1      69.689   4.380  10.223  1.00  0.00     0.156 HD
ENDBRANCH  12  17
ENDBRANCH   1  11
TORSDOF 3
ENDMDL
MODEL 8
REMARK VINA RESULT:      -4.7      1.916      3.195
REMARK  3 active torsions:
REMARK  status: ('A' for Active; 'I' for Inactive)
REMARK    1  A    between atoms: N_1  and  C_4 
REMARK    2  A    between atoms: C_2  and  C_4 
REMARK    3  A    between atoms: C_5  and  N_10 
ROOT
HETATM    1  C   UNL     1      66.128   7.311   5.156  1.00  0.00     0.275 C 
ENDROOT
BRANCH   1   2
HETATM    2  N   UNL     1      66.001   6.583   6.447  1.00  0.00    -0.064 N 
HETATM    3  C   UNL     1      66.563   5.217   6.342  1.00  0.00     0.263 C 
HETATM    4  C   UNL     1      66.582   4.460   7.694  1.00  0.00     0.262 C 
HETATM    5  N   UNL     1      67.255   5.168   8.799  1.00  0.00    -0.072 N 
HETATM    6  C   UNL     1      66.694   6.530   8.888  1.00  0.00     0.262 C 
HETATM    7  C   UNL     1      68.707   5.197   8.631  1.00  0.00     0.269 C 
HETATM    8  H   UNL     1      67.084   4.667   9.671  1.00  0.00     0.279 HD
HETATM    9  C   UNL     1      66.670   7.309   7.548  1.00  0.00     0.263 C 
HETATM   10  H   UNL     1      65.005   6.519   6.657  1.00  0.00     0.280 HD
ENDBRANCH   1   2
BRANCH   1  11
HETATM   11  C   UNL     1      64.786   7.763   4.581  1.00  0.00    -0.006 A 
HETATM   12  C   UNL     1      64.197   7.166   3.451  1.00  0.00     0.033 A 
HETATM   13  C   UNL     1      63.087   7.785   2.844  1.00  0.00     0.029 A 
HETATM   14  C   UNL     1      62.522   8.942   3.385  1.00  0.00     0.002 A 
HETATM   15  C   UNL     1      63.039   9.476   4.554  1.00  0.00     0.001 A 
HETATM   16  C   UNL     1      64.169   8.900   5.143  1.00  0.00     0.011 A 
BRANCH  12  17
HETATM   17  N   UNL     1      64.578   5.908   2.957  1.00  0.00    -0.399 N 
HETATM   18  H   UNL     1      64.784   5.176   3.582  1.00  0.00     0.156 HD
HETATM   19  H   UNL     1      64.640   5.758   1.987  1.00  0.00     0.156 HD
ENDBRANCH  12  17
ENDBRANCH   1  11
TORSDOF 3
ENDMDL
MODEL 9
REMARK VINA RESULT:      -4.6     16.781     19.963
REMARK  3 active torsions:
REMARK  status: ('A' for Active; 'I' for Inactive)
REMARK    1  A    between atoms: N_1  and  C_4 
REMARK    2  A    between atoms: C_2  and  C_4 
REMARK    3  A    between atoms: C_5  and  N_10 
ROOT
HETATM    1  C   UNL     1      76.916  -1.255  17.107  1.00  0.00     0.275 C 
ENDROOT
BRANCH   1   2
HETATM    2  N   UNL     1      78.025  -0.614  17.862  1.00  0.00    -0.064 N 
HETATM    3  C   UNL     1      77.548   0.586  18.587  1.00  0.00     0.263 C 
HETATM    4  C   UNL     1      78.629   1.216  19.500  1.00  0.00     0.262 C 
HETATM    5  N   UNL     1      79.250   0.292  20.467  1.00  0.00    -0.072 N 
HETATM    6  C   UNL     1      79.712  -0.902  19.736  1.00  0.00     0.262 C 
HETATM    7  C   UNL     1      78.336  -0.064  21.552  1.00  0.00     0.269 C 
HETATM    8  H   UNL     1      80.044   0.755  20.910  1.00  0.00     0.279 HD
HETATM    9  C   UNL     1      78.646  -1.555  18.820  1.00  0.00     0.263 C 
HETATM   10  H   UNL     1      78.729  -0.333  17.179  1.00  0.00     0.280 HD
ENDBRANCH   1   2
BRANCH   1  11
HETATM   11  C   UNL     1      76.742  -0.696  15.695  1.00  0.00    -0.006 A 
HETATM   12  C   UNL     1      75.543  -0.114  15.244  1.00  0.00     0.033 A 
HETATM   13  C   UNL     1      75.382   0.161  13.873  1.00  0.00     0.029 A 
HETATM   14  C   UNL     1      76.418  -0.073  12.966  1.00  0.00     0.002 A 
HETATM   15  C   UNL     1      77.634  -0.554  13.420  1.00  0.00     0.001 A 
HETATM   16  C   UNL     1      77.794  -0.874  14.773  1.00  0.00     0.011 A 
BRANCH  12  17
HETATM   17  N   UNL     1      74.529   0.329  16.109  1.00  0.00    -0.399 N 
HETATM   18  H   UNL     1      73.786  -0.272  16.346  1.00  0.00     0.156 HD
HETATM   19  H   UNL     1      74.561   1.240  16.480  1.00  0.00     0.156 HD
ENDBRANCH  12  17
ENDBRANCH   1  11
TORSDOF 3
ENDMDL
