MODEL 1
REMARK VINA RESULT:      -5.3      0.000      0.000
REMARK  3 active torsions:
REMARK  status: ('A' for Active; 'I' for Inactive)
REMARK    1  A    between atoms: C_1  and  C_2 
REMARK    2  A    between atoms: C_8  and  C_12 
REMARK    3  A    between atoms: N_9  and  C_12 
ROOT
HETATM    1  C   UNL     1      76.513   2.494  17.852  1.00  0.00    -0.025 A 
HETATM    2  C   UNL     1      77.059   3.786  17.762  1.00  0.00     0.021 A 
HETATM    3  C   UNL     1      76.340   4.842  17.180  1.00  0.00    -0.032 A 
HETATM    4  C   UNL     1      75.216   2.280  17.366  1.00  0.00     0.012 A 
HETATM    5  C   UNL     1      74.491   3.321  16.782  1.00  0.00     0.001 A 
HETATM    6  C   UNL     1      75.055   4.589  16.677  1.00  0.00     0.009 A 
ENDROOT
BRANCH   1   7
HETATM    7  C   UNL     1      77.288   1.372  18.389  1.00  0.00    -0.019 A 
HETATM    8  C   UNL     1      78.277   1.530  19.345  1.00  0.00     0.061 A 
HETATM    9  S   UNL     1      79.051   0.059  19.756  1.00  0.00    -0.113 SA
HETATM   10  C   UNL     1      78.065  -0.823  18.677  1.00  0.00     0.050 A 
HETATM   11  C   UNL     1      77.168  -0.011  18.019  1.00  0.00     0.020 A 
ENDBRANCH   1   7
BRANCH   3  12
HETATM   12  C   UNL     1      76.960   6.215  17.061  1.00  0.00     0.270 C 
BRANCH  12  13
HETATM   13  N   UNL     1      76.367   7.160  18.008  1.00  0.00    -0.075 N 
HETATM   14  C   UNL     1      77.054   8.442  17.969  1.00  0.00     0.267 C 
HETATM   15  H   UNL     1      76.435   6.773  18.949  1.00  0.00     0.277 HD
HETATM   16  H   UNL     1      75.392   7.307  17.750  1.00  0.00     0.277 HD
ENDBRANCH  12  13
ENDBRANCH   3  12
TORSDOF 3
ENDMDL
MODEL 2
REMARK VINA RESULT:      -5.2     18.666     20.542
REMARK  3 active torsions:
REMARK  status: ('A' for Active; 'I' for Inactive)
REMARK    1  A    between atoms: C_1  and  C_2 
REMARK    2  A    between atoms: C_8  and  C_12 
REMARK    3  A    between atoms: N_9  and  C_12 
ROOT
HETATM    1  C   UNL     1      63.457   9.050   4.655  1.00  0.00    -0.025 A 
HETATM    2  C   UNL     1      62.965   8.717   3.382  1.00  0.00     0.021 A 
HETATM    3  C   UNL     1      62.141   9.600   2.665  1.00  0.00    -0.032 A 
HETATM    4  C   UNL     1      63.127  10.301   5.195  1.00  0.00     0.012 A 
HETATM    5  C   UNL     1      62.306  11.187   4.494  1.00  0.00     0.001 A 
HETATM    6  C   UNL     1      61.806  10.833   3.245  1.00  0.00     0.009 A 
ENDROOT
BRANCH   1   7
HETATM    7  C   UNL     1      64.253   8.101   5.439  1.00  0.00    -0.019 A 
HETATM    8  C   UNL     1      65.635   8.149   5.500  1.00  0.00     0.061 A 
HETATM    9  S   UNL     1      66.306   6.893   6.452  1.00  0.00    -0.113 SA
HETATM   10  C   UNL     1      64.760   6.271   6.817  1.00  0.00     0.050 A 
HETATM   11  C   UNL     1      63.756   7.005   6.225  1.00  0.00     0.020 A 
ENDBRANCH   1   7
BRANCH   3  12
HETATM   12  C   UNL     1      61.594   9.207   1.312  1.00  0.00     0.270 C 
BRANCH  12  13
HETATM   13  N   UNL     1      60.190   8.805   1.392  1.00  0.00    -0.075 N 
HETATM   14  C   UNL     1      59.859   7.848   0.347  1.00  0.00     0.267 C 
HETATM   15  H   UNL     1      59.601   9.631   1.286  1.00  0.00     0.277 HD
HETATM   16  H   UNL     1      60.031   8.364   2.297  1.00  0.00     0.277 HD
ENDBRANCH  12  13
ENDBRANCH   3  12
TORSDOF 3
ENDMDL
MODEL 3
REMARK VINA RESULT:      -4.8     19.381     21.401
REMARK  3 active torsions:
REMARK  status: ('A' for Active; 'I' for Inactive)
REMARK    1  A    between atoms: C_1  and  C_2 
REMARK    2  A    between atoms: C_8  and  C_12 
REMARK    3  A    between atoms: N_9  and  C_12 
ROOT
HETATM    1  C   UNL     1      62.240   8.983   3.036  1.00  0.00    -0.025 A 
HETATM    2  C   UNL     1      63.272   8.344   3.744  1.00  0.00     0.021 A 
HETATM    3  C   UNL     1      63.878   8.954   4.854  1.00  0.00    -0.032 A 
HETATM    4  C   UNL     1      61.806  10.242   3.473  1.00  0.00     0.012 A 
HETATM    5  C   UNL     1      62.402  10.860   4.574  1.00  0.00     0.001 A 
HETATM    6  C   UNL     1      63.440  10.226   5.251  1.00  0.00     0.009 A 
ENDROOT
BRANCH   1   7
HETATM    7  C   UNL     1      61.657   8.385   1.831  1.00  0.00    -0.019 A 
HETATM    8  C   UNL     1      60.307   8.107   1.706  1.00  0.00     0.061 A 
HETATM    9  S   UNL     1      59.911   7.370   0.213  1.00  0.00    -0.113 SA
HETATM   10  C   UNL     1      61.536   7.424  -0.306  1.00  0.00     0.050 A 
HETATM   11  C   UNL     1      62.359   7.992   0.640  1.00  0.00     0.020 A 
ENDBRANCH   1   7
BRANCH   3  12
HETATM   12  C   UNL     1      65.010   8.265   5.582  1.00  0.00     0.270 C 
BRANCH  12  13
HETATM   13  N   UNL     1      64.518   7.394   6.648  1.00  0.00    -0.075 N 
HETATM   14  C   UNL     1      65.613   6.695   7.303  1.00  0.00     0.267 C 
HETATM   15  H   UNL     1      63.876   6.709   6.247  1.00  0.00     0.277 HD
HETATM   16  H   UNL     1      64.040   7.969   7.341  1.00  0.00     0.277 HD
ENDBRANCH  12  13
ENDBRANCH   3  12
TORSDOF 3
ENDMDL
MODEL 4
REMARK VINA RESULT:      -4.7      4.025      6.311
REMARK  3 active torsions:
REMARK  status: ('A' for Active; 'I' for Inactive)
REMARK    1  A    between atoms: C_1  and  C_2 
REMARK    2  A    between atoms: C_8  and  C_12 
REMARK    3  A    between atoms: N_9  and  C_12 
ROOT
HETATM    1  C   UNL     1      74.876   1.604  17.021  1.00  0.00    -0.025 A 
HETATM    2  C   UNL     1      74.533   0.883  18.178  1.00  0.00     0.021 A 
HETATM    3  C   UNL     1      73.959  -0.396  18.095  1.00  0.00    -0.032 A 
HETATM    4  C   UNL     1      74.654   1.011  15.771  1.00  0.00     0.012 A 
HETATM    5  C   UNL     1      74.081  -0.259  15.675  1.00  0.00     0.001 A 
HETATM    6  C   UNL     1      73.723  -0.951  16.829  1.00  0.00     0.009 A 
ENDROOT
BRANCH   1   7
HETATM    7  C   UNL     1      75.404   2.969  17.101  1.00  0.00    -0.019 A 
HETATM    8  C   UNL     1      76.554   3.292  17.798  1.00  0.00     0.061 A 
HETATM    9  S   UNL     1      76.912   4.966  17.761  1.00  0.00    -0.113 SA
HETATM   10  C   UNL     1      75.545   5.291  16.793  1.00  0.00     0.050 A 
HETATM   11  C   UNL     1      74.833   4.147  16.508  1.00  0.00     0.020 A 
ENDBRANCH   1   7
BRANCH   3  12
HETATM   12  C   UNL     1      73.566  -1.140  19.351  1.00  0.00     0.270 C 
BRANCH  12  13
HETATM   13  N   UNL     1      72.367  -1.951  19.145  1.00  0.00    -0.075 N 
HETATM   14  C   UNL     1      72.567  -3.313  19.619  1.00  0.00     0.267 C 
HETATM   15  H   UNL     1      72.147  -1.973  18.149  1.00  0.00     0.277 HD
HETATM   16  H   UNL     1      71.600  -1.535  19.672  1.00  0.00     0.277 HD
ENDBRANCH  12  13
ENDBRANCH   3  12
TORSDOF 3
ENDMDL
MODEL 5
REMARK VINA RESULT:      -4.7     12.149     14.514
REMARK  3 active torsions:
REMARK  status: ('A' for Active; 'I' for Inactive)
REMARK    1  A    between atoms: C_1  and  C_2 
REMARK    2  A    between atoms: C_8  and  C_12 
REMARK    3  A    between atoms: N_9  and  C_12 
ROOT
HETATM    1  C   UNL     1      68.204   4.973   8.012  1.00  0.00    -0.025 A 
HETATM    2  C   UNL     1      67.584   3.740   8.276  1.00  0.00     0.021 A 
HETATM    3  C   UNL     1      68.213   2.762   9.062  1.00  0.00    -0.032 A 
HETATM    4  C   UNL     1      69.465   5.222   8.570  1.00  0.00     0.012 A 
HETATM    5  C   UNL     1      70.104   4.257   9.351  1.00  0.00     0.001 A 
HETATM    6  C   UNL     1      69.488   3.030   9.584  1.00  0.00     0.009 A 
ENDROOT
BRANCH   1   7
HETATM    7  C   UNL     1      67.585   5.966   7.129  1.00  0.00    -0.019 A 
HETATM    8  C   UNL     1      67.637   5.882   5.749  1.00  0.00     0.061 A 
HETATM    9  S   UNL     1      66.870   7.200   4.969  1.00  0.00    -0.113 SA
HETATM   10  C   UNL     1      66.435   7.900   6.463  1.00  0.00     0.050 A 
HETATM   11  C   UNL     1      66.867   7.145   7.531  1.00  0.00     0.020 A 
ENDBRANCH   1   7
BRANCH   3  12
HETATM   12  C   UNL     1      67.543   1.429   9.306  1.00  0.00     0.270 C 
BRANCH  12  13
HETATM   13  N   UNL     1      67.187   1.252  10.713  1.00  0.00    -0.075 N 
HETATM   14  C   UNL     1      66.393   0.048  10.906  1.00  0.00     0.267 C 
HETATM   15  H   UNL     1      66.647   2.060  11.023  1.00  0.00     0.277 HD
HETATM   16  H   UNL     1      68.045   1.164  11.256  1.00  0.00     0.277 HD
ENDBRANCH  12  13
ENDBRANCH   3  12
TORSDOF 3
ENDMDL
MODEL 6
REMARK VINA RESULT:      -4.6     12.988     14.618
REMARK  3 active torsions:
REMARK  status: ('A' for Active; 'I' for Inactive)
REMARK    1  A    between atoms: C_1  and  C_2 
REMARK    2  A    between atoms: C_8  and  C_12 
REMARK    3  A    between atoms: N_9  and  C_12 
ROOT
HETATM    1  C   UNL     1      67.976   4.483   6.815  1.00  0.00    -0.025 A 
HETATM    2  C   UNL     1      67.729   5.863   6.725  1.00  0.00     0.021 A 
HETATM    3  C   UNL     1      67.285   6.446   5.527  1.00  0.00    -0.032 A 
HETATM    4  C   UNL     1      67.748   3.686   5.685  1.00  0.00     0.012 A 
HETATM    5  C   UNL     1      67.309   4.253   4.487  1.00  0.00     0.001 A 
HETATM    6  C   UNL     1      67.093   5.626   4.405  1.00  0.00     0.009 A 
ENDROOT
BRANCH   1   7
HETATM    7  C   UNL     1      68.513   3.881   8.039  1.00  0.00    -0.019 A 
HETATM    8  C   UNL     1      68.157   2.618   8.476  1.00  0.00     0.061 A 
HETATM    9  S   UNL     1      68.900   2.187   9.957  1.00  0.00    -0.113 SA
HETATM   10  C   UNL     1      69.729   3.676  10.036  1.00  0.00     0.050 A 
HETATM   11  C   UNL     1      69.443   4.482   8.955  1.00  0.00     0.020 A 
ENDBRANCH   1   7
BRANCH   3  12
HETATM   12  C   UNL     1      67.058   7.939   5.441  1.00  0.00     0.270 C 
BRANCH  12  13
HETATM   13  N   UNL     1      65.830   8.339   6.127  1.00  0.00    -0.075 N 
HETATM   14  C   UNL     1      64.758   8.595   5.177  1.00  0.00     0.267 C 
HETATM   15  H   UNL     1      66.011   9.189   6.662  1.00  0.00     0.277 HD
HETATM   16  H   UNL     1      65.542   7.581   6.744  1.00  0.00     0.277 HD
ENDBRANCH  12  13
ENDBRANCH   3  12
TORSDOF 3
ENDMDL
MODEL 7
REMARK VINA RESULT:      -4.6      3.624      4.505
REMARK  3 active torsions:
REMARK  status: ('A' for Active; 'I' for Inactive)
REMARK    1  A    between atoms: C_1  and  C_2 
REMARK    2  A    between atoms: C_8  and  C_12 
REMARK    3  A    between atoms: N_9  and  C_12 
ROOT
HETATM    1  C   UNL     1      76.289   0.131  15.494  1.00  0.00    -0.025 A 
HETATM    2  C   UNL     1      77.038   0.797  16.479  1.00  0.00     0.021 A 
HETATM    3  C   UNL     1      76.413   1.416  17.574  1.00  0.00    -0.032 A 
HETATM    4  C   UNL     1      74.896   0.075  15.635  1.00  0.00     0.012 A 
HETATM    5  C   UNL     1      74.262   0.689  16.717  1.00  0.00     0.001 A 
HETATM    6  C   UNL     1      75.015   1.366  17.672  1.00  0.00     0.009 A 
ENDROOT
BRANCH   1   7
HETATM    7  C   UNL     1      76.930  -0.450  14.310  1.00  0.00    -0.019 A 
HETATM    8  C   UNL     1      78.059  -1.246  14.381  1.00  0.00     0.061 A 
HETATM    9  S   UNL     1      78.619  -1.750  12.843  1.00  0.00    -0.113 SA
HETATM   10  C   UNL     1      77.350  -0.928  12.052  1.00  0.00     0.050 A 
HETATM   11  C   UNL     1      76.520  -0.284  12.943  1.00  0.00     0.020 A 
ENDBRANCH   1   7
BRANCH   3  12
HETATM   12  C   UNL     1      77.235   2.157  18.604  1.00  0.00     0.270 C 
BRANCH  12  13
HETATM   13  N   UNL     1      76.622   3.434  18.968  1.00  0.00    -0.075 N 
HETATM   14  C   UNL     1      76.893   4.451  17.964  1.00  0.00     0.267 C 
HETATM   15  H   UNL     1      77.000   3.740  19.865  1.00  0.00     0.277 HD
HETATM   16  H   UNL     1      75.613   3.302  19.031  1.00  0.00     0.277 HD
ENDBRANCH  12  13
ENDBRANCH   3  12
TORSDOF 3
ENDMDL
MODEL 8
REMARK VINA RESULT:      -4.4     14.046     15.762
REMARK  3 active torsions:
REMARK  status: ('A' for Active; 'I' for Inactive)
REMARK    1  A    between atoms: C_1  and  C_2 
REMARK    2  A    between atoms: C_8  and  C_12 
REMARK    3  A    between atoms: N_9  and  C_12 
ROOT
HETATM    1  C   UNL     1      67.283   6.017   6.593  1.00  0.00    -0.025 A 
HETATM    2  C   UNL     1      65.887   6.138   6.704  1.00  0.00     0.021 A 
HETATM    3  C   UNL     1      65.177   7.091   5.956  1.00  0.00    -0.032 A 
HETATM    4  C   UNL     1      67.959   6.856   5.698  1.00  0.00     0.012 A 
HETATM    5  C   UNL     1      67.266   7.810   4.950  1.00  0.00     0.001 A 
HETATM    6  C   UNL     1      65.886   7.936   5.089  1.00  0.00     0.009 A 
ENDROOT
BRANCH   1   7
HETATM    7  C   UNL     1      68.036   5.077   7.428  1.00  0.00    -0.019 A 
HETATM    8  C   UNL     1      68.570   5.423   8.657  1.00  0.00     0.061 A 
HETATM    9  S   UNL     1      69.439   4.144   9.393  1.00  0.00    -0.113 SA
HETATM   10  C   UNL     1      69.103   3.095   8.090  1.00  0.00     0.050 A 
HETATM   11  C   UNL     1      68.345   3.708   7.117  1.00  0.00     0.020 A 
ENDBRANCH   1   7
BRANCH   3  12
HETATM   12  C   UNL     1      63.680   7.229   6.116  1.00  0.00     0.270 C 
BRANCH  12  13
HETATM   13  N   UNL     1      63.221   8.575   5.777  1.00  0.00    -0.075 N 
HETATM   14  C   UNL     1      62.359   8.556   4.605  1.00  0.00     0.267 C 
HETATM   15  H   UNL     1      64.032   9.164   5.584  1.00  0.00     0.277 HD
HETATM   16  H   UNL     1      62.689   8.944   6.564  1.00  0.00     0.277 HD
ENDBRANCH  12  13
ENDBRANCH   3  12
TORSDOF 3
ENDMDL
MODEL 9
REMARK VINA RESULT:      -4.3     32.893     34.797
REMARK  3 active torsions:
REMARK  status: ('A' for Active; 'I' for Inactive)
REMARK    1  A    between atoms: C_1  and  C_2 
REMARK    2  A    between atoms: C_8  and  C_12 
REMARK    3  A    between atoms: N_9  and  C_12 
ROOT
HETATM    1  C   UNL     1      48.938  16.995   3.044  1.00  0.00    -0.025 A 
HETATM    2  C   UNL     1      48.174  18.149   3.292  1.00  0.00     0.021 A 
HETATM    3  C   UNL     1      48.342  19.312   2.525  1.00  0.00    -0.032 A 
HETATM    4  C   UNL     1      49.865  17.019   1.993  1.00  0.00     0.012 A 
HETATM    5  C   UNL     1      50.044  18.171   1.224  1.00  0.00     0.001 A 
HETATM    6  C   UNL     1      49.298  19.314   1.498  1.00  0.00     0.009 A 
ENDROOT
BRANCH   1   7
HETATM    7  C   UNL     1      48.822  15.805   3.891  1.00  0.00    -0.019 A 
HETATM    8  C   UNL     1      48.009  14.731   3.571  1.00  0.00     0.061 A 
HETATM    9  S   UNL     1      48.030  13.499   4.760  1.00  0.00    -0.113 SA
HETATM   10  C   UNL     1      49.143  14.368   5.718  1.00  0.00     0.050 A 
HETATM   11  C   UNL     1      49.488  15.571   5.142  1.00  0.00     0.020 A 
ENDBRANCH   1   7
BRANCH   3  12
HETATM   12  C   UNL     1      47.535  20.553   2.831  1.00  0.00     0.270 C 
BRANCH  12  13
HETATM   13  N   UNL     1      48.176  21.377   3.855  1.00  0.00    -0.075 N 
HETATM   14  C   UNL     1      48.707  22.605   3.284  1.00  0.00     0.267 C 
HETATM   15  H   UNL     1      48.939  20.848   4.277  1.00  0.00     0.277 HD
HETATM   16  H   UNL     1      47.478  21.622   4.557  1.00  0.00     0.277 HD
ENDBRANCH  12  13
ENDBRANCH   3  12
TORSDOF 3
ENDMDL
