MODEL 1
REMARK VINA RESULT:      -5.8      0.000      0.000
REMARK  2 active torsions:
REMARK  status: ('A' for Active; 'I' for Inactive)
REMARK    1  A    between atoms: C_1  and  C_4 
REMARK    2  A    between atoms: C_2  and  C_3 
ROOT
HETATM    1  C   UNL     1      76.208   4.591  17.274  1.00  0.00     0.041 A 
HETATM    2  C   UNL     1      76.602   2.272  17.908  1.00  0.00    -0.024 A 
HETATM    3  C   UNL     1      77.025   3.609  17.851  1.00  0.00     0.030 A 
HETATM    4  C   UNL     1      74.965   4.237  16.737  1.00  0.00     0.018 A 
HETATM    5  C   UNL     1      75.346   1.940  17.377  1.00  0.00     0.012 A 
HETATM    6  C   UNL     1      74.536   2.914  16.789  1.00  0.00     0.002 A 
ENDROOT
BRANCH   2   7
HETATM    7  C   UNL     1      77.457   1.255  18.526  1.00  0.00    -0.019 A 
HETATM    8  C   UNL     1      77.382  -0.082  18.178  1.00  0.00     0.061 A 
HETATM    9  S   UNL     1      78.483  -1.062  19.048  1.00  0.00    -0.113 SA
HETATM   10  C   UNL     1      79.095   0.288  19.894  1.00  0.00     0.050 A 
HETATM   11  C   UNL     1      78.468   1.458  19.523  1.00  0.00     0.020 A 
ENDBRANCH   2   7
BRANCH   1  12
HETATM   12  C   UNL     1      76.615   6.015  17.217  1.00  0.00     0.209 C 
HETATM   13  O   UNL     1      76.690   6.774  18.166  1.00  0.00    -0.644 OA
HETATM   14  O   UNL     1      76.926   6.421  15.973  1.00  0.00    -0.644 OA
ENDBRANCH   1  12
TORSDOF 2
ENDMDL
MODEL 2
REMARK VINA RESULT:      -5.5     17.135     18.990
REMARK  2 active torsions:
REMARK  status: ('A' for Active; 'I' for Inactive)
REMARK    1  A    between atoms: C_1  and  C_4 
REMARK    2  A    between atoms: C_2  and  C_3 
ROOT
HETATM    1  C   UNL     1      63.079   9.748   4.509  1.00  0.00     0.041 A 
HETATM    2  C   UNL     1      64.520   7.786   4.432  1.00  0.00    -0.024 A 
HETATM    3  C   UNL     1      64.169   9.019   5.004  1.00  0.00     0.030 A 
HETATM    4  C   UNL     1      62.340   9.252   3.429  1.00  0.00     0.018 A 
HETATM    5  C   UNL     1      63.758   7.299   3.360  1.00  0.00     0.012 A 
HETATM    6  C   UNL     1      62.680   8.030   2.856  1.00  0.00     0.002 A 
ENDROOT
BRANCH   2   7
HETATM    7  C   UNL     1      65.652   7.024   4.966  1.00  0.00    -0.019 A 
HETATM    8  C   UNL     1      66.022   7.088   6.298  1.00  0.00     0.061 A 
HETATM    9  S   UNL     1      67.377   6.108   6.663  1.00  0.00    -0.113 SA
HETATM   10  C   UNL     1      67.484   5.566   5.049  1.00  0.00     0.050 A 
HETATM   11  C   UNL     1      66.511   6.124   4.250  1.00  0.00     0.020 A 
ENDBRANCH   2   7
BRANCH   1  12
HETATM   12  C   UNL     1      62.667  11.043   5.103  1.00  0.00     0.209 C 
HETATM   13  O   UNL     1      61.963  11.880   4.570  1.00  0.00    -0.644 OA
HETATM   14  O   UNL     1      63.146  11.223   6.346  1.00  0.00    -0.644 OA
ENDBRANCH   1  12
TORSDOF 2
ENDMDL
MODEL 3
REMARK VINA RESULT:      -5.4      9.914     11.683
REMARK  2 active torsions:
REMARK  status: ('A' for Active; 'I' for Inactive)
REMARK    1  A    between atoms: C_1  and  C_4 
REMARK    2  A    between atoms: C_2  and  C_3 
ROOT
HETATM    1  C   UNL     1      80.355  13.029  23.415  1.00  0.00     0.041 A 
HETATM    2  C   UNL     1      78.421  12.275  22.141  1.00  0.00    -0.024 A 
HETATM    3  C   UNL     1      79.586  13.051  22.243  1.00  0.00     0.030 A 
HETATM    4  C   UNL     1      79.954  12.239  24.498  1.00  0.00     0.018 A 
HETATM    5  C   UNL     1      78.043  11.478  23.232  1.00  0.00     0.012 A 
HETATM    6  C   UNL     1      78.800  11.465  24.406  1.00  0.00     0.002 A 
ENDROOT
BRANCH   2   7
HETATM    7  C   UNL     1      77.631  12.294  20.907  1.00  0.00    -0.019 A 
HETATM    8  C   UNL     1      77.907  11.452  19.842  1.00  0.00     0.061 A 
HETATM    9  S   UNL     1      76.842  11.676  18.521  1.00  0.00    -0.113 SA
HETATM   10  C   UNL     1      75.980  12.889  19.355  1.00  0.00     0.050 A 
HETATM   11  C   UNL     1      76.497  13.122  20.611  1.00  0.00     0.020 A 
ENDBRANCH   2   7
BRANCH   1  12
HETATM   12  C   UNL     1      81.602  13.819  23.549  1.00  0.00     0.209 C 
HETATM   13  O   UNL     1      81.887  14.551  24.479  1.00  0.00    -0.644 OA
HETATM   14  O   UNL     1      82.445  13.644  22.516  1.00  0.00    -0.644 OA
ENDBRANCH   1  12
TORSDOF 2
ENDMDL
MODEL 4
REMARK VINA RESULT:      -5.4     18.235     20.112
REMARK  2 active torsions:
REMARK  status: ('A' for Active; 'I' for Inactive)
REMARK    1  A    between atoms: C_1  and  C_4 
REMARK    2  A    between atoms: C_2  and  C_3 
ROOT
HETATM    1  C   UNL     1      62.310   9.896   3.164  1.00  0.00     0.041 A 
HETATM    2  C   UNL     1      63.540   8.096   4.250  1.00  0.00    -0.024 A 
HETATM    3  C   UNL     1      63.168   9.447   4.178  1.00  0.00     0.030 A 
HETATM    4  C   UNL     1      61.828   8.996   2.208  1.00  0.00     0.018 A 
HETATM    5  C   UNL     1      63.035   7.206   3.291  1.00  0.00     0.012 A 
HETATM    6  C   UNL     1      62.191   7.653   2.272  1.00  0.00     0.002 A 
ENDROOT
BRANCH   2   7
HETATM    7  C   UNL     1      64.427   7.634   5.321  1.00  0.00    -0.019 A 
HETATM    8  C   UNL     1      65.698   8.150   5.501  1.00  0.00     0.061 A 
HETATM    9  S   UNL     1      66.529   7.439   6.818  1.00  0.00    -0.113 SA
HETATM   10  C   UNL     1      65.195   6.440   7.185  1.00  0.00     0.050 A 
HETATM   11  C   UNL     1      64.143   6.641   6.318  1.00  0.00     0.020 A 
ENDBRANCH   2   7
BRANCH   1  12
HETATM   12  C   UNL     1      61.879  11.312   3.072  1.00  0.00     0.209 C 
HETATM   13  O   UNL     1      61.615  11.912   2.046  1.00  0.00    -0.644 OA
HETATM   14  O   UNL     1      61.784  11.909   4.273  1.00  0.00    -0.644 OA
ENDBRANCH   1  12
TORSDOF 2
ENDMDL
MODEL 5
REMARK VINA RESULT:      -5.3     20.396     22.455
REMARK  2 active torsions:
REMARK  status: ('A' for Active; 'I' for Inactive)
REMARK    1  A    between atoms: C_1  and  C_4 
REMARK    2  A    between atoms: C_2  and  C_3 
ROOT
HETATM    1  C   UNL     1      62.766   9.467   4.099  1.00  0.00     0.041 A 
HETATM    2  C   UNL     1      61.995   9.024   1.831  1.00  0.00    -0.024 A 
HETATM    3  C   UNL     1      62.577   8.581   3.029  1.00  0.00     0.030 A 
HETATM    4  C   UNL     1      62.386  10.807   3.972  1.00  0.00     0.018 A 
HETATM    5  C   UNL     1      61.607  10.368   1.728  1.00  0.00     0.012 A 
HETATM    6  C   UNL     1      61.807  11.256   2.787  1.00  0.00     0.002 A 
ENDROOT
BRANCH   2   7
HETATM    7  C   UNL     1      61.789   8.087   0.724  1.00  0.00    -0.019 A 
HETATM    8  C   UNL     1      60.564   7.489   0.483  1.00  0.00     0.061 A 
HETATM    9  S   UNL     1      60.589   6.436  -0.866  1.00  0.00    -0.113 SA
HETATM   10  C   UNL     1      62.234   6.774  -1.165  1.00  0.00     0.050 A 
HETATM   11  C   UNL     1      62.753   7.667  -0.252  1.00  0.00     0.020 A 
ENDBRANCH   2   7
BRANCH   1  12
HETATM   12  C   UNL     1      63.357   9.026   5.386  1.00  0.00     0.209 C 
HETATM   13  O   UNL     1      62.824   8.298   6.204  1.00  0.00    -0.644 OA
HETATM   14  O   UNL     1      64.597   9.506   5.583  1.00  0.00    -0.644 OA
ENDBRANCH   1  12
TORSDOF 2
ENDMDL
MODEL 6
REMARK VINA RESULT:      -5.3     18.436     20.375
REMARK  2 active torsions:
REMARK  status: ('A' for Active; 'I' for Inactive)
REMARK    1  A    between atoms: C_1  and  C_4 
REMARK    2  A    between atoms: C_2  and  C_3 
ROOT
HETATM    1  C   UNL     1      62.243   9.369   2.646  1.00  0.00     0.041 A 
HETATM    2  C   UNL     1      63.537   8.942   4.664  1.00  0.00    -0.024 A 
HETATM    3  C   UNL     1      63.090   8.541   3.396  1.00  0.00     0.030 A 
HETATM    4  C   UNL     1      61.827  10.599   3.167  1.00  0.00     0.018 A 
HETATM    5  C   UNL     1      63.122  10.186   5.164  1.00  0.00     0.012 A 
HETATM    6  C   UNL     1      62.266  11.006   4.425  1.00  0.00     0.002 A 
ENDROOT
BRANCH   2   7
HETATM    7  C   UNL     1      64.434   8.077   5.435  1.00  0.00    -0.019 A 
HETATM    8  C   UNL     1      63.964   7.026   6.204  1.00  0.00     0.061 A 
HETATM    9  S   UNL     1      65.213   6.174   7.006  1.00  0.00    -0.113 SA
HETATM   10  C   UNL     1      66.409   7.184   6.325  1.00  0.00     0.050 A 
HETATM   11  C   UNL     1      65.865   8.151   5.509  1.00  0.00     0.020 A 
ENDBRANCH   2   7
BRANCH   1  12
HETATM   12  C   UNL     1      61.769   8.986   1.294  1.00  0.00     0.209 C 
HETATM   13  O   UNL     1      62.442   8.974   0.279  1.00  0.00    -0.644 OA
HETATM   14  O   UNL     1      60.475   8.620   1.277  1.00  0.00    -0.644 OA
ENDBRANCH   1  12
TORSDOF 2
ENDMDL
MODEL 7
REMARK VINA RESULT:      -5.2     19.910     21.972
REMARK  2 active torsions:
REMARK  status: ('A' for Active; 'I' for Inactive)
REMARK    1  A    between atoms: C_1  and  C_4 
REMARK    2  A    between atoms: C_2  and  C_3 
ROOT
HETATM    1  C   UNL     1      62.990   9.722   4.497  1.00  0.00     0.041 A 
HETATM    2  C   UNL     1      62.485   8.141   2.714  1.00  0.00    -0.024 A 
HETATM    3  C   UNL     1      62.210   9.335   3.398  1.00  0.00     0.030 A 
HETATM    4  C   UNL     1      64.044   8.908   4.926  1.00  0.00     0.018 A 
HETATM    5  C   UNL     1      63.556   7.345   3.150  1.00  0.00     0.012 A 
HETATM    6  C   UNL     1      64.326   7.722   4.253  1.00  0.00     0.002 A 
ENDROOT
BRANCH   2   7
HETATM    7  C   UNL     1      61.673   7.751   1.559  1.00  0.00    -0.019 A 
HETATM    8  C   UNL     1      62.114   6.832   0.622  1.00  0.00     0.061 A 
HETATM    9  S   UNL     1      60.980   6.555  -0.629  1.00  0.00    -0.113 SA
HETATM   10  C   UNL     1      59.869   7.647   0.067  1.00  0.00     0.050 A 
HETATM   11  C   UNL     1      60.355   8.212   1.225  1.00  0.00     0.020 A 
ENDBRANCH   2   7
BRANCH   1  12
HETATM   12  C   UNL     1      62.740  10.987   5.228  1.00  0.00     0.209 C 
HETATM   13  O   UNL     1      63.158  11.264   6.338  1.00  0.00    -0.644 OA
HETATM   14  O   UNL     1      61.990  11.856   4.529  1.00  0.00    -0.644 OA
ENDBRANCH   1  12
TORSDOF 2
ENDMDL
MODEL 8
REMARK VINA RESULT:      -5.2     21.376     23.249
REMARK  2 active torsions:
REMARK  status: ('A' for Active; 'I' for Inactive)
REMARK    1  A    between atoms: C_1  and  C_4 
REMARK    2  A    between atoms: C_2  and  C_3 
ROOT
HETATM    1  C   UNL     1      62.177  10.037   2.536  1.00  0.00     0.041 A 
HETATM    2  C   UNL     1      62.260   8.010   1.188  1.00  0.00    -0.024 A 
HETATM    3  C   UNL     1      61.973   9.378   1.316  1.00  0.00     0.030 A 
HETATM    4  C   UNL     1      62.657   9.326   3.641  1.00  0.00     0.018 A 
HETATM    5  C   UNL     1      62.755   7.318   2.303  1.00  0.00     0.012 A 
HETATM    6  C   UNL     1      62.945   7.969   3.524  1.00  0.00     0.002 A 
ENDROOT
BRANCH   2   7
HETATM    7  C   UNL     1      62.057   7.334  -0.096  1.00  0.00    -0.019 A 
HETATM    8  C   UNL     1      60.852   6.745  -0.438  1.00  0.00     0.061 A 
HETATM    9  S   UNL     1      60.878   6.020  -1.988  1.00  0.00    -0.113 SA
HETATM   10  C   UNL     1      62.497   6.495  -2.239  1.00  0.00     0.050 A 
HETATM   11  C   UNL     1      63.007   7.187  -1.162  1.00  0.00     0.020 A 
ENDBRANCH   2   7
BRANCH   1  12
HETATM   12  C   UNL     1      61.905  11.486   2.700  1.00  0.00     0.209 C 
HETATM   13  O   UNL     1      61.685  12.276   1.800  1.00  0.00    -0.644 OA
HETATM   14  O   UNL     1      61.906  11.876   3.986  1.00  0.00    -0.644 OA
ENDBRANCH   1  12
TORSDOF 2
ENDMDL
MODEL 9
REMARK VINA RESULT:      -5.2     12.015     14.268
REMARK  2 active torsions:
REMARK  status: ('A' for Active; 'I' for Inactive)
REMARK    1  A    between atoms: C_1  and  C_4 
REMARK    2  A    between atoms: C_2  and  C_3 
ROOT
HETATM    1  C   UNL     1      68.624   3.107   9.544  1.00  0.00     0.041 A 
HETATM    2  C   UNL     1      68.102   5.073   8.204  1.00  0.00    -0.024 A 
HETATM    3  C   UNL     1      67.704   3.875   8.817  1.00  0.00     0.030 A 
HETATM    4  C   UNL     1      69.954   3.527   9.651  1.00  0.00     0.018 A 
HETATM    5  C   UNL     1      69.437   5.486   8.335  1.00  0.00     0.012 A 
HETATM    6  C   UNL     1      70.359   4.715   9.047  1.00  0.00     0.002 A 
ENDROOT
BRANCH   2   7
HETATM    7  C   UNL     1      67.130   5.876   7.458  1.00  0.00    -0.019 A 
HETATM    8  C   UNL     1      67.506   6.720   6.428  1.00  0.00     0.061 A 
HETATM    9  S   UNL     1      66.182   7.546   5.724  1.00  0.00    -0.113 SA
HETATM   10  C   UNL     1      65.078   6.776   6.772  1.00  0.00     0.050 A 
HETATM   11  C   UNL     1      65.707   5.913   7.642  1.00  0.00     0.020 A 
ENDBRANCH   2   7
BRANCH   1  12
HETATM   12  C   UNL     1      68.232   1.847  10.222  1.00  0.00     0.209 C 
HETATM   13  O   UNL     1      67.093   1.495  10.469  1.00  0.00    -0.644 OA
HETATM   14  O   UNL     1      69.285   1.078  10.546  1.00  0.00    -0.644 OA
ENDBRANCH   1  12
TORSDOF 2
ENDMDL
