MODEL 1
REMARK VINA RESULT:      -6.7      0.000      0.000
REMARK  4 active torsions:
REMARK  status: ('A' for Active; 'I' for Inactive)
REMARK    1  A    between atoms: C_1  and  O_4 
REMARK    2  A    between atoms: O_4  and  C_5 
REMARK    3  A    between atoms: C_6  and  C_14 
REMARK    4  A    between atoms: O_11  and  C_14 
ROOT
HETATM    1  C   UNL     1      76.855   6.685  17.200  1.00  0.00     0.077 A 
HETATM    2  C   UNL     1      77.483   8.788  15.444  1.00  0.00    -0.035 A 
HETATM    3  C   UNL     1      76.814   6.480  15.820  1.00  0.00     0.038 A 
HETATM    4  C   UNL     1      77.136   7.961  17.697  1.00  0.00     0.038 A 
HETATM    5  C   UNL     1      77.449   9.007  16.826  1.00  0.00     0.012 A 
HETATM    6  C   UNL     1      77.152   7.519  14.949  1.00  0.00     0.012 A 
ENDROOT
BRANCH   1   7
HETATM    7  O   UNL     1      76.571   5.727  18.144  1.00  0.00    -0.294 OA
BRANCH   7   8
HETATM    8  C   UNL     1      76.257   4.443  17.755  1.00  0.00     0.147 A 
HETATM    9  N   UNL     1      75.019   4.320  17.228  1.00  0.00    -0.347 N 
HETATM   10  C   UNL     1      74.628   3.086  16.846  1.00  0.00     0.090 A 
ATOM     11  HN  UNL     1      74.404   5.127  17.124  1.00  0.00     0.167 HD
HETATM   12  C   UNL     1      75.421   1.956  16.953  1.00  0.00     0.017 A 
HETATM   13  C   UNL     1      76.679   2.094  17.525  1.00  0.00     0.006 A 
HETATM   14  C   UNL     1      77.095   3.350  17.963  1.00  0.00     0.056 A 
ENDBRANCH   7   8
ENDBRANCH   1   7
BRANCH   2  15
HETATM   15  C   UNL     1      77.872   9.888  14.493  1.00  0.00     0.202 C 
BRANCH  15  16
HETATM   16  O   UNL     1      77.465  11.149  15.009  1.00  0.00    -0.396 OA
HETATM   17  H   UNL     1      76.502  11.237  14.927  1.00  0.00     0.209 HD
ENDBRANCH  15  16
ENDBRANCH   2  15
TORSDOF 4
ENDMDL
MODEL 2
REMARK VINA RESULT:      -6.2      3.680      6.703
REMARK  4 active torsions:
REMARK  status: ('A' for Active; 'I' for Inactive)
REMARK    1  A    between atoms: C_1  and  O_4 
REMARK    2  A    between atoms: O_4  and  C_5 
REMARK    3  A    between atoms: C_6  and  C_14 
REMARK    4  A    between atoms: O_11  and  C_14 
ROOT
HETATM    1  C   UNL     1      77.939   9.517  17.721  1.00  0.00     0.077 A 
HETATM    2  C   UNL     1      76.905   7.354  16.254  1.00  0.00    -0.035 A 
HETATM    3  C   UNL     1      77.334   8.448  18.383  1.00  0.00     0.038 A 
HETATM    4  C   UNL     1      77.957   9.538  16.324  1.00  0.00     0.038 A 
HETATM    5  C   UNL     1      77.444   8.463  15.592  1.00  0.00     0.012 A 
HETATM    6  C   UNL     1      76.845   7.361  17.654  1.00  0.00     0.012 A 
ENDROOT
BRANCH   1   7
HETATM    7  O   UNL     1      78.478  10.619  18.341  1.00  0.00    -0.294 OA
BRANCH   7   8
HETATM    8  C   UNL     1      77.695  11.410  19.154  1.00  0.00     0.147 A 
HETATM    9  N   UNL     1      76.651  11.983  18.514  1.00  0.00    -0.347 N 
HETATM   10  C   UNL     1      75.851  12.794  19.239  1.00  0.00     0.090 A 
ATOM     11  HN  UNL     1      76.476  11.811  17.525  1.00  0.00     0.167 HD
HETATM   12  C   UNL     1      76.033  13.057  20.586  1.00  0.00     0.017 A 
HETATM   13  C   UNL     1      77.127  12.484  21.220  1.00  0.00     0.006 A 
HETATM   14  C   UNL     1      77.992  11.672  20.488  1.00  0.00     0.056 A 
ENDBRANCH   7   8
ENDBRANCH   1   7
BRANCH   2  15
HETATM   15  C   UNL     1      76.399   6.163  15.485  1.00  0.00     0.202 C 
BRANCH  15  16
HETATM   16  O   UNL     1      75.761   5.246  16.366  1.00  0.00    -0.396 OA
HETATM   17  H   UNL     1      74.832   5.502  16.482  1.00  0.00     0.209 HD
ENDBRANCH  15  16
ENDBRANCH   2  15
TORSDOF 4
ENDMDL
MODEL 3
REMARK VINA RESULT:      -5.8     16.914     17.752
REMARK  4 active torsions:
REMARK  status: ('A' for Active; 'I' for Inactive)
REMARK    1  A    between atoms: C_1  and  O_4 
REMARK    2  A    between atoms: O_4  and  C_5 
REMARK    3  A    between atoms: C_6  and  C_14 
REMARK    4  A    between atoms: O_11  and  C_14 
ROOT
HETATM    1  C   UNL     1      63.187   8.530   5.136  1.00  0.00     0.077 A 
HETATM    2  C   UNL     1      62.202  10.008   2.959  1.00  0.00    -0.035 A 
HETATM    3  C   UNL     1      63.013   7.916   3.895  1.00  0.00     0.038 A 
HETATM    4  C   UNL     1      62.796   9.861   5.305  1.00  0.00     0.038 A 
HETATM    5  C   UNL     1      62.307  10.598   4.224  1.00  0.00     0.012 A 
HETATM    6  C   UNL     1      62.549   8.658   2.807  1.00  0.00     0.012 A 
ENDROOT
BRANCH   1   7
HETATM    7  O   UNL     1      63.665   7.901   6.262  1.00  0.00    -0.294 OA
BRANCH   7   8
HETATM    8  C   UNL     1      64.934   7.365   6.272  1.00  0.00     0.147 A 
HETATM    9  N   UNL     1      65.917   8.290   6.210  1.00  0.00    -0.347 N 
HETATM   10  C   UNL     1      67.189   7.841   6.190  1.00  0.00     0.090 A 
ATOM     11  HN  UNL     1      65.705   9.287   6.179  1.00  0.00     0.167 HD
HETATM   12  C   UNL     1      67.538   6.502   6.241  1.00  0.00     0.017 A 
HETATM   13  C   UNL     1      66.515   5.564   6.273  1.00  0.00     0.006 A 
HETATM   14  C   UNL     1      65.190   5.997   6.257  1.00  0.00     0.056 A 
ENDBRANCH   7   8
ENDBRANCH   1   7
BRANCH   2  15
HETATM   15  C   UNL     1      61.729  10.801   1.770  1.00  0.00     0.202 C 
BRANCH  15  16
HETATM   16  O   UNL     1      62.088  12.170   1.919  1.00  0.00    -0.396 OA
HETATM   17  H   UNL     1      62.327  12.343   2.843  1.00  0.00     0.209 HD
ENDBRANCH  15  16
ENDBRANCH   2  15
TORSDOF 4
ENDMDL
MODEL 4
REMARK VINA RESULT:      -5.7     16.812     17.667
REMARK  4 active torsions:
REMARK  status: ('A' for Active; 'I' for Inactive)
REMARK    1  A    between atoms: C_1  and  O_4 
REMARK    2  A    between atoms: O_4  and  C_5 
REMARK    3  A    between atoms: C_6  and  C_14 
REMARK    4  A    between atoms: O_11  and  C_14 
ROOT
HETATM    1  C   UNL     1      63.510   8.671   5.134  1.00  0.00     0.077 A 
HETATM    2  C   UNL     1      62.242  10.055   3.042  1.00  0.00    -0.035 A 
HETATM    3  C   UNL     1      63.298   8.042   3.906  1.00  0.00     0.038 A 
HETATM    4  C   UNL     1      63.019   9.963   5.337  1.00  0.00     0.038 A 
HETATM    5  C   UNL     1      62.389  10.653   4.299  1.00  0.00     0.012 A 
HETATM    6  C   UNL     1      62.692   8.740   2.859  1.00  0.00     0.012 A 
ENDROOT
BRANCH   1   7
HETATM    7  O   UNL     1      64.122   8.087   6.218  1.00  0.00    -0.294 OA
BRANCH   7   8
HETATM    8  C   UNL     1      65.304   7.398   6.060  1.00  0.00     0.147 A 
HETATM    9  N   UNL     1      65.215   6.084   6.362  1.00  0.00    -0.347 N 
HETATM   10  C   UNL     1      66.340   5.346   6.254  1.00  0.00     0.090 A 
ATOM     11  HN  UNL     1      64.333   5.667   6.659  1.00  0.00     0.167 HD
HETATM   12  C   UNL     1      67.562   5.854   5.847  1.00  0.00     0.017 A 
HETATM   13  C   UNL     1      67.643   7.212   5.570  1.00  0.00     0.006 A 
HETATM   14  C   UNL     1      66.506   8.006   5.708  1.00  0.00     0.056 A 
ENDBRANCH   7   8
ENDBRANCH   1   7
BRANCH   2  15
HETATM   15  C   UNL     1      61.616  10.802   1.896  1.00  0.00     0.202 C 
BRANCH  15  16
HETATM   16  O   UNL     1      62.094  12.142   1.863  1.00  0.00    -0.396 OA
HETATM   17  H   UNL     1      62.771  12.260   2.548  1.00  0.00     0.209 HD
ENDBRANCH  15  16
ENDBRANCH   2  15
TORSDOF 4
ENDMDL
MODEL 5
REMARK VINA RESULT:      -5.7      3.885      5.836
REMARK  4 active torsions:
REMARK  status: ('A' for Active; 'I' for Inactive)
REMARK    1  A    between atoms: C_1  and  O_4 
REMARK    2  A    between atoms: O_4  and  C_5 
REMARK    3  A    between atoms: C_6  and  C_14 
REMARK    4  A    between atoms: O_11  and  C_14 
ROOT
HETATM    1  C   UNL     1      77.786   9.755  18.436  1.00  0.00     0.077 A 
HETATM    2  C   UNL     1      77.947  12.108  19.963  1.00  0.00    -0.035 A 
HETATM    3  C   UNL     1      78.928  10.021  19.193  1.00  0.00     0.038 A 
HETATM    4  C   UNL     1      76.761  10.702  18.384  1.00  0.00     0.038 A 
HETATM    5  C   UNL     1      76.838  11.872  19.143  1.00  0.00     0.012 A 
HETATM    6  C   UNL     1      78.996  11.178  19.973  1.00  0.00     0.012 A 
ENDROOT
BRANCH   1   7
HETATM    7  O   UNL     1      77.604   8.635  17.659  1.00  0.00    -0.294 OA
BRANCH   7   8
HETATM    8  C   UNL     1      77.607   8.736  16.285  1.00  0.00     0.147 A 
HETATM    9  N   UNL     1      77.244   7.598  15.653  1.00  0.00    -0.347 N 
HETATM   10  C   UNL     1      77.246   7.611  14.304  1.00  0.00     0.090 A 
ATOM     11  HN  UNL     1      76.980   6.763  16.175  1.00  0.00     0.167 HD
HETATM   12  C   UNL     1      77.585   8.716  13.541  1.00  0.00     0.017 A 
HETATM   13  C   UNL     1      77.986   9.868  14.206  1.00  0.00     0.006 A 
HETATM   14  C   UNL     1      78.029   9.872  15.599  1.00  0.00     0.056 A 
ENDBRANCH   7   8
ENDBRANCH   1   7
BRANCH   2  15
HETATM   15  C   UNL     1      78.023  13.336  20.830  1.00  0.00     0.202 C 
BRANCH  15  16
HETATM   16  O   UNL     1      78.746  13.051  22.022  1.00  0.00    -0.396 OA
HETATM   17  H   UNL     1      79.696  13.168  21.860  1.00  0.00     0.209 HD
ENDBRANCH  15  16
ENDBRANCH   2  15
TORSDOF 4
ENDMDL
MODEL 6
REMARK VINA RESULT:      -5.6     12.209     13.797
REMARK  4 active torsions:
REMARK  status: ('A' for Active; 'I' for Inactive)
REMARK    1  A    between atoms: C_1  and  O_4 
REMARK    2  A    between atoms: O_4  and  C_5 
REMARK    3  A    between atoms: C_6  and  C_14 
REMARK    4  A    between atoms: O_11  and  C_14 
ROOT
HETATM    1  C   UNL     1      67.875   5.580   8.502  1.00  0.00     0.077 A 
HETATM    2  C   UNL     1      69.117   3.192   9.313  1.00  0.00    -0.035 A 
HETATM    3  C   UNL     1      67.137   4.398   8.574  1.00  0.00     0.038 A 
HETATM    4  C   UNL     1      69.248   5.550   8.761  1.00  0.00     0.038 A 
HETATM    5  C   UNL     1      69.867   4.364   9.164  1.00  0.00     0.012 A 
HETATM    6  C   UNL     1      67.749   3.217   9.003  1.00  0.00     0.012 A 
ENDROOT
BRANCH   1   7
HETATM    7  O   UNL     1      67.366   6.799   8.122  1.00  0.00    -0.294 OA
BRANCH   7   8
HETATM    8  C   UNL     1      66.792   6.955   6.879  1.00  0.00     0.147 A 
HETATM    9  N   UNL     1      65.475   7.256   6.920  1.00  0.00    -0.347 N 
HETATM   10  C   UNL     1      64.836   7.399   5.741  1.00  0.00     0.090 A 
ATOM     11  HN  UNL     1      64.985   7.370   7.808  1.00  0.00     0.167 HD
HETATM   12  C   UNL     1      65.450   7.267   4.507  1.00  0.00     0.017 A 
HETATM   13  C   UNL     1      66.796   6.927   4.482  1.00  0.00     0.006 A 
HETATM   14  C   UNL     1      67.474   6.736   5.685  1.00  0.00     0.056 A 
ENDBRANCH   7   8
ENDBRANCH   1   7
BRANCH   2  15
HETATM   15  C   UNL     1      69.754   1.919   9.799  1.00  0.00     0.202 C 
BRANCH  15  16
HETATM   16  O   UNL     1      69.896   1.951  11.215  1.00  0.00    -0.396 OA
HETATM   17  H   UNL     1      69.734   2.852  11.535  1.00  0.00     0.209 HD
ENDBRANCH  15  16
ENDBRANCH   2  15
TORSDOF 4
ENDMDL
MODEL 7
REMARK VINA RESULT:      -5.4     16.223     17.117
REMARK  4 active torsions:
REMARK  status: ('A' for Active; 'I' for Inactive)
REMARK    1  A    between atoms: C_1  and  O_4 
REMARK    2  A    between atoms: O_4  and  C_5 
REMARK    3  A    between atoms: C_6  and  C_14 
REMARK    4  A    between atoms: O_11  and  C_14 
ROOT
HETATM    1  C   UNL     1      64.560   8.696   5.054  1.00  0.00     0.077 A 
HETATM    2  C   UNL     1      62.367   8.663   3.298  1.00  0.00    -0.035 A 
HETATM    3  C   UNL     1      64.424   7.664   4.125  1.00  0.00     0.038 A 
HETATM    4  C   UNL     1      63.560   9.667   5.154  1.00  0.00     0.038 A 
HETATM    5  C   UNL     1      62.469   9.652   4.282  1.00  0.00     0.012 A 
HETATM    6  C   UNL     1      63.348   7.663   3.235  1.00  0.00     0.012 A 
ENDROOT
BRANCH   1   7
HETATM    7  O   UNL     1      65.594   8.810   5.954  1.00  0.00    -0.294 OA
BRANCH   7   8
HETATM    8  C   UNL     1      66.199   7.680   6.461  1.00  0.00     0.147 A 
HETATM    9  N   UNL     1      65.521   7.109   7.481  1.00  0.00    -0.347 N 
HETATM   10  C   UNL     1      66.063   6.011   8.048  1.00  0.00     0.090 A 
ATOM     11  HN  UNL     1      64.634   7.493   7.809  1.00  0.00     0.167 HD
HETATM   12  C   UNL     1      67.256   5.439   7.639  1.00  0.00     0.017 A 
HETATM   13  C   UNL     1      67.955   6.056   6.611  1.00  0.00     0.006 A 
HETATM   14  C   UNL     1      67.438   7.213   6.031  1.00  0.00     0.056 A 
ENDBRANCH   7   8
ENDBRANCH   1   7
BRANCH   2  15
HETATM   15  C   UNL     1      61.228   8.662   2.313  1.00  0.00     0.202 C 
BRANCH  15  16
HETATM   16  O   UNL     1      61.134   9.928   1.671  1.00  0.00    -0.396 OA
HETATM   17  H   UNL     1      60.367   9.933   1.077  1.00  0.00     0.209 HD
ENDBRANCH  15  16
ENDBRANCH   2  15
TORSDOF 4
ENDMDL
MODEL 8
REMARK VINA RESULT:      -5.4     13.634     14.915
REMARK  4 active torsions:
REMARK  status: ('A' for Active; 'I' for Inactive)
REMARK    1  A    between atoms: C_1  and  O_4 
REMARK    2  A    between atoms: O_4  and  C_5 
REMARK    3  A    between atoms: C_6  and  C_14 
REMARK    4  A    between atoms: O_11  and  C_14 
ROOT
HETATM    1  C   UNL     1      66.971   6.798   7.400  1.00  0.00     0.077 A 
HETATM    2  C   UNL     1      68.473   4.702   8.516  1.00  0.00    -0.035 A 
HETATM    3  C   UNL     1      67.488   5.795   6.580  1.00  0.00     0.038 A 
HETATM    4  C   UNL     1      67.270   6.792   8.765  1.00  0.00     0.038 A 
HETATM    5  C   UNL     1      68.016   5.751   9.322  1.00  0.00     0.012 A 
HETATM    6  C   UNL     1      68.212   4.739   7.139  1.00  0.00     0.012 A 
ENDROOT
BRANCH   1   7
HETATM    7  O   UNL     1      66.222   7.863   6.958  1.00  0.00    -0.294 OA
BRANCH   7   8
HETATM    8  C   UNL     1      65.142   7.655   6.128  1.00  0.00     0.147 A 
HETATM    9  N   UNL     1      64.066   7.129   6.754  1.00  0.00    -0.347 N 
HETATM   10  C   UNL     1      62.975   6.873   6.002  1.00  0.00     0.090 A 
ATOM     11  HN  UNL     1      64.079   6.933   7.755  1.00  0.00     0.167 HD
HETATM   12  C   UNL     1      62.896   7.127   4.643  1.00  0.00     0.017 A 
HETATM   13  C   UNL     1      64.021   7.638   4.010  1.00  0.00     0.006 A 
HETATM   14  C   UNL     1      65.174   7.878   4.754  1.00  0.00     0.056 A 
ENDBRANCH   7   8
ENDBRANCH   1   7
BRANCH   2  15
HETATM   15  C   UNL     1      69.231   3.543   9.107  1.00  0.00     0.202 C 
BRANCH  15  16
HETATM   16  O   UNL     1      69.402   3.730  10.506  1.00  0.00    -0.396 OA
HETATM   17  H   UNL     1      70.055   3.095  10.840  1.00  0.00     0.209 HD
ENDBRANCH  15  16
ENDBRANCH   2  15
TORSDOF 4
ENDMDL
MODEL 9
REMARK VINA RESULT:      -5.4     16.977     18.226
REMARK  4 active torsions:
REMARK  status: ('A' for Active; 'I' for Inactive)
REMARK    1  A    between atoms: C_1  and  O_4 
REMARK    2  A    between atoms: O_4  and  C_5 
REMARK    3  A    between atoms: C_6  and  C_14 
REMARK    4  A    between atoms: O_11  and  C_14 
ROOT
HETATM    1  C   UNL     1      63.897   7.994   5.442  1.00  0.00     0.077 A 
HETATM    2  C   UNL     1      66.277   6.580   5.929  1.00  0.00    -0.035 A 
HETATM    3  C   UNL     1      65.127   8.551   5.089  1.00  0.00     0.038 A 
HETATM    4  C   UNL     1      63.866   6.766   6.107  1.00  0.00     0.038 A 
HETATM    5  C   UNL     1      65.047   6.061   6.350  1.00  0.00     0.012 A 
HETATM    6  C   UNL     1      66.307   7.836   5.307  1.00  0.00     0.012 A 
ENDROOT
BRANCH   1   7
HETATM    7  O   UNL     1      62.678   8.598   5.244  1.00  0.00    -0.294 OA
BRANCH   7   8
HETATM    8  C   UNL     1      62.423   9.280   4.075  1.00  0.00     0.147 A 
HETATM    9  N   UNL     1      62.129  10.587   4.259  1.00  0.00    -0.347 N 
HETATM   10  C   UNL     1      61.843  11.317   3.161  1.00  0.00     0.090 A 
ATOM     11  HN  UNL     1      62.124  11.003   5.190  1.00  0.00     0.167 HD
HETATM   12  C   UNL     1      61.845  10.810   1.872  1.00  0.00     0.017 A 
HETATM   13  C   UNL     1      62.119   9.460   1.704  1.00  0.00     0.006 A 
HETATM   14  C   UNL     1      62.382   8.672   2.824  1.00  0.00     0.056 A 
ENDBRANCH   7   8
ENDBRANCH   1   7
BRANCH   2  15
HETATM   15  C   UNL     1      67.554   5.810   6.133  1.00  0.00     0.202 C 
BRANCH  15  16
HETATM   16  O   UNL     1      68.322   6.400   7.175  1.00  0.00    -0.396 OA
HETATM   17  H   UNL     1      67.766   6.510   7.963  1.00  0.00     0.209 HD
ENDBRANCH  15  16
ENDBRANCH   2  15
TORSDOF 4
ENDMDL
