MODEL 1
REMARK VINA RESULT:      -5.8      0.000      0.000
REMARK  3 active torsions:
REMARK  status: ('A' for Active; 'I' for Inactive)
REMARK    1  A    between atoms: C_1  and  C_3 
REMARK    2  A    between atoms: C_11  and  C_13 
REMARK    3  A    between atoms: N_12  and  C_13 
ROOT
HETATM    1  C   UNL     1      76.689   6.277  16.635  1.00  0.00    -0.025 A 
HETATM    2  C   UNL     1      76.856   6.623  15.287  1.00  0.00     0.013 A 
HETATM    3  C   UNL     1      76.915   7.257  17.610  1.00  0.00     0.013 A 
HETATM    4  C   UNL     1      77.297   8.554  17.248  1.00  0.00     0.010 A 
HETATM    5  C   UNL     1      77.231   7.922  14.925  1.00  0.00     0.010 A 
HETATM    6  C   UNL     1      77.454   8.901  15.901  1.00  0.00    -0.033 A 
ENDROOT
BRANCH   1   7
HETATM    7  C   UNL     1      76.258   4.925  16.999  1.00  0.00    -0.019 A 
HETATM    8  C   UNL     1      75.058   4.386  16.570  1.00  0.00     0.061 A 
HETATM    9  S   UNL     1      74.807   2.786  17.127  1.00  0.00    -0.113 SA
HETATM   10  C   UNL     1      76.292   2.791  17.968  1.00  0.00     0.050 A 
HETATM   11  C   UNL     1      76.963   3.984  17.822  1.00  0.00     0.020 A 
ENDBRANCH   1   7
BRANCH   6  12
HETATM   12  C   UNL     1      77.833  10.306  15.507  1.00  0.00     0.268 C 
BRANCH  12  13
HETATM   13  N   UNL     1      77.547  10.565  14.100  1.00  0.00    -0.075 N 
HETATM   14  H   UNL     1      78.168  10.003  13.519  1.00  0.00     0.274 HD
HETATM   15  H   UNL     1      77.696  11.554  13.900  1.00  0.00     0.274 HD
HETATM   16  H   UNL     1      76.578  10.320  13.900  1.00  0.00     0.274 HD
ENDBRANCH  12  13
ENDBRANCH   6  12
TORSDOF 3
ENDMDL
MODEL 2
REMARK VINA RESULT:      -5.1      3.840      6.271
REMARK  3 active torsions:
REMARK  status: ('A' for Active; 'I' for Inactive)
REMARK    1  A    between atoms: C_1  and  C_3 
REMARK    2  A    between atoms: C_11  and  C_13 
REMARK    3  A    between atoms: N_12  and  C_13 
ROOT
HETATM    1  C   UNL     1      76.087   4.657  17.070  1.00  0.00    -0.025 A 
HETATM    2  C   UNL     1      76.886   3.735  17.760  1.00  0.00     0.013 A 
HETATM    3  C   UNL     1      74.849   4.229  16.575  1.00  0.00     0.013 A 
HETATM    4  C   UNL     1      74.416   2.911  16.767  1.00  0.00     0.010 A 
HETATM    5  C   UNL     1      76.451   2.420  17.957  1.00  0.00     0.010 A 
HETATM    6  C   UNL     1      75.211   1.994  17.464  1.00  0.00    -0.033 A 
ENDROOT
BRANCH   1   7
HETATM    7  C   UNL     1      76.537   6.041  16.905  1.00  0.00    -0.019 A 
HETATM    8  C   UNL     1      76.647   6.919  17.968  1.00  0.00     0.061 A 
HETATM    9  S   UNL     1      77.208   8.468  17.500  1.00  0.00    -0.113 SA
HETATM   10  C   UNL     1      77.299   7.997  15.862  1.00  0.00     0.050 A 
HETATM   11  C   UNL     1      76.913   6.688  15.680  1.00  0.00     0.020 A 
ENDBRANCH   1   7
BRANCH   6  12
HETATM   12  C   UNL     1      74.733   0.584  17.700  1.00  0.00     0.268 C 
BRANCH  12  13
HETATM   13  N   UNL     1      74.783   0.230  19.114  1.00  0.00    -0.075 N 
HETATM   14  H   UNL     1      75.646   0.587  19.523  1.00  0.00     0.274 HD
HETATM   15  H   UNL     1      74.756  -0.786  19.211  1.00  0.00     0.274 HD
HETATM   16  H   UNL     1      73.983   0.639  19.595  1.00  0.00     0.274 HD
ENDBRANCH  12  13
ENDBRANCH   6  12
TORSDOF 3
ENDMDL
MODEL 3
REMARK VINA RESULT:      -4.9     12.767     14.013
REMARK  3 active torsions:
REMARK  status: ('A' for Active; 'I' for Inactive)
REMARK    1  A    between atoms: C_1  and  C_3 
REMARK    2  A    between atoms: C_11  and  C_13 
REMARK    3  A    between atoms: N_12  and  C_13 
ROOT
HETATM    1  C   UNL     1      66.859   6.134   7.316  1.00  0.00    -0.025 A 
HETATM    2  C   UNL     1      67.519   5.057   6.708  1.00  0.00     0.013 A 
HETATM    3  C   UNL     1      67.245   6.509   8.610  1.00  0.00     0.013 A 
HETATM    4  C   UNL     1      68.267   5.827   9.280  1.00  0.00     0.010 A 
HETATM    5  C   UNL     1      68.545   4.379   7.376  1.00  0.00     0.010 A 
HETATM    6  C   UNL     1      68.931   4.757   8.669  1.00  0.00    -0.033 A 
ENDROOT
BRANCH   1   7
HETATM    7  C   UNL     1      65.814   6.861   6.592  1.00  0.00    -0.019 A 
HETATM    8  C   UNL     1      64.482   6.492   6.642  1.00  0.00     0.061 A 
HETATM    9  S   UNL     1      63.469   7.520   5.718  1.00  0.00    -0.113 SA
HETATM   10  C   UNL     1      64.799   8.467   5.220  1.00  0.00     0.050 A 
HETATM   11  C   UNL     1      65.985   8.011   5.751  1.00  0.00     0.020 A 
ENDBRANCH   1   7
BRANCH   6  12
HETATM   12  C   UNL     1      70.054   4.042   9.375  1.00  0.00     0.268 C 
BRANCH  12  13
HETATM   13  N   UNL     1      69.587   3.366  10.580  1.00  0.00    -0.075 N 
HETATM   14  H   UNL     1      68.590   3.540  10.702  1.00  0.00     0.274 HD
HETATM   15  H   UNL     1      70.097   3.723  11.388  1.00  0.00     0.274 HD
HETATM   16  H   UNL     1      69.751   2.363  10.491  1.00  0.00     0.274 HD
ENDBRANCH  12  13
ENDBRANCH   6  12
TORSDOF 3
ENDMDL
MODEL 4
REMARK VINA RESULT:      -4.9      2.746      4.556
REMARK  3 active torsions:
REMARK  status: ('A' for Active; 'I' for Inactive)
REMARK    1  A    between atoms: C_1  and  C_3 
REMARK    2  A    between atoms: C_11  and  C_13 
REMARK    3  A    between atoms: N_12  and  C_13 
ROOT
HETATM    1  C   UNL     1      75.165   2.163  17.381  1.00  0.00    -0.025 A 
HETATM    2  C   UNL     1      74.496   3.196  16.711  1.00  0.00     0.013 A 
HETATM    3  C   UNL     1      76.397   2.446  17.984  1.00  0.00     0.013 A 
HETATM    4  C   UNL     1      76.948   3.731  17.921  1.00  0.00     0.010 A 
HETATM    5  C   UNL     1      75.044   4.482  16.654  1.00  0.00     0.010 A 
HETATM    6  C   UNL     1      76.275   4.764  17.259  1.00  0.00    -0.033 A 
ENDROOT
BRANCH   1   7
HETATM    7  C   UNL     1      74.562   0.830  17.468  1.00  0.00    -0.019 A 
HETATM    8  C   UNL     1      74.131   0.136  16.353  1.00  0.00     0.061 A 
HETATM    9  S   UNL     1      73.481  -1.403  16.734  1.00  0.00    -0.113 SA
HETATM   10  C   UNL     1      73.750  -1.160  18.402  1.00  0.00     0.050 A 
HETATM   11  C   UNL     1      74.326   0.065  18.659  1.00  0.00     0.020 A 
ENDBRANCH   1   7
BRANCH   6  12
HETATM   12  C   UNL     1      76.850   6.157  17.218  1.00  0.00     0.268 C 
BRANCH  12  13
HETATM   13  N   UNL     1      76.907   6.675  15.856  1.00  0.00    -0.075 N 
HETATM   14  H   UNL     1      76.979   7.692  15.882  1.00  0.00     0.274 HD
HETATM   15  H   UNL     1      76.059   6.407  15.355  1.00  0.00     0.274 HD
HETATM   16  H   UNL     1      77.720   6.287  15.379  1.00  0.00     0.274 HD
ENDBRANCH  12  13
ENDBRANCH   6  12
TORSDOF 3
ENDMDL
MODEL 5
REMARK VINA RESULT:      -4.9     20.026     20.863
REMARK  3 active torsions:
REMARK  status: ('A' for Active; 'I' for Inactive)
REMARK    1  A    between atoms: C_1  and  C_3 
REMARK    2  A    between atoms: C_11  and  C_13 
REMARK    3  A    between atoms: N_12  and  C_13 
ROOT
HETATM    1  C   UNL     1      61.955   8.857   1.911  1.00  0.00    -0.025 A 
HETATM    2  C   UNL     1      61.682  10.229   1.833  1.00  0.00     0.013 A 
HETATM    3  C   UNL     1      62.457   8.344   3.114  1.00  0.00     0.013 A 
HETATM    4  C   UNL     1      62.677   9.181   4.215  1.00  0.00     0.010 A 
HETATM    5  C   UNL     1      61.896  11.064   2.935  1.00  0.00     0.010 A 
HETATM    6  C   UNL     1      62.395  10.549   4.138  1.00  0.00    -0.033 A 
ENDROOT
BRANCH   1   7
HETATM    7  C   UNL     1      61.690   7.986   0.763  1.00  0.00    -0.019 A 
HETATM    8  C   UNL     1      60.417   7.556   0.436  1.00  0.00     0.061 A 
HETATM    9  S   UNL     1      60.386   6.562  -0.959  1.00  0.00    -0.113 SA
HETATM   10  C   UNL     1      62.079   6.676  -1.140  1.00  0.00     0.050 A 
HETATM   11  C   UNL     1      62.651   7.457  -0.161  1.00  0.00     0.020 A 
ENDBRANCH   1   7
BRANCH   6  12
HETATM   12  C   UNL     1      62.600  11.447   5.331  1.00  0.00     0.268 C 
BRANCH  12  13
HETATM   13  N   UNL     1      63.796  11.081   6.080  1.00  0.00    -0.075 N 
HETATM   14  H   UNL     1      64.241  10.277   5.638  1.00  0.00     0.274 HD
HETATM   15  H   UNL     1      63.539  10.843   7.038  1.00  0.00     0.274 HD
HETATM   16  H   UNL     1      64.445  11.868   6.088  1.00  0.00     0.274 HD
ENDBRANCH  12  13
ENDBRANCH   6  12
TORSDOF 3
ENDMDL
MODEL 6
REMARK VINA RESULT:      -4.9     12.021     13.544
REMARK  3 active torsions:
REMARK  status: ('A' for Active; 'I' for Inactive)
REMARK    1  A    between atoms: C_1  and  C_3 
REMARK    2  A    between atoms: C_11  and  C_13 
REMARK    3  A    between atoms: N_12  and  C_13 
ROOT
HETATM    1  C   UNL     1      68.007   5.237   7.311  1.00  0.00    -0.025 A 
HETATM    2  C   UNL     1      68.373   5.483   8.641  1.00  0.00     0.013 A 
HETATM    3  C   UNL     1      68.245   3.964   6.777  1.00  0.00     0.013 A 
HETATM    4  C   UNL     1      68.834   2.959   7.553  1.00  0.00     0.010 A 
HETATM    5  C   UNL     1      68.956   4.476   9.418  1.00  0.00     0.010 A 
HETATM    6  C   UNL     1      69.191   3.204   8.884  1.00  0.00    -0.033 A 
ENDROOT
BRANCH   1   7
HETATM    7  C   UNL     1      67.361   6.287   6.518  1.00  0.00    -0.019 A 
HETATM    8  C   UNL     1      66.191   6.907   6.918  1.00  0.00     0.061 A 
HETATM    9  S   UNL     1      65.661   8.107   5.817  1.00  0.00    -0.113 SA
HETATM   10  C   UNL     1      66.980   7.806   4.776  1.00  0.00     0.050 A 
HETATM   11  C   UNL     1      67.805   6.817   5.261  1.00  0.00     0.020 A 
ENDBRANCH   1   7
BRANCH   6  12
HETATM   12  C   UNL     1      69.795   2.114   9.733  1.00  0.00     0.268 C 
BRANCH  12  13
HETATM   13  N   UNL     1      69.834   2.489  11.141  1.00  0.00    -0.075 N 
HETATM   14  H   UNL     1      70.774   2.798  11.385  1.00  0.00     0.274 HD
HETATM   15  H   UNL     1      69.581   1.683  11.714  1.00  0.00     0.274 HD
HETATM   16  H   UNL     1      69.171   3.246  11.309  1.00  0.00     0.274 HD
ENDBRANCH  12  13
ENDBRANCH   6  12
TORSDOF 3
ENDMDL
MODEL 7
REMARK VINA RESULT:      -4.6     16.896     17.743
REMARK  3 active torsions:
REMARK  status: ('A' for Active; 'I' for Inactive)
REMARK    1  A    between atoms: C_1  and  C_3 
REMARK    2  A    between atoms: C_11  and  C_13 
REMARK    3  A    between atoms: N_12  and  C_13 
ROOT
HETATM    1  C   UNL     1      64.118   8.132   4.837  1.00  0.00    -0.025 A 
HETATM    2  C   UNL     1      63.497   9.355   5.124  1.00  0.00     0.013 A 
HETATM    3  C   UNL     1      63.853   7.522   3.603  1.00  0.00     0.013 A 
HETATM    4  C   UNL     1      62.991   8.120   2.677  1.00  0.00     0.010 A 
HETATM    5  C   UNL     1      62.640   9.956   4.196  1.00  0.00     0.010 A 
HETATM    6  C   UNL     1      62.378   9.346   2.962  1.00  0.00    -0.033 A 
ENDROOT
BRANCH   1   7
HETATM    7  C   UNL     1      65.044   7.531   5.800  1.00  0.00    -0.019 A 
HETATM    8  C   UNL     1      64.629   6.643   6.775  1.00  0.00     0.061 A 
HETATM    9  S   UNL     1      65.915   6.081   7.758  1.00  0.00    -0.113 SA
HETATM   10  C   UNL     1      67.049   7.031   6.906  1.00  0.00     0.050 A 
HETATM   11  C   UNL     1      66.458   7.754   5.894  1.00  0.00     0.020 A 
ENDBRANCH   1   7
BRANCH   6  12
HETATM   12  C   UNL     1      61.475  10.009   1.954  1.00  0.00     0.268 C 
BRANCH  12  13
HETATM   13  N   UNL     1      61.544  11.463   2.045  1.00  0.00    -0.075 N 
HETATM   14  H   UNL     1      62.472  11.777   1.761  1.00  0.00     0.274 HD
HETATM   15  H   UNL     1      61.366  11.752   3.007  1.00  0.00     0.274 HD
HETATM   16  H   UNL     1      60.842  11.875   1.431  1.00  0.00     0.274 HD
ENDBRANCH  12  13
ENDBRANCH   6  12
TORSDOF 3
ENDMDL
MODEL 8
REMARK VINA RESULT:      -4.6     12.799     13.739
REMARK  3 active torsions:
REMARK  status: ('A' for Active; 'I' for Inactive)
REMARK    1  A    between atoms: C_1  and  C_3 
REMARK    2  A    between atoms: C_11  and  C_13 
REMARK    3  A    between atoms: N_12  and  C_13 
ROOT
HETATM    1  C   UNL     1      67.222   5.880   7.299  1.00  0.00    -0.025 A 
HETATM    2  C   UNL     1      65.853   6.000   7.571  1.00  0.00     0.013 A 
HETATM    3  C   UNL     1      67.762   6.630   6.246  1.00  0.00     0.013 A 
HETATM    4  C   UNL     1      66.954   7.482   5.484  1.00  0.00     0.010 A 
HETATM    5  C   UNL     1      65.047   6.856   6.813  1.00  0.00     0.010 A 
HETATM    6  C   UNL     1      65.588   7.607   5.762  1.00  0.00    -0.033 A 
ENDROOT
BRANCH   1   7
HETATM    7  C   UNL     1      68.064   5.010   8.124  1.00  0.00    -0.019 A 
HETATM    8  C   UNL     1      67.620   3.798   8.619  1.00  0.00     0.061 A 
HETATM    9  S   UNL     1      68.808   2.976   9.540  1.00  0.00    -0.113 SA
HETATM   10  C   UNL     1      69.934   4.237   9.306  1.00  0.00     0.050 A 
HETATM   11  C   UNL     1      69.415   5.257   8.541  1.00  0.00     0.020 A 
ENDBRANCH   1   7
BRANCH   6  12
HETATM   12  C   UNL     1      64.722   8.548   4.965  1.00  0.00     0.268 C 
BRANCH  12  13
HETATM   13  N   UNL     1      63.547   8.967   5.720  1.00  0.00    -0.075 N 
HETATM   14  H   UNL     1      63.784   9.773   6.298  1.00  0.00     0.274 HD
HETATM   15  H   UNL     1      63.235   8.200   6.316  1.00  0.00     0.274 HD
HETATM   16  H   UNL     1      62.800   9.220   5.073  1.00  0.00     0.274 HD
ENDBRANCH  12  13
ENDBRANCH   6  12
TORSDOF 3
ENDMDL
MODEL 9
REMARK VINA RESULT:      -4.5     15.693     16.800
REMARK  3 active torsions:
REMARK  status: ('A' for Active; 'I' for Inactive)
REMARK    1  A    between atoms: C_1  and  C_3 
REMARK    2  A    between atoms: C_11  and  C_13 
REMARK    3  A    between atoms: N_12  and  C_13 
ROOT
HETATM    1  C   UNL     1      64.613   7.972   5.426  1.00  0.00    -0.025 A 
HETATM    2  C   UNL     1      65.986   8.182   5.242  1.00  0.00     0.013 A 
HETATM    3  C   UNL     1      64.204   6.982   6.329  1.00  0.00     0.013 A 
HETATM    4  C   UNL     1      65.144   6.223   7.036  1.00  0.00     0.010 A 
HETATM    5  C   UNL     1      66.925   7.426   5.952  1.00  0.00     0.010 A 
HETATM    6  C   UNL     1      66.515   6.440   6.857  1.00  0.00    -0.033 A 
ENDROOT
BRANCH   1   7
HETATM    7  C   UNL     1      63.639   8.796   4.706  1.00  0.00    -0.019 A 
HETATM    8  C   UNL     1      63.146   8.447   3.461  1.00  0.00     0.061 A 
HETATM    9  S   UNL     1      62.011   9.576   2.852  1.00  0.00    -0.113 SA
HETATM   10  C   UNL     1      62.171  10.561   4.237  1.00  0.00     0.050 A 
HETATM   11  C   UNL     1      63.066  10.037   5.142  1.00  0.00     0.020 A 
ENDBRANCH   1   7
BRANCH   6  12
HETATM   12  C   UNL     1      67.529   5.646   7.641  1.00  0.00     0.268 C 
BRANCH  12  13
HETATM   13  N   UNL     1      68.132   6.443   8.703  1.00  0.00    -0.075 N 
HETATM   14  H   UNL     1      68.688   7.191   8.292  1.00  0.00     0.274 HD
HETATM   15  H   UNL     1      68.731   5.848   9.275  1.00  0.00     0.274 HD
HETATM   16  H   UNL     1      67.396   6.844   9.285  1.00  0.00     0.274 HD
ENDBRANCH  12  13
ENDBRANCH   6  12
TORSDOF 3
ENDMDL
