MODEL 1
REMARK VINA RESULT:      -6.3      0.000      0.000
REMARK  3 active torsions:
REMARK  status: ('A' for Active; 'I' for Inactive)
REMARK    1  A    between atoms: N_1  and  C_7 
REMARK    2  A    between atoms: C_4  and  C_8 
REMARK    3  A    between atoms: C_8  and  O_11 
ROOT
HETATM    1  N   UNL     1      79.051  11.885  20.997  1.00  0.00    -0.260 N 
HETATM    2  N   UNL     1      79.560  10.869  20.251  1.00  0.00    -0.298 N 
ATOM      3  HN  UNL     1      80.453  10.394  20.383  1.00  0.00     0.187 HD
HETATM    4  C   UNL     1      77.603  11.576  19.334  1.00  0.00     0.013 A 
HETATM    5  C   UNL     1      77.883  12.380  20.431  1.00  0.00     0.041 A 
HETATM    6  C   UNL     1      78.649  10.624  19.311  1.00  0.00     0.033 A 
HETATM    7  C   UNL     1      77.160  13.613  20.853  1.00  0.00     0.071 C 
HETATM    8  C   UNL     1      78.839   9.485  18.378  1.00  0.00     0.070 C 
ENDROOT
BRANCH   1   9
HETATM    9  C   UNL     1      79.747  12.283  22.171  1.00  0.00     0.056 A 
HETATM   10  C   UNL     1      79.208  11.945  23.422  1.00  0.00     0.031 A 
HETATM   11  C   UNL     1      79.879  12.297  24.595  1.00  0.00     0.002 A 
HETATM   12  C   UNL     1      81.069  13.019  24.528  1.00  0.00     0.000 A 
HETATM   13  C   UNL     1      81.585  13.396  23.288  1.00  0.00     0.002 A 
HETATM   14  C   UNL     1      80.929  13.028  22.109  1.00  0.00     0.031 A 
ENDBRANCH   1   9
BRANCH   4  15
HETATM   15  C   UNL     1      76.484  11.711  18.363  1.00  0.00     0.207 C 
BRANCH  15  16
HETATM   16  O   UNL     1      76.723  12.747  17.418  1.00  0.00    -0.396 OA
HETATM   17  H   UNL     1      76.697  12.379  16.521  1.00  0.00     0.209 HD
ENDBRANCH  15  16
ENDBRANCH   4  15
TORSDOF 3
ENDMDL
MODEL 2
REMARK VINA RESULT:      -6.2      7.170      9.452
REMARK  3 active torsions:
REMARK  status: ('A' for Active; 'I' for Inactive)
REMARK    1  A    between atoms: N_1  and  C_7 
REMARK    2  A    between atoms: C_4  and  C_8 
REMARK    3  A    between atoms: C_8  and  O_11 
ROOT
HETATM    1  N   UNL     1      76.374   4.630  17.156  1.00  0.00    -0.260 N 
HETATM    2  N   UNL     1      77.370   3.816  17.597  1.00  0.00    -0.298 N 
ATOM      3  HN  UNL     1      78.359   4.047  17.690  1.00  0.00     0.187 HD
HETATM    4  C   UNL     1      75.425   2.644  17.487  1.00  0.00     0.013 A 
HETATM    5  C   UNL     1      75.182   3.930  17.021  1.00  0.00     0.041 A 
HETATM    6  C   UNL     1      76.783   2.655  17.881  1.00  0.00     0.033 A 
HETATM    7  C   UNL     1      73.937   4.436  16.379  1.00  0.00     0.071 C 
HETATM    8  C   UNL     1      77.573   1.560  18.499  1.00  0.00     0.070 C 
ENDROOT
BRANCH   1   9
HETATM    9  C   UNL     1      76.675   5.996  16.898  1.00  0.00     0.056 A 
HETATM   10  C   UNL     1      76.706   6.895  17.976  1.00  0.00     0.031 A 
HETATM   11  C   UNL     1      77.023   8.238  17.762  1.00  0.00     0.002 A 
HETATM   12  C   UNL     1      77.275   8.698  16.471  1.00  0.00     0.000 A 
HETATM   13  C   UNL     1      77.201   7.817  15.392  1.00  0.00     0.002 A 
HETATM   14  C   UNL     1      76.905   6.466  15.601  1.00  0.00     0.031 A 
ENDBRANCH   1   9
BRANCH   4  15
HETATM   15  C   UNL     1      74.486   1.490  17.518  1.00  0.00     0.207 C 
BRANCH  15  16
HETATM   16  O   UNL     1      74.336   0.961  18.831  1.00  0.00    -0.396 OA
HETATM   17  H   UNL     1      74.627   1.620  19.479  1.00  0.00     0.209 HD
ENDBRANCH  15  16
ENDBRANCH   4  15
TORSDOF 3
ENDMDL
MODEL 3
REMARK VINA RESULT:      -6.1      3.438      5.270
REMARK  3 active torsions:
REMARK  status: ('A' for Active; 'I' for Inactive)
REMARK    1  A    between atoms: N_1  and  C_7 
REMARK    2  A    between atoms: C_4  and  C_8 
REMARK    3  A    between atoms: C_8  and  O_11 
ROOT
HETATM    1  N   UNL     1      77.253   9.437  17.700  1.00  0.00    -0.260 N 
HETATM    2  N   UNL     1      76.959   8.291  18.371  1.00  0.00    -0.298 N 
ATOM      3  HN  UNL     1      76.863   8.175  19.379  1.00  0.00     0.187 HD
HETATM    4  C   UNL     1      77.175   7.838  16.153  1.00  0.00     0.013 A 
HETATM    5  C   UNL     1      77.450   9.186  16.349  1.00  0.00     0.041 A 
HETATM    6  C   UNL     1      76.823   7.354  17.435  1.00  0.00     0.033 A 
HETATM    7  C   UNL     1      77.978  10.153  15.346  1.00  0.00     0.071 C 
HETATM    8  C   UNL     1      76.389   5.987  17.816  1.00  0.00     0.070 C 
ENDROOT
BRANCH   1   9
HETATM    9  C   UNL     1      77.325  10.655  18.431  1.00  0.00     0.056 A 
HETATM   10  C   UNL     1      78.205  10.736  19.522  1.00  0.00     0.031 A 
HETATM   11  C   UNL     1      78.320  11.924  20.246  1.00  0.00     0.002 A 
HETATM   12  C   UNL     1      77.534  13.025  19.910  1.00  0.00     0.000 A 
HETATM   13  C   UNL     1      76.626  12.934  18.853  1.00  0.00     0.002 A 
HETATM   14  C   UNL     1      76.521  11.754  18.112  1.00  0.00     0.031 A 
ENDBRANCH   1   9
BRANCH   4  15
HETATM   15  C   UNL     1      77.280   7.057  14.891  1.00  0.00     0.207 C 
BRANCH  15  16
HETATM   16  O   UNL     1      76.802   7.793  13.770  1.00  0.00    -0.396 OA
HETATM   17  H   UNL     1      77.415   7.684  13.027  1.00  0.00     0.209 HD
ENDBRANCH  15  16
ENDBRANCH   4  15
TORSDOF 3
ENDMDL
MODEL 4
REMARK VINA RESULT:      -6.1      2.657      6.325
REMARK  3 active torsions:
REMARK  status: ('A' for Active; 'I' for Inactive)
REMARK    1  A    between atoms: N_1  and  C_7 
REMARK    2  A    between atoms: C_4  and  C_8 
REMARK    3  A    between atoms: C_8  and  O_11 
ROOT
HETATM    1  N   UNL     1      77.605  10.639  18.553  1.00  0.00    -0.260 N 
HETATM    2  N   UNL     1      76.650  11.604  18.631  1.00  0.00    -0.298 N 
ATOM      3  HN  UNL     1      75.860  11.742  18.001  1.00  0.00     0.187 HD
HETATM    4  C   UNL     1      78.209  11.946  20.251  1.00  0.00     0.013 A 
HETATM    5  C   UNL     1      78.606  10.852  19.492  1.00  0.00     0.041 A 
HETATM    6  C   UNL     1      76.963  12.331  19.702  1.00  0.00     0.033 A 
HETATM    7  C   UNL     1      79.902  10.123  19.571  1.00  0.00     0.071 C 
HETATM    8  C   UNL     1      76.056  13.417  20.148  1.00  0.00     0.070 C 
ENDROOT
BRANCH   1   9
HETATM    9  C   UNL     1      77.462   9.617  17.575  1.00  0.00     0.056 A 
HETATM   10  C   UNL     1      77.711   9.931  16.229  1.00  0.00     0.031 A 
HETATM   11  C   UNL     1      77.605   8.946  15.246  1.00  0.00     0.002 A 
HETATM   12  C   UNL     1      77.216   7.653  15.593  1.00  0.00     0.000 A 
HETATM   13  C   UNL     1      76.925   7.347  16.923  1.00  0.00     0.002 A 
HETATM   14  C   UNL     1      77.049   8.324  17.915  1.00  0.00     0.031 A 
ENDBRANCH   1   9
BRANCH   4  15
HETATM   15  C   UNL     1      78.950  12.607  21.359  1.00  0.00     0.207 C 
BRANCH  15  16
HETATM   16  O   UNL     1      78.891  11.851  22.563  1.00  0.00    -0.396 OA
HETATM   17  H   UNL     1      79.786  11.743  22.921  1.00  0.00     0.209 HD
ENDBRANCH  15  16
ENDBRANCH   4  15
TORSDOF 3
ENDMDL
MODEL 5
REMARK VINA RESULT:      -6.1      5.165      8.572
REMARK  3 active torsions:
REMARK  status: ('A' for Active; 'I' for Inactive)
REMARK    1  A    between atoms: N_1  and  C_7 
REMARK    2  A    between atoms: C_4  and  C_8 
REMARK    3  A    between atoms: C_8  and  O_11 
ROOT
HETATM    1  N   UNL     1      76.625   6.580  17.078  1.00  0.00    -0.260 N 
HETATM    2  N   UNL     1      76.649   7.339  18.206  1.00  0.00    -0.298 N 
ATOM      3  HN  UNL     1      76.311   7.078  19.132  1.00  0.00     0.187 HD
HETATM    4  C   UNL     1      77.415   8.565  16.450  1.00  0.00     0.013 A 
HETATM    5  C   UNL     1      77.032   7.318  15.974  1.00  0.00     0.041 A 
HETATM    6  C   UNL     1      77.207   8.494  17.848  1.00  0.00     0.033 A 
HETATM    7  C   UNL     1      76.943   6.885  14.551  1.00  0.00     0.071 C 
HETATM    8  C   UNL     1      77.490   9.527  18.875  1.00  0.00     0.070 C 
ENDROOT
BRANCH   1   9
HETATM    9  C   UNL     1      76.201   5.227  17.177  1.00  0.00     0.056 A 
HETATM   10  C   UNL     1      77.028   4.308  17.842  1.00  0.00     0.031 A 
HETATM   11  C   UNL     1      76.630   2.976  17.981  1.00  0.00     0.002 A 
HETATM   12  C   UNL     1      75.427   2.546  17.425  1.00  0.00     0.000 A 
HETATM   13  C   UNL     1      74.623   3.447  16.724  1.00  0.00     0.002 A 
HETATM   14  C   UNL     1      75.005   4.786  16.600  1.00  0.00     0.031 A 
ENDBRANCH   1   9
BRANCH   4  15
HETATM   15  C   UNL     1      77.888   9.738  15.667  1.00  0.00     0.207 C 
BRANCH  15  16
HETATM   16  O   UNL     1      79.270   9.999  15.883  1.00  0.00    -0.396 OA
HETATM   17  H   UNL     1      79.761   9.840  15.062  1.00  0.00     0.209 HD
ENDBRANCH  15  16
ENDBRANCH   4  15
TORSDOF 3
ENDMDL
MODEL 6
REMARK VINA RESULT:      -5.9      3.594      5.446
REMARK  3 active torsions:
REMARK  status: ('A' for Active; 'I' for Inactive)
REMARK    1  A    between atoms: N_1  and  C_7 
REMARK    2  A    between atoms: C_4  and  C_8 
REMARK    3  A    between atoms: C_8  and  O_11 
ROOT
HETATM    1  N   UNL     1      77.388   9.774  17.091  1.00  0.00    -0.260 N 
HETATM    2  N   UNL     1      77.637  10.200  15.824  1.00  0.00    -0.298 N 
ATOM      3  HN  UNL     1      77.775  11.161  15.513  1.00  0.00     0.187 HD
HETATM    4  C   UNL     1      77.281   7.954  15.813  1.00  0.00     0.013 A 
HETATM    5  C   UNL     1      77.107   8.414  17.112  1.00  0.00     0.041 A 
HETATM    6  C   UNL     1      77.663   9.099  15.075  1.00  0.00     0.033 A 
HETATM    7  C   UNL     1      76.596   7.643  18.280  1.00  0.00     0.071 C 
HETATM    8  C   UNL     1      78.023   9.192  13.639  1.00  0.00     0.070 C 
ENDROOT
BRANCH   1   9
HETATM    9  C   UNL     1      77.433  10.722  18.150  1.00  0.00     0.056 A 
HETATM   10  C   UNL     1      78.387  10.553  19.166  1.00  0.00     0.031 A 
HETATM   11  C   UNL     1      78.477  11.480  20.207  1.00  0.00     0.002 A 
HETATM   12  C   UNL     1      77.595  12.557  20.260  1.00  0.00     0.000 A 
HETATM   13  C   UNL     1      76.616  12.704  19.275  1.00  0.00     0.002 A 
HETATM   14  C   UNL     1      76.534  11.791  18.219  1.00  0.00     0.031 A 
ENDBRANCH   1   9
BRANCH   4  15
HETATM   15  C   UNL     1      77.062   6.577  15.293  1.00  0.00     0.207 C 
BRANCH  15  16
HETATM   16  O   UNL     1      75.833   6.466  14.583  1.00  0.00    -0.396 OA
HETATM   17  H   UNL     1      75.538   5.543  14.590  1.00  0.00     0.209 HD
ENDBRANCH  15  16
ENDBRANCH   4  15
TORSDOF 3
ENDMDL
MODEL 7
REMARK VINA RESULT:      -5.9      2.690      5.535
REMARK  3 active torsions:
REMARK  status: ('A' for Active; 'I' for Inactive)
REMARK    1  A    between atoms: N_1  and  C_7 
REMARK    2  A    between atoms: C_4  and  C_8 
REMARK    3  A    between atoms: C_8  and  O_11 
ROOT
HETATM    1  N   UNL     1      79.142  12.479  21.887  1.00  0.00    -0.260 N 
HETATM    2  N   UNL     1      80.358  13.036  21.644  1.00  0.00    -0.298 N 
ATOM      3  HN  UNL     1      80.733  13.328  20.741  1.00  0.00     0.187 HD
HETATM    4  C   UNL     1      80.203  12.485  23.844  1.00  0.00     0.013 A 
HETATM    5  C   UNL     1      79.036  12.076  23.212  1.00  0.00     0.041 A 
HETATM    6  C   UNL     1      80.956  13.123  22.830  1.00  0.00     0.033 A 
HETATM    7  C   UNL     1      77.938  11.252  23.792  1.00  0.00     0.071 C 
HETATM    8  C   UNL     1      82.274  13.795  22.946  1.00  0.00     0.070 C 
ENDROOT
BRANCH   1   9
HETATM    9  C   UNL     1      78.211  12.380  20.817  1.00  0.00     0.056 A 
HETATM   10  C   UNL     1      77.236  13.380  20.676  1.00  0.00     0.031 A 
HETATM   11  C   UNL     1      76.323  13.329  19.621  1.00  0.00     0.002 A 
HETATM   12  C   UNL     1      76.353  12.263  18.724  1.00  0.00     0.000 A 
HETATM   13  C   UNL     1      77.293  11.244  18.886  1.00  0.00     0.002 A 
HETATM   14  C   UNL     1      78.223  11.300  19.928  1.00  0.00     0.031 A 
ENDBRANCH   1   9
BRANCH   4  15
HETATM   15  C   UNL     1      80.605  12.258  25.259  1.00  0.00     0.207 C 
BRANCH  15  16
HETATM   16  O   UNL     1      80.484  13.440  26.042  1.00  0.00    -0.396 OA
HETATM   17  H   UNL     1      81.215  14.042  25.833  1.00  0.00     0.209 HD
ENDBRANCH  15  16
ENDBRANCH   4  15
TORSDOF 3
ENDMDL
MODEL 8
REMARK VINA RESULT:      -5.6      2.335      5.853
REMARK  3 active torsions:
REMARK  status: ('A' for Active; 'I' for Inactive)
REMARK    1  A    between atoms: N_1  and  C_7 
REMARK    2  A    between atoms: C_4  and  C_8 
REMARK    3  A    between atoms: C_8  and  O_11 
ROOT
HETATM    1  N   UNL     1      77.278  10.729  18.527  1.00  0.00    -0.260 N 
HETATM    2  N   UNL     1      77.753  10.612  19.796  1.00  0.00    -0.298 N 
ATOM      3  HN  UNL     1      78.025   9.754  20.276  1.00  0.00     0.187 HD
HETATM    4  C   UNL     1      77.196  12.779  19.392  1.00  0.00     0.013 A 
HETATM    5  C   UNL     1      76.873  12.032  18.266  1.00  0.00     0.041 A 
HETATM    6  C   UNL     1      77.789  11.852  20.280  1.00  0.00     0.033 A 
HETATM    7  C   UNL     1      76.123  12.491  17.064  1.00  0.00     0.071 C 
HETATM    8  C   UNL     1      78.367  12.103  21.624  1.00  0.00     0.070 C 
ENDROOT
BRANCH   1   9
HETATM    9  C   UNL     1      77.253   9.573  17.700  1.00  0.00     0.056 A 
HETATM   10  C   UNL     1      76.888   8.343  18.270  1.00  0.00     0.031 A 
HETATM   11  C   UNL     1      76.828   7.193  17.481  1.00  0.00     0.002 A 
HETATM   12  C   UNL     1      77.164   7.255  16.130  1.00  0.00     0.000 A 
HETATM   13  C   UNL     1      77.570   8.467  15.569  1.00  0.00     0.002 A 
HETATM   14  C   UNL     1      77.613   9.627  16.349  1.00  0.00     0.031 A 
ENDBRANCH   1   9
BRANCH   4  15
HETATM   15  C   UNL     1      76.930  14.223  19.639  1.00  0.00     0.207 C 
BRANCH  15  16
HETATM   16  O   UNL     1      77.530  15.050  18.648  1.00  0.00    -0.396 OA
HETATM   17  H   UNL     1      77.037  15.882  18.581  1.00  0.00     0.209 HD
ENDBRANCH  15  16
ENDBRANCH   4  15
TORSDOF 3
ENDMDL
MODEL 9
REMARK VINA RESULT:      -5.5      6.261      8.748
REMARK  3 active torsions:
REMARK  status: ('A' for Active; 'I' for Inactive)
REMARK    1  A    between atoms: N_1  and  C_7 
REMARK    2  A    between atoms: C_4  and  C_8 
REMARK    3  A    between atoms: C_8  and  O_11 
ROOT
HETATM    1  N   UNL     1      76.665   6.419  16.197  1.00  0.00    -0.260 N 
HETATM    2  N   UNL     1      77.026   6.557  14.893  1.00  0.00    -0.298 N 
ATOM      3  HN  UNL     1      77.046   5.829  14.179  1.00  0.00     0.187 HD
HETATM    4  C   UNL     1      77.349   8.527  15.982  1.00  0.00     0.013 A 
HETATM    5  C   UNL     1      76.905   7.589  16.905  1.00  0.00     0.041 A 
HETATM    6  C   UNL     1      77.348   7.840  14.745  1.00  0.00     0.033 A 
HETATM    7  C   UNL     1      76.823   7.750  18.384  1.00  0.00     0.071 C 
HETATM    8  C   UNL     1      77.688   8.365  13.399  1.00  0.00     0.070 C 
ENDROOT
BRANCH   1   9
HETATM    9  C   UNL     1      76.137   5.172  16.629  1.00  0.00     0.056 A 
HETATM   10  C   UNL     1      76.969   4.299  17.349  1.00  0.00     0.031 A 
HETATM   11  C   UNL     1      76.475   3.078  17.811  1.00  0.00     0.002 A 
HETATM   12  C   UNL     1      75.163   2.704  17.528  1.00  0.00     0.000 A 
HETATM   13  C   UNL     1      74.346   3.549  16.775  1.00  0.00     0.002 A 
HETATM   14  C   UNL     1      74.828   4.782  16.327  1.00  0.00     0.031 A 
ENDBRANCH   1   9
BRANCH   4  15
HETATM   15  C   UNL     1      77.783   9.927  16.236  1.00  0.00     0.207 C 
BRANCH  15  16
HETATM   16  O   UNL     1      79.014   9.980  16.949  1.00  0.00    -0.396 OA
HETATM   17  H   UNL     1      79.749   9.819  16.337  1.00  0.00     0.209 HD
ENDBRANCH  15  16
ENDBRANCH   4  15
TORSDOF 3
ENDMDL
