MODEL 1
REMARK VINA RESULT:      -6.0      0.000      0.000
REMARK  2 active torsions:
REMARK  status: ('A' for Active; 'I' for Inactive)
REMARK    1  A    between atoms: C_1  and  C_5 
REMARK    2  A    between atoms: C_2  and  C_7 
ROOT
HETATM    1  C   UNL     1      63.935   7.814   5.457  1.00  0.00     0.077 A 
HETATM    2  C   UNL     1      62.772   8.163   4.788  1.00  0.00     0.103 A 
HETATM    3  O   UNL     1      61.771   7.285   5.115  1.00  0.00    -0.314 OA
HETATM    4  C   UNL     1      63.623   6.631   6.194  1.00  0.00     0.053 A 
HETATM    5  C   UNL     1      62.296   6.358   5.962  1.00  0.00     0.051 A 
HETATM    6  C   UNL     1      61.382   5.298   6.429  1.00  0.00     0.077 C 
ENDROOT
BRANCH   2   7
HETATM    7  C   UNL     1      62.412   9.188   3.808  1.00  0.00    -0.001 A 
HETATM    8  C   UNL     1      62.294   8.861   2.447  1.00  0.00     0.014 A 
HETATM    9  C   UNL     1      62.008   9.837   1.492  1.00  0.00     0.001 A 
HETATM   10  C   UNL     1      61.805  11.155   1.887  1.00  0.00     0.000 A 
HETATM   11  C   UNL     1      61.880  11.493   3.237  1.00  0.00     0.001 A 
HETATM   12  C   UNL     1      62.178  10.515   4.190  1.00  0.00     0.014 A 
ENDBRANCH   2   7
BRANCH   1  13
HETATM   13  C   UNL     1      65.197   8.513   5.408  1.00  0.00     0.212 C 
HETATM   14  O   UNL     1      66.234   8.118   4.897  1.00  0.00    -0.644 OA
HETATM   15  O   UNL     1      65.185   9.712   6.029  1.00  0.00    -0.644 OA
ENDBRANCH   1  13
TORSDOF 2
ENDMDL
MODEL 2
REMARK VINA RESULT:      -5.8      1.795      4.779
REMARK  2 active torsions:
REMARK  status: ('A' for Active; 'I' for Inactive)
REMARK    1  A    between atoms: C_1  and  C_5 
REMARK    2  A    between atoms: C_2  and  C_7 
ROOT
HETATM    1  C   UNL     1      62.554  10.023   3.836  1.00  0.00     0.077 A 
HETATM    2  C   UNL     1      63.225   8.811   3.869  1.00  0.00     0.103 A 
HETATM    3  O   UNL     1      63.061   8.161   2.673  1.00  0.00    -0.314 OA
HETATM    4  C   UNL     1      61.914  10.083   2.561  1.00  0.00     0.053 A 
HETATM    5  C   UNL     1      62.262   8.935   1.889  1.00  0.00     0.051 A 
HETATM    6  C   UNL     1      61.941   8.408   0.549  1.00  0.00     0.077 C 
ENDROOT
BRANCH   2   7
HETATM    7  C   UNL     1      63.991   8.081   4.879  1.00  0.00    -0.001 A 
HETATM    8  C   UNL     1      63.396   7.037   5.606  1.00  0.00     0.014 A 
HETATM    9  C   UNL     1      64.094   6.369   6.613  1.00  0.00     0.001 A 
HETATM   10  C   UNL     1      65.412   6.715   6.890  1.00  0.00     0.000 A 
HETATM   11  C   UNL     1      66.033   7.723   6.154  1.00  0.00     0.001 A 
HETATM   12  C   UNL     1      65.327   8.398   5.154  1.00  0.00     0.014 A 
ENDBRANCH   2   7
BRANCH   1  13
HETATM   13  C   UNL     1      62.519  11.014   4.886  1.00  0.00     0.212 C 
HETATM   14  O   UNL     1      62.977  10.904   6.012  1.00  0.00    -0.644 OA
HETATM   15  O   UNL     1      61.877  12.152   4.544  1.00  0.00    -0.644 OA
ENDBRANCH   1  13
TORSDOF 2
ENDMDL
MODEL 3
REMARK VINA RESULT:      -5.6      1.048      3.043
REMARK  2 active torsions:
REMARK  status: ('A' for Active; 'I' for Inactive)
REMARK    1  A    between atoms: C_1  and  C_5 
REMARK    2  A    between atoms: C_2  and  C_7 
ROOT
HETATM    1  C   UNL     1      63.467   7.321   5.773  1.00  0.00     0.077 A 
HETATM    2  C   UNL     1      63.782   8.368   4.922  1.00  0.00     0.103 A 
HETATM    3  O   UNL     1      65.119   8.653   5.016  1.00  0.00    -0.314 OA
HETATM    4  C   UNL     1      64.681   6.988   6.450  1.00  0.00     0.053 A 
HETATM    5  C   UNL     1      65.655   7.818   5.947  1.00  0.00     0.051 A 
HETATM    6  C   UNL     1      67.097   7.970   6.219  1.00  0.00     0.077 C 
ENDROOT
BRANCH   2   7
HETATM    7  C   UNL     1      63.017   9.234   4.024  1.00  0.00    -0.001 A 
HETATM    8  C   UNL     1      62.710   8.813   2.720  1.00  0.00     0.014 A 
HETATM    9  C   UNL     1      62.032   9.648   1.832  1.00  0.00     0.001 A 
HETATM   10  C   UNL     1      61.624  10.912   2.243  1.00  0.00     0.000 A 
HETATM   11  C   UNL     1      61.886  11.335   3.545  1.00  0.00     0.001 A 
HETATM   12  C   UNL     1      62.575  10.500   4.429  1.00  0.00     0.014 A 
ENDBRANCH   2   7
BRANCH   1  13
HETATM   13  C   UNL     1      62.173   6.702   5.933  1.00  0.00     0.212 C 
HETATM   14  O   UNL     1      61.477   6.711   6.937  1.00  0.00    -0.644 OA
HETATM   15  O   UNL     1      61.745   6.033   4.841  1.00  0.00    -0.644 OA
ENDBRANCH   1  13
TORSDOF 2
ENDMDL
MODEL 4
REMARK VINA RESULT:      -5.5      1.123      1.945
REMARK  2 active torsions:
REMARK  status: ('A' for Active; 'I' for Inactive)
REMARK    1  A    between atoms: C_1  and  C_5 
REMARK    2  A    between atoms: C_2  and  C_7 
ROOT
HETATM    1  C   UNL     1      64.959   7.374   5.871  1.00  0.00     0.077 A 
HETATM    2  C   UNL     1      63.704   7.686   5.372  1.00  0.00     0.103 A 
HETATM    3  O   UNL     1      62.852   6.631   5.573  1.00  0.00    -0.314 OA
HETATM    4  C   UNL     1      64.864   6.035   6.360  1.00  0.00     0.053 A 
HETATM    5  C   UNL     1      63.563   5.634   6.165  1.00  0.00     0.051 A 
HETATM    6  C   UNL     1      62.833   4.385   6.458  1.00  0.00     0.077 C 
ENDROOT
BRANCH   2   7
HETATM    7  C   UNL     1      63.130   8.828   4.659  1.00  0.00    -0.001 A 
HETATM    8  C   UNL     1      63.005  10.074   5.295  1.00  0.00     0.014 A 
HETATM    9  C   UNL     1      62.409  11.158   4.650  1.00  0.00     0.001 A 
HETATM   10  C   UNL     1      61.952  11.021   3.344  1.00  0.00     0.000 A 
HETATM   11  C   UNL     1      62.101   9.803   2.681  1.00  0.00     0.001 A 
HETATM   12  C   UNL     1      62.688   8.717   3.335  1.00  0.00     0.014 A 
ENDBRANCH   2   7
BRANCH   1  13
HETATM   13  C   UNL     1      66.117   8.236   5.886  1.00  0.00     0.212 C 
HETATM   14  O   UNL     1      66.473   8.967   6.797  1.00  0.00    -0.644 OA
HETATM   15  O   UNL     1      66.831   8.216   4.741  1.00  0.00    -0.644 OA
ENDBRANCH   1  13
TORSDOF 2
ENDMDL
MODEL 5
REMARK VINA RESULT:      -5.5      2.249      4.932
REMARK  2 active torsions:
REMARK  status: ('A' for Active; 'I' for Inactive)
REMARK    1  A    between atoms: C_1  and  C_5 
REMARK    2  A    between atoms: C_2  and  C_7 
ROOT
HETATM    1  C   UNL     1      62.189   9.608   2.354  1.00  0.00     0.077 A 
HETATM    2  C   UNL     1      62.753   8.430   2.818  1.00  0.00     0.103 A 
HETATM    3  O   UNL     1      62.850   7.529   1.790  1.00  0.00    -0.314 OA
HETATM    4  C   UNL     1      61.890   9.383   0.975  1.00  0.00     0.053 A 
HETATM    5  C   UNL     1      62.320   8.110   0.680  1.00  0.00     0.051 A 
HETATM    6  C   UNL     1      62.309   7.297  -0.551  1.00  0.00     0.077 C 
ENDROOT
BRANCH   2   7
HETATM    7  C   UNL     1      63.198   7.942   4.124  1.00  0.00    -0.001 A 
HETATM    8  C   UNL     1      64.520   8.151   4.549  1.00  0.00     0.014 A 
HETATM    9  C   UNL     1      64.977   7.643   5.765  1.00  0.00     0.001 A 
HETATM   10  C   UNL     1      64.108   6.940   6.593  1.00  0.00     0.000 A 
HETATM   11  C   UNL     1      62.782   6.754   6.207  1.00  0.00     0.001 A 
HETATM   12  C   UNL     1      62.331   7.255   4.982  1.00  0.00     0.014 A 
ENDBRANCH   2   7
BRANCH   1  13
HETATM   13  C   UNL     1      61.957  10.810   3.119  1.00  0.00     0.212 C 
HETATM   14  O   UNL     1      61.736  10.883   4.318  1.00  0.00    -0.644 OA
HETATM   15  O   UNL     1      61.968  11.941   2.381  1.00  0.00    -0.644 OA
ENDBRANCH   1  13
TORSDOF 2
ENDMDL
MODEL 6
REMARK VINA RESULT:      -5.2      2.154      3.267
REMARK  2 active torsions:
REMARK  status: ('A' for Active; 'I' for Inactive)
REMARK    1  A    between atoms: C_1  and  C_5 
REMARK    2  A    between atoms: C_2  and  C_7 
ROOT
HETATM    1  C   UNL     1      63.452   9.331   4.674  1.00  0.00     0.077 A 
HETATM    2  C   UNL     1      63.030   8.374   3.765  1.00  0.00     0.103 A 
HETATM    3  O   UNL     1      63.930   7.341   3.732  1.00  0.00    -0.314 OA
HETATM    4  C   UNL     1      64.703   8.863   5.183  1.00  0.00     0.053 A 
HETATM    5  C   UNL     1      64.942   7.647   4.588  1.00  0.00     0.051 A 
HETATM    6  C   UNL     1      66.038   6.665   4.693  1.00  0.00     0.077 C 
ENDROOT
BRANCH   2   7
HETATM    7  C   UNL     1      61.907   8.259   2.833  1.00  0.00    -0.001 A 
HETATM    8  C   UNL     1      60.690   7.698   3.253  1.00  0.00     0.014 A 
HETATM    9  C   UNL     1      59.629   7.528   2.363  1.00  0.00     0.001 A 
HETATM   10  C   UNL     1      59.758   7.943   1.042  1.00  0.00     0.000 A 
HETATM   11  C   UNL     1      60.945   8.536   0.615  1.00  0.00     0.001 A 
HETATM   12  C   UNL     1      62.010   8.695   1.507  1.00  0.00     0.014 A 
ENDBRANCH   2   7
BRANCH   1  13
HETATM   13  C   UNL     1      62.760  10.549   5.025  1.00  0.00     0.212 C 
HETATM   14  O   UNL     1      61.953  11.155   4.338  1.00  0.00    -0.644 OA
HETATM   15  O   UNL     1      63.097  11.042   6.236  1.00  0.00    -0.644 OA
ENDBRANCH   1  13
TORSDOF 2
ENDMDL
MODEL 7
REMARK VINA RESULT:      -5.2      3.109      5.958
REMARK  2 active torsions:
REMARK  status: ('A' for Active; 'I' for Inactive)
REMARK    1  A    between atoms: C_1  and  C_5 
REMARK    2  A    between atoms: C_2  and  C_7 
ROOT
HETATM    1  C   UNL     1      64.580   7.277   5.926  1.00  0.00     0.077 A 
HETATM    2  C   UNL     1      65.022   6.207   6.688  1.00  0.00     0.103 A 
HETATM    3  O   UNL     1      64.013   5.289   6.822  1.00  0.00    -0.314 OA
HETATM    4  C   UNL     1      63.211   7.003   5.622  1.00  0.00     0.053 A 
HETATM    5  C   UNL     1      62.919   5.780   6.179  1.00  0.00     0.051 A 
HETATM    6  C   UNL     1      61.702   4.947   6.215  1.00  0.00     0.077 C 
ENDROOT
BRANCH   2   7
HETATM    7  C   UNL     1      66.261   5.886   7.397  1.00  0.00    -0.001 A 
HETATM    8  C   UNL     1      66.519   6.434   8.663  1.00  0.00     0.014 A 
HETATM    9  C   UNL     1      67.720   6.184   9.328  1.00  0.00     0.001 A 
HETATM   10  C   UNL     1      68.674   5.356   8.747  1.00  0.00     0.000 A 
HETATM   11  C   UNL     1      68.422   4.771   7.507  1.00  0.00     0.001 A 
HETATM   12  C   UNL     1      67.222   5.033   6.840  1.00  0.00     0.014 A 
ENDBRANCH   2   7
BRANCH   1  13
HETATM   13  C   UNL     1      65.355   8.428   5.528  1.00  0.00     0.212 C 
HETATM   14  O   UNL     1      66.475   8.422   5.041  1.00  0.00    -0.644 OA
HETATM   15  O   UNL     1      64.746   9.609   5.766  1.00  0.00    -0.644 OA
ENDBRANCH   1  13
TORSDOF 2
ENDMDL
MODEL 8
REMARK VINA RESULT:      -5.1      2.184      2.396
REMARK  2 active torsions:
REMARK  status: ('A' for Active; 'I' for Inactive)
REMARK    1  A    between atoms: C_1  and  C_5 
REMARK    2  A    between atoms: C_2  and  C_7 
ROOT
HETATM    1  C   UNL     1      64.615   6.957   4.734  1.00  0.00     0.077 A 
HETATM    2  C   UNL     1      63.841   7.420   3.681  1.00  0.00     0.103 A 
HETATM    3  O   UNL     1      63.856   6.505   2.661  1.00  0.00    -0.314 OA
HETATM    4  C   UNL     1      65.160   5.710   4.300  1.00  0.00     0.053 A 
HETATM    5  C   UNL     1      64.660   5.476   3.041  1.00  0.00     0.051 A 
HETATM    6  C   UNL     1      64.830   4.377   2.071  1.00  0.00     0.077 C 
ENDROOT
BRANCH   2   7
HETATM    7  C   UNL     1      63.090   8.647   3.414  1.00  0.00    -0.001 A 
HETATM    8  C   UNL     1      62.540   8.881   2.143  1.00  0.00     0.014 A 
HETATM    9  C   UNL     1      61.870  10.070   1.854  1.00  0.00     0.001 A 
HETATM   10  C   UNL     1      61.714  11.036   2.842  1.00  0.00     0.000 A 
HETATM   11  C   UNL     1      62.219  10.807   4.121  1.00  0.00     0.001 A 
HETATM   12  C   UNL     1      62.900   9.619   4.403  1.00  0.00     0.014 A 
ENDBRANCH   2   7
BRANCH   1  13
HETATM   13  C   UNL     1      64.820   7.612   6.004  1.00  0.00     0.212 C 
HETATM   14  O   UNL     1      65.695   8.418   6.279  1.00  0.00    -0.644 OA
HETATM   15  O   UNL     1      63.944   7.239   6.961  1.00  0.00    -0.644 OA
ENDBRANCH   1  13
TORSDOF 2
ENDMDL
MODEL 9
REMARK VINA RESULT:      -5.0      3.317      5.527
REMARK  2 active torsions:
REMARK  status: ('A' for Active; 'I' for Inactive)
REMARK    1  A    between atoms: C_1  and  C_5 
REMARK    2  A    between atoms: C_2  and  C_7 
ROOT
HETATM    1  C   UNL     1      60.485   7.592   0.721  1.00  0.00     0.077 A 
HETATM    2  C   UNL     1      61.547   8.420   1.049  1.00  0.00     0.103 A 
HETATM    3  O   UNL     1      62.568   8.237   0.154  1.00  0.00    -0.314 OA
HETATM    4  C   UNL     1      60.914   6.836  -0.413  1.00  0.00     0.053 A 
HETATM    5  C   UNL     1      62.180   7.273  -0.724  1.00  0.00     0.051 A 
HETATM    6  C   UNL     1      63.149   6.906  -1.774  1.00  0.00     0.077 C 
ENDROOT
BRANCH   2   7
HETATM    7  C   UNL     1      61.823   9.367   2.130  1.00  0.00    -0.001 A 
HETATM    8  C   UNL     1      62.244   8.907   3.388  1.00  0.00     0.014 A 
HETATM    9  C   UNL     1      62.456   9.791   4.447  1.00  0.00     0.001 A 
HETATM   10  C   UNL     1      62.277  11.157   4.256  1.00  0.00     0.000 A 
HETATM   11  C   UNL     1      61.896  11.637   3.004  1.00  0.00     0.001 A 
HETATM   12  C   UNL     1      61.673  10.748   1.950  1.00  0.00     0.014 A 
ENDBRANCH   2   7
BRANCH   1  13
HETATM   13  C   UNL     1      59.212   7.518   1.397  1.00  0.00     0.212 C 
HETATM   14  O   UNL     1      58.147   7.970   1.004  1.00  0.00    -0.644 OA
HETATM   15  O   UNL     1      59.262   6.901   2.597  1.00  0.00    -0.644 OA
ENDBRANCH   1  13
TORSDOF 2
ENDMDL
