MODEL 1
REMARK VINA RESULT:      -5.8      0.000      0.000
REMARK  3 active torsions:
REMARK  status: ('A' for Active; 'I' for Inactive)
REMARK    1  A    between atoms: C_1  and  C_6 
REMARK    2  A    between atoms: C_2  and  C_7 
REMARK    3  A    between atoms: C_7  and  O_8 
ROOT
HETATM    1  C   UNL     1      63.423   9.164   4.623  1.00  0.00     0.094 A 
HETATM    2  C   UNL     1      62.873  10.414   4.882  1.00  0.00     0.002 A 
HETATM    3  O   UNL     1      63.013   8.733   3.388  1.00  0.00    -0.314 OA
HETATM    4  C   UNL     1      62.089  10.741   3.734  1.00  0.00     0.044 A 
HETATM    5  C   UNL     1      62.210   9.691   2.856  1.00  0.00     0.050 A 
HETATM    6  C   UNL     1      61.660   9.419   1.515  1.00  0.00     0.076 C 
ENDROOT
BRANCH   1   7
HETATM    7  C   UNL     1      64.283   8.232   5.355  1.00  0.00    -0.002 A 
HETATM    8  C   UNL     1      63.735   7.117   6.010  1.00  0.00     0.014 A 
HETATM    9  C   UNL     1      64.540   6.253   6.759  1.00  0.00     0.001 A 
HETATM   10  C   UNL     1      65.909   6.486   6.861  1.00  0.00     0.000 A 
HETATM   11  C   UNL     1      66.474   7.572   6.200  1.00  0.00     0.001 A 
HETATM   12  C   UNL     1      65.667   8.434   5.450  1.00  0.00     0.014 A 
ENDBRANCH   1   7
BRANCH   2  13
HETATM   13  C   UNL     1      63.013  11.266   6.093  1.00  0.00     0.205 C 
BRANCH  13  14
HETATM   14  O   UNL     1      64.369  11.578   6.383  1.00  0.00    -0.396 OA
HETATM   15  H   UNL     1      64.774  10.842   6.868  1.00  0.00     0.209 HD
ENDBRANCH  13  14
ENDBRANCH   2  13
TORSDOF 3
ENDMDL
MODEL 2
REMARK VINA RESULT:      -5.6      1.586      4.812
REMARK  3 active torsions:
REMARK  status: ('A' for Active; 'I' for Inactive)
REMARK    1  A    between atoms: C_1  and  C_6 
REMARK    2  A    between atoms: C_2  and  C_7 
REMARK    3  A    between atoms: C_7  and  O_8 
ROOT
HETATM    1  C   UNL     1      62.716   8.115   4.788  1.00  0.00     0.094 A 
HETATM    2  C   UNL     1      63.879   7.690   5.421  1.00  0.00     0.002 A 
HETATM    3  O   UNL     1      61.668   7.323   5.182  1.00  0.00    -0.314 OA
HETATM    4  C   UNL     1      63.498   6.580   6.235  1.00  0.00     0.044 A 
HETATM    5  C   UNL     1      62.147   6.401   6.057  1.00  0.00     0.050 A 
HETATM    6  C   UNL     1      61.168   5.444   6.606  1.00  0.00     0.076 C 
ENDROOT
BRANCH   1   7
HETATM    7  C   UNL     1      62.380   9.156   3.816  1.00  0.00    -0.002 A 
HETATM    8  C   UNL     1      62.299   8.857   2.446  1.00  0.00     0.014 A 
HETATM    9  C   UNL     1      62.035   9.855   1.503  1.00  0.00     0.001 A 
HETATM   10  C   UNL     1      61.842  11.171   1.916  1.00  0.00     0.000 A 
HETATM   11  C   UNL     1      61.895  11.484   3.270  1.00  0.00     0.001 A 
HETATM   12  C   UNL     1      62.158  10.482   4.211  1.00  0.00     0.014 A 
ENDBRANCH   1   7
BRANCH   2  13
HETATM   13  C   UNL     1      65.261   8.223   5.295  1.00  0.00     0.205 C 
BRANCH  13  14
HETATM   14  O   UNL     1      65.455   9.417   6.042  1.00  0.00    -0.396 OA
HETATM   15  H   UNL     1      66.365   9.446   6.374  1.00  0.00     0.209 HD
ENDBRANCH  13  14
ENDBRANCH   2  13
TORSDOF 3
ENDMDL
MODEL 3
REMARK VINA RESULT:      -5.4      1.656      5.097
REMARK  3 active torsions:
REMARK  status: ('A' for Active; 'I' for Inactive)
REMARK    1  A    between atoms: C_1  and  C_6 
REMARK    2  A    between atoms: C_2  and  C_7 
REMARK    3  A    between atoms: C_7  and  O_8 
ROOT
HETATM    1  C   UNL     1      63.618   8.433   4.842  1.00  0.00     0.094 A 
HETATM    2  C   UNL     1      63.288   7.309   5.591  1.00  0.00     0.002 A 
HETATM    3  O   UNL     1      64.927   8.767   5.076  1.00  0.00    -0.314 OA
HETATM    4  C   UNL     1      64.469   6.959   6.313  1.00  0.00     0.044 A 
HETATM    5  C   UNL     1      65.435   7.872   5.963  1.00  0.00     0.050 A 
HETATM    6  C   UNL     1      66.846   8.056   6.349  1.00  0.00     0.076 C 
ENDROOT
BRANCH   1   7
HETATM    7  C   UNL     1      62.905   9.317   3.919  1.00  0.00    -0.002 A 
HETATM    8  C   UNL     1      62.634   8.910   2.603  1.00  0.00     0.014 A 
HETATM    9  C   UNL     1      62.005   9.768   1.696  1.00  0.00     0.001 A 
HETATM   10  C   UNL     1      61.629  11.049   2.094  1.00  0.00     0.000 A 
HETATM   11  C   UNL     1      61.868  11.463   3.400  1.00  0.00     0.001 A 
HETATM   12  C   UNL     1      62.497  10.602   4.305  1.00  0.00     0.014 A 
ENDBRANCH   1   7
BRANCH   2  13
HETATM   13  C   UNL     1      61.986   6.596   5.683  1.00  0.00     0.205 C 
BRANCH  13  14
HETATM   14  O   UNL     1      61.432   6.642   6.991  1.00  0.00    -0.396 OA
HETATM   15  H   UNL     1      60.768   7.347   7.036  1.00  0.00     0.209 HD
ENDBRANCH  13  14
ENDBRANCH   2  13
TORSDOF 3
ENDMDL
MODEL 4
REMARK VINA RESULT:      -5.1      5.261      8.469
REMARK  3 active torsions:
REMARK  status: ('A' for Active; 'I' for Inactive)
REMARK    1  A    between atoms: C_1  and  C_6 
REMARK    2  A    between atoms: C_2  and  C_7 
REMARK    3  A    between atoms: C_7  and  O_8 
ROOT
HETATM    1  C   UNL     1      68.389   4.439   8.545  1.00  0.00     0.094 A 
HETATM    2  C   UNL     1      69.676   4.330   9.061  1.00  0.00     0.002 A 
HETATM    3  O   UNL     1      67.618   3.413   9.027  1.00  0.00    -0.314 OA
HETATM    4  C   UNL     1      69.666   3.169   9.893  1.00  0.00     0.044 A 
HETATM    5  C   UNL     1      68.394   2.652   9.841  1.00  0.00     0.050 A 
HETATM    6  C   UNL     1      67.745   1.485  10.468  1.00  0.00     0.076 C 
ENDROOT
BRANCH   1   7
HETATM    7  C   UNL     1      67.710   5.349   7.622  1.00  0.00    -0.002 A 
HETATM    8  C   UNL     1      67.686   5.083   6.244  1.00  0.00     0.014 A 
HETATM    9  C   UNL     1      67.091   5.975   5.346  1.00  0.00     0.001 A 
HETATM   10  C   UNL     1      66.503   7.148   5.815  1.00  0.00     0.000 A 
HETATM   11  C   UNL     1      66.497   7.418   7.179  1.00  0.00     0.001 A 
HETATM   12  C   UNL     1      67.092   6.523   8.074  1.00  0.00     0.014 A 
ENDBRANCH   1   7
BRANCH   2  13
HETATM   13  C   UNL     1      70.861   5.193   8.811  1.00  0.00     0.205 C 
BRANCH  13  14
HETATM   14  O   UNL     1      72.031   4.710   9.457  1.00  0.00    -0.396 OA
HETATM   15  H   UNL     1      71.823   3.891   9.933  1.00  0.00     0.209 HD
ENDBRANCH  13  14
ENDBRANCH   2  13
TORSDOF 3
ENDMDL
MODEL 5
REMARK VINA RESULT:      -5.0      3.352      4.988
REMARK  3 active torsions:
REMARK  status: ('A' for Active; 'I' for Inactive)
REMARK    1  A    between atoms: C_1  and  C_6 
REMARK    2  A    between atoms: C_2  and  C_7 
REMARK    3  A    between atoms: C_7  and  O_8 
ROOT
HETATM    1  C   UNL     1      66.573   6.416   6.361  1.00  0.00     0.094 A 
HETATM    2  C   UNL     1      66.692   7.386   5.372  1.00  0.00     0.002 A 
HETATM    3  O   UNL     1      65.261   6.316   6.745  1.00  0.00    -0.314 OA
HETATM    4  C   UNL     1      65.373   7.892   5.161  1.00  0.00     0.044 A 
HETATM    5  C   UNL     1      64.542   7.207   6.015  1.00  0.00     0.050 A 
HETATM    6  C   UNL     1      63.092   7.256   6.278  1.00  0.00     0.076 C 
ENDROOT
BRANCH   1   7
HETATM    7  C   UNL     1      67.500   5.535   7.073  1.00  0.00    -0.002 A 
HETATM    8  C   UNL     1      68.028   5.909   8.320  1.00  0.00     0.014 A 
HETATM    9  C   UNL     1      68.958   5.102   8.981  1.00  0.00     0.001 A 
HETATM   10  C   UNL     1      69.373   3.902   8.409  1.00  0.00     0.000 A 
HETATM   11  C   UNL     1      68.846   3.504   7.185  1.00  0.00     0.001 A 
HETATM   12  C   UNL     1      67.914   4.312   6.526  1.00  0.00     0.014 A 
ENDBRANCH   1   7
BRANCH   2  13
HETATM   13  C   UNL     1      67.913   7.860   4.668  1.00  0.00     0.205 C 
BRANCH  13  14
HETATM   14  O   UNL     1      68.957   8.211   5.566  1.00  0.00    -0.396 OA
HETATM   15  H   UNL     1      69.752   8.443   5.063  1.00  0.00     0.209 HD
ENDBRANCH  13  14
ENDBRANCH   2  13
TORSDOF 3
ENDMDL
MODEL 6
REMARK VINA RESULT:      -4.8      4.222      5.900
REMARK  3 active torsions:
REMARK  status: ('A' for Active; 'I' for Inactive)
REMARK    1  A    between atoms: C_1  and  C_6 
REMARK    2  A    between atoms: C_2  and  C_7 
REMARK    3  A    between atoms: C_7  and  O_8 
ROOT
HETATM    1  C   UNL     1      67.589   5.384   6.370  1.00  0.00     0.094 A 
HETATM    2  C   UNL     1      67.027   6.625   6.093  1.00  0.00     0.002 A 
HETATM    3  O   UNL     1      67.641   4.642   5.218  1.00  0.00    -0.314 OA
HETATM    4  C   UNL     1      66.726   6.616   4.698  1.00  0.00     0.044 A 
HETATM    5  C   UNL     1      67.121   5.392   4.213  1.00  0.00     0.050 A 
HETATM    6  C   UNL     1      67.087   4.770   2.876  1.00  0.00     0.076 C 
ENDROOT
BRANCH   1   7
HETATM    7  C   UNL     1      68.090   4.710   7.569  1.00  0.00    -0.002 A 
HETATM    8  C   UNL     1      69.241   5.179   8.223  1.00  0.00     0.014 A 
HETATM    9  C   UNL     1      69.763   4.510   9.335  1.00  0.00     0.001 A 
HETATM   10  C   UNL     1      69.137   3.362   9.815  1.00  0.00     0.000 A 
HETATM   11  C   UNL     1      67.983   2.895   9.195  1.00  0.00     0.001 A 
HETATM   12  C   UNL     1      67.463   3.568   8.083  1.00  0.00     0.014 A 
ENDBRANCH   1   7
BRANCH   2  13
HETATM   13  C   UNL     1      66.747   7.753   7.022  1.00  0.00     0.205 C 
BRANCH  13  14
HETATM   14  O   UNL     1      66.100   8.841   6.375  1.00  0.00    -0.396 OA
HETATM   15  H   UNL     1      66.516   9.673   6.649  1.00  0.00     0.209 HD
ENDBRANCH  13  14
ENDBRANCH   2  13
TORSDOF 3
ENDMDL
MODEL 7
REMARK VINA RESULT:      -4.8      2.830      4.875
REMARK  3 active torsions:
REMARK  status: ('A' for Active; 'I' for Inactive)
REMARK    1  A    between atoms: C_1  and  C_6 
REMARK    2  A    between atoms: C_2  and  C_7 
REMARK    3  A    between atoms: C_7  and  O_8 
ROOT
HETATM    1  C   UNL     1      61.810   8.466   1.778  1.00  0.00     0.094 A 
HETATM    2  C   UNL     1      60.630   7.846   1.383  1.00  0.00     0.002 A 
HETATM    3  O   UNL     1      62.768   8.276   0.816  1.00  0.00    -0.314 OA
HETATM    4  C   UNL     1      60.906   7.251   0.115  1.00  0.00     0.044 A 
HETATM    5  C   UNL     1      62.214   7.544  -0.186  1.00  0.00     0.050 A 
HETATM    6  C   UNL     1      63.089   7.229  -1.331  1.00  0.00     0.076 C 
ENDROOT
BRANCH   1   7
HETATM    7  C   UNL     1      62.249   9.221   2.953  1.00  0.00    -0.002 A 
HETATM    8  C   UNL     1      63.089   8.629   3.910  1.00  0.00     0.014 A 
HETATM    9  C   UNL     1      63.467   9.321   5.065  1.00  0.00     0.001 A 
HETATM   10  C   UNL     1      63.015  10.621   5.279  1.00  0.00     0.000 A 
HETATM   11  C   UNL     1      62.200  11.232   4.332  1.00  0.00     0.001 A 
HETATM   12  C   UNL     1      61.825  10.538   3.177  1.00  0.00     0.014 A 
ENDBRANCH   1   7
BRANCH   2  13
HETATM   13  C   UNL     1      59.331   7.762   2.103  1.00  0.00     0.205 C 
BRANCH  13  14
HETATM   14  O   UNL     1      58.241   8.216   1.311  1.00  0.00    -0.396 OA
HETATM   15  H   UNL     1      57.407   7.945   1.724  1.00  0.00     0.209 HD
ENDBRANCH  13  14
ENDBRANCH   2  13
TORSDOF 3
ENDMDL
MODEL 8
REMARK VINA RESULT:      -4.7      2.858      5.159
REMARK  3 active torsions:
REMARK  status: ('A' for Active; 'I' for Inactive)
REMARK    1  A    between atoms: C_1  and  C_6 
REMARK    2  A    between atoms: C_2  and  C_7 
REMARK    3  A    between atoms: C_7  and  O_8 
ROOT
HETATM    1  C   UNL     1      61.091   7.421   4.210  1.00  0.00     0.094 A 
HETATM    2  C   UNL     1      61.632   6.788   5.323  1.00  0.00     0.002 A 
HETATM    3  O   UNL     1      59.969   6.747   3.804  1.00  0.00    -0.314 OA
HETATM    4  C   UNL     1      60.782   5.672   5.590  1.00  0.00     0.044 A 
HETATM    5  C   UNL     1      59.787   5.694   4.642  1.00  0.00     0.050 A 
HETATM    6  C   UNL     1      58.619   4.834   4.374  1.00  0.00     0.076 C 
ENDROOT
BRANCH   1   7
HETATM    7  C   UNL     1      61.452   8.581   3.393  1.00  0.00    -0.002 A 
HETATM    8  C   UNL     1      61.641   9.841   3.985  1.00  0.00     0.014 A 
HETATM    9  C   UNL     1      61.929  10.967   3.207  1.00  0.00     0.001 A 
HETATM   10  C   UNL     1      62.039  10.851   1.824  1.00  0.00     0.000 A 
HETATM   11  C   UNL     1      61.877   9.607   1.222  1.00  0.00     0.001 A 
HETATM   12  C   UNL     1      61.591   8.482   2.002  1.00  0.00     0.014 A 
ENDBRANCH   1   7
BRANCH   2  13
HETATM   13  C   UNL     1      62.853   7.137   6.098  1.00  0.00     0.205 C 
BRANCH  13  14
HETATM   14  O   UNL     1      62.571   7.989   7.200  1.00  0.00    -0.396 OA
HETATM   15  H   UNL     1      62.484   7.457   8.006  1.00  0.00     0.209 HD
ENDBRANCH  13  14
ENDBRANCH   2  13
TORSDOF 3
ENDMDL
MODEL 9
REMARK VINA RESULT:      -4.5      6.244      9.172
REMARK  3 active torsions:
REMARK  status: ('A' for Active; 'I' for Inactive)
REMARK    1  A    between atoms: C_1  and  C_6 
REMARK    2  A    between atoms: C_2  and  C_7 
REMARK    3  A    between atoms: C_7  and  O_8 
ROOT
HETATM    1  C   UNL     1      68.355   2.673   8.156  1.00  0.00     0.094 A 
HETATM    2  C   UNL     1      68.692   1.639   9.023  1.00  0.00     0.002 A 
HETATM    3  O   UNL     1      68.697   2.322   6.876  1.00  0.00    -0.314 OA
HETATM    4  C   UNL     1      69.270   0.619   8.208  1.00  0.00     0.044 A 
HETATM    5  C   UNL     1      69.246   1.080   6.914  1.00  0.00     0.050 A 
HETATM    6  C   UNL     1      69.684   0.514   5.625  1.00  0.00     0.076 C 
ENDROOT
BRANCH   1   7
HETATM    7  C   UNL     1      67.767   4.005   8.302  1.00  0.00    -0.002 A 
HETATM    8  C   UNL     1      68.397   4.982   9.090  1.00  0.00     0.014 A 
HETATM    9  C   UNL     1      67.815   6.239   9.283  1.00  0.00     0.001 A 
HETATM   10  C   UNL     1      66.595   6.543   8.685  1.00  0.00     0.000 A 
HETATM   11  C   UNL     1      65.967   5.596   7.881  1.00  0.00     0.001 A 
HETATM   12  C   UNL     1      66.552   4.340   7.689  1.00  0.00     0.014 A 
ENDBRANCH   1   7
BRANCH   2  13
HETATM   13  C   UNL     1      68.534   1.568  10.500  1.00  0.00     0.205 C 
BRANCH  13  14
HETATM   14  O   UNL     1      69.671   2.066  11.193  1.00  0.00    -0.396 OA
HETATM   15  H   UNL     1      70.380   2.253  10.558  1.00  0.00     0.209 HD
ENDBRANCH  13  14
ENDBRANCH   2  13
TORSDOF 3
ENDMDL
