MODEL 1
REMARK VINA RESULT:      -6.0      0.000      0.000
REMARK  4 active torsions:
REMARK  status: ('A' for Active; 'I' for Inactive)
REMARK    1  A    between atoms: C_1  and  O_2 
REMARK    2  A    between atoms: O_2  and  C_4 
REMARK    3  A    between atoms: C_3  and  C_5 
REMARK    4  A    between atoms: C_5  and  O_6 
ROOT
HETATM    1  C   UNL     1      63.416   9.010   4.875  1.00  0.00     0.084 C 
HETATM    2  C   UNL     1      62.908  10.316   4.932  1.00  0.00    -0.001 C 
HETATM    3  C   UNL     1      63.289   8.271   3.683  1.00  0.00     0.038 C 
HETATM    4  C   UNL     1      62.150  10.792   3.848  1.00  0.00     0.012 C 
HETATM    5  C   UNL     1      61.931  10.000   2.720  1.00  0.00     0.001 C 
HETATM    6  C   UNL     1      62.520   8.749   2.628  1.00  0.00     0.003 C 
ENDROOT
BRANCH   1   7
HETATM    7  O   UNL     1      64.039   8.472   5.991  1.00  0.00    -0.310 OA
BRANCH   7   8
HETATM    8  C   UNL     1      65.169   7.704   5.770  1.00  0.00     0.076 A 
HETATM    9  C   UNL     1      65.138   6.368   6.174  1.00  0.00     0.037 A 
HETATM   10  C   UNL     1      66.300   5.595   6.105  1.00  0.00     0.003 A 
HETATM   11  C   UNL     1      67.489   6.153   5.630  1.00  0.00     0.000 A 
HETATM   12  C   UNL     1      67.505   7.467   5.167  1.00  0.00     0.003 A 
HETATM   13  C   UNL     1      66.338   8.230   5.200  1.00  0.00     0.037 A 
ENDBRANCH   7   8
ENDBRANCH   1   7
BRANCH   2  14
HETATM   14  C   UNL     1      63.119  11.235   6.109  1.00  0.00     0.205 C 
BRANCH  14  15
HETATM   15  O   UNL     1      64.512  11.353   6.393  1.00  0.00    -0.396 OA
HETATM   16  H   UNL     1      65.021  11.205   5.581  1.00  0.00     0.209 HD
ENDBRANCH  14  15
ENDBRANCH   2  14
TORSDOF 4
ENDMDL
MODEL 2
REMARK VINA RESULT:      -5.5      1.644      2.471
REMARK  4 active torsions:
REMARK  status: ('A' for Active; 'I' for Inactive)
REMARK    1  A    between atoms: C_1  and  O_2 
REMARK    2  A    between atoms: O_2  and  C_4 
REMARK    3  A    between atoms: C_3  and  C_5 
REMARK    4  A    between atoms: C_5  and  O_6 
ROOT
HETATM    1  C   UNL     1      63.167   9.243   4.729  1.00  0.00     0.084 C 
HETATM    2  C   UNL     1      62.767  10.577   4.904  1.00  0.00    -0.001 C 
HETATM    3  C   UNL     1      63.011   8.635   3.468  1.00  0.00     0.038 C 
HETATM    4  C   UNL     1      62.081  11.217   3.856  1.00  0.00     0.012 C 
HETATM    5  C   UNL     1      61.828  10.557   2.653  1.00  0.00     0.001 C 
HETATM    6  C   UNL     1      62.313   9.275   2.451  1.00  0.00     0.003 C 
ENDROOT
BRANCH   1   7
HETATM    7  O   UNL     1      63.713   8.551   5.799  1.00  0.00    -0.310 OA
BRANCH   7   8
HETATM    8  C   UNL     1      63.376   7.214   5.919  1.00  0.00     0.076 A 
HETATM    9  C   UNL     1      62.045   6.901   6.197  1.00  0.00     0.037 A 
HETATM   10  C   UNL     1      61.686   5.577   6.470  1.00  0.00     0.003 A 
HETATM   11  C   UNL     1      62.654   4.571   6.462  1.00  0.00     0.000 A 
HETATM   12  C   UNL     1      63.971   4.872   6.123  1.00  0.00     0.003 A 
HETATM   13  C   UNL     1      64.324   6.186   5.814  1.00  0.00     0.037 A 
ENDBRANCH   7   8
ENDBRANCH   1   7
BRANCH   2  14
HETATM   14  C   UNL     1      63.022  11.358   6.168  1.00  0.00     0.205 C 
BRANCH  14  15
HETATM   15  O   UNL     1      64.425  11.438   6.418  1.00  0.00    -0.396 OA
HETATM   16  H   UNL     1      64.634  10.968   7.240  1.00  0.00     0.209 HD
ENDBRANCH  14  15
ENDBRANCH   2  14
TORSDOF 4
ENDMDL
MODEL 3
REMARK VINA RESULT:      -5.4      1.434      1.626
REMARK  4 active torsions:
REMARK  status: ('A' for Active; 'I' for Inactive)
REMARK    1  A    between atoms: C_1  and  O_2 
REMARK    2  A    between atoms: O_2  and  C_4 
REMARK    3  A    between atoms: C_3  and  C_5 
REMARK    4  A    between atoms: C_5  and  O_6 
ROOT
HETATM    1  C   UNL     1      62.510   8.689   3.914  1.00  0.00     0.084 C 
HETATM    2  C   UNL     1      62.312  10.062   3.702  1.00  0.00    -0.001 C 
HETATM    3  C   UNL     1      62.568   7.821   2.807  1.00  0.00     0.038 C 
HETATM    4  C   UNL     1      62.023  10.507   2.399  1.00  0.00     0.012 C 
HETATM    5  C   UNL     1      61.965   9.613   1.330  1.00  0.00     0.001 C 
HETATM    6  C   UNL     1      62.261   8.274   1.529  1.00  0.00     0.003 C 
ENDROOT
BRANCH   1   7
HETATM    7  O   UNL     1      62.651   8.214   5.209  1.00  0.00    -0.310 OA
BRANCH   7   8
HETATM    8  C   UNL     1      63.908   7.772   5.582  1.00  0.00     0.076 A 
HETATM    9  C   UNL     1      63.984   6.697   6.469  1.00  0.00     0.037 A 
HETATM   10  C   UNL     1      65.224   6.310   6.986  1.00  0.00     0.003 A 
HETATM   11  C   UNL     1      66.384   6.993   6.615  1.00  0.00     0.000 A 
HETATM   12  C   UNL     1      66.317   8.025   5.682  1.00  0.00     0.003 A 
HETATM   13  C   UNL     1      65.086   8.389   5.137  1.00  0.00     0.037 A 
ENDBRANCH   7   8
ENDBRANCH   1   7
BRANCH   2  14
HETATM   14  C   UNL     1      62.377  11.088   4.805  1.00  0.00     0.205 C 
BRANCH  14  15
HETATM   15  O   UNL     1      62.021  12.373   4.298  1.00  0.00    -0.396 OA
HETATM   16  H   UNL     1      61.061  12.419   4.176  1.00  0.00     0.209 HD
ENDBRANCH  14  15
ENDBRANCH   2  14
TORSDOF 4
ENDMDL
MODEL 4
REMARK VINA RESULT:      -5.3      1.631      5.259
REMARK  4 active torsions:
REMARK  status: ('A' for Active; 'I' for Inactive)
REMARK    1  A    between atoms: C_1  and  O_2 
REMARK    2  A    between atoms: O_2  and  C_4 
REMARK    3  A    between atoms: C_3  and  C_5 
REMARK    4  A    between atoms: C_5  and  O_6 
ROOT
HETATM    1  C   UNL     1      65.938   7.631   6.190  1.00  0.00     0.084 C 
HETATM    2  C   UNL     1      67.119   7.175   5.584  1.00  0.00    -0.001 C 
HETATM    3  C   UNL     1      65.275   6.805   7.118  1.00  0.00     0.038 C 
HETATM    4  C   UNL     1      67.520   5.845   5.807  1.00  0.00     0.012 C 
HETATM    5  C   UNL     1      66.782   5.001   6.638  1.00  0.00     0.001 C 
HETATM    6  C   UNL     1      65.673   5.488   7.311  1.00  0.00     0.003 C 
ENDROOT
BRANCH   1   7
HETATM    7  O   UNL     1      65.450   8.887   5.867  1.00  0.00    -0.310 OA
BRANCH   7   8
HETATM    8  C   UNL     1      64.312   8.935   5.079  1.00  0.00     0.076 A 
HETATM    9  C   UNL     1      64.160   7.957   4.095  1.00  0.00     0.037 A 
HETATM   10  C   UNL     1      63.104   8.049   3.183  1.00  0.00     0.003 A 
HETATM   11  C   UNL     1      62.202   9.113   3.257  1.00  0.00     0.000 A 
HETATM   12  C   UNL     1      62.317  10.055   4.278  1.00  0.00     0.003 A 
HETATM   13  C   UNL     1      63.347   9.944   5.211  1.00  0.00     0.037 A 
ENDBRANCH   7   8
ENDBRANCH   1   7
BRANCH   2  14
HETATM   14  C   UNL     1      67.976   8.035   4.690  1.00  0.00     0.205 C 
BRANCH  14  15
HETATM   15  O   UNL     1      69.259   8.229   5.283  1.00  0.00    -0.396 OA
HETATM   16  H   UNL     1      69.931   8.291   4.587  1.00  0.00     0.209 HD
ENDBRANCH  14  15
ENDBRANCH   2  14
TORSDOF 4
ENDMDL
MODEL 5
REMARK VINA RESULT:      -5.2      1.520      5.335
REMARK  4 active torsions:
REMARK  status: ('A' for Active; 'I' for Inactive)
REMARK    1  A    between atoms: C_1  and  O_2 
REMARK    2  A    between atoms: O_2  and  C_4 
REMARK    3  A    between atoms: C_3  and  C_5 
REMARK    4  A    between atoms: C_5  and  O_6 
ROOT
HETATM    1  C   UNL     1      63.717   8.017   5.507  1.00  0.00     0.084 C 
HETATM    2  C   UNL     1      63.627   6.680   5.924  1.00  0.00    -0.001 C 
HETATM    3  C   UNL     1      64.985   8.592   5.299  1.00  0.00     0.038 C 
HETATM    4  C   UNL     1      64.810   6.002   6.270  1.00  0.00     0.012 C 
HETATM    5  C   UNL     1      66.053   6.628   6.172  1.00  0.00     0.001 C 
HETATM    6  C   UNL     1      66.143   7.915   5.664  1.00  0.00     0.003 C 
ENDROOT
BRANCH   1   7
HETATM    7  O   UNL     1      62.555   8.745   5.302  1.00  0.00    -0.310 OA
BRANCH   7   8
HETATM    8  C   UNL     1      62.413   9.368   4.074  1.00  0.00     0.076 A 
HETATM    9  C   UNL     1      62.140  10.737   4.067  1.00  0.00     0.037 A 
HETATM   10  C   UNL     1      61.845  11.379   2.860  1.00  0.00     0.003 A 
HETATM   11  C   UNL     1      61.826  10.656   1.666  1.00  0.00     0.000 A 
HETATM   12  C   UNL     1      62.160   9.303   1.664  1.00  0.00     0.003 A 
HETATM   13  C   UNL     1      62.491   8.669   2.862  1.00  0.00     0.037 A 
ENDBRANCH   7   8
ENDBRANCH   1   7
BRANCH   2  14
HETATM   14  C   UNL     1      62.322   5.934   6.036  1.00  0.00     0.205 C 
BRANCH  14  15
HETATM   15  O   UNL     1      61.455   6.602   6.952  1.00  0.00    -0.396 OA
HETATM   16  H   UNL     1      60.535   6.372   6.754  1.00  0.00     0.209 HD
ENDBRANCH  14  15
ENDBRANCH   2  14
TORSDOF 4
ENDMDL
MODEL 6
REMARK VINA RESULT:      -4.9     16.814     19.238
REMARK  4 active torsions:
REMARK  status: ('A' for Active; 'I' for Inactive)
REMARK    1  A    between atoms: C_1  and  O_2 
REMARK    2  A    between atoms: O_2  and  C_4 
REMARK    3  A    between atoms: C_3  and  C_5 
REMARK    4  A    between atoms: C_5  and  O_6 
ROOT
HETATM    1  C   UNL     1      76.371   0.219  17.746  1.00  0.00     0.084 C 
HETATM    2  C   UNL     1      75.822  -0.998  18.179  1.00  0.00    -0.001 C 
HETATM    3  C   UNL     1      77.077   0.264  16.529  1.00  0.00     0.038 C 
HETATM    4  C   UNL     1      76.126  -2.167  17.459  1.00  0.00     0.012 C 
HETATM    5  C   UNL     1      76.929  -2.122  16.319  1.00  0.00     0.001 C 
HETATM    6  C   UNL     1      77.385  -0.903  15.840  1.00  0.00     0.003 C 
ENDROOT
BRANCH   1   7
HETATM    7  O   UNL     1      76.204   1.355  18.523  1.00  0.00    -0.310 OA
BRANCH   7   8
HETATM    8  C   UNL     1      76.008   2.550  17.853  1.00  0.00     0.076 A 
HETATM    9  C   UNL     1      76.973   3.547  18.004  1.00  0.00     0.037 A 
HETATM   10  C   UNL     1      76.747   4.818  17.466  1.00  0.00     0.003 A 
HETATM   11  C   UNL     1      75.563   5.090  16.778  1.00  0.00     0.000 A 
HETATM   12  C   UNL     1      74.627   4.078  16.573  1.00  0.00     0.003 A 
HETATM   13  C   UNL     1      74.867   2.800  17.077  1.00  0.00     0.037 A 
ENDBRANCH   7   8
ENDBRANCH   1   7
BRANCH   2  14
HETATM   14  C   UNL     1      74.932  -1.120  19.390  1.00  0.00     0.205 C 
BRANCH  14  15
HETATM   15  O   UNL     1      74.010  -0.032  19.430  1.00  0.00    -0.396 OA
HETATM   16  H   UNL     1      73.175  -0.329  19.824  1.00  0.00     0.209 HD
ENDBRANCH  14  15
ENDBRANCH   2  14
TORSDOF 4
ENDMDL
MODEL 7
REMARK VINA RESULT:      -4.8      3.563      5.478
REMARK  4 active torsions:
REMARK  status: ('A' for Active; 'I' for Inactive)
REMARK    1  A    between atoms: C_1  and  O_2 
REMARK    2  A    between atoms: O_2  and  C_4 
REMARK    3  A    between atoms: C_3  and  C_5 
REMARK    4  A    between atoms: C_5  and  O_6 
ROOT
HETATM    1  C   UNL     1      66.722   5.052   6.148  1.00  0.00     0.084 C 
HETATM    2  C   UNL     1      66.370   6.317   5.652  1.00  0.00    -0.001 C 
HETATM    3  C   UNL     1      67.253   4.088   5.269  1.00  0.00     0.038 C 
HETATM    4  C   UNL     1      66.413   6.530   4.262  1.00  0.00     0.012 C 
HETATM    5  C   UNL     1      66.828   5.522   3.392  1.00  0.00     0.001 C 
HETATM    6  C   UNL     1      67.270   4.309   3.897  1.00  0.00     0.003 C 
ENDROOT
BRANCH   1   7
HETATM    7  O   UNL     1      66.547   4.778   7.496  1.00  0.00    -0.310 OA
BRANCH   7   8
HETATM    8  C   UNL     1      67.687   4.530   8.239  1.00  0.00     0.076 A 
HETATM    9  C   UNL     1      68.717   5.470   8.184  1.00  0.00     0.037 A 
HETATM   10  C   UNL     1      69.942   5.195   8.800  1.00  0.00     0.003 A 
HETATM   11  C   UNL     1      70.135   3.986   9.471  1.00  0.00     0.000 A 
HETATM   12  C   UNL     1      69.087   3.074   9.580  1.00  0.00     0.003 A 
HETATM   13  C   UNL     1      67.853   3.363   8.999  1.00  0.00     0.037 A 
ENDBRANCH   7   8
ENDBRANCH   1   7
BRANCH   2  14
HETATM   14  C   UNL     1      65.930   7.458   6.533  1.00  0.00     0.205 C 
BRANCH  14  15
HETATM   15  O   UNL     1      64.801   7.065   7.313  1.00  0.00    -0.396 OA
HETATM   16  H   UNL     1      64.775   6.099   7.380  1.00  0.00     0.209 HD
ENDBRANCH  14  15
ENDBRANCH   2  14
TORSDOF 4
ENDMDL
MODEL 8
REMARK VINA RESULT:      -4.7      3.166      5.571
REMARK  4 active torsions:
REMARK  status: ('A' for Active; 'I' for Inactive)
REMARK    1  A    between atoms: C_1  and  O_2 
REMARK    2  A    between atoms: O_2  and  C_4 
REMARK    3  A    between atoms: C_3  and  C_5 
REMARK    4  A    between atoms: C_5  and  O_6 
ROOT
HETATM    1  C   UNL     1      61.520   8.825   2.937  1.00  0.00     0.084 C 
HETATM    2  C   UNL     1      62.095   9.934   3.575  1.00  0.00    -0.001 C 
HETATM    3  C   UNL     1      61.695   7.542   3.490  1.00  0.00     0.038 C 
HETATM    4  C   UNL     1      62.958   9.711   4.664  1.00  0.00     0.012 C 
HETATM    5  C   UNL     1      63.216   8.421   5.126  1.00  0.00     0.001 C 
HETATM    6  C   UNL     1      62.566   7.337   4.554  1.00  0.00     0.003 C 
ENDROOT
BRANCH   1   7
HETATM    7  O   UNL     1      60.786   9.013   1.776  1.00  0.00    -0.310 OA
BRANCH   7   8
HETATM    8  C   UNL     1      61.129   8.235   0.684  1.00  0.00     0.076 A 
HETATM    9  C   UNL     1      60.143   7.413   0.135  1.00  0.00     0.037 A 
HETATM   10  C   UNL     1      60.479   6.504  -0.873  1.00  0.00     0.003 A 
HETATM   11  C   UNL     1      61.795   6.419  -1.332  1.00  0.00     0.000 A 
HETATM   12  C   UNL     1      62.767   7.282  -0.829  1.00  0.00     0.003 A 
HETATM   13  C   UNL     1      62.425   8.215   0.150  1.00  0.00     0.037 A 
ENDBRANCH   7   8
ENDBRANCH   1   7
BRANCH   2  14
HETATM   14  C   UNL     1      61.849  11.357   3.143  1.00  0.00     0.205 C 
BRANCH  14  15
HETATM   15  O   UNL     1      62.215  11.522   1.774  1.00  0.00    -0.396 OA
HETATM   16  H   UNL     1      61.525  11.147   1.207  1.00  0.00     0.209 HD
ENDBRANCH  14  15
ENDBRANCH   2  14
TORSDOF 4
ENDMDL
MODEL 9
REMARK VINA RESULT:      -4.7      2.678      5.706
REMARK  4 active torsions:
REMARK  status: ('A' for Active; 'I' for Inactive)
REMARK    1  A    between atoms: C_1  and  O_2 
REMARK    2  A    between atoms: O_2  and  C_4 
REMARK    3  A    between atoms: C_3  and  C_5 
REMARK    4  A    between atoms: C_5  and  O_6 
ROOT
HETATM    1  C   UNL     1      62.229   9.044   3.329  1.00  0.00     0.084 C 
HETATM    2  C   UNL     1      62.766   9.020   4.625  1.00  0.00    -0.001 C 
HETATM    3  C   UNL     1      61.918  10.281   2.732  1.00  0.00     0.038 C 
HETATM    4  C   UNL     1      62.834  10.225   5.347  1.00  0.00     0.012 C 
HETATM    5  C   UNL     1      62.409  11.428   4.783  1.00  0.00     0.001 C 
HETATM    6  C   UNL     1      61.973  11.460   3.467  1.00  0.00     0.003 C 
ENDROOT
BRANCH   1   7
HETATM    7  O   UNL     1      62.019   7.849   2.658  1.00  0.00    -0.310 OA
BRANCH   7   8
HETATM    8  C   UNL     1      60.718   7.560   2.283  1.00  0.00     0.076 A 
HETATM    9  C   UNL     1      60.433   7.495   0.918  1.00  0.00     0.037 A 
HETATM   10  C   UNL     1      59.109   7.352   0.492  1.00  0.00     0.003 A 
HETATM   11  C   UNL     1      58.075   7.270   1.426  1.00  0.00     0.000 A 
HETATM   12  C   UNL     1      58.365   7.272   2.789  1.00  0.00     0.003 A 
HETATM   13  C   UNL     1      59.688   7.377   3.217  1.00  0.00     0.037 A 
ENDBRANCH   7   8
ENDBRANCH   1   7
BRANCH   2  14
HETATM   14  C   UNL     1      63.262   7.762   5.292  1.00  0.00     0.205 C 
BRANCH  14  15
HETATM   15  O   UNL     1      63.013   7.824   6.696  1.00  0.00    -0.396 OA
HETATM   16  H   UNL     1      62.625   8.684   6.919  1.00  0.00     0.209 HD
ENDBRANCH  14  15
ENDBRANCH   2  14
TORSDOF 4
ENDMDL
