MODEL 1
REMARK VINA RESULT:      -5.2      0.000      0.000
REMARK  3 active torsions:
REMARK  status: ('A' for Active; 'I' for Inactive)
REMARK    1  A    between atoms: C_1  and  N_2 
REMARK    2  A    between atoms: C_6  and  C_11 
REMARK    3  A    between atoms: N_8  and  C_11 
ROOT
HETATM    1  C   UNL     1      64.141   8.607   5.022  1.00  0.00     0.103 A 
HETATM    2  N   UNL     1      63.758   9.733   5.661  1.00  0.00    -0.352 N 
ATOM      3  HN  UNL     1      64.178  10.001   6.551  1.00  0.00     0.166 HD
HETATM    4  C   UNL     1      63.564   8.239   3.805  1.00  0.00     0.057 A 
HETATM    5  C   UNL     1      62.592   9.048   3.202  1.00  0.00    -0.028 A 
HETATM    6  C   UNL     1      62.800  10.494   5.084  1.00  0.00     0.090 A 
HETATM    7  C   UNL     1      62.196  10.199   3.875  1.00  0.00     0.026 A 
ENDROOT
BRANCH   1   8
HETATM    8  N   UNL     1      65.205   7.865   5.511  1.00  0.00    -0.367 N 
HETATM    9  C   UNL     1      64.943   6.934   6.602  1.00  0.00     0.124 C 
HETATM   10  C   UNL     1      66.208   6.888   7.465  1.00  0.00     0.020 C 
HETATM   11  C   UNL     1      67.455   6.559   6.639  1.00  0.00     0.003 C 
HETATM   12  C   UNL     1      67.572   7.445   5.395  1.00  0.00     0.020 C 
HETATM   13  C   UNL     1      66.267   7.458   4.597  1.00  0.00     0.124 C 
ENDBRANCH   1   8
BRANCH   5  14
HETATM   14  C   UNL     1      62.033   8.686   1.849  1.00  0.00     0.270 C 
BRANCH  14  15
HETATM   15  N   UNL     1      60.610   9.014   1.755  1.00  0.00    -0.075 N 
HETATM   16  C   UNL     1      59.947   8.203   0.744  1.00  0.00     0.267 C 
HETATM   17  H   UNL     1      60.511   9.998   1.507  1.00  0.00     0.277 HD
HETATM   18  H   UNL     1      60.174   8.822   2.657  1.00  0.00     0.277 HD
ENDBRANCH  14  15
ENDBRANCH   5  14
TORSDOF 3
ENDMDL
MODEL 2
REMARK VINA RESULT:      -5.0     17.868     20.347
REMARK  3 active torsions:
REMARK  status: ('A' for Active; 'I' for Inactive)
REMARK    1  A    between atoms: C_1  and  N_2 
REMARK    2  A    between atoms: C_6  and  C_11 
REMARK    3  A    between atoms: N_8  and  C_11 
ROOT
HETATM    1  C   UNL     1      76.576   0.973  18.148  1.00  0.00     0.103 A 
HETATM    2  N   UNL     1      75.499   0.226  17.826  1.00  0.00    -0.352 N 
ATOM      3  HN  UNL     1      75.454  -0.764  18.067  1.00  0.00     0.166 HD
HETATM    4  C   UNL     1      76.637   2.328  17.814  1.00  0.00     0.057 A 
HETATM    5  C   UNL     1      75.566   2.952  17.161  1.00  0.00    -0.028 A 
HETATM    6  C   UNL     1      74.481   0.831  17.172  1.00  0.00     0.090 A 
HETATM    7  C   UNL     1      74.467   2.170  16.823  1.00  0.00     0.026 A 
ENDROOT
BRANCH   1   8
HETATM    8  N   UNL     1      77.585   0.428  18.926  1.00  0.00    -0.367 N 
HETATM    9  C   UNL     1      78.087  -0.892  18.566  1.00  0.00     0.124 C 
HETATM   10  C   UNL     1      78.491  -1.589  19.869  1.00  0.00     0.020 C 
HETATM   11  C   UNL     1      79.468  -0.745  20.693  1.00  0.00     0.003 C 
HETATM   12  C   UNL     1      78.974   0.694  20.874  1.00  0.00     0.020 C 
HETATM   13  C   UNL     1      78.571   1.315  19.536  1.00  0.00     0.124 C 
ENDBRANCH   1   8
BRANCH   5  14
HETATM   14  C   UNL     1      75.606   4.432  16.878  1.00  0.00     0.270 C 
BRANCH  14  15
HETATM   15  N   UNL     1      76.247   5.167  17.970  1.00  0.00    -0.075 N 
HETATM   16  C   UNL     1      76.933   6.352  17.478  1.00  0.00     0.267 C 
HETATM   17  H   UNL     1      76.924   4.557  18.429  1.00  0.00     0.277 HD
HETATM   18  H   UNL     1      75.524   5.463  18.626  1.00  0.00     0.277 HD
ENDBRANCH  14  15
ENDBRANCH   5  14
TORSDOF 3
ENDMDL
MODEL 3
REMARK VINA RESULT:      -4.7      1.983      3.136
REMARK  3 active torsions:
REMARK  status: ('A' for Active; 'I' for Inactive)
REMARK    1  A    between atoms: C_1  and  N_2 
REMARK    2  A    between atoms: C_6  and  C_11 
REMARK    3  A    between atoms: N_8  and  C_11 
ROOT
HETATM    1  C   UNL     1      65.735   6.750   5.705  1.00  0.00     0.103 A 
HETATM    2  N   UNL     1      65.638   5.963   4.613  1.00  0.00    -0.352 N 
ATOM      3  HN  UNL     1      66.175   5.099   4.537  1.00  0.00     0.166 HD
HETATM    4  C   UNL     1      65.001   7.934   5.806  1.00  0.00     0.057 A 
HETATM    5  C   UNL     1      64.122   8.318   4.785  1.00  0.00    -0.028 A 
HETATM    6  C   UNL     1      64.807   6.356   3.621  1.00  0.00     0.090 A 
HETATM    7  C   UNL     1      64.040   7.507   3.659  1.00  0.00     0.026 A 
ENDROOT
BRANCH   1   8
HETATM    8  N   UNL     1      66.475   6.325   6.797  1.00  0.00    -0.367 N 
HETATM    9  C   UNL     1      65.847   6.383   8.111  1.00  0.00     0.124 C 
HETATM   10  C   UNL     1      66.956   6.681   9.125  1.00  0.00     0.020 C 
HETATM   11  C   UNL     1      68.113   5.683   9.021  1.00  0.00     0.003 C 
HETATM   12  C   UNL     1      68.604   5.519   7.580  1.00  0.00     0.020 C 
HETATM   13  C   UNL     1      67.442   5.245   6.625  1.00  0.00     0.124 C 
ENDBRANCH   1   8
BRANCH   5  14
HETATM   14  C   UNL     1      63.273   9.554   4.939  1.00  0.00     0.270 C 
BRANCH  14  15
HETATM   15  N   UNL     1      62.138   9.540   4.014  1.00  0.00    -0.075 N 
HETATM   16  C   UNL     1      61.956  10.837   3.380  1.00  0.00     0.267 C 
HETATM   17  H   UNL     1      61.291   9.302   4.530  1.00  0.00     0.277 HD
HETATM   18  H   UNL     1      62.324   8.849   3.286  1.00  0.00     0.277 HD
ENDBRANCH  14  15
ENDBRANCH   5  14
TORSDOF 3
ENDMDL
MODEL 4
REMARK VINA RESULT:      -4.7      1.672      6.002
REMARK  3 active torsions:
REMARK  status: ('A' for Active; 'I' for Inactive)
REMARK    1  A    between atoms: C_1  and  N_2 
REMARK    2  A    between atoms: C_6  and  C_11 
REMARK    3  A    between atoms: N_8  and  C_11 
ROOT
HETATM    1  C   UNL     1      63.255   8.207   4.762  1.00  0.00     0.103 A 
HETATM    2  N   UNL     1      62.571   7.220   5.380  1.00  0.00    -0.352 N 
ATOM      3  HN  UNL     1      61.588   7.051   5.171  1.00  0.00     0.166 HD
HETATM    4  C   UNL     1      64.601   8.440   5.051  1.00  0.00     0.057 A 
HETATM    5  C   UNL     1      65.284   7.632   5.970  1.00  0.00    -0.028 A 
HETATM    6  C   UNL     1      63.233   6.462   6.284  1.00  0.00     0.090 A 
HETATM    7  C   UNL     1      64.568   6.626   6.608  1.00  0.00     0.026 A 
ENDROOT
BRANCH   1   8
HETATM    8  N   UNL     1      62.655   8.925   3.740  1.00  0.00    -0.367 N 
HETATM    9  C   UNL     1      62.261   8.201   2.537  1.00  0.00     0.124 C 
HETATM   10  C   UNL     1      62.422   9.166   1.359  1.00  0.00     0.020 C 
HETATM   11  C   UNL     1      61.664  10.478   1.584  1.00  0.00     0.003 C 
HETATM   12  C   UNL     1      61.972  11.095   2.951  1.00  0.00     0.020 C 
HETATM   13  C   UNL     1      61.811  10.068   4.073  1.00  0.00     0.124 C 
ENDBRANCH   1   8
BRANCH   5  14
HETATM   14  C   UNL     1      66.758   7.837   6.215  1.00  0.00     0.270 C 
BRANCH  14  15
HETATM   15  N   UNL     1      67.528   6.642   5.866  1.00  0.00    -0.075 N 
HETATM   16  C   UNL     1      68.076   6.002   7.053  1.00  0.00     0.267 C 
HETATM   17  H   UNL     1      68.295   6.909   5.249  1.00  0.00     0.277 HD
HETATM   18  H   UNL     1      66.904   5.980   5.403  1.00  0.00     0.277 HD
ENDBRANCH  14  15
ENDBRANCH   5  14
TORSDOF 3
ENDMDL
MODEL 5
REMARK VINA RESULT:      -4.7      3.710      7.634
REMARK  3 active torsions:
REMARK  status: ('A' for Active; 'I' for Inactive)
REMARK    1  A    between atoms: C_1  and  N_2 
REMARK    2  A    between atoms: C_6  and  C_11 
REMARK    3  A    between atoms: N_8  and  C_11 
ROOT
HETATM    1  C   UNL     1      67.003   6.125   7.116  1.00  0.00     0.103 A 
HETATM    2  N   UNL     1      66.350   6.721   8.135  1.00  0.00    -0.352 N 
ATOM      3  HN  UNL     1      65.522   7.292   7.967  1.00  0.00     0.166 HD
HETATM    4  C   UNL     1      68.139   5.346   7.347  1.00  0.00     0.057 A 
HETATM    5  C   UNL     1      68.611   5.140   8.650  1.00  0.00    -0.028 A 
HETATM    6  C   UNL     1      66.828   6.539   9.387  1.00  0.00     0.090 A 
HETATM    7  C   UNL     1      67.937   5.770   9.691  1.00  0.00     0.026 A 
ENDROOT
BRANCH   1   8
HETATM    8  N   UNL     1      66.478   6.180   5.834  1.00  0.00    -0.367 N 
HETATM    9  C   UNL     1      65.368   7.093   5.590  1.00  0.00     0.124 C 
HETATM   10  C   UNL     1      64.483   6.448   4.519  1.00  0.00     0.020 C 
HETATM   11  C   UNL     1      65.280   6.072   3.266  1.00  0.00     0.003 C 
HETATM   12  C   UNL     1      66.543   5.275   3.605  1.00  0.00     0.020 C 
HETATM   13  C   UNL     1      67.363   5.969   4.693  1.00  0.00     0.124 C 
ENDBRANCH   1   8
BRANCH   5  14
HETATM   14  C   UNL     1      69.788   4.232   8.899  1.00  0.00     0.270 C 
BRANCH  14  15
HETATM   15  N   UNL     1      69.759   3.679  10.254  1.00  0.00    -0.075 N 
HETATM   16  C   UNL     1      69.327   2.289  10.248  1.00  0.00     0.267 C 
HETATM   17  H   UNL     1      69.111   4.226  10.822  1.00  0.00     0.277 HD
HETATM   18  H   UNL     1      70.702   3.721  10.640  1.00  0.00     0.277 HD
ENDBRANCH  14  15
ENDBRANCH   5  14
TORSDOF 3
ENDMDL
MODEL 6
REMARK VINA RESULT:      -4.7      3.959      7.947
REMARK  3 active torsions:
REMARK  status: ('A' for Active; 'I' for Inactive)
REMARK    1  A    between atoms: C_1  and  N_2 
REMARK    2  A    between atoms: C_6  and  C_11 
REMARK    3  A    between atoms: N_8  and  C_11 
ROOT
HETATM    1  C   UNL     1      68.064   5.523   7.379  1.00  0.00     0.103 A 
HETATM    2  N   UNL     1      69.140   6.000   8.039  1.00  0.00    -0.352 N 
ATOM      3  HN  UNL     1      69.436   6.970   7.931  1.00  0.00     0.166 HD
HETATM    4  C   UNL     1      67.662   4.193   7.525  1.00  0.00     0.057 A 
HETATM    5  C   UNL     1      68.351   3.329   8.386  1.00  0.00    -0.028 A 
HETATM    6  C   UNL     1      69.815   5.151   8.848  1.00  0.00     0.090 A 
HETATM    7  C   UNL     1      69.465   3.828   9.051  1.00  0.00     0.026 A 
ENDROOT
BRANCH   1   8
HETATM    8  N   UNL     1      67.270   6.386   6.640  1.00  0.00    -0.367 N 
HETATM    9  C   UNL     1      66.112   6.980   7.299  1.00  0.00     0.124 C 
HETATM   10  C   UNL     1      65.030   7.156   6.229  1.00  0.00     0.020 C 
HETATM   11  C   UNL     1      65.542   7.943   5.018  1.00  0.00     0.003 C 
HETATM   12  C   UNL     1      66.867   7.387   4.489  1.00  0.00     0.020 C 
HETATM   13  C   UNL     1      67.888   7.220   5.615  1.00  0.00     0.124 C 
ENDBRANCH   1   8
BRANCH   5  14
HETATM   14  C   UNL     1      67.861   1.920   8.600  1.00  0.00     0.270 C 
BRANCH  14  15
HETATM   15  N   UNL     1      67.213   1.773   9.905  1.00  0.00    -0.075 N 
HETATM   16  C   UNL     1      67.070   0.371  10.269  1.00  0.00     0.267 C 
HETATM   17  H   UNL     1      66.288   2.202   9.867  1.00  0.00     0.277 HD
HETATM   18  H   UNL     1      67.795   2.230  10.607  1.00  0.00     0.277 HD
ENDBRANCH  14  15
ENDBRANCH   5  14
TORSDOF 3
ENDMDL
MODEL 7
REMARK VINA RESULT:      -4.6      3.209      4.980
REMARK  3 active torsions:
REMARK  status: ('A' for Active; 'I' for Inactive)
REMARK    1  A    between atoms: C_1  and  N_2 
REMARK    2  A    between atoms: C_6  and  C_11 
REMARK    3  A    between atoms: N_8  and  C_11 
ROOT
HETATM    1  C   UNL     1      67.529   6.097   6.801  1.00  0.00     0.103 A 
HETATM    2  N   UNL     1      68.328   6.992   6.183  1.00  0.00    -0.352 N 
ATOM      3  HN  UNL     1      69.330   7.016   6.367  1.00  0.00     0.166 HD
HETATM    4  C   UNL     1      66.155   6.066   6.552  1.00  0.00     0.057 A 
HETATM    5  C   UNL     1      65.577   6.947   5.629  1.00  0.00    -0.028 A 
HETATM    6  C   UNL     1      67.757   7.856   5.313  1.00  0.00     0.090 A 
HETATM    7  C   UNL     1      66.407   7.874   5.007  1.00  0.00     0.026 A 
ENDROOT
BRANCH   1   8
HETATM    8  N   UNL     1      68.086   5.113   7.602  1.00  0.00    -0.367 N 
HETATM    9  C   UNL     1      68.857   5.535   8.765  1.00  0.00     0.124 C 
HETATM   10  C   UNL     1      69.967   4.499   8.969  1.00  0.00     0.020 C 
HETATM   11  C   UNL     1      69.412   3.074   9.062  1.00  0.00     0.003 C 
HETATM   12  C   UNL     1      68.453   2.754   7.911  1.00  0.00     0.020 C 
HETATM   13  C   UNL     1      67.388   3.841   7.757  1.00  0.00     0.124 C 
ENDBRANCH   1   8
BRANCH   5  14
HETATM   14  C   UNL     1      64.108   6.853   5.304  1.00  0.00     0.270 C 
BRANCH  14  15
HETATM   15  N   UNL     1      63.286   7.376   6.397  1.00  0.00    -0.075 N 
HETATM   16  C   UNL     1      61.948   6.802   6.374  1.00  0.00     0.267 C 
HETATM   17  H   UNL     1      63.214   8.389   6.304  1.00  0.00     0.277 HD
HETATM   18  H   UNL     1      63.728   7.125   7.282  1.00  0.00     0.277 HD
ENDBRANCH  14  15
ENDBRANCH   5  14
TORSDOF 3
ENDMDL
MODEL 8
REMARK VINA RESULT:      -4.6      1.392      6.016
REMARK  3 active torsions:
REMARK  status: ('A' for Active; 'I' for Inactive)
REMARK    1  A    between atoms: C_1  and  N_2 
REMARK    2  A    between atoms: C_6  and  C_11 
REMARK    3  A    between atoms: N_8  and  C_11 
ROOT
HETATM    1  C   UNL     1      61.905   8.957   2.269  1.00  0.00     0.103 A 
HETATM    2  N   UNL     1      61.556  10.250   2.440  1.00  0.00    -0.352 N 
ATOM      3  HN  UNL     1      61.035  10.753   1.722  1.00  0.00     0.166 HD
HETATM    4  C   UNL     1      62.620   8.269   3.252  1.00  0.00     0.057 A 
HETATM    5  C   UNL     1      62.967   8.898   4.455  1.00  0.00    -0.028 A 
HETATM    6  C   UNL     1      61.918  10.856   3.594  1.00  0.00     0.090 A 
HETATM    7  C   UNL     1      62.613  10.233   4.615  1.00  0.00     0.026 A 
ENDROOT
BRANCH   1   8
HETATM    8  N   UNL     1      61.447   8.260   1.162  1.00  0.00    -0.367 N 
HETATM    9  C   UNL     1      60.041   8.396   0.804  1.00  0.00     0.124 C 
HETATM   10  C   UNL     1      59.600   7.059   0.200  1.00  0.00     0.020 C 
HETATM   11  C   UNL     1      60.507   6.624  -0.955  1.00  0.00     0.003 C 
HETATM   12  C   UNL     1      61.990   6.688  -0.578  1.00  0.00     0.020 C 
HETATM   13  C   UNL     1      62.350   8.041   0.036  1.00  0.00     0.124 C 
ENDBRANCH   1   8
BRANCH   5  14
HETATM   14  C   UNL     1      63.667   8.124   5.543  1.00  0.00     0.270 C 
BRANCH  14  15
HETATM   15  N   UNL     1      65.000   8.666   5.810  1.00  0.00    -0.075 N 
HETATM   16  C   UNL     1      66.028   7.910   5.111  1.00  0.00     0.267 C 
HETATM   17  H   UNL     1      65.182   8.624   6.813  1.00  0.00     0.277 HD
HETATM   18  H   UNL     1      65.028   9.631   5.478  1.00  0.00     0.277 HD
ENDBRANCH  14  15
ENDBRANCH   5  14
TORSDOF 3
ENDMDL
MODEL 9
REMARK VINA RESULT:      -4.4      3.035      6.963
REMARK  3 active torsions:
REMARK  status: ('A' for Active; 'I' for Inactive)
REMARK    1  A    between atoms: C_1  and  N_2 
REMARK    2  A    between atoms: C_6  and  C_11 
REMARK    3  A    between atoms: N_8  and  C_11 
ROOT
HETATM    1  C   UNL     1      66.746   6.433   6.787  1.00  0.00     0.103 A 
HETATM    2  N   UNL     1      66.488   7.080   7.943  1.00  0.00    -0.352 N 
ATOM      3  HN  UNL     1      65.810   7.840   7.981  1.00  0.00     0.166 HD
HETATM    4  C   UNL     1      67.677   5.393   6.735  1.00  0.00     0.057 A 
HETATM    5  C   UNL     1      68.346   4.976   7.893  1.00  0.00    -0.028 A 
HETATM    6  C   UNL     1      67.159   6.687   9.051  1.00  0.00     0.090 A 
HETATM    7  C   UNL     1      68.083   5.657   9.076  1.00  0.00     0.026 A 
ENDROOT
BRANCH   1   8
HETATM    8  N   UNL     1      65.993   6.715   5.658  1.00  0.00    -0.367 N 
HETATM    9  C   UNL     1      65.443   8.059   5.523  1.00  0.00     0.124 C 
HETATM   10  C   UNL     1      64.108   7.924   4.783  1.00  0.00     0.020 C 
HETATM   11  C   UNL     1      64.259   7.168   3.460  1.00  0.00     0.003 C 
HETATM   12  C   UNL     1      65.020   5.850   3.634  1.00  0.00     0.020 C 
HETATM   13  C   UNL     1      66.328   6.060   4.397  1.00  0.00     0.124 C 
ENDBRANCH   1   8
BRANCH   5  14
HETATM   14  C   UNL     1      69.288   3.800   7.845  1.00  0.00     0.270 C 
BRANCH  14  15
HETATM   15  N   UNL     1      68.919   2.864   6.782  1.00  0.00    -0.075 N 
HETATM   16  C   UNL     1      68.456   1.598   7.329  1.00  0.00     0.267 C 
HETATM   17  H   UNL     1      69.734   2.693   6.192  1.00  0.00     0.277 HD
HETATM   18  H   UNL     1      68.160   3.277   6.238  1.00  0.00     0.277 HD
ENDBRANCH  14  15
ENDBRANCH   5  14
TORSDOF 3
ENDMDL
