MODEL 1
REMARK VINA RESULT:      -6.8      0.000      0.000
REMARK  4 active torsions:
REMARK  status: ('A' for Active; 'I' for Inactive)
REMARK    1  A    between atoms: C_1  and  O_4 
REMARK    2  A    between atoms: O_4  and  C_5 
REMARK    3  A    between atoms: C_7  and  C_13 
REMARK    4  A    between atoms: O_8  and  C_13 
ROOT
HETATM    1  C   UNL     1      78.198   9.598  17.761  1.00  0.00     0.078 A 
HETATM    2  C   UNL     1      78.333   9.732  16.376  1.00  0.00     0.046 A 
HETATM    3  C   UNL     1      77.702   8.837  15.504  1.00  0.00    -0.032 A 
HETATM    4  C   UNL     1      76.912   7.579  17.424  1.00  0.00     0.003 A 
HETATM    5  C   UNL     1      77.510   8.502  18.284  1.00  0.00     0.037 A 
HETATM    6  C   UNL     1      76.998   7.752  16.040  1.00  0.00     0.009 A 
ENDROOT
BRANCH   1   7
HETATM    7  O   UNL     1      78.760  10.472  18.668  1.00  0.00    -0.294 OA
BRANCH   7   8
HETATM    8  C   UNL     1      77.903  11.298  19.390  1.00  0.00     0.147 A 
HETATM    9  N   UNL     1      78.055  11.416  20.730  1.00  0.00    -0.347 N 
HETATM   10  C   UNL     1      77.152  12.176  21.383  1.00  0.00     0.090 A 
ATOM     11  HN  UNL     1      78.817  10.952  21.223  1.00  0.00     0.167 HD
HETATM   12  C   UNL     1      76.121  12.851  20.754  1.00  0.00     0.017 A 
HETATM   13  C   UNL     1      76.014  12.753  19.370  1.00  0.00     0.006 A 
HETATM   14  C   UNL     1      76.926  11.963  18.669  1.00  0.00     0.056 A 
ENDBRANCH   7   8
ENDBRANCH   1   7
BRANCH   3  15
HETATM   15  C   UNL     1      77.757   9.064  14.018  1.00  0.00     0.203 C 
BRANCH  15  16
HETATM   16  O   UNL     1      77.376   7.891  13.314  1.00  0.00    -0.396 OA
HETATM   17  H   UNL     1      77.931   7.148  13.599  1.00  0.00     0.209 HD
ENDBRANCH  15  16
ENDBRANCH   3  15
TORSDOF 4
ENDMDL
MODEL 2
REMARK VINA RESULT:      -6.1      3.857      7.386
REMARK  4 active torsions:
REMARK  status: ('A' for Active; 'I' for Inactive)
REMARK    1  A    between atoms: C_1  and  O_4 
REMARK    2  A    between atoms: O_4  and  C_5 
REMARK    3  A    between atoms: C_7  and  C_13 
REMARK    4  A    between atoms: O_8  and  C_13 
ROOT
HETATM    1  C   UNL     1      78.877  12.181  22.874  1.00  0.00     0.078 A 
HETATM    2  C   UNL     1      79.351  12.080  24.187  1.00  0.00     0.046 A 
HETATM    3  C   UNL     1      80.624  12.553  24.527  1.00  0.00    -0.032 A 
HETATM    4  C   UNL     1      81.006  13.099  22.192  1.00  0.00     0.003 A 
HETATM    5  C   UNL     1      79.718  12.664  21.872  1.00  0.00     0.037 A 
HETATM    6  C   UNL     1      81.452  13.054  23.516  1.00  0.00     0.009 A 
ENDROOT
BRANCH   1   7
HETATM    7  O   UNL     1      77.618  11.772  22.488  1.00  0.00    -0.294 OA
BRANCH   7   8
HETATM    8  C   UNL     1      77.276  11.906  21.145  1.00  0.00     0.147 A 
HETATM    9  N   UNL     1      77.640  10.947  20.261  1.00  0.00    -0.347 N 
HETATM   10  C   UNL     1      77.341  11.165  18.964  1.00  0.00     0.090 A 
ATOM     11  HN  UNL     1      78.119  10.098  20.561  1.00  0.00     0.167 HD
HETATM   12  C   UNL     1      76.665  12.285  18.512  1.00  0.00     0.017 A 
HETATM   13  C   UNL     1      76.259  13.234  19.446  1.00  0.00     0.006 A 
HETATM   14  C   UNL     1      76.566  13.041  20.793  1.00  0.00     0.056 A 
ENDBRANCH   7   8
ENDBRANCH   1   7
BRANCH   3  15
HETATM   15  C   UNL     1      81.072  12.549  25.963  1.00  0.00     0.203 C 
BRANCH  15  16
HETATM   16  O   UNL     1      81.377  11.231  26.393  1.00  0.00    -0.396 OA
HETATM   17  H   UNL     1      81.341  11.191  27.362  1.00  0.00     0.209 HD
ENDBRANCH  15  16
ENDBRANCH   3  15
TORSDOF 4
ENDMDL
MODEL 3
REMARK VINA RESULT:      -6.0      4.190      7.287
REMARK  4 active torsions:
REMARK  status: ('A' for Active; 'I' for Inactive)
REMARK    1  A    between atoms: C_1  and  O_4 
REMARK    2  A    between atoms: O_4  and  C_5 
REMARK    3  A    between atoms: C_7  and  C_13 
REMARK    4  A    between atoms: O_8  and  C_13 
ROOT
HETATM    1  C   UNL     1      79.418  12.223  23.578  1.00  0.00     0.078 A 
HETATM    2  C   UNL     1      78.506  11.191  23.820  1.00  0.00     0.046 A 
HETATM    3  C   UNL     1      78.330  10.678  25.111  1.00  0.00    -0.032 A 
HETATM    4  C   UNL     1      80.097  12.147  25.897  1.00  0.00     0.003 A 
HETATM    5  C   UNL     1      80.234  12.680  24.613  1.00  0.00     0.037 A 
HETATM    6  C   UNL     1      79.141  11.158  26.146  1.00  0.00     0.009 A 
ENDROOT
BRANCH   1   7
HETATM    7  O   UNL     1      79.605  12.796  22.338  1.00  0.00    -0.294 OA
BRANCH   7   8
HETATM    8  C   UNL     1      78.690  12.486  21.335  1.00  0.00     0.147 A 
HETATM    9  N   UNL     1      78.892  11.398  20.555  1.00  0.00    -0.347 N 
HETATM   10  C   UNL     1      78.009  11.189  19.557  1.00  0.00     0.090 A 
ATOM     11  HN  UNL     1      79.676  10.766  20.714  1.00  0.00     0.167 HD
HETATM   12  C   UNL     1      76.913  11.999  19.322  1.00  0.00     0.017 A 
HETATM   13  C   UNL     1      76.699  13.084  20.168  1.00  0.00     0.006 A 
HETATM   14  C   UNL     1      77.604  13.334  21.201  1.00  0.00     0.056 A 
ENDBRANCH   7   8
ENDBRANCH   1   7
BRANCH   3  15
HETATM   15  C   UNL     1      77.261   9.654  25.378  1.00  0.00     0.203 C 
BRANCH  15  16
HETATM   16  O   UNL     1      77.752   8.341  25.149  1.00  0.00    -0.396 OA
HETATM   17  H   UNL     1      77.296   7.719  25.738  1.00  0.00     0.209 HD
ENDBRANCH  15  16
ENDBRANCH   3  15
TORSDOF 4
ENDMDL
MODEL 4
REMARK VINA RESULT:      -5.7      4.925      8.536
REMARK  4 active torsions:
REMARK  status: ('A' for Active; 'I' for Inactive)
REMARK    1  A    between atoms: C_1  and  O_4 
REMARK    2  A    between atoms: O_4  and  C_5 
REMARK    3  A    between atoms: C_7  and  C_13 
REMARK    4  A    between atoms: O_8  and  C_13 
ROOT
HETATM    1  C   UNL     1      80.894  12.751  23.590  1.00  0.00     0.078 A 
HETATM    2  C   UNL     1      81.563  13.979  23.553  1.00  0.00     0.046 A 
HETATM    3  C   UNL     1      81.690  14.761  24.708  1.00  0.00    -0.032 A 
HETATM    4  C   UNL     1      80.343  13.138  25.912  1.00  0.00     0.003 A 
HETATM    5  C   UNL     1      80.260  12.346  24.765  1.00  0.00     0.037 A 
HETATM    6  C   UNL     1      81.065  14.335  25.886  1.00  0.00     0.009 A 
ENDROOT
BRANCH   1   7
HETATM    7  O   UNL     1      80.774  11.919  22.497  1.00  0.00    -0.294 OA
BRANCH   7   8
HETATM    8  C   UNL     1      79.632  12.042  21.711  1.00  0.00     0.147 A 
HETATM    9  N   UNL     1      79.457  11.222  20.647  1.00  0.00    -0.347 N 
HETATM   10  C   UNL     1      78.366  11.436  19.883  1.00  0.00     0.090 A 
ATOM     11  HN  UNL     1      80.120  10.477  20.434  1.00  0.00     0.167 HD
HETATM   12  C   UNL     1      77.422  12.411  20.151  1.00  0.00     0.017 A 
HETATM   13  C   UNL     1      77.599  13.210  21.277  1.00  0.00     0.006 A 
HETATM   14  C   UNL     1      78.725  13.022  22.079  1.00  0.00     0.056 A 
ENDBRANCH   7   8
ENDBRANCH   1   7
BRANCH   3  15
HETATM   15  C   UNL     1      82.513  16.019  24.682  1.00  0.00     0.203 C 
BRANCH  15  16
HETATM   16  O   UNL     1      81.761  17.125  25.158  1.00  0.00    -0.396 OA
HETATM   17  H   UNL     1      81.688  17.074  26.124  1.00  0.00     0.209 HD
ENDBRANCH  15  16
ENDBRANCH   3  15
TORSDOF 4
ENDMDL
MODEL 5
REMARK VINA RESULT:      -5.6     17.708     20.025
REMARK  4 active torsions:
REMARK  status: ('A' for Active; 'I' for Inactive)
REMARK    1  A    between atoms: C_1  and  O_4 
REMARK    2  A    between atoms: O_4  and  C_5 
REMARK    3  A    between atoms: C_7  and  C_13 
REMARK    4  A    between atoms: O_8  and  C_13 
ROOT
HETATM    1  C   UNL     1      63.046   7.874   3.556  1.00  0.00     0.078 A 
HETATM    2  C   UNL     1      62.761   9.233   3.729  1.00  0.00     0.046 A 
HETATM    3  C   UNL     1      62.196   9.985   2.692  1.00  0.00    -0.032 A 
HETATM    4  C   UNL     1      62.338   8.036   1.250  1.00  0.00     0.003 A 
HETATM    5  C   UNL     1      62.860   7.285   2.305  1.00  0.00     0.037 A 
HETATM    6  C   UNL     1      61.996   9.377   1.447  1.00  0.00     0.009 A 
ENDROOT
BRANCH   1   7
HETATM    7  O   UNL     1      63.562   7.073   4.552  1.00  0.00    -0.294 OA
BRANCH   7   8
HETATM    8  C   UNL     1      64.888   7.275   4.925  1.00  0.00     0.147 A 
HETATM    9  N   UNL     1      65.169   7.912   6.087  1.00  0.00    -0.347 N 
HETATM   10  C   UNL     1      66.471   8.139   6.360  1.00  0.00     0.090 A 
ATOM     11  HN  UNL     1      64.431   8.206   6.726  1.00  0.00     0.167 HD
HETATM   12  C   UNL     1      67.508   7.730   5.541  1.00  0.00     0.017 A 
HETATM   13  C   UNL     1      67.196   7.034   4.376  1.00  0.00     0.006 A 
HETATM   14  C   UNL     1      65.857   6.797   4.061  1.00  0.00     0.056 A 
ENDBRANCH   7   8
ENDBRANCH   1   7
BRANCH   3  15
HETATM   15  C   UNL     1      61.784  11.411   2.931  1.00  0.00     0.203 C 
BRANCH  15  16
HETATM   16  O   UNL     1      62.026  12.206   1.780  1.00  0.00    -0.396 OA
HETATM   17  H   UNL     1      62.024  13.144   2.029  1.00  0.00     0.209 HD
ENDBRANCH  15  16
ENDBRANCH   3  15
TORSDOF 4
ENDMDL
MODEL 6
REMARK VINA RESULT:      -5.5     16.643     19.023
REMARK  4 active torsions:
REMARK  status: ('A' for Active; 'I' for Inactive)
REMARK    1  A    between atoms: C_1  and  O_4 
REMARK    2  A    between atoms: O_4  and  C_5 
REMARK    3  A    between atoms: C_7  and  C_13 
REMARK    4  A    between atoms: O_8  and  C_13 
ROOT
HETATM    1  C   UNL     1      63.386   8.036   4.215  1.00  0.00     0.078 A 
HETATM    2  C   UNL     1      63.573   9.075   5.132  1.00  0.00     0.046 A 
HETATM    3  C   UNL     1      62.936  10.310   4.956  1.00  0.00    -0.032 A 
HETATM    4  C   UNL     1      62.034   9.503   2.850  1.00  0.00     0.003 A 
HETATM    5  C   UNL     1      62.639   8.262   3.059  1.00  0.00     0.037 A 
HETATM    6  C   UNL     1      62.172  10.518   3.801  1.00  0.00     0.009 A 
ENDROOT
BRANCH   1   7
HETATM    7  O   UNL     1      63.952   6.787   4.357  1.00  0.00    -0.294 OA
BRANCH   7   8
HETATM    8  C   UNL     1      65.177   6.700   5.013  1.00  0.00     0.147 A 
HETATM    9  N   UNL     1      65.216   6.345   6.319  1.00  0.00    -0.347 N 
HETATM   10  C   UNL     1      66.424   6.346   6.918  1.00  0.00     0.090 A 
ATOM     11  HN  UNL     1      64.370   6.089   6.828  1.00  0.00     0.167 HD
HETATM   12  C   UNL     1      67.603   6.655   6.263  1.00  0.00     0.017 A 
HETATM   13  C   UNL     1      67.544   6.970   4.908  1.00  0.00     0.006 A 
HETATM   14  C   UNL     1      66.305   6.990   4.265  1.00  0.00     0.056 A 
ENDBRANCH   7   8
ENDBRANCH   1   7
BRANCH   3  15
HETATM   15  C   UNL     1      63.048  11.376   6.011  1.00  0.00     0.203 C 
BRANCH  15  16
HETATM   16  O   UNL     1      64.389  11.502   6.460  1.00  0.00    -0.396 OA
HETATM   17  H   UNL     1      64.516  12.378   6.857  1.00  0.00     0.209 HD
ENDBRANCH  15  16
ENDBRANCH   3  15
TORSDOF 4
ENDMDL
MODEL 7
REMARK VINA RESULT:      -5.5     17.400     19.638
REMARK  4 active torsions:
REMARK  status: ('A' for Active; 'I' for Inactive)
REMARK    1  A    between atoms: C_1  and  O_4 
REMARK    2  A    between atoms: O_4  and  C_5 
REMARK    3  A    between atoms: C_7  and  C_13 
REMARK    4  A    between atoms: O_8  and  C_13 
ROOT
HETATM    1  C   UNL     1      63.070   9.038   4.875  1.00  0.00     0.078 A 
HETATM    2  C   UNL     1      62.586   8.708   3.605  1.00  0.00     0.046 A 
HETATM    3  C   UNL     1      62.044   9.689   2.766  1.00  0.00    -0.032 A 
HETATM    4  C   UNL     1      62.342  11.319   4.541  1.00  0.00     0.003 A 
HETATM    5  C   UNL     1      62.920  10.341   5.353  1.00  0.00     0.037 A 
HETATM    6  C   UNL     1      61.917  10.997   3.249  1.00  0.00     0.009 A 
ENDROOT
BRANCH   1   7
HETATM    7  O   UNL     1      63.652   8.124   5.728  1.00  0.00    -0.294 OA
BRANCH   7   8
HETATM    8  C   UNL     1      65.007   7.851   5.560  1.00  0.00     0.147 A 
HETATM    9  N   UNL     1      65.903   8.326   6.456  1.00  0.00    -0.347 N 
HETATM   10  C   UNL     1      67.207   8.088   6.202  1.00  0.00     0.090 A 
ATOM     11  HN  UNL     1      65.608   8.841   7.285  1.00  0.00     0.167 HD
HETATM   12  C   UNL     1      67.655   7.368   5.109  1.00  0.00     0.017 A 
HETATM   13  C   UNL     1      66.711   6.848   4.228  1.00  0.00     0.006 A 
HETATM   14  C   UNL     1      65.356   7.090   4.457  1.00  0.00     0.056 A 
ENDBRANCH   7   8
ENDBRANCH   1   7
BRANCH   3  15
HETATM   15  C   UNL     1      61.640   9.342   1.360  1.00  0.00     0.203 C 
BRANCH  15  16
HETATM   16  O   UNL     1      60.284   8.924   1.313  1.00  0.00    -0.396 OA
HETATM   17  H   UNL     1      60.022   8.580   2.182  1.00  0.00     0.209 HD
ENDBRANCH  15  16
ENDBRANCH   3  15
TORSDOF 4
ENDMDL
MODEL 8
REMARK VINA RESULT:      -5.2     13.373     15.563
REMARK  4 active torsions:
REMARK  status: ('A' for Active; 'I' for Inactive)
REMARK    1  A    between atoms: C_1  and  O_4 
REMARK    2  A    between atoms: O_4  and  C_5 
REMARK    3  A    between atoms: C_7  and  C_13 
REMARK    4  A    between atoms: O_8  and  C_13 
ROOT
HETATM    1  C   UNL     1      67.530   4.887   8.545  1.00  0.00     0.078 A 
HETATM    2  C   UNL     1      67.732   3.599   9.051  1.00  0.00     0.046 A 
HETATM    3  C   UNL     1      68.998   3.190   9.486  1.00  0.00    -0.032 A 
HETATM    4  C   UNL     1      69.896   5.329   8.768  1.00  0.00     0.003 A 
HETATM    5  C   UNL     1      68.620   5.741   8.377  1.00  0.00     0.037 A 
HETATM    6  C   UNL     1      70.081   4.063   9.330  1.00  0.00     0.009 A 
ENDROOT
BRANCH   1   7
HETATM    7  O   UNL     1      66.299   5.360   8.141  1.00  0.00    -0.294 OA
BRANCH   7   8
HETATM    8  C   UNL     1      66.245   6.106   6.966  1.00  0.00     0.147 A 
HETATM    9  N   UNL     1      65.871   7.407   7.014  1.00  0.00    -0.347 N 
HETATM   10  C   UNL     1      65.770   8.058   5.837  1.00  0.00     0.090 A 
ATOM     11  HN  UNL     1      65.674   7.873   7.900  1.00  0.00     0.167 HD
HETATM   12  C   UNL     1      66.058   7.478   4.614  1.00  0.00     0.017 A 
HETATM   13  C   UNL     1      66.487   6.154   4.595  1.00  0.00     0.006 A 
HETATM   14  C   UNL     1      66.587   5.451   5.796  1.00  0.00     0.056 A 
ENDBRANCH   7   8
ENDBRANCH   1   7
BRANCH   3  15
HETATM   15  C   UNL     1      69.175   1.846  10.139  1.00  0.00     0.203 C 
BRANCH  15  16
HETATM   16  O   UNL     1      69.905   1.967  11.351  1.00  0.00    -0.396 OA
HETATM   17  H   UNL     1      70.854   2.009  11.154  1.00  0.00     0.209 HD
ENDBRANCH  15  16
ENDBRANCH   3  15
TORSDOF 4
ENDMDL
MODEL 9
REMARK VINA RESULT:      -5.2     16.720     18.898
REMARK  4 active torsions:
REMARK  status: ('A' for Active; 'I' for Inactive)
REMARK    1  A    between atoms: C_1  and  O_4 
REMARK    2  A    between atoms: O_4  and  C_5 
REMARK    3  A    between atoms: C_7  and  C_13 
REMARK    4  A    between atoms: O_8  and  C_13 
ROOT
HETATM    1  C   UNL     1      63.222   7.964   5.340  1.00  0.00     0.078 A 
HETATM    2  C   UNL     1      62.830   9.285   5.101  1.00  0.00     0.046 A 
HETATM    3  C   UNL     1      62.465   9.703   3.816  1.00  0.00    -0.032 A 
HETATM    4  C   UNL     1      63.027   7.494   2.977  1.00  0.00     0.003 A 
HETATM    5  C   UNL     1      63.347   7.077   4.270  1.00  0.00     0.037 A 
HETATM    6  C   UNL     1      62.576   8.799   2.753  1.00  0.00     0.009 A 
ENDROOT
BRANCH   1   7
HETATM    7  O   UNL     1      63.552   7.484   6.590  1.00  0.00    -0.294 OA
BRANCH   7   8
HETATM    8  C   UNL     1      64.833   6.967   6.769  1.00  0.00     0.147 A 
HETATM    9  N   UNL     1      65.905   7.790   6.692  1.00  0.00    -0.347 N 
HETATM   10  C   UNL     1      67.122   7.220   6.805  1.00  0.00     0.090 A 
ATOM     11  HN  UNL     1      65.798   8.795   6.554  1.00  0.00     0.167 HD
HETATM   12  C   UNL     1      67.317   5.868   7.025  1.00  0.00     0.017 A 
HETATM   13  C   UNL     1      66.198   5.050   7.149  1.00  0.00     0.006 A 
HETATM   14  C   UNL     1      64.926   5.610   7.023  1.00  0.00     0.056 A 
ENDBRANCH   7   8
ENDBRANCH   1   7
BRANCH   3  15
HETATM   15  C   UNL     1      61.931  11.092   3.595  1.00  0.00     0.203 C 
BRANCH  15  16
HETATM   16  O   UNL     1      62.288  11.946   4.672  1.00  0.00    -0.396 OA
HETATM   17  H   UNL     1      62.296  12.867   4.365  1.00  0.00     0.209 HD
ENDBRANCH  15  16
ENDBRANCH   3  15
TORSDOF 4
ENDMDL
