MODEL 1
REMARK VINA RESULT:      -5.9      0.000      0.000
REMARK  3 active torsions:
REMARK  status: ('A' for Active; 'I' for Inactive)
REMARK    1  A    between atoms: C_8  and  C_11 
REMARK    2  A    between atoms: O_10  and  C_12 
REMARK    3  A    between atoms: C_11  and  C_12 
ROOT
HETATM    1  C   UNL     1      77.211   7.897  15.020  1.00  0.00     0.105 A 
HETATM    2  C   UNL     1      77.527   8.825  15.983  1.00  0.00     0.105 A 
HETATM    3  O   UNL     1      77.442   8.361  13.761  1.00  0.00    -0.323 OA
HETATM    4  O   UNL     1      77.999   9.987  15.455  1.00  0.00    -0.323 OA
HETATM    5  C   UNL     1      77.954   9.680  14.046  1.00  0.00     0.352 A 
HETATM    6  C   UNL     1      76.722   6.649  15.343  1.00  0.00     0.047 A 
HETATM    7  C   UNL     1      77.371   8.560  17.325  1.00  0.00     0.040 A 
HETATM    8  C   UNL     1      76.549   6.340  16.701  1.00  0.00    -0.053 A 
HETATM    9  C   UNL     1      76.877   7.302  17.684  1.00  0.00     0.010 A 
ENDROOT
BRANCH   8  10
HETATM   10  C   UNL     1      76.045   4.978  17.124  1.00  0.00     0.064 C 
BRANCH  10  11
HETATM   11  C   UNL     1      77.083   4.181  17.916  1.00  0.00     0.168 C 
BRANCH  11  12
HETATM   12  O   UNL     1      76.697   4.028  19.279  1.00  0.00    -0.401 OA
HETATM   13  H   UNL     1      77.223   3.322  19.686  1.00  0.00     0.209 HD
ENDBRANCH  11  12
ENDBRANCH  10  11
ENDBRANCH   8  10
TORSDOF 3
ENDMDL
MODEL 2
REMARK VINA RESULT:      -5.1     19.327     20.512
REMARK  3 active torsions:
REMARK  status: ('A' for Active; 'I' for Inactive)
REMARK    1  A    between atoms: C_8  and  C_11 
REMARK    2  A    between atoms: O_10  and  C_12 
REMARK    3  A    between atoms: C_11  and  C_12 
ROOT
HETATM    1  C   UNL     1      62.238  10.417   3.837  1.00  0.00     0.105 A 
HETATM    2  C   UNL     1      62.985   9.477   4.504  1.00  0.00     0.105 A 
HETATM    3  O   UNL     1      62.110  11.572   4.546  1.00  0.00    -0.323 OA
HETATM    4  O   UNL     1      63.425   9.920   5.713  1.00  0.00    -0.323 OA
HETATM    5  C   UNL     1      62.876  11.254   5.727  1.00  0.00     0.352 A 
HETATM    6  C   UNL     1      61.702  10.172   2.590  1.00  0.00     0.047 A 
HETATM    7  C   UNL     1      63.240   8.236   3.964  1.00  0.00     0.040 A 
HETATM    8  C   UNL     1      61.940   8.918   2.005  1.00  0.00    -0.053 A 
HETATM    9  C   UNL     1      62.710   7.958   2.701  1.00  0.00     0.010 A 
ENDROOT
BRANCH   8  10
HETATM   10  C   UNL     1      61.407   8.597   0.628  1.00  0.00     0.064 C 
BRANCH  10  11
HETATM   11  C   UNL     1      60.083   7.831   0.667  1.00  0.00     0.168 C 
BRANCH  11  12
HETATM   12  O   UNL     1      58.982   8.700   0.915  1.00  0.00    -0.401 OA
HETATM   13  H   UNL     1      59.297   9.616   0.955  1.00  0.00     0.209 HD
ENDBRANCH  11  12
ENDBRANCH  10  11
ENDBRANCH   8  10
TORSDOF 3
ENDMDL
MODEL 3
REMARK VINA RESULT:      -4.9     16.901     18.280
REMARK  3 active torsions:
REMARK  status: ('A' for Active; 'I' for Inactive)
REMARK    1  A    between atoms: C_8  and  C_11 
REMARK    2  A    between atoms: O_10  and  C_12 
REMARK    3  A    between atoms: C_11  and  C_12 
ROOT
HETATM    1  C   UNL     1      64.830   8.665   5.241  1.00  0.00     0.105 A 
HETATM    2  C   UNL     1      65.089   7.525   4.519  1.00  0.00     0.105 A 
HETATM    3  O   UNL     1      65.793   8.918   6.169  1.00  0.00    -0.323 OA
HETATM    4  O   UNL     1      66.247   6.919   4.897  1.00  0.00    -0.323 OA
HETATM    5  C   UNL     1      66.693   7.815   5.935  1.00  0.00     0.352 A 
HETATM    6  C   UNL     1      63.708   9.434   5.011  1.00  0.00     0.047 A 
HETATM    7  C   UNL     1      64.242   7.087   3.525  1.00  0.00     0.040 A 
HETATM    8  C   UNL     1      62.820   9.021   4.006  1.00  0.00    -0.053 A 
HETATM    9  C   UNL     1      63.097   7.846   3.269  1.00  0.00     0.010 A 
ENDROOT
BRANCH   8  10
HETATM   10  C   UNL     1      61.588   9.835   3.683  1.00  0.00     0.064 C 
BRANCH  10  11
HETATM   11  C   UNL     1      61.921  11.229   3.149  1.00  0.00     0.168 C 
BRANCH  11  12
HETATM   12  O   UNL     1      62.021  12.184   4.201  1.00  0.00    -0.401 OA
HETATM   13  H   UNL     1      61.163  12.265   4.646  1.00  0.00     0.209 HD
ENDBRANCH  11  12
ENDBRANCH  10  11
ENDBRANCH   8  10
TORSDOF 3
ENDMDL
MODEL 4
REMARK VINA RESULT:      -4.9     12.156     13.078
REMARK  3 active torsions:
REMARK  status: ('A' for Active; 'I' for Inactive)
REMARK    1  A    between atoms: C_8  and  C_11 
REMARK    2  A    between atoms: O_10  and  C_12 
REMARK    3  A    between atoms: C_11  and  C_12 
ROOT
HETATM    1  C   UNL     1      66.684   5.744   6.928  1.00  0.00     0.105 A 
HETATM    2  C   UNL     1      66.055   6.470   7.911  1.00  0.00     0.105 A 
HETATM    3  O   UNL     1      65.978   5.732   5.764  1.00  0.00    -0.323 OA
HETATM    4  O   UNL     1      64.878   7.008   7.492  1.00  0.00    -0.323 OA
HETATM    5  C   UNL     1      64.843   6.547   6.126  1.00  0.00     0.352 A 
HETATM    6  C   UNL     1      67.894   5.120   7.144  1.00  0.00     0.047 A 
HETATM    7  C   UNL     1      66.599   6.613   9.168  1.00  0.00     0.040 A 
HETATM    8  C   UNL     1      68.482   5.243   8.413  1.00  0.00    -0.053 A 
HETATM    9  C   UNL     1      67.826   5.991   9.417  1.00  0.00     0.010 A 
ENDROOT
BRANCH   8  10
HETATM   10  C   UNL     1      69.823   4.608   8.706  1.00  0.00     0.064 C 
BRANCH  10  11
HETATM   11  C   UNL     1      69.698   3.243   9.384  1.00  0.00     0.168 C 
BRANCH  11  12
HETATM   12  O   UNL     1      69.851   3.343  10.796  1.00  0.00    -0.401 OA
HETATM   13  H   UNL     1      70.748   3.649  11.002  1.00  0.00     0.209 HD
ENDBRANCH  11  12
ENDBRANCH  10  11
ENDBRANCH   8  10
TORSDOF 3
ENDMDL
MODEL 5
REMARK VINA RESULT:      -4.7     19.156     20.393
REMARK  3 active torsions:
REMARK  status: ('A' for Active; 'I' for Inactive)
REMARK    1  A    between atoms: C_8  and  C_11 
REMARK    2  A    between atoms: O_10  and  C_12 
REMARK    3  A    between atoms: C_11  and  C_12 
ROOT
HETATM    1  C   UNL     1      62.773   9.640   4.085  1.00  0.00     0.105 A 
HETATM    2  C   UNL     1      62.213  10.771   3.542  1.00  0.00     0.105 A 
HETATM    3  O   UNL     1      63.149   9.822   5.380  1.00  0.00    -0.323 OA
HETATM    4  O   UNL     1      62.162  11.805   4.424  1.00  0.00    -0.323 OA
HETATM    5  C   UNL     1      62.746  11.192   5.591  1.00  0.00     0.352 A 
HETATM    6  C   UNL     1      62.913   8.475   3.360  1.00  0.00     0.047 A 
HETATM    7  C   UNL     1      61.761  10.804   2.241  1.00  0.00     0.040 A 
HETATM    8  C   UNL     1      62.463   8.468   2.030  1.00  0.00    -0.053 A 
HETATM    9  C   UNL     1      61.889   9.637   1.481  1.00  0.00     0.010 A 
ENDROOT
BRANCH   8  10
HETATM   10  C   UNL     1      62.560   7.214   1.191  1.00  0.00     0.064 C 
BRANCH  10  11
HETATM   11  C   UNL     1      62.619   7.507  -0.309  1.00  0.00     0.168 C 
BRANCH  11  12
HETATM   12  O   UNL     1      63.513   6.625  -0.980  1.00  0.00    -0.401 OA
HETATM   13  H   UNL     1      64.384   7.045  -1.057  1.00  0.00     0.209 HD
ENDBRANCH  11  12
ENDBRANCH  10  11
ENDBRANCH   8  10
TORSDOF 3
ENDMDL
MODEL 6
REMARK VINA RESULT:      -4.6     11.406     12.984
REMARK  3 active torsions:
REMARK  status: ('A' for Active; 'I' for Inactive)
REMARK    1  A    between atoms: C_8  and  C_11 
REMARK    2  A    between atoms: O_10  and  C_12 
REMARK    3  A    between atoms: C_11  and  C_12 
ROOT
HETATM    1  C   UNL     1      67.829   3.191   9.059  1.00  0.00     0.105 A 
HETATM    2  C   UNL     1      69.066   3.274   9.651  1.00  0.00     0.105 A 
HETATM    3  O   UNL     1      67.131   2.099   9.475  1.00  0.00    -0.323 OA
HETATM    4  O   UNL     1      69.303   2.250  10.515  1.00  0.00    -0.323 OA
HETATM    5  C   UNL     1      68.066   1.516  10.407  1.00  0.00     0.352 A 
HETATM    6  C   UNL     1      67.389   4.134   8.155  1.00  0.00     0.047 A 
HETATM    7  C   UNL     1      69.936   4.305   9.372  1.00  0.00     0.040 A 
HETATM    8  C   UNL     1      68.246   5.202   7.844  1.00  0.00    -0.053 A 
HETATM    9  C   UNL     1      69.517   5.277   8.459  1.00  0.00     0.010 A 
ENDROOT
BRANCH   8  10
HETATM   10  C   UNL     1      67.812   6.285   6.884  1.00  0.00     0.064 C 
BRANCH  10  11
HETATM   11  C   UNL     1      66.693   7.164   7.446  1.00  0.00     0.168 C 
BRANCH  11  12
HETATM   12  O   UNL     1      66.982   8.549   7.282  1.00  0.00    -0.401 OA
HETATM   13  H   UNL     1      67.051   8.754   6.337  1.00  0.00     0.209 HD
ENDBRANCH  11  12
ENDBRANCH  10  11
ENDBRANCH   8  10
TORSDOF 3
ENDMDL
MODEL 7
REMARK VINA RESULT:      -4.6     17.930     18.852
REMARK  3 active torsions:
REMARK  status: ('A' for Active; 'I' for Inactive)
REMARK    1  A    between atoms: C_8  and  C_11 
REMARK    2  A    between atoms: O_10  and  C_12 
REMARK    3  A    between atoms: C_11  and  C_12 
ROOT
HETATM    1  C   UNL     1      62.320   9.849   2.937  1.00  0.00     0.105 A 
HETATM    2  C   UNL     1      62.283  10.882   3.843  1.00  0.00     0.105 A 
HETATM    3  O   UNL     1      61.905  10.235   1.699  1.00  0.00    -0.323 OA
HETATM    4  O   UNL     1      61.846  12.046   3.292  1.00  0.00    -0.323 OA
HETATM    5  C   UNL     1      61.620  11.630   1.929  1.00  0.00     0.352 A 
HETATM    6  C   UNL     1      62.741   8.585   3.290  1.00  0.00     0.047 A 
HETATM    7  C   UNL     1      62.665  10.710   5.155  1.00  0.00     0.040 A 
HETATM    8  C   UNL     1      63.138   8.369   4.619  1.00  0.00    -0.053 A 
HETATM    9  C   UNL     1      63.096   9.438   5.543  1.00  0.00     0.010 A 
ENDROOT
BRANCH   8  10
HETATM   10  C   UNL     1      63.639   7.013   5.063  1.00  0.00     0.064 C 
BRANCH  10  11
HETATM   11  C   UNL     1      64.899   7.099   5.927  1.00  0.00     0.168 C 
BRANCH  11  12
HETATM   12  O   UNL     1      64.591   6.996   7.313  1.00  0.00    -0.401 OA
HETATM   13  H   UNL     1      64.702   7.863   7.734  1.00  0.00     0.209 HD
ENDBRANCH  11  12
ENDBRANCH  10  11
ENDBRANCH   8  10
TORSDOF 3
ENDMDL
MODEL 8
REMARK VINA RESULT:      -4.5     11.585     12.536
REMARK  3 active torsions:
REMARK  status: ('A' for Active; 'I' for Inactive)
REMARK    1  A    between atoms: C_8  and  C_11 
REMARK    2  A    between atoms: O_10  and  C_12 
REMARK    3  A    between atoms: C_11  and  C_12 
ROOT
HETATM    1  C   UNL     1      67.540   6.120   8.078  1.00  0.00     0.105 A 
HETATM    2  C   UNL     1      67.441   5.497   6.857  1.00  0.00     0.105 A 
HETATM    3  O   UNL     1      66.865   7.301   8.109  1.00  0.00    -0.323 OA
HETATM    4  O   UNL     1      66.691   6.202   5.968  1.00  0.00    -0.323 OA
HETATM    5  C   UNL     1      66.319   7.339   6.774  1.00  0.00     0.352 A 
HETATM    6  C   UNL     1      68.251   5.568   9.122  1.00  0.00     0.047 A 
HETATM    7  C   UNL     1      68.049   4.285   6.609  1.00  0.00     0.040 A 
HETATM    8  C   UNL     1      68.885   4.333   8.910  1.00  0.00    -0.053 A 
HETATM    9  C   UNL     1      68.777   3.701   7.649  1.00  0.00     0.010 A 
ENDROOT
BRANCH   8  10
HETATM   10  C   UNL     1      69.655   3.660  10.023  1.00  0.00     0.064 C 
BRANCH  10  11
HETATM   11  C   UNL     1      69.203   2.220  10.271  1.00  0.00     0.168 C 
BRANCH  11  12
HETATM   12  O   UNL     1      70.291   1.391  10.667  1.00  0.00    -0.401 OA
HETATM   13  H   UNL     1      69.961   0.670  11.225  1.00  0.00     0.209 HD
ENDBRANCH  11  12
ENDBRANCH  10  11
ENDBRANCH   8  10
TORSDOF 3
ENDMDL
MODEL 9
REMARK VINA RESULT:      -4.4     12.919     13.919
REMARK  3 active torsions:
REMARK  status: ('A' for Active; 'I' for Inactive)
REMARK    1  A    between atoms: C_8  and  C_11 
REMARK    2  A    between atoms: O_10  and  C_12 
REMARK    3  A    between atoms: C_11  and  C_12 
ROOT
HETATM    1  C   UNL     1      65.579   6.673   7.310  1.00  0.00     0.105 A 
HETATM    2  C   UNL     1      66.034   6.412   6.040  1.00  0.00     0.105 A 
HETATM    3  O   UNL     1      64.337   7.230   7.308  1.00  0.00    -0.323 OA
HETATM    4  O   UNL     1      65.138   6.766   5.080  1.00  0.00    -0.323 OA
HETATM    5  C   UNL     1      64.059   7.273   5.892  1.00  0.00     0.352 A 
HETATM    6  C   UNL     1      66.332   6.384   8.428  1.00  0.00     0.047 A 
HETATM    7  C   UNL     1      67.270   5.846   5.814  1.00  0.00     0.040 A 
HETATM    8  C   UNL     1      67.597   5.805   8.240  1.00  0.00    -0.053 A 
HETATM    9  C   UNL     1      68.055   5.540   6.929  1.00  0.00     0.010 A 
ENDROOT
BRANCH   8  10
HETATM   10  C   UNL     1      68.459   5.435   9.425  1.00  0.00     0.064 C 
BRANCH  10  11
HETATM   11  C   UNL     1      68.871   3.961   9.423  1.00  0.00     0.168 C 
BRANCH  11  12
HETATM   12  O   UNL     1      69.704   3.649  10.534  1.00  0.00    -0.401 OA
HETATM   13  H   UNL     1      69.259   2.998  11.099  1.00  0.00     0.209 HD
ENDBRANCH  11  12
ENDBRANCH  10  11
ENDBRANCH   8  10
TORSDOF 3
ENDMDL
