MODEL 1
REMARK VINA RESULT:      -5.1      0.000      0.000
REMARK  6 active torsions:
REMARK  status: ('A' for Active; 'I' for Inactive)
REMARK    1  A    between atoms: N_1  and  C_11 
REMARK    2  A    between atoms: C_2  and  O_9 
REMARK    3  A    between atoms: N_3  and  C_12 
REMARK    4  A    between atoms: C_4  and  C_12 
REMARK    5  A    between atoms: O_9  and  C_10 
REMARK    6  A    between atoms: C_10  and  C_11 
ROOT
HETATM    1  C   UNL     1      66.700   6.503   7.566  1.00  0.00     0.068 A 
HETATM    2  C   UNL     1      68.766   4.909   8.670  1.00  0.00    -0.033 A 
HETATM    3  C   UNL     1      67.312   5.510   6.799  1.00  0.00     0.037 A 
HETATM    4  C   UNL     1      67.096   6.665   8.895  1.00  0.00     0.037 A 
HETATM    5  C   UNL     1      68.331   4.724   7.348  1.00  0.00     0.011 A 
HETATM    6  C   UNL     1      68.111   5.874   9.447  1.00  0.00     0.011 A 
ENDROOT
BRANCH   1   7
HETATM    7  O   UNL     1      65.756   7.393   7.120  1.00  0.00    -0.350 OA
BRANCH   7   8
HETATM    8  C   UNL     1      66.075   8.180   5.963  1.00  0.00     0.203 C 
BRANCH   8   9
HETATM    9  C   UNL     1      64.828   8.295   5.064  1.00  0.00     0.260 C 
BRANCH   9  10
HETATM   10  N   UNL     1      63.571   8.657   5.760  1.00  0.00    -0.077 N 
HETATM   11  C   UNL     1      63.016   9.888   5.190  1.00  0.00     0.269 C 
HETATM   12  C   UNL     1      62.587   7.577   5.754  1.00  0.00     0.269 C 
HETATM   13  H   UNL     1      63.802   8.821   6.740  1.00  0.00     0.279 HD
ENDBRANCH   9  10
ENDBRANCH   8   9
ENDBRANCH   7   8
ENDBRANCH   1   7
BRANCH   2  14
HETATM   14  C   UNL     1      69.957   4.142   9.195  1.00  0.00     0.270 C 
BRANCH  14  15
HETATM   15  N   UNL     1      69.688   3.482  10.472  1.00  0.00    -0.075 N 
HETATM   16  C   UNL     1      69.140   2.149  10.251  1.00  0.00     0.267 C 
HETATM   17  H   UNL     1      69.017   4.036  11.002  1.00  0.00     0.277 HD
HETATM   18  H   UNL     1      70.562   3.398  10.990  1.00  0.00     0.277 HD
ENDBRANCH  14  15
ENDBRANCH   2  14
TORSDOF 6
ENDMDL
MODEL 2
REMARK VINA RESULT:      -4.6      2.610      7.898
REMARK  6 active torsions:
REMARK  status: ('A' for Active; 'I' for Inactive)
REMARK    1  A    between atoms: N_1  and  C_11 
REMARK    2  A    between atoms: C_2  and  O_9 
REMARK    3  A    between atoms: N_3  and  C_12 
REMARK    4  A    between atoms: C_4  and  C_12 
REMARK    5  A    between atoms: O_9  and  C_10 
REMARK    6  A    between atoms: C_10  and  C_11 
ROOT
HETATM    1  C   UNL     1      64.320   8.952   5.130  1.00  0.00     0.068 A 
HETATM    2  C   UNL     1      62.281   8.706   3.178  1.00  0.00    -0.033 A 
HETATM    3  C   UNL     1      63.262   9.864   5.094  1.00  0.00     0.037 A 
HETATM    4  C   UNL     1      64.329   7.898   4.215  1.00  0.00     0.037 A 
HETATM    5  C   UNL     1      62.257   9.738   4.128  1.00  0.00     0.011 A 
HETATM    6  C   UNL     1      63.320   7.767   3.254  1.00  0.00     0.011 A 
ENDROOT
BRANCH   1   7
HETATM    7  O   UNL     1      65.406   9.017   5.965  1.00  0.00    -0.350 OA
BRANCH   7   8
HETATM    8  C   UNL     1      66.330   7.920   5.944  1.00  0.00     0.203 C 
BRANCH   8   9
HETATM    9  C   UNL     1      66.295   7.196   7.306  1.00  0.00     0.260 C 
BRANCH   9  10
HETATM   10  N   UNL     1      67.578   6.600   7.745  1.00  0.00    -0.077 N 
HETATM   11  C   UNL     1      67.527   6.293   9.177  1.00  0.00     0.269 C 
HETATM   12  C   UNL     1      67.956   5.426   6.961  1.00  0.00     0.269 C 
HETATM   13  H   UNL     1      68.308   7.294   7.581  1.00  0.00     0.279 HD
ENDBRANCH   9  10
ENDBRANCH   8   9
ENDBRANCH   7   8
ENDBRANCH   1   7
BRANCH   2  14
HETATM   14  C   UNL     1      61.261   8.670   2.064  1.00  0.00     0.270 C 
BRANCH  14  15
HETATM   15  N   UNL     1      59.929   8.281   2.526  1.00  0.00    -0.075 N 
HETATM   16  C   UNL     1      59.689   6.869   2.257  1.00  0.00     0.267 C 
HETATM   17  H   UNL     1      59.229   8.840   2.039  1.00  0.00     0.277 HD
HETATM   18  H   UNL     1      59.870   8.441   3.531  1.00  0.00     0.277 HD
ENDBRANCH  14  15
ENDBRANCH   2  14
TORSDOF 6
ENDMDL
MODEL 3
REMARK VINA RESULT:      -4.4      1.511      2.186
REMARK  6 active torsions:
REMARK  status: ('A' for Active; 'I' for Inactive)
REMARK    1  A    between atoms: N_1  and  C_11 
REMARK    2  A    between atoms: C_2  and  O_9 
REMARK    3  A    between atoms: N_3  and  C_12 
REMARK    4  A    between atoms: C_4  and  C_12 
REMARK    5  A    between atoms: O_9  and  C_10 
REMARK    6  A    between atoms: C_10  and  C_11 
ROOT
HETATM    1  C   UNL     1      68.077   5.014   7.591  1.00  0.00     0.068 A 
HETATM    2  C   UNL     1      68.764   3.001   9.463  1.00  0.00    -0.033 A 
HETATM    3  C   UNL     1      67.841   3.668   7.301  1.00  0.00     0.037 A 
HETATM    4  C   UNL     1      68.617   5.347   8.834  1.00  0.00     0.037 A 
HETATM    5  C   UNL     1      68.181   2.677   8.228  1.00  0.00     0.011 A 
HETATM    6  C   UNL     1      68.951   4.357   9.766  1.00  0.00     0.011 A 
ENDROOT
BRANCH   1   7
HETATM    7  O   UNL     1      67.871   6.066   6.736  1.00  0.00    -0.350 OA
BRANCH   7   8
HETATM    8  C   UNL     1      66.986   7.111   7.165  1.00  0.00     0.203 C 
BRANCH   8   9
HETATM    9  C   UNL     1      65.531   6.600   7.116  1.00  0.00     0.260 C 
BRANCH   9  10
HETATM   10  N   UNL     1      64.545   7.539   6.533  1.00  0.00    -0.077 N 
HETATM   11  C   UNL     1      65.137   8.250   5.396  1.00  0.00     0.269 C 
HETATM   12  C   UNL     1      63.292   6.886   6.159  1.00  0.00     0.269 C 
HETATM   13  H   UNL     1      64.304   8.216   7.257  1.00  0.00     0.279 HD
ENDBRANCH   9  10
ENDBRANCH   8   9
ENDBRANCH   7   8
ENDBRANCH   1   7
BRANCH   2  14
HETATM   14  C   UNL     1      69.246   1.909  10.389  1.00  0.00     0.270 C 
BRANCH  14  15
HETATM   15  N   UNL     1      70.620   1.493  10.109  1.00  0.00    -0.075 N 
HETATM   16  C   UNL     1      70.658   0.089   9.718  1.00  0.00     0.267 C 
HETATM   17  H   UNL     1      71.188   1.623  10.947  1.00  0.00     0.277 HD
HETATM   18  H   UNL     1      70.986   2.059   9.345  1.00  0.00     0.277 HD
ENDBRANCH  14  15
ENDBRANCH   2  14
TORSDOF 6
ENDMDL
MODEL 4
REMARK VINA RESULT:      -4.1      1.643      7.011
REMARK  6 active torsions:
REMARK  status: ('A' for Active; 'I' for Inactive)
REMARK    1  A    between atoms: N_1  and  C_11 
REMARK    2  A    between atoms: C_2  and  O_9 
REMARK    3  A    between atoms: N_3  and  C_12 
REMARK    4  A    between atoms: C_4  and  C_12 
REMARK    5  A    between atoms: O_9  and  C_10 
REMARK    6  A    between atoms: C_10  and  C_11 
ROOT
HETATM    1  C   UNL     1      66.455   5.157   7.867  1.00  0.00     0.068 A 
HETATM    2  C   UNL     1      65.812   7.160   5.968  1.00  0.00    -0.033 A 
HETATM    3  C   UNL     1      65.747   4.831   6.708  1.00  0.00     0.037 A 
HETATM    4  C   UNL     1      66.874   6.476   8.049  1.00  0.00     0.037 A 
HETATM    5  C   UNL     1      65.432   5.822   5.772  1.00  0.00     0.011 A 
HETATM    6  C   UNL     1      66.565   7.468   7.109  1.00  0.00     0.011 A 
ENDROOT
BRANCH   1   7
HETATM    7  O   UNL     1      66.747   4.299   8.896  1.00  0.00    -0.350 OA
BRANCH   7   8
HETATM    8  C   UNL     1      67.727   3.279   8.657  1.00  0.00     0.203 C 
BRANCH   8   9
HETATM    9  C   UNL     1      68.827   3.364   9.734  1.00  0.00     0.260 C 
BRANCH   9  10
HETATM   10  N   UNL     1      69.044   2.129  10.524  1.00  0.00    -0.077 N 
HETATM   11  C   UNL     1      67.776   1.414  10.697  1.00  0.00     0.269 C 
HETATM   12  C   UNL     1      70.071   1.262   9.952  1.00  0.00     0.269 C 
HETATM   13  H   UNL     1      69.392   2.411  11.441  1.00  0.00     0.279 HD
ENDBRANCH   9  10
ENDBRANCH   8   9
ENDBRANCH   7   8
ENDBRANCH   1   7
BRANCH   2  14
HETATM   14  C   UNL     1      65.344   8.233   5.013  1.00  0.00     0.270 C 
BRANCH  14  15
HETATM   15  N   UNL     1      64.394   9.161   5.625  1.00  0.00    -0.075 N 
HETATM   16  C   UNL     1      63.025   8.762   5.321  1.00  0.00     0.267 C 
HETATM   17  H   UNL     1      64.558  10.099   5.260  1.00  0.00     0.277 HD
HETATM   18  H   UNL     1      64.525   9.148   6.635  1.00  0.00     0.277 HD
ENDBRANCH  14  15
ENDBRANCH   2  14
TORSDOF 6
ENDMDL
MODEL 5
REMARK VINA RESULT:      -4.1      1.686      2.489
REMARK  6 active torsions:
REMARK  status: ('A' for Active; 'I' for Inactive)
REMARK    1  A    between atoms: N_1  and  C_11 
REMARK    2  A    between atoms: C_2  and  O_9 
REMARK    3  A    between atoms: N_3  and  C_12 
REMARK    4  A    between atoms: C_4  and  C_12 
REMARK    5  A    between atoms: O_9  and  C_10 
REMARK    6  A    between atoms: C_10  and  C_11 
ROOT
HETATM    1  C   UNL     1      65.209   7.100   6.390  1.00  0.00     0.068 A 
HETATM    2  C   UNL     1      67.219   5.226   7.079  1.00  0.00    -0.033 A 
HETATM    3  C   UNL     1      66.554   7.477   6.398  1.00  0.00     0.037 A 
HETATM    4  C   UNL     1      64.881   5.776   6.686  1.00  0.00     0.037 A 
HETATM    5  C   UNL     1      67.544   6.548   6.738  1.00  0.00     0.011 A 
HETATM    6  C   UNL     1      65.871   4.844   7.019  1.00  0.00     0.011 A 
ENDROOT
BRANCH   1   7
HETATM    7  O   UNL     1      64.145   7.934   6.162  1.00  0.00    -0.350 OA
BRANCH   7   8
HETATM    8  C   UNL     1      64.226   8.829   5.043  1.00  0.00     0.203 C 
BRANCH   8   9
HETATM    9  C   UNL     1      63.055   9.831   5.104  1.00  0.00     0.260 C 
BRANCH   9  10
HETATM   10  N   UNL     1      62.101   9.768   3.972  1.00  0.00    -0.077 N 
HETATM   11  C   UNL     1      61.915  11.102   3.395  1.00  0.00     0.269 C 
HETATM   12  C   UNL     1      62.494   8.797   2.953  1.00  0.00     0.269 C 
HETATM   13  H   UNL     1      61.209   9.440   4.343  1.00  0.00     0.279 HD
ENDBRANCH   9  10
ENDBRANCH   8   9
ENDBRANCH   7   8
ENDBRANCH   1   7
BRANCH   2  14
HETATM   14  C   UNL     1      68.289   4.281   7.573  1.00  0.00     0.270 C 
BRANCH  14  15
HETATM   15  N   UNL     1      69.292   4.944   8.406  1.00  0.00    -0.075 N 
HETATM   16  C   UNL     1      69.809   4.023   9.411  1.00  0.00     0.267 C 
HETATM   17  H   UNL     1      68.864   5.744   8.873  1.00  0.00     0.277 HD
HETATM   18  H   UNL     1      70.061   5.252   7.813  1.00  0.00     0.277 HD
ENDBRANCH  14  15
ENDBRANCH   2  14
TORSDOF 6
ENDMDL
MODEL 6
REMARK VINA RESULT:      -4.1      1.846      7.372
REMARK  6 active torsions:
REMARK  status: ('A' for Active; 'I' for Inactive)
REMARK    1  A    between atoms: N_1  and  C_11 
REMARK    2  A    between atoms: C_2  and  O_9 
REMARK    3  A    between atoms: N_3  and  C_12 
REMARK    4  A    between atoms: C_4  and  C_12 
REMARK    5  A    between atoms: O_9  and  C_10 
REMARK    6  A    between atoms: C_10  and  C_11 
ROOT
HETATM    1  C   UNL     1      66.003   7.111   5.191  1.00  0.00     0.068 A 
HETATM    2  C   UNL     1      63.738   8.241   3.919  1.00  0.00    -0.033 A 
HETATM    3  C   UNL     1      65.396   6.457   4.116  1.00  0.00     0.037 A 
HETATM    4  C   UNL     1      65.498   8.347   5.596  1.00  0.00     0.037 A 
HETATM    5  C   UNL     1      64.278   7.018   3.490  1.00  0.00     0.011 A 
HETATM    6  C   UNL     1      64.384   8.914   4.966  1.00  0.00     0.011 A 
ENDROOT
BRANCH   1   7
HETATM    7  O   UNL     1      67.044   6.625   5.941  1.00  0.00    -0.350 OA
BRANCH   7   8
HETATM    8  C   UNL     1      66.949   6.742   7.368  1.00  0.00     0.203 C 
BRANCH   8   9
HETATM    9  C   UNL     1      66.659   5.354   7.976  1.00  0.00     0.260 C 
BRANCH   9  10
HETATM   10  N   UNL     1      67.710   4.819   8.874  1.00  0.00    -0.077 N 
HETATM   11  C   UNL     1      67.716   3.354   8.825  1.00  0.00     0.269 C 
HETATM   12  C   UNL     1      69.034   5.367   8.588  1.00  0.00     0.269 C 
HETATM   13  H   UNL     1      67.481   5.117   9.822  1.00  0.00     0.279 HD
ENDBRANCH   9  10
ENDBRANCH   8   9
ENDBRANCH   7   8
ENDBRANCH   1   7
BRANCH   2  14
HETATM   14  C   UNL     1      62.453   8.759   3.318  1.00  0.00     0.270 C 
BRANCH  14  15
HETATM   15  N   UNL     1      61.923   9.924   4.027  1.00  0.00    -0.075 N 
HETATM   16  C   UNL     1      61.852  11.075   3.134  1.00  0.00     0.267 C 
HETATM   17  H   UNL     1      62.535  10.145   4.812  1.00  0.00     0.277 HD
HETATM   18  H   UNL     1      60.985   9.707   4.361  1.00  0.00     0.277 HD
ENDBRANCH  14  15
ENDBRANCH   2  14
TORSDOF 6
ENDMDL
MODEL 7
REMARK VINA RESULT:      -4.0      2.900      4.291
REMARK  6 active torsions:
REMARK  status: ('A' for Active; 'I' for Inactive)
REMARK    1  A    between atoms: N_1  and  C_11 
REMARK    2  A    between atoms: C_2  and  O_9 
REMARK    3  A    between atoms: N_3  and  C_12 
REMARK    4  A    between atoms: C_4  and  C_12 
REMARK    5  A    between atoms: O_9  and  C_10 
REMARK    6  A    between atoms: C_10  and  C_11 
ROOT
HETATM    1  C   UNL     1      63.782   8.143   5.464  1.00  0.00     0.068 A 
HETATM    2  C   UNL     1      66.025   6.595   6.240  1.00  0.00    -0.033 A 
HETATM    3  C   UNL     1      65.060   8.470   5.004  1.00  0.00     0.037 A 
HETATM    4  C   UNL     1      63.629   7.018   6.277  1.00  0.00     0.037 A 
HETATM    5  C   UNL     1      66.165   7.703   5.389  1.00  0.00     0.011 A 
HETATM    6  C   UNL     1      64.733   6.245   6.656  1.00  0.00     0.011 A 
ENDROOT
BRANCH   1   7
HETATM    7  O   UNL     1      62.638   8.863   5.232  1.00  0.00    -0.350 OA
BRANCH   7   8
HETATM    8  C   UNL     1      62.440   9.393   3.914  1.00  0.00     0.203 C 
BRANCH   8   9
HETATM    9  C   UNL     1      61.462   8.485   3.140  1.00  0.00     0.260 C 
BRANCH   9  10
HETATM   10  N   UNL     1      61.010   9.007   1.829  1.00  0.00    -0.077 N 
HETATM   11  C   UNL     1      62.164   9.253   0.959  1.00  0.00     0.269 C 
HETATM   12  C   UNL     1      60.030   8.138   1.179  1.00  0.00     0.269 C 
HETATM   13  H   UNL     1      60.531   9.891   2.001  1.00  0.00     0.279 HD
ENDBRANCH   9  10
ENDBRANCH   8   9
ENDBRANCH   7   8
ENDBRANCH   1   7
BRANCH   2  14
HETATM   14  C   UNL     1      67.246   5.866   6.750  1.00  0.00     0.270 C 
BRANCH  14  15
HETATM   15  N   UNL     1      67.968   6.616   7.777  1.00  0.00    -0.075 N 
HETATM   16  C   UNL     1      67.973   5.882   9.036  1.00  0.00     0.267 C 
HETATM   17  H   UNL     1      67.513   7.518   7.916  1.00  0.00     0.277 HD
HETATM   18  H   UNL     1      68.931   6.751   7.470  1.00  0.00     0.277 HD
ENDBRANCH  14  15
ENDBRANCH   2  14
TORSDOF 6
ENDMDL
MODEL 8
REMARK VINA RESULT:      -4.0      2.541      7.649
REMARK  6 active torsions:
REMARK  status: ('A' for Active; 'I' for Inactive)
REMARK    1  A    between atoms: N_1  and  C_11 
REMARK    2  A    between atoms: C_2  and  O_9 
REMARK    3  A    between atoms: N_3  and  C_12 
REMARK    4  A    between atoms: C_4  and  C_12 
REMARK    5  A    between atoms: O_9  and  C_10 
REMARK    6  A    between atoms: C_10  and  C_11 
ROOT
HETATM    1  C   UNL     1      65.683   7.202   4.530  1.00  0.00     0.068 A 
HETATM    2  C   UNL     1      63.274   8.587   3.979  1.00  0.00    -0.033 A 
HETATM    3  C   UNL     1      65.329   8.329   5.276  1.00  0.00     0.037 A 
HETATM    4  C   UNL     1      64.809   6.750   3.541  1.00  0.00     0.037 A 
HETATM    5  C   UNL     1      64.138   9.011   5.001  1.00  0.00     0.011 A 
HETATM    6  C   UNL     1      63.613   7.426   3.270  1.00  0.00     0.011 A 
ENDROOT
BRANCH   1   7
HETATM    7  O   UNL     1      66.858   6.504   4.642  1.00  0.00    -0.350 OA
BRANCH   7   8
HETATM    8  C   UNL     1      67.781   6.910   5.663  1.00  0.00     0.203 C 
BRANCH   8   9
HETATM    9  C   UNL     1      67.691   5.933   6.853  1.00  0.00     0.260 C 
BRANCH   9  10
HETATM   10  N   UNL     1      67.371   4.529   6.502  1.00  0.00    -0.077 N 
HETATM   11  C   UNL     1      68.482   3.651   6.877  1.00  0.00     0.269 C 
HETATM   12  C   UNL     1      66.111   4.072   7.083  1.00  0.00     0.269 C 
HETATM   13  H   UNL     1      67.245   4.489   5.491  1.00  0.00     0.279 HD
ENDBRANCH   9  10
ENDBRANCH   8   9
ENDBRANCH   7   8
ENDBRANCH   1   7
BRANCH   2  14
HETATM   14  C   UNL     1      62.064   9.415   3.612  1.00  0.00     0.270 C 
BRANCH  14  15
HETATM   15  N   UNL     1      62.089   9.872   2.223  1.00  0.00    -0.075 N 
HETATM   16  C   UNL     1      61.805  11.300   2.151  1.00  0.00     0.267 C 
HETATM   17  H   UNL     1      61.385   9.362   1.689  1.00  0.00     0.277 HD
HETATM   18  H   UNL     1      63.017   9.700   1.837  1.00  0.00     0.277 HD
ENDBRANCH  14  15
ENDBRANCH   2  14
TORSDOF 6
ENDMDL
MODEL 9
REMARK VINA RESULT:      -3.9      3.212      7.731
REMARK  6 active torsions:
REMARK  status: ('A' for Active; 'I' for Inactive)
REMARK    1  A    between atoms: N_1  and  C_11 
REMARK    2  A    between atoms: C_2  and  O_9 
REMARK    3  A    between atoms: N_3  and  C_12 
REMARK    4  A    between atoms: C_4  and  C_12 
REMARK    5  A    between atoms: O_9  and  C_10 
REMARK    6  A    between atoms: C_10  and  C_11 
ROOT
HETATM    1  C   UNL     1      69.209   3.228   8.670  1.00  0.00     0.068 A 
HETATM    2  C   UNL     1      67.992   5.528   7.549  1.00  0.00    -0.033 A 
HETATM    3  C   UNL     1      68.738   3.209   7.356  1.00  0.00     0.037 A 
HETATM    4  C   UNL     1      69.106   4.412   9.403  1.00  0.00     0.037 A 
HETATM    5  C   UNL     1      68.139   4.347   6.805  1.00  0.00     0.011 A 
HETATM    6  C   UNL     1      68.513   5.554   8.850  1.00  0.00     0.011 A 
ENDROOT
BRANCH   1   7
HETATM    7  O   UNL     1      69.733   2.159   9.350  1.00  0.00    -0.350 OA
BRANCH   7   8
HETATM    8  C   UNL     1      68.828   1.129   9.774  1.00  0.00     0.203 C 
BRANCH   8   9
HETATM    9  C   UNL     1      69.445  -0.251   9.470  1.00  0.00     0.260 C 
BRANCH   9  10
HETATM   10  N   UNL     1      70.851  -0.232   9.001  1.00  0.00    -0.077 N 
HETATM   11  C   UNL     1      71.754  -0.568  10.105  1.00  0.00     0.269 C 
HETATM   12  C   UNL     1      71.076  -1.098   7.846  1.00  0.00     0.269 C 
HETATM   13  H   UNL     1      71.053   0.717   8.685  1.00  0.00     0.279 HD
ENDBRANCH   9  10
ENDBRANCH   8   9
ENDBRANCH   7   8
ENDBRANCH   1   7
BRANCH   2  14
HETATM   14  C   UNL     1      67.222   6.697   6.980  1.00  0.00     0.270 C 
BRANCH  14  15
HETATM   15  N   UNL     1      68.031   7.534   6.096  1.00  0.00    -0.075 N 
HETATM   16  C   UNL     1      67.418   7.622   4.776  1.00  0.00     0.267 C 
HETATM   17  H   UNL     1      68.962   7.127   6.007  1.00  0.00     0.277 HD
HETATM   18  H   UNL     1      68.093   8.470   6.494  1.00  0.00     0.277 HD
ENDBRANCH  14  15
ENDBRANCH   2  14
TORSDOF 6
ENDMDL
