MODEL 1
REMARK VINA RESULT:      -5.0      0.000      0.000
REMARK  3 active torsions:
REMARK  status: ('A' for Active; 'I' for Inactive)
REMARK    1  A    between atoms: C_1  and  N_3 
REMARK    2  A    between atoms: C_5  and  C_10 
REMARK    3  A    between atoms: C_10  and  O_11 
ROOT
HETATM    1  C   UNL     1      68.325   5.129   7.982  1.00  0.00     0.072 A 
HETATM    2  S   UNL     1      67.588   3.659   8.508  1.00  0.00    -0.075 SA
HETATM    3  C   UNL     1      69.561   5.262   8.596  1.00  0.00     0.038 A 
HETATM    4  C   UNL     1      68.919   3.220   9.487  1.00  0.00     0.008 A 
HETATM    5  C   UNL     1      69.908   4.174   9.443  1.00  0.00     0.019 A 
ENDROOT
BRANCH   1   6
HETATM    6  N   UNL     1      67.743   6.030   7.123  1.00  0.00    -0.371 N 
HETATM    7  C   UNL     1      66.740   7.008   7.588  1.00  0.00     0.149 C 
HETATM    8  C   UNL     1      66.694   8.205   6.621  1.00  0.00     0.187 C 
HETATM    9  O   UNL     1      66.439   7.793   5.268  1.00  0.00    -0.388 OA
HETATM   10  C   UNL     1      67.463   6.885   4.831  1.00  0.00     0.187 C 
HETATM   11  C   UNL     1      67.511   5.633   5.717  1.00  0.00     0.149 C 
ENDBRANCH   1   6
BRANCH   4  12
HETATM   12  C   UNL     1      68.912   1.940  10.250  1.00  0.00     0.210 C 
BRANCH  12  13
HETATM   13  O   UNL     1      69.827   2.084  11.327  1.00  0.00    -0.396 OA
HETATM   14  H   UNL     1      70.082   3.016  11.413  1.00  0.00     0.209 HD
ENDBRANCH  12  13
ENDBRANCH   4  12
TORSDOF 3
ENDMDL
MODEL 2
REMARK VINA RESULT:      -4.4      1.851      5.844
REMARK  3 active torsions:
REMARK  status: ('A' for Active; 'I' for Inactive)
REMARK    1  A    between atoms: C_1  and  N_3 
REMARK    2  A    between atoms: C_5  and  C_10 
REMARK    3  A    between atoms: C_10  and  O_11 
ROOT
HETATM    1  C   UNL     1      67.333   6.103   6.904  1.00  0.00     0.072 A 
HETATM    2  S   UNL     1      65.703   6.671   6.990  1.00  0.00    -0.075 SA
HETATM    3  C   UNL     1      67.969   6.715   5.835  1.00  0.00     0.038 A 
HETATM    4  C   UNL     1      65.890   7.726   5.659  1.00  0.00     0.008 A 
HETATM    5  C   UNL     1      67.157   7.647   5.132  1.00  0.00     0.019 A 
ENDROOT
BRANCH   1   6
HETATM    6  N   UNL     1      67.877   5.164   7.746  1.00  0.00    -0.371 N 
HETATM    7  C   UNL     1      67.059   4.085   8.335  1.00  0.00     0.149 C 
HETATM    8  C   UNL     1      67.965   2.905   8.732  1.00  0.00     0.187 C 
HETATM    9  O   UNL     1      69.020   3.311   9.619  1.00  0.00    -0.388 OA
HETATM   10  C   UNL     1      69.826   4.322   8.992  1.00  0.00     0.187 C 
HETATM   11  C   UNL     1      68.990   5.558   8.637  1.00  0.00     0.149 C 
ENDBRANCH   1   6
BRANCH   4  12
HETATM   12  C   UNL     1      64.761   8.587   5.206  1.00  0.00     0.210 C 
BRANCH  12  13
HETATM   13  O   UNL     1      64.874   9.828   5.890  1.00  0.00    -0.396 OA
HETATM   14  H   UNL     1      64.273  10.474   5.489  1.00  0.00     0.209 HD
ENDBRANCH  12  13
ENDBRANCH   4  12
TORSDOF 3
ENDMDL
MODEL 3
REMARK VINA RESULT:      -4.4      7.643      8.896
REMARK  3 active torsions:
REMARK  status: ('A' for Active; 'I' for Inactive)
REMARK    1  A    between atoms: C_1  and  N_3 
REMARK    2  A    between atoms: C_5  and  C_10 
REMARK    3  A    between atoms: C_10  and  O_11 
ROOT
HETATM    1  C   UNL     1      62.701   8.870   3.267  1.00  0.00     0.072 A 
HETATM    2  S   UNL     1      63.369   9.061   4.848  1.00  0.00    -0.075 SA
HETATM    3  C   UNL     1      62.018  10.027   2.922  1.00  0.00     0.038 A 
HETATM    4  C   UNL     1      62.785  10.658   5.017  1.00  0.00     0.008 A 
HETATM    5  C   UNL     1      62.073  11.049   3.908  1.00  0.00     0.019 A 
ENDROOT
BRANCH   1   6
HETATM    6  N   UNL     1      62.807   7.730   2.507  1.00  0.00    -0.371 N 
HETATM    7  C   UNL     1      63.881   6.743   2.735  1.00  0.00     0.149 C 
HETATM    8  C   UNL     1      63.449   5.370   2.188  1.00  0.00     0.187 C 
HETATM    9  O   UNL     1      63.080   5.437   0.801  1.00  0.00    -0.388 OA
HETATM   10  C   UNL     1      61.999   6.365   0.625  1.00  0.00     0.187 C 
HETATM   11  C   UNL     1      62.394   7.773   1.088  1.00  0.00     0.149 C 
ENDBRANCH   1   6
BRANCH   4  12
HETATM   12  C   UNL     1      63.069  11.445   6.250  1.00  0.00     0.210 C 
BRANCH  12  13
HETATM   13  O   UNL     1      64.479  11.470   6.421  1.00  0.00    -0.396 OA
HETATM   14  H   UNL     1      64.692  11.421   7.366  1.00  0.00     0.209 HD
ENDBRANCH  12  13
ENDBRANCH   4  12
TORSDOF 3
ENDMDL
MODEL 4
REMARK VINA RESULT:      -4.3      4.527      8.016
REMARK  3 active torsions:
REMARK  status: ('A' for Active; 'I' for Inactive)
REMARK    1  A    between atoms: C_1  and  N_3 
REMARK    2  A    between atoms: C_5  and  C_10 
REMARK    3  A    between atoms: C_10  and  O_11 
ROOT
HETATM    1  C   UNL     1      63.989   8.099   4.853  1.00  0.00     0.072 A 
HETATM    2  S   UNL     1      63.451   9.713   5.156  1.00  0.00    -0.075 SA
HETATM    3  C   UNL     1      63.439   7.655   3.661  1.00  0.00     0.038 A 
HETATM    4  C   UNL     1      62.554   9.798   3.704  1.00  0.00     0.008 A 
HETATM    5  C   UNL     1      62.633   8.621   2.998  1.00  0.00     0.019 A 
ENDROOT
BRANCH   1   6
HETATM    6  N   UNL     1      64.798   7.376   5.696  1.00  0.00    -0.371 N 
HETATM    7  C   UNL     1      66.124   7.873   6.114  1.00  0.00     0.149 C 
HETATM    8  C   UNL     1      66.539   7.198   7.434  1.00  0.00     0.187 C 
HETATM    9  O   UNL     1      66.521   5.765   7.335  1.00  0.00    -0.388 OA
HETATM   10  C   UNL     1      65.204   5.314   6.979  1.00  0.00     0.187 C 
HETATM   11  C   UNL     1      64.761   5.899   5.631  1.00  0.00     0.149 C 
ENDBRANCH   1   6
BRANCH   4  12
HETATM   12  C   UNL     1      61.816  11.040   3.339  1.00  0.00     0.210 C 
BRANCH  12  13
HETATM   13  O   UNL     1      62.133  12.023   4.314  1.00  0.00    -0.396 OA
HETATM   14  H   UNL     1      61.484  12.743   4.270  1.00  0.00     0.209 HD
ENDBRANCH  12  13
ENDBRANCH   4  12
TORSDOF 3
ENDMDL
MODEL 5
REMARK VINA RESULT:      -4.3      1.662      5.646
REMARK  3 active torsions:
REMARK  status: ('A' for Active; 'I' for Inactive)
REMARK    1  A    between atoms: C_1  and  N_3 
REMARK    2  A    between atoms: C_5  and  C_10 
REMARK    3  A    between atoms: C_10  and  O_11 
ROOT
HETATM    1  C   UNL     1      67.929   4.810   8.263  1.00  0.00     0.072 A 
HETATM    2  S   UNL     1      67.583   5.223   6.622  1.00  0.00    -0.075 SA
HETATM    3  C   UNL     1      67.557   5.864   9.083  1.00  0.00     0.038 A 
HETATM    4  C   UNL     1      66.922   6.744   7.034  1.00  0.00     0.008 A 
HETATM    5  C   UNL     1      66.974   6.961   8.391  1.00  0.00     0.019 A 
ENDROOT
BRANCH   1   6
HETATM    6  N   UNL     1      68.517   3.634   8.664  1.00  0.00    -0.371 N 
HETATM    7  C   UNL     1      69.377   3.568   9.862  1.00  0.00     0.149 C 
HETATM    8  C   UNL     1      69.420   2.122  10.390  1.00  0.00     0.187 C 
HETATM    9  O   UNL     1      69.848   1.193   9.381  1.00  0.00    -0.388 OA
HETATM   10  C   UNL     1      68.959   1.247   8.255  1.00  0.00     0.187 C 
HETATM   11  C   UNL     1      68.928   2.652   7.638  1.00  0.00     0.149 C 
ENDBRANCH   1   6
BRANCH   4  12
HETATM   12  C   UNL     1      66.379   7.648   5.981  1.00  0.00     0.210 C 
BRANCH  12  13
HETATM   13  O   UNL     1      66.241   8.938   6.561  1.00  0.00    -0.396 OA
HETATM   14  H   UNL     1      66.201   9.606   5.859  1.00  0.00     0.209 HD
ENDBRANCH  12  13
ENDBRANCH   4  12
TORSDOF 3
ENDMDL
MODEL 6
REMARK VINA RESULT:      -4.1      5.111      6.867
REMARK  3 active torsions:
REMARK  status: ('A' for Active; 'I' for Inactive)
REMARK    1  A    between atoms: C_1  and  N_3 
REMARK    2  A    between atoms: C_5  and  C_10 
REMARK    3  A    between atoms: C_10  and  O_11 
ROOT
HETATM    1  C   UNL     1      63.428   8.215   4.650  1.00  0.00     0.072 A 
HETATM    2  S   UNL     1      65.071   8.438   5.134  1.00  0.00    -0.075 SA
HETATM    3  C   UNL     1      62.860   7.216   5.424  1.00  0.00     0.038 A 
HETATM    4  C   UNL     1      64.978   7.257   6.365  1.00  0.00     0.008 A 
HETATM    5  C   UNL     1      63.733   6.676   6.408  1.00  0.00     0.019 A 
ENDROOT
BRANCH   1   6
HETATM    6  N   UNL     1      62.816   8.900   3.628  1.00  0.00    -0.371 N 
HETATM    7  C   UNL     1      61.973  10.084   3.885  1.00  0.00     0.149 C 
HETATM    8  C   UNL     1      61.901  10.956   2.618  1.00  0.00     0.187 C 
HETATM    9  O   UNL     1      61.433  10.213   1.481  1.00  0.00    -0.388 OA
HETATM   10  C   UNL     1      62.307   9.101   1.228  1.00  0.00     0.187 C 
HETATM   11  C   UNL     1      62.365   8.154   2.434  1.00  0.00     0.149 C 
ENDBRANCH   1   6
BRANCH   4  12
HETATM   12  C   UNL     1      66.156   6.969   7.233  1.00  0.00     0.210 C 
BRANCH  12  13
HETATM   13  O   UNL     1      66.883   8.181   7.375  1.00  0.00    -0.396 OA
HETATM   14  H   UNL     1      67.474   8.115   8.141  1.00  0.00     0.209 HD
ENDBRANCH  12  13
ENDBRANCH   4  12
TORSDOF 3
ENDMDL
MODEL 7
REMARK VINA RESULT:      -4.0      3.883      5.161
REMARK  3 active torsions:
REMARK  status: ('A' for Active; 'I' for Inactive)
REMARK    1  A    between atoms: C_1  and  N_3 
REMARK    2  A    between atoms: C_5  and  C_10 
REMARK    3  A    between atoms: C_10  and  O_11 
ROOT
HETATM    1  C   UNL     1      65.070   7.808   5.256  1.00  0.00     0.072 A 
HETATM    2  S   UNL     1      64.927   6.785   6.640  1.00  0.00    -0.075 SA
HETATM    3  C   UNL     1      66.414   8.001   4.972  1.00  0.00     0.038 A 
HETATM    4  C   UNL     1      66.617   6.590   6.801  1.00  0.00     0.008 A 
HETATM    5  C   UNL     1      67.296   7.301   5.841  1.00  0.00     0.019 A 
ENDROOT
BRANCH   1   6
HETATM    6  N   UNL     1      64.009   8.366   4.584  1.00  0.00    -0.371 N 
HETATM    7  C   UNL     1      63.054   9.268   5.256  1.00  0.00     0.149 C 
HETATM    8  C   UNL     1      62.360  10.162   4.212  1.00  0.00     0.187 C 
HETATM    9  O   UNL     1      61.720   9.388   3.184  1.00  0.00    -0.388 OA
HETATM   10  C   UNL     1      62.688   8.563   2.516  1.00  0.00     0.187 C 
HETATM   11  C   UNL     1      63.365   7.597   3.497  1.00  0.00     0.149 C 
ENDBRANCH   1   6
BRANCH   4  12
HETATM   12  C   UNL     1      67.184   5.732   7.880  1.00  0.00     0.210 C 
BRANCH  12  13
HETATM   13  O   UNL     1      68.396   6.336   8.308  1.00  0.00    -0.396 OA
HETATM   14  H   UNL     1      68.266   7.292   8.401  1.00  0.00     0.209 HD
ENDBRANCH  12  13
ENDBRANCH   4  12
TORSDOF 3
ENDMDL
MODEL 8
REMARK VINA RESULT:      -3.6     22.085     23.762
REMARK  3 active torsions:
REMARK  status: ('A' for Active; 'I' for Inactive)
REMARK    1  A    between atoms: C_1  and  N_3 
REMARK    2  A    between atoms: C_5  and  C_10 
REMARK    3  A    between atoms: C_10  and  O_11 
ROOT
HETATM    1  C   UNL     1      48.915  16.929   2.838  1.00  0.00     0.072 A 
HETATM    2  S   UNL     1      48.306  18.544   2.890  1.00  0.00    -0.075 SA
HETATM    3  C   UNL     1      49.886  16.843   1.852  1.00  0.00     0.038 A 
HETATM    4  C   UNL     1      49.354  19.091   1.657  1.00  0.00     0.008 A 
HETATM    5  C   UNL     1      50.147  18.072   1.186  1.00  0.00     0.019 A 
ENDROOT
BRANCH   1   6
HETATM    6  N   UNL     1      48.465  15.899   3.629  1.00  0.00    -0.371 N 
HETATM    7  C   UNL     1      47.027  15.590   3.755  1.00  0.00     0.149 C 
HETATM    8  C   UNL     1      46.847  14.125   4.193  1.00  0.00     0.187 C 
HETATM    9  O   UNL     1      47.556  13.837   5.408  1.00  0.00    -0.388 OA
HETATM   10  C   UNL     1      48.958  14.098   5.232  1.00  0.00     0.187 C 
HETATM   11  C   UNL     1      49.208  15.566   4.863  1.00  0.00     0.149 C 
ENDBRANCH   1   6
BRANCH   4  12
HETATM   12  C   UNL     1      49.336  20.516   1.220  1.00  0.00     0.210 C 
BRANCH  12  13
HETATM   13  O   UNL     1      50.338  21.199   1.962  1.00  0.00    -0.396 OA
HETATM   14  H   UNL     1      50.059  22.115   2.116  1.00  0.00     0.209 HD
ENDBRANCH  12  13
ENDBRANCH   4  12
TORSDOF 3
ENDMDL
MODEL 9
REMARK VINA RESULT:      -3.6      7.527     10.396
REMARK  3 active torsions:
REMARK  status: ('A' for Active; 'I' for Inactive)
REMARK    1  A    between atoms: C_1  and  N_3 
REMARK    2  A    between atoms: C_5  and  C_10 
REMARK    3  A    between atoms: C_10  and  O_11 
ROOT
HETATM    1  C   UNL     1      69.912   9.725   0.125  1.00  0.00     0.072 A 
HETATM    2  S   UNL     1      70.241   8.586  -1.131  1.00  0.00    -0.075 SA
HETATM    3  C   UNL     1      69.026  10.679  -0.350  1.00  0.00     0.038 A 
HETATM    4  C   UNL     1      69.187   9.346  -2.240  1.00  0.00     0.008 A 
HETATM    5  C   UNL     1      68.603  10.462  -1.690  1.00  0.00     0.019 A 
ENDROOT
BRANCH   1   6
HETATM    6  N   UNL     1      70.482   9.694   1.375  1.00  0.00    -0.371 N 
HETATM    7  C   UNL     1      69.710  10.028   2.588  1.00  0.00     0.149 C 
HETATM    8  C   UNL     1      70.371   9.383   3.819  1.00  0.00     0.187 C 
HETATM    9  O   UNL     1      71.750   9.764   3.951  1.00  0.00    -0.388 OA
HETATM   10  C   UNL     1      72.481   9.375   2.777  1.00  0.00     0.187 C 
HETATM   11  C   UNL     1      71.911  10.046   1.520  1.00  0.00     0.149 C 
ENDBRANCH   1   6
BRANCH   4  12
HETATM   12  C   UNL     1      68.993   8.789  -3.609  1.00  0.00     0.210 C 
BRANCH  12  13
HETATM   13  O   UNL     1      67.824   7.981  -3.575  1.00  0.00    -0.396 OA
HETATM   14  H   UNL     1      67.666   7.604  -4.454  1.00  0.00     0.209 HD
ENDBRANCH  12  13
ENDBRANCH   4  12
TORSDOF 3
ENDMDL
