MODEL 1
REMARK VINA RESULT:      -5.6      0.000      0.000
REMARK  4 active torsions:
REMARK  status: ('A' for Active; 'I' for Inactive)
REMARK    1  A    between atoms: O_1  and  C_2 
REMARK    2  A    between atoms: O_1  and  C_4 
REMARK    3  A    between atoms: N_3  and  C_10 
REMARK    4  A    between atoms: C_5  and  C_10 
ROOT
HETATM    1  C   UNL     1      63.901   8.031   5.593  1.00  0.00     0.076 A 
HETATM    2  C   UNL     1      66.306   6.688   6.164  1.00  0.00    -0.033 A 
HETATM    3  C   UNL     1      65.124   8.598   5.234  1.00  0.00     0.038 A 
HETATM    4  C   UNL     1      63.883   6.836   6.312  1.00  0.00     0.038 A 
HETATM    5  C   UNL     1      65.078   6.168   6.598  1.00  0.00     0.011 A 
HETATM    6  C   UNL     1      66.314   7.914   5.478  1.00  0.00     0.011 A 
ENDROOT
BRANCH   1   7
HETATM    7  O   UNL     1      62.673   8.598   5.329  1.00  0.00    -0.311 OA
BRANCH   7   8
HETATM    8  C   UNL     1      62.432   9.176   4.102  1.00  0.00     0.076 A 
HETATM    9  C   UNL     1      62.429   8.486   2.886  1.00  0.00     0.037 A 
HETATM   10  C   UNL     1      62.209   9.172   1.691  1.00  0.00     0.003 A 
HETATM   11  C   UNL     1      61.928  10.538   1.712  1.00  0.00     0.000 A 
HETATM   12  C   UNL     1      61.861  11.215   2.929  1.00  0.00     0.003 A 
HETATM   13  C   UNL     1      62.112  10.535   4.122  1.00  0.00     0.037 A 
ENDBRANCH   7   8
ENDBRANCH   1   7
BRANCH   2  14
HETATM   14  C   UNL     1      67.592   5.923   6.387  1.00  0.00     0.270 C 
BRANCH  14  15
HETATM   15  N   UNL     1      68.249   6.313   7.634  1.00  0.00    -0.075 N 
HETATM   16  C   UNL     1      68.367   5.178   8.537  1.00  0.00     0.267 C 
HETATM   17  H   UNL     1      67.700   7.043   8.088  1.00  0.00     0.277 HD
HETATM   18  H   UNL     1      69.185   6.653   7.417  1.00  0.00     0.277 HD
ENDBRANCH  14  15
ENDBRANCH   2  14
TORSDOF 4
ENDMDL
MODEL 2
REMARK VINA RESULT:      -5.3      2.619      4.060
REMARK  4 active torsions:
REMARK  status: ('A' for Active; 'I' for Inactive)
REMARK    1  A    between atoms: O_1  and  C_2 
REMARK    2  A    between atoms: O_1  and  C_4 
REMARK    3  A    between atoms: N_3  and  C_10 
REMARK    4  A    between atoms: C_5  and  C_10 
ROOT
HETATM    1  C   UNL     1      66.223   6.176   7.966  1.00  0.00     0.076 A 
HETATM    2  C   UNL     1      68.617   4.856   8.629  1.00  0.00    -0.033 A 
HETATM    3  C   UNL     1      66.701   5.142   7.159  1.00  0.00     0.038 A 
HETATM    4  C   UNL     1      66.982   6.606   9.054  1.00  0.00     0.038 A 
HETATM    5  C   UNL     1      68.174   5.952   9.383  1.00  0.00     0.011 A 
HETATM    6  C   UNL     1      67.865   4.459   7.511  1.00  0.00     0.011 A 
ENDROOT
BRANCH   1   7
HETATM    7  O   UNL     1      65.048   6.858   7.739  1.00  0.00    -0.311 OA
BRANCH   7   8
HETATM    8  C   UNL     1      64.567   6.994   6.455  1.00  0.00     0.076 A 
HETATM    9  C   UNL     1      63.509   6.253   5.921  1.00  0.00     0.037 A 
HETATM   10  C   UNL     1      63.121   6.440   4.593  1.00  0.00     0.003 A 
HETATM   11  C   UNL     1      63.748   7.412   3.815  1.00  0.00     0.000 A 
HETATM   12  C   UNL     1      64.757   8.201   4.365  1.00  0.00     0.003 A 
HETATM   13  C   UNL     1      65.166   7.992   5.683  1.00  0.00     0.037 A 
ENDBRANCH   7   8
ENDBRANCH   1   7
BRANCH   2  14
HETATM   14  C   UNL     1      69.853   4.086   9.037  1.00  0.00     0.270 C 
BRANCH  14  15
HETATM   15  N   UNL     1      69.743   3.557  10.397  1.00  0.00    -0.075 N 
HETATM   16  C   UNL     1      69.382   2.148  10.381  1.00  0.00     0.267 C 
HETATM   17  H   UNL     1      69.026   4.079  10.902  1.00  0.00     0.277 HD
HETATM   18  H   UNL     1      70.647   3.655  10.858  1.00  0.00     0.277 HD
ENDBRANCH  14  15
ENDBRANCH   2  14
TORSDOF 4
ENDMDL
MODEL 3
REMARK VINA RESULT:      -5.3      1.452      2.285
REMARK  4 active torsions:
REMARK  status: ('A' for Active; 'I' for Inactive)
REMARK    1  A    between atoms: O_1  and  C_2 
REMARK    2  A    between atoms: O_1  and  C_4 
REMARK    3  A    between atoms: N_3  and  C_10 
REMARK    4  A    between atoms: C_5  and  C_10 
ROOT
HETATM    1  C   UNL     1      65.879   7.839   6.239  1.00  0.00     0.076 A 
HETATM    2  C   UNL     1      67.334   5.544   6.967  1.00  0.00    -0.033 A 
HETATM    3  C   UNL     1      65.274   6.835   6.997  1.00  0.00     0.038 A 
HETATM    4  C   UNL     1      67.181   7.658   5.773  1.00  0.00     0.038 A 
HETATM    5  C   UNL     1      67.905   6.517   6.132  1.00  0.00     0.011 A 
HETATM    6  C   UNL     1      66.007   5.718   7.394  1.00  0.00     0.011 A 
ENDROOT
BRANCH   1   7
HETATM    7  O   UNL     1      65.257   9.009   5.861  1.00  0.00    -0.311 OA
BRANCH   7   8
HETATM    8  C   UNL     1      64.217   8.976   4.958  1.00  0.00     0.076 A 
HETATM    9  C   UNL     1      64.054   7.999   3.971  1.00  0.00     0.037 A 
HETATM   10  C   UNL     1      62.983   8.077   3.078  1.00  0.00     0.003 A 
HETATM   11  C   UNL     1      62.038   9.094   3.210  1.00  0.00     0.000 A 
HETATM   12  C   UNL     1      62.160  10.029   4.236  1.00  0.00     0.003 A 
HETATM   13  C   UNL     1      63.248   9.970   5.109  1.00  0.00     0.037 A 
ENDBRANCH   7   8
ENDBRANCH   1   7
BRANCH   2  14
HETATM   14  C   UNL     1      68.144   4.357   7.436  1.00  0.00     0.270 C 
BRANCH  14  15
HETATM   15  N   UNL     1      68.532   4.480   8.841  1.00  0.00    -0.075 N 
HETATM   16  C   UNL     1      69.976   4.393   8.993  1.00  0.00     0.267 C 
HETATM   17  H   UNL     1      68.095   3.730   9.376  1.00  0.00     0.277 HD
HETATM   18  H   UNL     1      68.224   5.389   9.185  1.00  0.00     0.277 HD
ENDBRANCH  14  15
ENDBRANCH   2  14
TORSDOF 4
ENDMDL
MODEL 4
REMARK VINA RESULT:      -5.0      2.851      6.633
REMARK  4 active torsions:
REMARK  status: ('A' for Active; 'I' for Inactive)
REMARK    1  A    between atoms: O_1  and  C_2 
REMARK    2  A    between atoms: O_1  and  C_4 
REMARK    3  A    between atoms: N_3  and  C_10 
REMARK    4  A    between atoms: C_5  and  C_10 
ROOT
HETATM    1  C   UNL     1      65.057   8.266   4.991  1.00  0.00     0.076 A 
HETATM    2  C   UNL     1      62.732   8.357   3.410  1.00  0.00    -0.033 A 
HETATM    3  C   UNL     1      64.797   7.253   4.067  1.00  0.00     0.038 A 
HETATM    4  C   UNL     1      64.117   9.277   5.186  1.00  0.00     0.038 A 
HETATM    5  C   UNL     1      62.959   9.322   4.403  1.00  0.00     0.011 A 
HETATM    6  C   UNL     1      63.667   7.320   3.254  1.00  0.00     0.011 A 
ENDROOT
BRANCH   1   7
HETATM    7  O   UNL     1      66.182   8.323   5.786  1.00  0.00    -0.311 OA
BRANCH   7   8
HETATM    8  C   UNL     1      66.508   7.257   6.595  1.00  0.00     0.076 A 
HETATM    9  C   UNL     1      65.710   6.781   7.640  1.00  0.00     0.037 A 
HETATM   10  C   UNL     1      66.149   5.715   8.428  1.00  0.00     0.003 A 
HETATM   11  C   UNL     1      67.355   5.082   8.134  1.00  0.00     0.000 A 
HETATM   12  C   UNL     1      68.120   5.510   7.049  1.00  0.00     0.003 A 
HETATM   13  C   UNL     1      67.697   6.596   6.282  1.00  0.00     0.037 A 
ENDBRANCH   7   8
ENDBRANCH   1   7
BRANCH   2  14
HETATM   14  C   UNL     1      61.531   8.454   2.497  1.00  0.00     0.270 C 
BRANCH  14  15
HETATM   15  N   UNL     1      60.283   8.583   3.248  1.00  0.00    -0.075 N 
HETATM   16  C   UNL     1      59.778   7.277   3.647  1.00  0.00     0.267 C 
HETATM   17  H   UNL     1      59.586   9.044   2.663  1.00  0.00     0.277 HD
HETATM   18  H   UNL     1      60.463   9.130   4.089  1.00  0.00     0.277 HD
ENDBRANCH  14  15
ENDBRANCH   2  14
TORSDOF 4
ENDMDL
MODEL 5
REMARK VINA RESULT:      -5.0      2.946      7.756
REMARK  4 active torsions:
REMARK  status: ('A' for Active; 'I' for Inactive)
REMARK    1  A    between atoms: O_1  and  C_2 
REMARK    2  A    between atoms: O_1  and  C_4 
REMARK    3  A    between atoms: N_3  and  C_10 
REMARK    4  A    between atoms: C_5  and  C_10 
ROOT
HETATM    1  C   UNL     1      67.450   6.378   7.070  1.00  0.00     0.076 A 
HETATM    2  C   UNL     1      65.127   7.320   5.794  1.00  0.00    -0.033 A 
HETATM    3  C   UNL     1      66.205   6.233   7.683  1.00  0.00     0.038 A 
HETATM    4  C   UNL     1      67.546   7.067   5.861  1.00  0.00     0.038 A 
HETATM    5  C   UNL     1      66.392   7.539   5.227  1.00  0.00     0.011 A 
HETATM    6  C   UNL     1      65.049   6.662   7.032  1.00  0.00     0.011 A 
ENDROOT
BRANCH   1   7
HETATM    7  O   UNL     1      68.637   5.922   7.602  1.00  0.00    -0.311 OA
BRANCH   7   8
HETATM    8  C   UNL     1      68.753   4.609   8.002  1.00  0.00     0.076 A 
HETATM    9  C   UNL     1      68.686   3.509   7.143  1.00  0.00     0.037 A 
HETATM   10  C   UNL     1      68.778   2.213   7.654  1.00  0.00     0.003 A 
HETATM   11  C   UNL     1      69.001   2.015   9.016  1.00  0.00     0.000 A 
HETATM   12  C   UNL     1      69.138   3.112   9.865  1.00  0.00     0.003 A 
HETATM   13  C   UNL     1      69.014   4.407   9.359  1.00  0.00     0.037 A 
ENDBRANCH   7   8
ENDBRANCH   1   7
BRANCH   2  14
HETATM   14  C   UNL     1      63.870   7.742   5.067  1.00  0.00     0.270 C 
BRANCH  14  15
HETATM   15  N   UNL     1      63.078   8.690   5.850  1.00  0.00    -0.075 N 
HETATM   16  C   UNL     1      63.038   9.994   5.206  1.00  0.00     0.267 C 
HETATM   17  H   UNL     1      63.495   8.789   6.776  1.00  0.00     0.277 HD
HETATM   18  H   UNL     1      62.125   8.335   5.924  1.00  0.00     0.277 HD
ENDBRANCH  14  15
ENDBRANCH   2  14
TORSDOF 4
ENDMDL
MODEL 6
REMARK VINA RESULT:      -4.9      3.649      5.929
REMARK  4 active torsions:
REMARK  status: ('A' for Active; 'I' for Inactive)
REMARK    1  A    between atoms: O_1  and  C_2 
REMARK    2  A    between atoms: O_1  and  C_4 
REMARK    3  A    between atoms: N_3  and  C_10 
REMARK    4  A    between atoms: C_5  and  C_10 
ROOT
HETATM    1  C   UNL     1      68.482   5.103   7.684  1.00  0.00     0.076 A 
HETATM    2  C   UNL     1      68.991   2.839   9.274  1.00  0.00    -0.033 A 
HETATM    3  C   UNL     1      68.298   3.822   7.161  1.00  0.00     0.038 A 
HETATM    4  C   UNL     1      68.999   5.253   8.970  1.00  0.00     0.038 A 
HETATM    5  C   UNL     1      69.256   4.128   9.761  1.00  0.00     0.011 A 
HETATM    6  C   UNL     1      68.510   2.701   7.961  1.00  0.00     0.011 A 
ENDROOT
BRANCH   1   7
HETATM    7  O   UNL     1      68.229   6.268   6.992  1.00  0.00    -0.311 OA
BRANCH   7   8
HETATM    8  C   UNL     1      66.972   6.507   6.482  1.00  0.00     0.076 A 
HETATM    9  C   UNL     1      65.802   6.558   7.245  1.00  0.00     0.037 A 
HETATM   10  C   UNL     1      64.569   6.770   6.625  1.00  0.00     0.003 A 
HETATM   11  C   UNL     1      64.509   6.996   5.251  1.00  0.00     0.000 A 
HETATM   12  C   UNL     1      65.682   7.016   4.498  1.00  0.00     0.003 A 
HETATM   13  C   UNL     1      66.911   6.771   5.112  1.00  0.00     0.037 A 
ENDBRANCH   7   8
ENDBRANCH   1   7
BRANCH   2  14
HETATM   14  C   UNL     1      69.176   1.626  10.158  1.00  0.00     0.270 C 
BRANCH  14  15
HETATM   15  N   UNL     1      70.590   1.330  10.391  1.00  0.00    -0.075 N 
HETATM   16  C   UNL     1      70.951   0.037   9.830  1.00  0.00     0.267 C 
HETATM   17  H   UNL     1      70.768   1.320  11.395  1.00  0.00     0.277 HD
HETATM   18  H   UNL     1      71.152   2.049   9.936  1.00  0.00     0.277 HD
ENDBRANCH  14  15
ENDBRANCH   2  14
TORSDOF 4
ENDMDL
MODEL 7
REMARK VINA RESULT:      -4.9      2.797      6.568
REMARK  4 active torsions:
REMARK  status: ('A' for Active; 'I' for Inactive)
REMARK    1  A    between atoms: O_1  and  C_2 
REMARK    2  A    between atoms: O_1  and  C_4 
REMARK    3  A    between atoms: N_3  and  C_10 
REMARK    4  A    between atoms: C_5  and  C_10 
ROOT
HETATM    1  C   UNL     1      63.452   8.327   5.222  1.00  0.00     0.076 A 
HETATM    2  C   UNL     1      62.283   9.191   2.814  1.00  0.00    -0.033 A 
HETATM    3  C   UNL     1      63.047   9.655   5.075  1.00  0.00     0.038 A 
HETATM    4  C   UNL     1      63.352   7.454   4.140  1.00  0.00     0.038 A 
HETATM    5  C   UNL     1      62.773   7.882   2.941  1.00  0.00     0.011 A 
HETATM    6  C   UNL     1      62.429  10.073   3.897  1.00  0.00     0.011 A 
ENDROOT
BRANCH   1   7
HETATM    7  O   UNL     1      64.005   7.807   6.372  1.00  0.00    -0.311 OA
BRANCH   7   8
HETATM    8  C   UNL     1      65.295   7.323   6.359  1.00  0.00     0.076 A 
HETATM    9  C   UNL     1      66.362   7.928   5.687  1.00  0.00     0.037 A 
HETATM   10  C   UNL     1      67.626   7.337   5.705  1.00  0.00     0.003 A 
HETATM   11  C   UNL     1      67.843   6.175   6.445  1.00  0.00     0.000 A 
HETATM   12  C   UNL     1      66.797   5.609   7.173  1.00  0.00     0.003 A 
HETATM   13  C   UNL     1      65.525   6.182   7.129  1.00  0.00     0.037 A 
ENDBRANCH   7   8
ENDBRANCH   1   7
BRANCH   2  14
HETATM   14  C   UNL     1      61.571   9.631   1.554  1.00  0.00     0.270 C 
BRANCH  14  15
HETATM   15  N   UNL     1      61.280   8.503   0.669  1.00  0.00    -0.075 N 
HETATM   16  C   UNL     1      59.856   8.202   0.659  1.00  0.00     0.267 C 
HETATM   17  H   UNL     1      61.791   7.682   0.994  1.00  0.00     0.277 HD
HETATM   18  H   UNL     1      61.566   8.750  -0.278  1.00  0.00     0.277 HD
ENDBRANCH  14  15
ENDBRANCH   2  14
TORSDOF 4
ENDMDL
MODEL 8
REMARK VINA RESULT:      -4.8      1.418      2.180
REMARK  4 active torsions:
REMARK  status: ('A' for Active; 'I' for Inactive)
REMARK    1  A    between atoms: O_1  and  C_2 
REMARK    2  A    between atoms: O_1  and  C_4 
REMARK    3  A    between atoms: N_3  and  C_10 
REMARK    4  A    between atoms: C_5  and  C_10 
ROOT
HETATM    1  C   UNL     1      63.227   8.390   5.212  1.00  0.00     0.076 A 
HETATM    2  C   UNL     1      65.349   6.896   6.296  1.00  0.00    -0.033 A 
HETATM    3  C   UNL     1      62.967   7.229   5.942  1.00  0.00     0.038 A 
HETATM    4  C   UNL     1      64.547   8.757   4.952  1.00  0.00     0.038 A 
HETATM    5  C   UNL     1      65.603   8.014   5.488  1.00  0.00     0.011 A 
HETATM    6  C   UNL     1      64.016   6.512   6.515  1.00  0.00     0.011 A 
ENDROOT
BRANCH   1   7
HETATM    7  O   UNL     1      62.254   9.201   4.670  1.00  0.00    -0.311 OA
BRANCH   7   8
HETATM    8  C   UNL     1      61.744   8.925   3.421  1.00  0.00     0.076 A 
HETATM    9  C   UNL     1      62.288   9.392   2.220  1.00  0.00     0.037 A 
HETATM   10  C   UNL     1      61.672   9.086   1.006  1.00  0.00     0.003 A 
HETATM   11  C   UNL     1      60.550   8.259   0.982  1.00  0.00     0.000 A 
HETATM   12  C   UNL     1      60.047   7.735   2.172  1.00  0.00     0.003 A 
HETATM   13  C   UNL     1      60.643   8.068   3.389  1.00  0.00     0.037 A 
ENDBRANCH   7   8
ENDBRANCH   1   7
BRANCH   2  14
HETATM   14  C   UNL     1      66.484   6.145   6.957  1.00  0.00     0.270 C 
BRANCH  14  15
HETATM   15  N   UNL     1      66.152   5.747   8.325  1.00  0.00    -0.075 N 
HETATM   16  C   UNL     1      66.846   6.583   9.293  1.00  0.00     0.267 C 
HETATM   17  H   UNL     1      66.428   4.775   8.466  1.00  0.00     0.277 HD
HETATM   18  H   UNL     1      65.148   5.857   8.462  1.00  0.00     0.277 HD
ENDBRANCH  14  15
ENDBRANCH   2  14
TORSDOF 4
ENDMDL
MODEL 9
REMARK VINA RESULT:      -4.6     17.399     19.381
REMARK  4 active torsions:
REMARK  status: ('A' for Active; 'I' for Inactive)
REMARK    1  A    between atoms: O_1  and  C_2 
REMARK    2  A    between atoms: O_1  and  C_4 
REMARK    3  A    between atoms: N_3  and  C_10 
REMARK    4  A    between atoms: C_5  and  C_10 
ROOT
HETATM    1  C   UNL     1      48.403  17.180   2.396  1.00  0.00     0.076 A 
HETATM    2  C   UNL     1      49.259  19.788   1.783  1.00  0.00    -0.033 A 
HETATM    3  C   UNL     1      47.769  18.280   2.975  1.00  0.00     0.038 A 
HETATM    4  C   UNL     1      49.516  17.378   1.579  1.00  0.00     0.038 A 
HETATM    5  C   UNL     1      49.944  18.674   1.276  1.00  0.00     0.011 A 
HETATM    6  C   UNL     1      48.166  19.574   2.639  1.00  0.00     0.011 A 
ENDROOT
BRANCH   1   7
HETATM    7  O   UNL     1      48.035  15.869   2.612  1.00  0.00    -0.311 OA
BRANCH   7   8
HETATM    8  C   UNL     1      48.067  15.346   3.885  1.00  0.00     0.076 A 
HETATM    9  C   UNL     1      49.191  15.347   4.717  1.00  0.00     0.037 A 
HETATM   10  C   UNL     1      49.130  14.756   5.980  1.00  0.00     0.003 A 
HETATM   11  C   UNL     1      47.929  14.220   6.441  1.00  0.00     0.000 A 
HETATM   12  C   UNL     1      46.788  14.279   5.642  1.00  0.00     0.003 A 
HETATM   13  C   UNL     1      46.857  14.840   4.366  1.00  0.00     0.037 A 
ENDBRANCH   7   8
ENDBRANCH   1   7
BRANCH   2  14
HETATM   14  C   UNL     1      49.658  21.190   1.382  1.00  0.00     0.270 C 
BRANCH  14  15
HETATM   15  N   UNL     1      50.270  21.922   2.491  1.00  0.00    -0.075 N 
HETATM   16  C   UNL     1      50.145  23.359   2.299  1.00  0.00     0.267 C 
HETATM   17  H   UNL     1      51.259  21.679   2.547  1.00  0.00     0.277 HD
HETATM   18  H   UNL     1      49.790  21.668   3.353  1.00  0.00     0.277 HD
ENDBRANCH  14  15
ENDBRANCH   2  14
TORSDOF 4
ENDMDL
