MODEL 1
REMARK VINA RESULT:      -3.8      0.000      0.000
REMARK  3 active torsions:
REMARK  status: ('A' for Active; 'I' for Inactive)
REMARK    1  A    between atoms: C_5  and  C_7 
REMARK    2  A    between atoms: C_7  and  C_10 
REMARK    3  A    between atoms: N_8  and  C_10 
ROOT
HETATM    1  N   UNL     1      77.274   4.426  18.117  1.00  0.00    -0.357 N 
ATOM      2  HN  UNL     1      78.107   4.598  18.680  1.00  0.00     0.166 HD
HETATM    3  C   UNL     1      76.561   5.361  17.526  1.00  0.00     0.046 A 
HETATM    4  S   UNL     1      75.183   4.801  16.665  1.00  0.00    -0.087 SA
HETATM    5  C   UNL     1      76.733   3.176  17.866  1.00  0.00     0.018 A 
HETATM    6  C   UNL     1      75.589   3.192  17.088  1.00  0.00     0.076 A 
HETATM    7  C   UNL     1      76.878   6.813  17.562  1.00  0.00     0.076 C 
ENDROOT
BRANCH   5   8
HETATM    8  C   UNL     1      77.419   1.965  18.417  1.00  0.00     0.084 C 
BRANCH   8   9
HETATM    9  C   UNL     1      76.758   0.661  17.958  1.00  0.00     0.235 C 
BRANCH   9  10
HETATM   10  N   UNL     1      77.604  -0.071  17.012  1.00  0.00    -0.079 N 
HETATM   11  H   UNL     1      77.903  -0.950  17.434  1.00  0.00     0.274 HD
HETATM   12  H   UNL     1      78.423   0.492  16.781  1.00  0.00     0.274 HD
HETATM   13  H   UNL     1      77.074  -0.266  16.162  1.00  0.00     0.274 HD
ENDBRANCH   9  10
ENDBRANCH   8   9
ENDBRANCH   5   8
TORSDOF 3
ENDMDL
MODEL 2
REMARK VINA RESULT:      -3.7      1.868      2.128
REMARK  3 active torsions:
REMARK  status: ('A' for Active; 'I' for Inactive)
REMARK    1  A    between atoms: C_5  and  C_7 
REMARK    2  A    between atoms: C_7  and  C_10 
REMARK    3  A    between atoms: N_8  and  C_10 
ROOT
HETATM    1  N   UNL     1      77.439   3.040  18.235  1.00  0.00    -0.357 N 
ATOM      2  HN  UNL     1      78.305   3.302  18.704  1.00  0.00     0.166 HD
HETATM    3  C   UNL     1      76.602   3.888  17.673  1.00  0.00     0.046 A 
HETATM    4  S   UNL     1      75.197   3.185  16.979  1.00  0.00    -0.087 SA
HETATM    5  C   UNL     1      76.973   1.742  18.096  1.00  0.00     0.018 A 
HETATM    6  C   UNL     1      75.764   1.635  17.434  1.00  0.00     0.076 A 
HETATM    7  C   UNL     1      76.809   5.359  17.611  1.00  0.00     0.076 C 
ENDROOT
BRANCH   5   8
HETATM    8  C   UNL     1      77.800   0.615  18.633  1.00  0.00     0.084 C 
BRANCH   8   9
HETATM    9  C   UNL     1      78.781   1.077  19.715  1.00  0.00     0.235 C 
BRANCH   9  10
HETATM   10  N   UNL     1      78.246   0.855  21.061  1.00  0.00    -0.079 N 
HETATM   11  H   UNL     1      77.843  -0.081  21.116  1.00  0.00     0.274 HD
HETATM   12  H   UNL     1      77.524   1.548  21.260  1.00  0.00     0.274 HD
HETATM   13  H   UNL     1      78.998   0.941  21.745  1.00  0.00     0.274 HD
ENDBRANCH   9  10
ENDBRANCH   8   9
ENDBRANCH   5   8
TORSDOF 3
ENDMDL
MODEL 3
REMARK VINA RESULT:      -3.7     12.675     13.362
REMARK  3 active torsions:
REMARK  status: ('A' for Active; 'I' for Inactive)
REMARK    1  A    between atoms: C_5  and  C_7 
REMARK    2  A    between atoms: C_7  and  C_10 
REMARK    3  A    between atoms: N_8  and  C_10 
ROOT
HETATM    1  N   UNL     1      68.244   6.497   7.057  1.00  0.00    -0.357 N 
ATOM      2  HN  UNL     1      69.161   6.685   6.652  1.00  0.00     0.166 HD
HETATM    3  C   UNL     1      67.102   6.935   6.569  1.00  0.00     0.046 A 
HETATM    4  S   UNL     1      65.703   6.501   7.466  1.00  0.00    -0.087 SA
HETATM    5  C   UNL     1      68.022   5.744   8.199  1.00  0.00     0.018 A 
HETATM    6  C   UNL     1      66.693   5.640   8.568  1.00  0.00     0.076 A 
HETATM    7  C   UNL     1      66.971   7.748   5.330  1.00  0.00     0.076 C 
ENDROOT
BRANCH   5   8
HETATM    8  C   UNL     1      69.191   5.117   8.892  1.00  0.00     0.084 C 
BRANCH   8   9
HETATM    9  C   UNL     1      68.852   3.745   9.482  1.00  0.00     0.235 C 
BRANCH   9  10
HETATM   10  N   UNL     1      69.757   3.386  10.577  1.00  0.00    -0.079 N 
HETATM   11  H   UNL     1      69.337   3.656  11.466  1.00  0.00     0.274 HD
HETATM   12  H   UNL     1      70.645   3.874  10.458  1.00  0.00     0.274 HD
HETATM   13  H   UNL     1      69.918   2.379  10.569  1.00  0.00     0.274 HD
ENDBRANCH   9  10
ENDBRANCH   8   9
ENDBRANCH   5   8
TORSDOF 3
ENDMDL
MODEL 4
REMARK VINA RESULT:      -3.6     12.355     13.436
REMARK  3 active torsions:
REMARK  status: ('A' for Active; 'I' for Inactive)
REMARK    1  A    between atoms: C_5  and  C_7 
REMARK    2  A    between atoms: C_7  and  C_10 
REMARK    3  A    between atoms: N_8  and  C_10 
ROOT
HETATM    1  N   UNL     1      68.868   5.972   8.730  1.00  0.00    -0.357 N 
ATOM      2  HN  UNL     1      69.136   6.939   8.913  1.00  0.00     0.166 HD
HETATM    3  C   UNL     1      69.704   4.955   8.695  1.00  0.00     0.046 A 
HETATM    4  S   UNL     1      68.995   3.433   8.329  1.00  0.00    -0.087 SA
HETATM    5  C   UNL     1      67.575   5.541   8.481  1.00  0.00     0.018 A 
HETATM    6  C   UNL     1      67.459   4.184   8.242  1.00  0.00     0.076 A 
HETATM    7  C   UNL     1      71.165   5.055   8.950  1.00  0.00     0.076 C 
ENDROOT
BRANCH   5   8
HETATM    8  C   UNL     1      66.460   6.540   8.513  1.00  0.00     0.084 C 
BRANCH   8   9
HETATM    9  C   UNL     1      66.239   7.211   7.154  1.00  0.00     0.235 C 
BRANCH   9  10
HETATM   10  N   UNL     1      66.915   8.509   7.075  1.00  0.00    -0.079 N 
HETATM   11  H   UNL     1      67.240   8.779   8.003  1.00  0.00     0.274 HD
HETATM   12  H   UNL     1      66.263   9.211   6.724  1.00  0.00     0.274 HD
HETATM   13  H   UNL     1      67.713   8.439   6.442  1.00  0.00     0.274 HD
ENDBRANCH   9  10
ENDBRANCH   8   9
ENDBRANCH   5   8
TORSDOF 3
ENDMDL
MODEL 5
REMARK VINA RESULT:      -3.6     20.807     21.835
REMARK  3 active torsions:
REMARK  status: ('A' for Active; 'I' for Inactive)
REMARK    1  A    between atoms: C_5  and  C_7 
REMARK    2  A    between atoms: C_7  and  C_10 
REMARK    3  A    between atoms: N_8  and  C_10 
ROOT
HETATM    1  N   UNL     1      61.078   8.997   3.591  1.00  0.00    -0.357 N 
ATOM      2  HN  UNL     1      60.805   8.783   4.550  1.00  0.00     0.166 HD
HETATM    3  C   UNL     1      60.795   8.250   2.544  1.00  0.00     0.046 A 
HETATM    4  S   UNL     1      61.405   8.824   1.044  1.00  0.00    -0.087 SA
HETATM    5  C   UNL     1      61.799  10.116   3.203  1.00  0.00     0.018 A 
HETATM    6  C   UNL     1      62.066  10.184   1.848  1.00  0.00     0.076 A 
HETATM    7  C   UNL     1      60.006   6.991   2.596  1.00  0.00     0.076 C 
ENDROOT
BRANCH   5   8
HETATM    8  C   UNL     1      62.189  11.121   4.242  1.00  0.00     0.084 C 
BRANCH   8   9
HETATM    9  C   UNL     1      62.964  10.489   5.402  1.00  0.00     0.235 C 
BRANCH   9  10
HETATM   10  N   UNL     1      63.659  11.500   6.204  1.00  0.00    -0.079 N 
HETATM   11  H   UNL     1      63.972  12.258   5.597  1.00  0.00     0.274 HD
HETATM   12  H   UNL     1      64.466  11.076   6.662  1.00  0.00     0.274 HD
HETATM   13  H   UNL     1      63.023  11.871   6.910  1.00  0.00     0.274 HD
ENDBRANCH   9  10
ENDBRANCH   8   9
ENDBRANCH   5   8
TORSDOF 3
ENDMDL
MODEL 6
REMARK VINA RESULT:      -3.6      2.727      4.407
REMARK  3 active torsions:
REMARK  status: ('A' for Active; 'I' for Inactive)
REMARK    1  A    between atoms: C_5  and  C_7 
REMARK    2  A    between atoms: C_7  and  C_10 
REMARK    3  A    between atoms: N_8  and  C_10 
ROOT
HETATM    1  N   UNL     1      77.936   2.277  19.292  1.00  0.00    -0.357 N 
ATOM      2  HN  UNL     1      78.206   3.117  19.803  1.00  0.00     0.166 HD
HETATM    3  C   UNL     1      78.261   1.049  19.640  1.00  0.00     0.046 A 
HETATM    4  S   UNL     1      77.704  -0.186  18.583  1.00  0.00    -0.087 SA
HETATM    5  C   UNL     1      77.175   2.264  18.134  1.00  0.00     0.018 A 
HETATM    6  C   UNL     1      76.950   1.004  17.610  1.00  0.00     0.076 A 
HETATM    7  C   UNL     1      79.047   0.696  20.851  1.00  0.00     0.076 C 
ENDROOT
BRANCH   5   8
HETATM    8  C   UNL     1      76.666   3.561  17.587  1.00  0.00     0.084 C 
BRANCH   8   9
HETATM    9  C   UNL     1      75.289   3.417  16.932  1.00  0.00     0.235 C 
BRANCH   9  10
HETATM   10  N   UNL     1      74.548   4.681  16.947  1.00  0.00    -0.079 N 
HETATM   11  H   UNL     1      74.031   4.762  17.823  1.00  0.00     0.274 HD
HETATM   12  H   UNL     1      73.895   4.702  16.163  1.00  0.00     0.274 HD
HETATM   13  H   UNL     1      75.202   5.460  16.866  1.00  0.00     0.274 HD
ENDBRANCH   9  10
ENDBRANCH   8   9
ENDBRANCH   5   8
TORSDOF 3
ENDMDL
MODEL 7
REMARK VINA RESULT:      -3.3     13.662     14.722
REMARK  3 active torsions:
REMARK  status: ('A' for Active; 'I' for Inactive)
REMARK    1  A    between atoms: C_5  and  C_7 
REMARK    2  A    between atoms: C_7  and  C_10 
REMARK    3  A    between atoms: N_8  and  C_10 
ROOT
HETATM    1  N   UNL     1      68.394   6.095   7.593  1.00  0.00    -0.357 N 
ATOM      2  HN  UNL     1      68.656   6.936   8.107  1.00  0.00     0.166 HD
HETATM    3  C   UNL     1      68.550   4.865   8.035  1.00  0.00     0.046 A 
HETATM    4  S   UNL     1      68.055   3.626   6.952  1.00  0.00    -0.087 SA
HETATM    5  C   UNL     1      67.823   6.085   6.330  1.00  0.00     0.018 A 
HETATM    6  C   UNL     1      67.569   4.822   5.827  1.00  0.00     0.076 A 
HETATM    7  C   UNL     1      69.105   4.512   9.368  1.00  0.00     0.076 C 
ENDROOT
BRANCH   5   8
HETATM    8  C   UNL     1      67.523   7.389   5.660  1.00  0.00     0.084 C 
BRANCH   8   9
HETATM    9  C   UNL     1      66.591   8.272   6.496  1.00  0.00     0.235 C 
BRANCH   9  10
HETATM   10  N   UNL     1      65.208   7.788   6.459  1.00  0.00    -0.079 N 
HETATM   11  H   UNL     1      64.805   7.981   5.542  1.00  0.00     0.274 HD
HETATM   12  H   UNL     1      64.661   8.261   7.178  1.00  0.00     0.274 HD
HETATM   13  H   UNL     1      65.196   6.782   6.629  1.00  0.00     0.274 HD
ENDBRANCH   9  10
ENDBRANCH   8   9
ENDBRANCH   5   8
TORSDOF 3
ENDMDL
MODEL 8
REMARK VINA RESULT:      -3.3     18.877     19.709
REMARK  3 active torsions:
REMARK  status: ('A' for Active; 'I' for Inactive)
REMARK    1  A    between atoms: C_5  and  C_7 
REMARK    2  A    between atoms: C_7  and  C_10 
REMARK    3  A    between atoms: N_8  and  C_10 
ROOT
HETATM    1  N   UNL     1      63.186   8.289   2.963  1.00  0.00    -0.357 N 
ATOM      2  HN  UNL     1      63.505   7.534   2.356  1.00  0.00     0.166 HD
HETATM    3  C   UNL     1      62.325   9.222   2.613  1.00  0.00     0.046 A 
HETATM    4  S   UNL     1      61.984  10.398   3.818  1.00  0.00    -0.087 SA
HETATM    5  C   UNL     1      63.596   8.480   4.273  1.00  0.00     0.018 A 
HETATM    6  C   UNL     1      63.039   9.583   4.893  1.00  0.00     0.076 A 
HETATM    7  C   UNL     1      61.660   9.299   1.286  1.00  0.00     0.076 C 
ENDROOT
BRANCH   5   8
HETATM    8  C   UNL     1      64.551   7.501   4.883  1.00  0.00     0.084 C 
BRANCH   8   9
HETATM    9  C   UNL     1      65.692   8.192   5.636  1.00  0.00     0.235 C 
BRANCH   9  10
HETATM   10  N   UNL     1      65.900   7.604   6.962  1.00  0.00    -0.079 N 
HETATM   11  H   UNL     1      65.022   7.615   7.480  1.00  0.00     0.274 HD
HETATM   12  H   UNL     1      66.602   8.144   7.468  1.00  0.00     0.274 HD
HETATM   13  H   UNL     1      66.221   6.640   6.859  1.00  0.00     0.274 HD
ENDBRANCH   9  10
ENDBRANCH   8   9
ENDBRANCH   5   8
TORSDOF 3
ENDMDL
MODEL 9
REMARK VINA RESULT:      -3.3     15.697     16.748
REMARK  3 active torsions:
REMARK  status: ('A' for Active; 'I' for Inactive)
REMARK    1  A    between atoms: C_5  and  C_7 
REMARK    2  A    between atoms: C_7  and  C_10 
REMARK    3  A    between atoms: N_8  and  C_10 
ROOT
HETATM    1  N   UNL     1      65.580   7.454   7.069  1.00  0.00    -0.357 N 
ATOM      2  HN  UNL     1      64.800   7.919   7.533  1.00  0.00     0.166 HD
HETATM    3  C   UNL     1      66.466   6.690   7.674  1.00  0.00     0.046 A 
HETATM    4  S   UNL     1      67.701   6.054   6.663  1.00  0.00    -0.087 SA
HETATM    5  C   UNL     1      65.859   7.535   5.714  1.00  0.00     0.018 A 
HETATM    6  C   UNL     1      66.981   6.831   5.317  1.00  0.00     0.076 A 
HETATM    7  C   UNL     1      66.447   6.362   9.124  1.00  0.00     0.076 C 
ENDROOT
BRANCH   5   8
HETATM    8  C   UNL     1      64.945   8.327   4.833  1.00  0.00     0.084 C 
BRANCH   8   9
HETATM    9  C   UNL     1      63.509   8.366   5.368  1.00  0.00     0.235 C 
BRANCH   9  10
HETATM   10  N   UNL     1      63.107   9.724   5.741  1.00  0.00    -0.079 N 
HETATM   11  H   UNL     1      62.096   9.819   5.640  1.00  0.00     0.274 HD
HETATM   12  H   UNL     1      63.574  10.397   5.133  1.00  0.00     0.274 HD
HETATM   13  H   UNL     1      63.369   9.903   6.711  1.00  0.00     0.274 HD
ENDBRANCH   9  10
ENDBRANCH   8   9
ENDBRANCH   5   8
TORSDOF 3
ENDMDL
