MODEL 1
REMARK VINA RESULT:      -5.2      0.000      0.000
REMARK  2 active torsions:
REMARK  status: ('A' for Active; 'I' for Inactive)
REMARK    1  A    between atoms: C_1  and  C_5 
REMARK    2  A    between atoms: C_11  and  N_12 
ROOT
HETATM    1  N   UNL     1      80.018  10.935  20.465  1.00  0.00    -0.363 N 
ATOM      2  HN  UNL     1      80.984  10.691  20.685  1.00  0.00     0.165 HD
HETATM    3  C   UNL     1      79.347  11.872  21.176  1.00  0.00     0.049 A 
HETATM    4  C   UNL     1      78.046  12.251  20.858  1.00  0.00     0.033 A 
HETATM    5  C   UNL     1      79.350  10.336  19.448  1.00  0.00     0.117 A 
HETATM    6  C   UNL     1      78.021  10.584  19.109  1.00  0.00     0.041 A 
HETATM    7  C   UNL     1      77.391  11.612  19.803  1.00  0.00     0.033 A 
ENDROOT
BRANCH   3   8
HETATM    8  C   UNL     1      80.112  12.458  22.287  1.00  0.00     0.031 A 
HETATM    9  S   UNL     1      79.656  12.190  23.924  1.00  0.00    -0.100 SA
HETATM   10  C   UNL     1      80.964  13.106  24.524  1.00  0.00     0.050 A 
HETATM   11  C   UNL     1      81.748  13.610  23.511  1.00  0.00     0.008 A 
HETATM   12  C   UNL     1      81.262  13.230  22.225  1.00  0.00     0.021 A 
ENDBRANCH   3   8
BRANCH   6  13
HETATM   13  N   UNL     1      77.418  10.015  17.982  1.00  0.00    -0.398 N 
HETATM   14  H   UNL     1      76.652   9.407  18.088  1.00  0.00     0.156 HD
HETATM   15  H   UNL     1      77.760  10.225  17.082  1.00  0.00     0.156 HD
ENDBRANCH   6  13
TORSDOF 2
ENDMDL
MODEL 2
REMARK VINA RESULT:      -4.8     17.481     19.284
REMARK  2 active torsions:
REMARK  status: ('A' for Active; 'I' for Inactive)
REMARK    1  A    between atoms: C_1  and  C_5 
REMARK    2  A    between atoms: C_11  and  N_12 
ROOT
HETATM    1  N   UNL     1      67.339   3.834   8.663  1.00  0.00    -0.363 N 
ATOM      2  HN  UNL     1      66.366   3.710   8.382  1.00  0.00     0.165 HD
HETATM    3  C   UNL     1      68.077   4.878   8.215  1.00  0.00     0.049 A 
HETATM    4  C   UNL     1      69.390   5.087   8.628  1.00  0.00     0.033 A 
HETATM    5  C   UNL     1      67.951   2.960   9.501  1.00  0.00     0.117 A 
HETATM    6  C   UNL     1      69.283   3.035   9.900  1.00  0.00     0.041 A 
HETATM    7  C   UNL     1      69.985   4.165   9.492  1.00  0.00     0.033 A 
ENDROOT
BRANCH   3   8
HETATM    8  C   UNL     1      67.369   5.769   7.283  1.00  0.00     0.031 A 
HETATM    9  S   UNL     1      65.892   6.531   7.729  1.00  0.00    -0.100 SA
HETATM   10  C   UNL     1      65.766   7.342   6.232  1.00  0.00     0.050 A 
HETATM   11  C   UNL     1      66.823   7.053   5.399  1.00  0.00     0.008 A 
HETATM   12  C   UNL     1      67.748   6.156   6.008  1.00  0.00     0.021 A 
ENDBRANCH   3   8
BRANCH   6  13
HETATM   13  N   UNL     1      69.829   2.167  10.852  1.00  0.00    -0.398 N 
HETATM   14  H   UNL     1      69.408   2.080  11.737  1.00  0.00     0.156 HD
HETATM   15  H   UNL     1      70.633   1.641  10.635  1.00  0.00     0.156 HD
ENDBRANCH   6  13
TORSDOF 2
ENDMDL
MODEL 3
REMARK VINA RESULT:      -4.7     23.268     25.602
REMARK  2 active torsions:
REMARK  status: ('A' for Active; 'I' for Inactive)
REMARK    1  A    between atoms: C_1  and  C_5 
REMARK    2  A    between atoms: C_11  and  N_12 
ROOT
HETATM    1  N   UNL     1      63.112   8.683   4.085  1.00  0.00    -0.363 N 
ATOM      2  HN  UNL     1      63.439   7.721   4.001  1.00  0.00     0.165 HD
HETATM    3  C   UNL     1      62.363   9.263   3.116  1.00  0.00     0.049 A 
HETATM    4  C   UNL     1      61.869  10.559   3.239  1.00  0.00     0.033 A 
HETATM    5  C   UNL     1      63.407   9.440   5.172  1.00  0.00     0.117 A 
HETATM    6  C   UNL     1      63.033  10.770   5.345  1.00  0.00     0.041 A 
HETATM    7  C   UNL     1      62.194  11.305   4.373  1.00  0.00     0.033 A 
ENDROOT
BRANCH   3   8
HETATM    8  C   UNL     1      62.107   8.405   1.949  1.00  0.00     0.031 A 
HETATM    9  S   UNL     1      61.451   6.825   2.133  1.00  0.00    -0.100 SA
HETATM   10  C   UNL     1      61.437   6.549   0.449  1.00  0.00     0.050 A 
HETATM   11  C   UNL     1      61.915   7.630  -0.256  1.00  0.00     0.008 A 
HETATM   12  C   UNL     1      62.292   8.700   0.608  1.00  0.00     0.021 A 
ENDBRANCH   3   8
BRANCH   6  13
HETATM   13  N   UNL     1      63.274  11.466   6.535  1.00  0.00    -0.398 N 
HETATM   14  H   UNL     1      62.686  11.328   7.313  1.00  0.00     0.156 HD
HETATM   15  H   UNL     1      64.031  12.092   6.595  1.00  0.00     0.156 HD
ENDBRANCH   6  13
TORSDOF 2
ENDMDL
MODEL 4
REMARK VINA RESULT:      -4.6     20.034     22.197
REMARK  2 active torsions:
REMARK  status: ('A' for Active; 'I' for Inactive)
REMARK    1  A    between atoms: C_1  and  C_5 
REMARK    2  A    between atoms: C_11  and  N_12 
ROOT
HETATM    1  N   UNL     1      65.002   7.442   6.727  1.00  0.00    -0.363 N 
ATOM      2  HN  UNL     1      64.072   7.542   7.135  1.00  0.00     0.165 HD
HETATM    3  C   UNL     1      65.281   7.896   5.482  1.00  0.00     0.049 A 
HETATM    4  C   UNL     1      66.556   7.810   4.931  1.00  0.00     0.033 A 
HETATM    5  C   UNL     1      66.014   6.848   7.408  1.00  0.00     0.117 A 
HETATM    6  C   UNL     1      67.298   6.637   6.909  1.00  0.00     0.041 A 
HETATM    7  C   UNL     1      67.572   7.193   5.663  1.00  0.00     0.033 A 
ENDROOT
BRANCH   3   8
HETATM    8  C   UNL     1      64.135   8.497   4.783  1.00  0.00     0.031 A 
HETATM    9  S   UNL     1      63.422   7.729   3.417  1.00  0.00    -0.100 SA
HETATM   10  C   UNL     1      62.244   8.952   3.244  1.00  0.00     0.050 A 
HETATM   11  C   UNL     1      62.372   9.931   4.203  1.00  0.00     0.008 A 
HETATM   12  C   UNL     1      63.454   9.664   5.092  1.00  0.00     0.021 A 
ENDBRANCH   3   8
BRANCH   6  13
HETATM   13  N   UNL     1      68.330   6.117   7.697  1.00  0.00    -0.398 N 
HETATM   14  H   UNL     1      69.229   6.515   7.655  1.00  0.00     0.156 HD
HETATM   15  H   UNL     1      68.157   5.353   8.293  1.00  0.00     0.156 HD
ENDBRANCH   6  13
TORSDOF 2
ENDMDL
MODEL 5
REMARK VINA RESULT:      -4.3     18.074     19.715
REMARK  2 active torsions:
REMARK  status: ('A' for Active; 'I' for Inactive)
REMARK    1  A    between atoms: C_1  and  C_5 
REMARK    2  A    between atoms: C_11  and  N_12 
ROOT
HETATM    1  N   UNL     1      65.997   6.053   7.476  1.00  0.00    -0.363 N 
ATOM      2  HN  UNL     1      65.616   5.479   8.229  1.00  0.00     0.165 HD
HETATM    3  C   UNL     1      67.309   5.999   7.142  1.00  0.00     0.049 A 
HETATM    4  C   UNL     1      67.834   6.739   6.086  1.00  0.00     0.033 A 
HETATM    5  C   UNL     1      65.214   6.903   6.766  1.00  0.00     0.117 A 
HETATM    6  C   UNL     1      65.664   7.747   5.753  1.00  0.00     0.041 A 
HETATM    7  C   UNL     1      66.996   7.602   5.378  1.00  0.00     0.033 A 
ENDROOT
BRANCH   3   8
HETATM    8  C   UNL     1      68.112   5.087   7.971  1.00  0.00     0.031 A 
HETATM    9  S   UNL     1      67.580   3.484   8.301  1.00  0.00    -0.100 SA
HETATM   10  C   UNL     1      68.976   3.124   9.214  1.00  0.00     0.050 A 
HETATM   11  C   UNL     1      69.844   4.190   9.272  1.00  0.00     0.008 A 
HETATM   12  C   UNL     1      69.350   5.315   8.550  1.00  0.00     0.021 A 
ENDBRANCH   3   8
BRANCH   6  13
HETATM   13  N   UNL     1      64.790   8.522   4.983  1.00  0.00    -0.398 N 
HETATM   14  H   UNL     1      63.875   8.695   5.301  1.00  0.00     0.156 HD
HETATM   15  H   UNL     1      65.091   8.895   4.123  1.00  0.00     0.156 HD
ENDBRANCH   6  13
TORSDOF 2
ENDMDL
MODEL 6
REMARK VINA RESULT:      -4.3     18.365     19.366
REMARK  2 active torsions:
REMARK  status: ('A' for Active; 'I' for Inactive)
REMARK    1  A    between atoms: C_1  and  C_5 
REMARK    2  A    between atoms: C_11  and  N_12 
ROOT
HETATM    1  N   UNL     1      66.264   4.010   7.941  1.00  0.00    -0.363 N 
ATOM      2  HN  UNL     1      66.001   3.034   7.805  1.00  0.00     0.165 HD
HETATM    3  C   UNL     1      67.376   4.352   8.635  1.00  0.00     0.049 A 
HETATM    4  C   UNL     1      67.775   5.677   8.788  1.00  0.00     0.033 A 
HETATM    5  C   UNL     1      65.517   5.023   7.435  1.00  0.00     0.117 A 
HETATM    6  C   UNL     1      65.785   6.378   7.610  1.00  0.00     0.041 A 
HETATM    7  C   UNL     1      66.979   6.692   8.252  1.00  0.00     0.033 A 
ENDROOT
BRANCH   3   8
HETATM    8  C   UNL     1      68.124   3.212   9.187  1.00  0.00     0.031 A 
HETATM    9  S   UNL     1      67.666   1.591   8.834  1.00  0.00    -0.100 SA
HETATM   10  C   UNL     1      68.951   0.944   9.751  1.00  0.00     0.050 A 
HETATM   11  C   UNL     1      69.728   1.928  10.318  1.00  0.00     0.008 A 
HETATM   12  C   UNL     1      69.256   3.232   9.986  1.00  0.00     0.021 A 
ENDBRANCH   3   8
BRANCH   6  13
HETATM   13  N   UNL     1      65.039   7.376   6.973  1.00  0.00    -0.398 N 
HETATM   14  H   UNL     1      64.176   7.661   7.351  1.00  0.00     0.156 HD
HETATM   15  H   UNL     1      65.378   7.794   6.148  1.00  0.00     0.156 HD
ENDBRANCH   6  13
TORSDOF 2
ENDMDL
MODEL 7
REMARK VINA RESULT:      -4.2     20.700     23.043
REMARK  2 active torsions:
REMARK  status: ('A' for Active; 'I' for Inactive)
REMARK    1  A    between atoms: C_1  and  C_5 
REMARK    2  A    between atoms: C_11  and  N_12 
ROOT
HETATM    1  N   UNL     1      63.671   7.779   3.596  1.00  0.00    -0.363 N 
ATOM      2  HN  UNL     1      64.161   6.914   3.364  1.00  0.00     0.165 HD
HETATM    3  C   UNL     1      63.818   8.372   4.805  1.00  0.00     0.049 A 
HETATM    4  C   UNL     1      63.195   9.577   5.118  1.00  0.00     0.033 A 
HETATM    5  C   UNL     1      62.844   8.385   2.707  1.00  0.00     0.117 A 
HETATM    6  C   UNL     1      62.111   9.542   2.959  1.00  0.00     0.041 A 
HETATM    7  C   UNL     1      62.352  10.171   4.176  1.00  0.00     0.033 A 
ENDROOT
BRANCH   3   8
HETATM    8  C   UNL     1      64.698   7.649   5.735  1.00  0.00     0.031 A 
HETATM    9  S   UNL     1      66.342   8.113   5.948  1.00  0.00    -0.100 SA
HETATM   10  C   UNL     1      66.617   6.897   7.114  1.00  0.00     0.050 A 
HETATM   11  C   UNL     1      65.488   6.147   7.353  1.00  0.00     0.008 A 
HETATM   12  C   UNL     1      64.383   6.586   6.566  1.00  0.00     0.021 A 
ENDBRANCH   3   8
BRANCH   6  13
HETATM   13  N   UNL     1      61.358  10.181   1.967  1.00  0.00    -0.398 N 
HETATM   14  H   UNL     1      60.393  10.326   2.098  1.00  0.00     0.156 HD
HETATM   15  H   UNL     1      61.794  10.487   1.139  1.00  0.00     0.156 HD
ENDBRANCH   6  13
TORSDOF 2
ENDMDL
MODEL 8
REMARK VINA RESULT:      -4.1     18.640     21.036
REMARK  2 active torsions:
REMARK  status: ('A' for Active; 'I' for Inactive)
REMARK    1  A    between atoms: C_1  and  C_5 
REMARK    2  A    between atoms: C_11  and  N_12 
ROOT
HETATM    1  N   UNL     1      64.316   6.978   6.961  1.00  0.00    -0.363 N 
ATOM      2  HN  UNL     1      64.200   6.673   7.928  1.00  0.00     0.165 HD
HETATM    3  C   UNL     1      65.519   6.919   6.340  1.00  0.00     0.049 A 
HETATM    4  C   UNL     1      65.682   7.286   5.008  1.00  0.00     0.033 A 
HETATM    5  C   UNL     1      63.273   7.462   6.240  1.00  0.00     0.117 A 
HETATM    6  C   UNL     1      63.356   7.935   4.933  1.00  0.00     0.041 A 
HETATM    7  C   UNL     1      64.584   7.778   4.299  1.00  0.00     0.033 A 
ENDROOT
BRANCH   3   8
HETATM    8  C   UNL     1      66.615   6.420   7.184  1.00  0.00     0.031 A 
HETATM    9  S   UNL     1      66.522   6.492   8.901  1.00  0.00    -0.100 SA
HETATM   10  C   UNL     1      68.044   5.747   9.095  1.00  0.00     0.050 A 
HETATM   11  C   UNL     1      68.625   5.437   7.887  1.00  0.00     0.008 A 
HETATM   12  C   UNL     1      67.798   5.817   6.789  1.00  0.00     0.021 A 
ENDBRANCH   3   8
BRANCH   6  13
HETATM   13  N   UNL     1      62.226   8.320   4.204  1.00  0.00    -0.398 N 
HETATM   14  H   UNL     1      62.078   7.962   3.299  1.00  0.00     0.156 HD
HETATM   15  H   UNL     1      61.578   8.949   4.596  1.00  0.00     0.156 HD
ENDBRANCH   6  13
TORSDOF 2
ENDMDL
MODEL 9
REMARK VINA RESULT:      -4.0     14.683     16.511
REMARK  2 active torsions:
REMARK  status: ('A' for Active; 'I' for Inactive)
REMARK    1  A    between atoms: C_1  and  C_5 
REMARK    2  A    between atoms: C_11  and  N_12 
ROOT
HETATM    1  N   UNL     1      76.701  13.150   6.953  1.00  0.00    -0.363 N 
ATOM      2  HN  UNL     1      76.387  13.933   7.527  1.00  0.00     0.165 HD
HETATM    3  C   UNL     1      76.714  13.225   5.601  1.00  0.00     0.049 A 
HETATM    4  C   UNL     1      77.185  12.184   4.807  1.00  0.00     0.033 A 
HETATM    5  C   UNL     1      77.125  11.988   7.511  1.00  0.00     0.117 A 
HETATM    6  C   UNL     1      77.531  10.862   6.799  1.00  0.00     0.041 A 
HETATM    7  C   UNL     1      77.614  11.004   5.418  1.00  0.00     0.033 A 
ENDROOT
BRANCH   3   8
HETATM    8  C   UNL     1      76.210  14.495   5.057  1.00  0.00     0.031 A 
HETATM    9  S   UNL     1      75.815  14.655   3.389  1.00  0.00    -0.100 SA
HETATM   10  C   UNL     1      75.321  16.278   3.580  1.00  0.00     0.050 A 
HETATM   11  C   UNL     1      75.443  16.704   4.883  1.00  0.00     0.008 A 
HETATM   12  C   UNL     1      75.946  15.676   5.732  1.00  0.00     0.021 A 
ENDBRANCH   3   8
BRANCH   6  13
HETATM   13  N   UNL     1      78.060   9.730   7.430  1.00  0.00    -0.398 N 
HETATM   14  H   UNL     1      79.029   9.664   7.589  1.00  0.00     0.156 HD
HETATM   15  H   UNL     1      77.463   9.001   7.714  1.00  0.00     0.156 HD
ENDBRANCH   6  13
TORSDOF 2
ENDMDL
