MODEL 1
REMARK VINA RESULT:      -4.4      0.000      0.000
REMARK  3 active torsions:
REMARK  status: ('A' for Active; 'I' for Inactive)
REMARK    1  A    between atoms: C_5  and  C_7 
REMARK    2  A    between atoms: C_7  and  C_10 
REMARK    3  A    between atoms: O_8  and  C_10 
ROOT
HETATM    1  N   UNL     1      77.996  11.174  20.107  1.00  0.00    -0.357 N 
ATOM      2  HN  UNL     1      78.555  10.389  20.442  1.00  0.00     0.166 HD
HETATM    3  C   UNL     1      77.317  11.190  18.978  1.00  0.00     0.046 A 
HETATM    4  S   UNL     1      76.479  12.651  18.640  1.00  0.00    -0.087 SA
HETATM    5  C   UNL     1      77.840  12.379  20.773  1.00  0.00     0.018 A 
HETATM    6  C   UNL     1      77.048  13.301  20.117  1.00  0.00     0.076 A 
HETATM    7  C   UNL     1      77.247  10.056  18.016  1.00  0.00     0.076 C 
ENDROOT
BRANCH   5   8
HETATM    8  C   UNL     1      78.513  12.573  22.096  1.00  0.00     0.083 C 
BRANCH   8   9
HETATM    9  C   UNL     1      80.034  12.484  22.016  1.00  0.00     0.170 C 
BRANCH   9  10
HETATM   10  O   UNL     1      80.454  11.243  21.452  1.00  0.00    -0.400 OA
HETATM   11  H   UNL     1      81.057  10.796  22.067  1.00  0.00     0.209 HD
ENDBRANCH   9  10
ENDBRANCH   8   9
ENDBRANCH   5   8
TORSDOF 3
ENDMDL
MODEL 2
REMARK VINA RESULT:      -4.3      1.505      3.508
REMARK  3 active torsions:
REMARK  status: ('A' for Active; 'I' for Inactive)
REMARK    1  A    between atoms: C_5  and  C_7 
REMARK    2  A    between atoms: C_7  and  C_10 
REMARK    3  A    between atoms: O_8  and  C_10 
ROOT
HETATM    1  N   UNL     1      77.963  11.176  20.196  1.00  0.00    -0.357 N 
ATOM      2  HN  UNL     1      78.434  10.389  20.643  1.00  0.00     0.166 HD
HETATM    3  C   UNL     1      77.968  12.414  20.646  1.00  0.00     0.046 A 
HETATM    4  S   UNL     1      77.073  13.544  19.713  1.00  0.00    -0.087 SA
HETATM    5  C   UNL     1      77.223  11.098  19.027  1.00  0.00     0.018 A 
HETATM    6  C   UNL     1      76.664  12.294  18.619  1.00  0.00     0.076 A 
HETATM    7  C   UNL     1      78.677  12.865  21.875  1.00  0.00     0.076 C 
ENDROOT
BRANCH   5   8
HETATM    8  C   UNL     1      77.099   9.780  18.328  1.00  0.00     0.083 C 
BRANCH   8   9
HETATM    9  C   UNL     1      78.330   9.420  17.501  1.00  0.00     0.170 C 
BRANCH   9  10
HETATM   10  O   UNL     1      79.533   9.821  18.155  1.00  0.00    -0.400 OA
HETATM   11  H   UNL     1      80.264   9.822  17.517  1.00  0.00     0.209 HD
ENDBRANCH   9  10
ENDBRANCH   8   9
ENDBRANCH   5   8
TORSDOF 3
ENDMDL
MODEL 3
REMARK VINA RESULT:      -4.2      1.662      1.848
REMARK  3 active torsions:
REMARK  status: ('A' for Active; 'I' for Inactive)
REMARK    1  A    between atoms: C_5  and  C_7 
REMARK    2  A    between atoms: C_7  and  C_10 
REMARK    3  A    between atoms: O_8  and  C_10 
ROOT
HETATM    1  N   UNL     1      79.500  11.370  21.134  1.00  0.00    -0.357 N 
ATOM      2  HN  UNL     1      80.288  10.770  21.381  1.00  0.00     0.166 HD
HETATM    3  C   UNL     1      78.760  11.237  20.053  1.00  0.00     0.046 A 
HETATM    4  S   UNL     1      77.509  12.399  19.867  1.00  0.00    -0.087 SA
HETATM    5  C   UNL     1      79.054  12.444  21.888  1.00  0.00     0.018 A 
HETATM    6  C   UNL     1      77.978  13.120  21.345  1.00  0.00     0.076 A 
HETATM    7  C   UNL     1      78.946  10.178  19.024  1.00  0.00     0.076 C 
ENDROOT
BRANCH   5   8
HETATM    8  C   UNL     1      79.742  12.767  23.177  1.00  0.00     0.083 C 
BRANCH   8   9
HETATM    9  C   UNL     1      81.264  12.729  23.072  1.00  0.00     0.170 C 
BRANCH   9  10
HETATM   10  O   UNL     1      81.730  13.517  21.977  1.00  0.00    -0.400 OA
HETATM   11  H   UNL     1      81.116  14.251  21.822  1.00  0.00     0.209 HD
ENDBRANCH   9  10
ENDBRANCH   8   9
ENDBRANCH   5   8
TORSDOF 3
ENDMDL
MODEL 4
REMARK VINA RESULT:      -3.9      9.553     11.055
REMARK  3 active torsions:
REMARK  status: ('A' for Active; 'I' for Inactive)
REMARK    1  A    between atoms: C_5  and  C_7 
REMARK    2  A    between atoms: C_7  and  C_10 
REMARK    3  A    between atoms: O_8  and  C_10 
ROOT
HETATM    1  N   UNL     1      74.859   1.587  18.371  1.00  0.00    -0.357 N 
ATOM      2  HN  UNL     1      75.062   1.982  19.289  1.00  0.00     0.166 HD
HETATM    3  C   UNL     1      74.389   0.376  18.156  1.00  0.00     0.046 A 
HETATM    4  S   UNL     1      74.159  -0.047  16.507  1.00  0.00    -0.087 SA
HETATM    5  C   UNL     1      75.039   2.248  17.166  1.00  0.00     0.018 A 
HETATM    6  C   UNL     1      74.710   1.506  16.048  1.00  0.00     0.076 A 
HETATM    7  C   UNL     1      74.065  -0.608  19.225  1.00  0.00     0.076 C 
ENDROOT
BRANCH   5   8
HETATM    8  C   UNL     1      75.549   3.655  17.175  1.00  0.00     0.083 C 
BRANCH   8   9
HETATM    9  C   UNL     1      76.884   3.806  17.899  1.00  0.00     0.170 C 
BRANCH   9  10
HETATM   10  O   UNL     1      76.707   3.858  19.313  1.00  0.00    -0.400 OA
HETATM   11  H   UNL     1      75.991   3.256  19.571  1.00  0.00     0.209 HD
ENDBRANCH   9  10
ENDBRANCH   8   9
ENDBRANCH   5   8
TORSDOF 3
ENDMDL
MODEL 5
REMARK VINA RESULT:      -3.8      7.735      9.364
REMARK  3 active torsions:
REMARK  status: ('A' for Active; 'I' for Inactive)
REMARK    1  A    between atoms: C_5  and  C_7 
REMARK    2  A    between atoms: C_7  and  C_10 
REMARK    3  A    between atoms: O_8  and  C_10 
ROOT
HETATM    1  N   UNL     1      77.320   3.717  18.043  1.00  0.00    -0.357 N 
ATOM      2  HN  UNL     1      78.218   3.837  18.513  1.00  0.00     0.166 HD
HETATM    3  C   UNL     1      76.610   4.689  17.509  1.00  0.00     0.046 A 
HETATM    4  S   UNL     1      75.120   4.213  16.800  1.00  0.00    -0.087 SA
HETATM    5  C   UNL     1      76.670   2.505  17.874  1.00  0.00     0.018 A 
HETATM    6  C   UNL     1      75.457   2.589  17.219  1.00  0.00     0.076 A 
HETATM    7  C   UNL     1      77.014   6.122  17.494  1.00  0.00     0.076 C 
ENDROOT
BRANCH   5   8
HETATM    8  C   UNL     1      77.312   1.254  18.389  1.00  0.00     0.083 C 
BRANCH   8   9
HETATM    9  C   UNL     1      78.454   1.523  19.366  1.00  0.00     0.170 C 
BRANCH   9  10
HETATM   10  O   UNL     1      78.035   2.368  20.436  1.00  0.00    -0.400 OA
HETATM   11  H   UNL     1      78.562   2.174  21.227  1.00  0.00     0.209 HD
ENDBRANCH   9  10
ENDBRANCH   8   9
ENDBRANCH   5   8
TORSDOF 3
ENDMDL
MODEL 6
REMARK VINA RESULT:      -3.7     21.461     22.708
REMARK  3 active torsions:
REMARK  status: ('A' for Active; 'I' for Inactive)
REMARK    1  A    between atoms: C_5  and  C_7 
REMARK    2  A    between atoms: C_7  and  C_10 
REMARK    3  A    between atoms: O_8  and  C_10 
ROOT
HETATM    1  N   UNL     1      63.067   8.244   3.364  1.00  0.00    -0.357 N 
ATOM      2  HN  UNL     1      63.600   7.496   3.808  1.00  0.00     0.166 HD
HETATM    3  C   UNL     1      62.590   8.205   2.137  1.00  0.00     0.046 A 
HETATM    4  S   UNL     1      61.747   9.612   1.627  1.00  0.00    -0.087 SA
HETATM    5  C   UNL     1      62.739   9.450   3.964  1.00  0.00     0.018 A 
HETATM    6  C   UNL     1      62.023  10.317   3.161  1.00  0.00     0.076 A 
HETATM    7  C   UNL     1      62.741   7.054   1.206  1.00  0.00     0.076 C 
ENDROOT
BRANCH   5   8
HETATM    8  C   UNL     1      63.167   9.702   5.377  1.00  0.00     0.083 C 
BRANCH   8   9
HETATM    9  C   UNL     1      63.123  11.177   5.764  1.00  0.00     0.170 C 
BRANCH   9  10
HETATM   10  O   UNL     1      64.308  11.570   6.454  1.00  0.00    -0.400 OA
HETATM   11  H   UNL     1      64.724  12.311   5.987  1.00  0.00     0.209 HD
ENDBRANCH   9  10
ENDBRANCH   8   9
ENDBRANCH   5   8
TORSDOF 3
ENDMDL
MODEL 7
REMARK VINA RESULT:      -3.6     16.602     17.889
REMARK  3 active torsions:
REMARK  status: ('A' for Active; 'I' for Inactive)
REMARK    1  A    between atoms: C_5  and  C_7 
REMARK    2  A    between atoms: C_7  and  C_10 
REMARK    3  A    between atoms: O_8  and  C_10 
ROOT
HETATM    1  N   UNL     1      68.548   6.328   7.485  1.00  0.00    -0.357 N 
ATOM      2  HN  UNL     1      69.338   6.962   7.357  1.00  0.00     0.166 HD
HETATM    3  C   UNL     1      68.589   5.196   8.156  1.00  0.00     0.046 A 
HETATM    4  S   UNL     1      67.121   4.306   8.195  1.00  0.00    -0.087 SA
HETATM    5  C   UNL     1      67.276   6.534   6.976  1.00  0.00     0.018 A 
HETATM    6  C   UNL     1      66.371   5.530   7.264  1.00  0.00     0.076 A 
HETATM    7  C   UNL     1      69.795   4.666   8.850  1.00  0.00     0.076 C 
ENDROOT
BRANCH   5   8
HETATM    8  C   UNL     1      66.996   7.778   6.191  1.00  0.00     0.083 C 
BRANCH   8   9
HETATM    9  C   UNL     1      67.851   7.900   4.932  1.00  0.00     0.170 C 
BRANCH   9  10
HETATM   10  O   UNL     1      69.200   8.235   5.250  1.00  0.00    -0.400 OA
HETATM   11  H   UNL     1      69.240   9.150   5.568  1.00  0.00     0.209 HD
ENDBRANCH   9  10
ENDBRANCH   8   9
ENDBRANCH   5   8
TORSDOF 3
ENDMDL
MODEL 8
REMARK VINA RESULT:      -3.5     16.119     16.968
REMARK  3 active torsions:
REMARK  status: ('A' for Active; 'I' for Inactive)
REMARK    1  A    between atoms: C_5  and  C_7 
REMARK    2  A    between atoms: C_7  and  C_10 
REMARK    3  A    between atoms: O_8  and  C_10 
ROOT
HETATM    1  N   UNL     1      68.648   4.426   7.511  1.00  0.00    -0.357 N 
ATOM      2  HN  UNL     1      69.163   3.670   7.060  1.00  0.00     0.166 HD
HETATM    3  C   UNL     1      67.782   5.215   6.908  1.00  0.00     0.046 A 
HETATM    4  S   UNL     1      67.072   6.425   7.897  1.00  0.00    -0.087 SA
HETATM    5  C   UNL     1      68.756   4.773   8.848  1.00  0.00     0.018 A 
HETATM    6  C   UNL     1      67.970   5.843   9.231  1.00  0.00     0.076 A 
HETATM    7  C   UNL     1      67.407   5.118   5.471  1.00  0.00     0.076 C 
ENDROOT
BRANCH   5   8
HETATM    8  C   UNL     1      69.676   3.989   9.733  1.00  0.00     0.083 C 
BRANCH   8   9
HETATM    9  C   UNL     1      69.157   2.589  10.050  1.00  0.00     0.170 C 
BRANCH   9  10
HETATM   10  O   UNL     1      69.745   2.075  11.243  1.00  0.00    -0.400 OA
HETATM   11  H   UNL     1      69.324   1.231  11.473  1.00  0.00     0.209 HD
ENDBRANCH   9  10
ENDBRANCH   8   9
ENDBRANCH   5   8
TORSDOF 3
ENDMDL
MODEL 9
REMARK VINA RESULT:      -3.5     10.874     11.959
REMARK  3 active torsions:
REMARK  status: ('A' for Active; 'I' for Inactive)
REMARK    1  A    between atoms: C_5  and  C_7 
REMARK    2  A    between atoms: C_7  and  C_10 
REMARK    3  A    between atoms: O_8  and  C_10 
ROOT
HETATM    1  N   UNL     1      76.886  -0.238  19.516  1.00  0.00    -0.357 N 
ATOM      2  HN  UNL     1      76.013  -0.652  19.189  1.00  0.00     0.166 HD
HETATM    3  C   UNL     1      77.529  -0.596  20.608  1.00  0.00     0.046 A 
HETATM    4  S   UNL     1      78.967   0.282  20.941  1.00  0.00    -0.087 SA
HETATM    5  C   UNL     1      77.569   0.783  18.876  1.00  0.00     0.018 A 
HETATM    6  C   UNL     1      78.724   1.193  19.514  1.00  0.00     0.076 A 
HETATM    7  C   UNL     1      77.089  -1.676  21.534  1.00  0.00     0.076 C 
ENDROOT
BRANCH   5   8
HETATM    8  C   UNL     1      77.024   1.334  17.595  1.00  0.00     0.083 C 
BRANCH   8   9
HETATM    9  C   UNL     1      75.961   2.409  17.806  1.00  0.00     0.170 C 
BRANCH   9  10
HETATM   10  O   UNL     1      74.862   1.912  18.569  1.00  0.00    -0.400 OA
HETATM   11  H   UNL     1      74.161   2.582  18.601  1.00  0.00     0.209 HD
ENDBRANCH   9  10
ENDBRANCH   8   9
ENDBRANCH   5   8
TORSDOF 3
ENDMDL
