MODEL 1
REMARK VINA RESULT:      -4.7      0.000      0.000
REMARK  1 active torsions:
REMARK  status: ('A' for Active; 'I' for Inactive)
REMARK    1  A    between atoms: C_9  and  N_10 
ROOT
HETATM    1  N   UNL     1      64.219   8.428   5.960  1.00  0.00    -0.353 N 
ATOM      2  HN  UNL     1      64.479   8.675   6.914  1.00  0.00     0.166 HD
HETATM    3  S   UNL     1      63.958   7.126   3.752  1.00  0.00    -0.075 SA
HETATM    4  C   UNL     1      64.536   7.303   5.358  1.00  0.00     0.048 A 
HETATM    5  C   UNL     1      63.231   8.682   3.844  1.00  0.00     0.035 A 
HETATM    6  C   UNL     1      63.478   9.227   5.104  1.00  0.00     0.050 A 
HETATM    7  C   UNL     1      62.502   9.379   2.863  1.00  0.00     0.050 A 
HETATM    8  C   UNL     1      62.990  10.517   5.387  1.00  0.00     0.033 A 
HETATM    9  C   UNL     1      61.978  10.639   3.174  1.00  0.00     0.027 A 
HETATM   10  C   UNL     1      62.267  11.215   4.411  1.00  0.00     0.031 A 
HETATM   11  C   UNL     1      65.347   6.218   5.974  1.00  0.00     0.076 C 
ENDROOT
BRANCH   9  12
HETATM   12  N   UNL     1      61.375  11.405   2.168  1.00  0.00    -0.399 N 
HETATM   13  H   UNL     1      60.974  12.277   2.388  1.00  0.00     0.156 HD
HETATM   14  H   UNL     1      61.353  11.072   1.242  1.00  0.00     0.156 HD
ENDBRANCH   9  12
TORSDOF 1
ENDMDL
MODEL 2
REMARK VINA RESULT:      -4.7     18.541     19.577
REMARK  1 active torsions:
REMARK  status: ('A' for Active; 'I' for Inactive)
REMARK    1  A    between atoms: C_9  and  N_10 
ROOT
HETATM    1  N   UNL     1      77.272   4.507  18.015  1.00  0.00    -0.353 N 
ATOM      2  HN  UNL     1      78.139   4.630  18.537  1.00  0.00     0.166 HD
HETATM    3  S   UNL     1      75.162   4.997  16.621  1.00  0.00    -0.075 SA
HETATM    4  C   UNL     1      76.581   5.476  17.457  1.00  0.00     0.048 A 
HETATM    5  C   UNL     1      75.470   3.357  17.041  1.00  0.00     0.035 A 
HETATM    6  C   UNL     1      76.645   3.292  17.790  1.00  0.00     0.050 A 
HETATM    7  C   UNL     1      74.716   2.208  16.739  1.00  0.00     0.050 A 
HETATM    8  C   UNL     1      77.073   2.036  18.262  1.00  0.00     0.033 A 
HETATM    9  C   UNL     1      75.180   0.960  17.171  1.00  0.00     0.027 A 
HETATM   10  C   UNL     1      76.322   0.891  17.967  1.00  0.00     0.031 A 
HETATM   11  C   UNL     1      76.951   6.917  17.518  1.00  0.00     0.076 C 
ENDROOT
BRANCH   9  12
HETATM   12  N   UNL     1      74.373  -0.173  17.004  1.00  0.00    -0.399 N 
HETATM   13  H   UNL     1      74.564  -0.811  16.279  1.00  0.00     0.156 HD
HETATM   14  H   UNL     1      73.615  -0.332  17.613  1.00  0.00     0.156 HD
ENDBRANCH   9  12
TORSDOF 1
ENDMDL
MODEL 3
REMARK VINA RESULT:      -4.7     18.335     19.623
REMARK  1 active torsions:
REMARK  status: ('A' for Active; 'I' for Inactive)
REMARK    1  A    between atoms: C_9  and  N_10 
ROOT
HETATM    1  N   UNL     1      68.954  23.789  13.976  1.00  0.00    -0.353 N 
ATOM      2  HN  UNL     1      68.142  23.321  13.574  1.00  0.00     0.166 HD
HETATM    3  S   UNL     1      70.420  25.379  15.376  1.00  0.00    -0.075 SA
HETATM    4  C   UNL     1      68.904  24.777  14.842  1.00  0.00     0.048 A 
HETATM    5  C   UNL     1      71.226  24.245  14.364  1.00  0.00     0.035 A 
HETATM    6  C   UNL     1      70.274  23.480  13.690  1.00  0.00     0.050 A 
HETATM    7  C   UNL     1      72.606  24.055  14.169  1.00  0.00     0.050 A 
HETATM    8  C   UNL     1      70.719  22.500  12.782  1.00  0.00     0.033 A 
HETATM    9  C   UNL     1      73.036  23.043  13.303  1.00  0.00     0.027 A 
HETATM   10  C   UNL     1      72.093  22.310  12.583  1.00  0.00     0.031 A 
HETATM   11  C   UNL     1      67.647  25.383  15.358  1.00  0.00     0.076 C 
ENDROOT
BRANCH   9  12
HETATM   12  N   UNL     1      74.396  22.933  12.989  1.00  0.00    -0.399 N 
HETATM   13  H   UNL     1      74.971  22.318  13.499  1.00  0.00     0.156 HD
HETATM   14  H   UNL     1      74.778  23.471  12.256  1.00  0.00     0.156 HD
ENDBRANCH   9  12
TORSDOF 1
ENDMDL
MODEL 4
REMARK VINA RESULT:      -4.6      5.301      8.939
REMARK  1 active torsions:
REMARK  status: ('A' for Active; 'I' for Inactive)
REMARK    1  A    between atoms: C_9  and  N_10 
ROOT
HETATM    1  N   UNL     1      68.188   6.425   7.263  1.00  0.00    -0.353 N 
ATOM      2  HN  UNL     1      68.756   7.176   6.872  1.00  0.00     0.166 HD
HETATM    3  S   UNL     1      66.182   4.905   7.813  1.00  0.00    -0.075 SA
HETATM    4  C   UNL     1      66.901   6.263   7.050  1.00  0.00     0.048 A 
HETATM    5  C   UNL     1      67.702   4.491   8.505  1.00  0.00     0.035 A 
HETATM    6  C   UNL     1      68.657   5.423   8.097  1.00  0.00     0.050 A 
HETATM    7  C   UNL     1      68.025   3.422   9.361  1.00  0.00     0.050 A 
HETATM    8  C   UNL     1      69.975   5.286   8.571  1.00  0.00     0.033 A 
HETATM    9  C   UNL     1      69.350   3.269   9.784  1.00  0.00     0.027 A 
HETATM   10  C   UNL     1      70.299   4.225   9.427  1.00  0.00     0.031 A 
HETATM   11  C   UNL     1      66.064   7.170   6.217  1.00  0.00     0.076 C 
ENDROOT
BRANCH   9  12
HETATM   12  N   UNL     1      69.661   2.299  10.746  1.00  0.00    -0.399 N 
HETATM   13  H   UNL     1      68.990   2.041  11.420  1.00  0.00     0.156 HD
HETATM   14  H   UNL     1      70.550   1.875  10.749  1.00  0.00     0.156 HD
ENDBRANCH   9  12
TORSDOF 1
ENDMDL
MODEL 5
REMARK VINA RESULT:      -4.3      2.463      3.774
REMARK  1 active torsions:
REMARK  status: ('A' for Active; 'I' for Inactive)
REMARK    1  A    between atoms: C_9  and  N_10 
ROOT
HETATM    1  N   UNL     1      63.000   7.333   2.044  1.00  0.00    -0.353 N 
ATOM      2  HN  UNL     1      63.499   6.445   1.992  1.00  0.00     0.166 HD
HETATM    3  S   UNL     1      61.454   9.310   1.465  1.00  0.00    -0.075 SA
HETATM    4  C   UNL     1      62.181   7.794   1.125  1.00  0.00     0.048 A 
HETATM    5  C   UNL     1      62.305   9.382   2.958  1.00  0.00     0.035 A 
HETATM    6  C   UNL     1      63.085   8.233   3.093  1.00  0.00     0.050 A 
HETATM    7  C   UNL     1      62.294  10.393   3.937  1.00  0.00     0.050 A 
HETATM    8  C   UNL     1      63.888   8.097   4.242  1.00  0.00     0.033 A 
HETATM    9  C   UNL     1      63.058  10.221   5.097  1.00  0.00     0.027 A 
HETATM   10  C   UNL     1      63.882   9.103   5.217  1.00  0.00     0.031 A 
HETATM   11  C   UNL     1      61.869   7.096  -0.152  1.00  0.00     0.076 C 
ENDROOT
BRANCH   9  12
HETATM   12  N   UNL     1      63.171  11.275   6.013  1.00  0.00    -0.399 N 
HETATM   13  H   UNL     1      63.990  11.374   6.551  1.00  0.00     0.156 HD
HETATM   14  H   UNL     1      62.432  11.918   6.118  1.00  0.00     0.156 HD
ENDBRANCH   9  12
TORSDOF 1
ENDMDL
MODEL 6
REMARK VINA RESULT:      -4.2      3.492      6.928
REMARK  1 active torsions:
REMARK  status: ('A' for Active; 'I' for Inactive)
REMARK    1  A    between atoms: C_9  and  N_10 
ROOT
HETATM    1  N   UNL     1      65.254   7.349   7.121  1.00  0.00    -0.353 N 
ATOM      2  HN  UNL     1      64.607   7.928   7.656  1.00  0.00     0.166 HD
HETATM    3  S   UNL     1      66.398   6.117   5.169  1.00  0.00    -0.075 SA
HETATM    4  C   UNL     1      65.168   7.114   5.831  1.00  0.00     0.048 A 
HETATM    5  C   UNL     1      67.110   5.963   6.728  1.00  0.00     0.035 A 
HETATM    6  C   UNL     1      66.355   6.692   7.647  1.00  0.00     0.050 A 
HETATM    7  C   UNL     1      68.250   5.235   7.113  1.00  0.00     0.050 A 
HETATM    8  C   UNL     1      66.749   6.683   8.998  1.00  0.00     0.033 A 
HETATM    9  C   UNL     1      68.661   5.276   8.451  1.00  0.00     0.027 A 
HETATM   10  C   UNL     1      67.883   5.956   9.387  1.00  0.00     0.031 A 
HETATM   11  C   UNL     1      64.093   7.644   4.948  1.00  0.00     0.076 C 
ENDROOT
BRANCH   9  12
HETATM   12  N   UNL     1      69.705   4.447   8.879  1.00  0.00    -0.399 N 
HETATM   13  H   UNL     1      69.676   4.041   9.776  1.00  0.00     0.156 HD
HETATM   14  H   UNL     1      70.469   4.268   8.283  1.00  0.00     0.156 HD
ENDBRANCH   9  12
TORSDOF 1
ENDMDL
MODEL 7
REMARK VINA RESULT:      -4.1      3.460      4.706
REMARK  1 active torsions:
REMARK  status: ('A' for Active; 'I' for Inactive)
REMARK    1  A    between atoms: C_9  and  N_10 
ROOT
HETATM    1  N   UNL     1      68.124   6.661   6.907  1.00  0.00    -0.353 N 
ATOM      2  HN  UNL     1      69.009   7.002   6.533  1.00  0.00     0.166 HD
HETATM    3  S   UNL     1      66.395   5.415   8.354  1.00  0.00    -0.075 SA
HETATM    4  C   UNL     1      68.002   5.817   7.908  1.00  0.00     0.048 A 
HETATM    5  C   UNL     1      65.794   6.434   7.104  1.00  0.00     0.035 A 
HETATM    6  C   UNL     1      66.871   7.016   6.435  1.00  0.00     0.050 A 
HETATM    7  C   UNL     1      64.461   6.690   6.734  1.00  0.00     0.050 A 
HETATM    8  C   UNL     1      66.604   7.874   5.351  1.00  0.00     0.033 A 
HETATM    9  C   UNL     1      64.208   7.584   5.687  1.00  0.00     0.027 A 
HETATM   10  C   UNL     1      65.278   8.128   4.976  1.00  0.00     0.031 A 
HETATM   11  C   UNL     1      69.145   5.210   8.643  1.00  0.00     0.076 C 
ENDROOT
BRANCH   9  12
HETATM   12  N   UNL     1      62.900   7.741   5.212  1.00  0.00    -0.399 N 
HETATM   13  H   UNL     1      62.233   8.219   5.756  1.00  0.00     0.156 HD
HETATM   14  H   UNL     1      62.648   7.374   4.333  1.00  0.00     0.156 HD
ENDBRANCH   9  12
TORSDOF 1
ENDMDL
MODEL 8
REMARK VINA RESULT:      -4.1      1.767      2.449
REMARK  1 active torsions:
REMARK  status: ('A' for Active; 'I' for Inactive)
REMARK    1  A    between atoms: C_9  and  N_10 
ROOT
HETATM    1  N   UNL     1      62.984   6.585   3.347  1.00  0.00    -0.353 N 
ATOM      2  HN  UNL     1      63.096   5.779   2.732  1.00  0.00     0.166 HD
HETATM    3  S   UNL     1      62.912   8.067   5.453  1.00  0.00    -0.075 SA
HETATM    4  C   UNL     1      63.143   6.567   4.652  1.00  0.00     0.048 A 
HETATM    5  C   UNL     1      62.553   8.815   3.946  1.00  0.00     0.035 A 
HETATM    6  C   UNL     1      62.641   7.861   2.931  1.00  0.00     0.050 A 
HETATM    7  C   UNL     1      62.205  10.152   3.681  1.00  0.00     0.050 A 
HETATM    8  C   UNL     1      62.359   8.257   1.610  1.00  0.00     0.033 A 
HETATM    9  C   UNL     1      61.977  10.544   2.357  1.00  0.00     0.027 A 
HETATM   10  C   UNL     1      62.008   9.587   1.343  1.00  0.00     0.031 A 
HETATM   11  C   UNL     1      63.494   5.355   5.442  1.00  0.00     0.076 C 
ENDROOT
BRANCH   9  12
HETATM   12  N   UNL     1      61.492  11.831   2.090  1.00  0.00    -0.399 N 
HETATM   13  H   UNL     1      61.813  12.597   2.617  1.00  0.00     0.156 HD
HETATM   14  H   UNL     1      60.829  11.969   1.374  1.00  0.00     0.156 HD
ENDBRANCH   9  12
TORSDOF 1
ENDMDL
MODEL 9
REMARK VINA RESULT:      -4.0      4.527      6.214
REMARK  1 active torsions:
REMARK  status: ('A' for Active; 'I' for Inactive)
REMARK    1  A    between atoms: C_9  and  N_10 
ROOT
HETATM    1  N   UNL     1      68.632   4.447   7.362  1.00  0.00    -0.353 N 
ATOM      2  HN  UNL     1      69.099   3.715   6.827  1.00  0.00     0.166 HD
HETATM    3  S   UNL     1      67.841   5.922   9.320  1.00  0.00    -0.075 SA
HETATM    4  C   UNL     1      68.711   4.596   8.666  1.00  0.00     0.048 A 
HETATM    5  C   UNL     1      67.291   6.338   7.744  1.00  0.00     0.035 A 
HETATM    6  C   UNL     1      67.819   5.431   6.824  1.00  0.00     0.050 A 
HETATM    7  C   UNL     1      66.441   7.386   7.350  1.00  0.00     0.050 A 
HETATM    8  C   UNL     1      67.475   5.573   5.467  1.00  0.00     0.033 A 
HETATM    9  C   UNL     1      66.147   7.547   5.991  1.00  0.00     0.027 A 
HETATM   10  C   UNL     1      66.624   6.614   5.071  1.00  0.00     0.031 A 
HETATM   11  C   UNL     1      69.484   3.702   9.571  1.00  0.00     0.076 C 
ENDROOT
BRANCH   9  12
HETATM   12  N   UNL     1      65.192   8.493   5.596  1.00  0.00    -0.399 N 
HETATM   13  H   UNL     1      64.537   8.833   6.249  1.00  0.00     0.156 HD
HETATM   14  H   UNL     1      65.175   8.818   4.667  1.00  0.00     0.156 HD
ENDBRANCH   9  12
TORSDOF 1
ENDMDL
