MODEL 1
REMARK VINA RESULT:      -5.7      0.000      0.000
REMARK  4 active torsions:
REMARK  status: ('A' for Active; 'I' for Inactive)
REMARK    1  A    between atoms: N_1  and  C_3 
REMARK    2  A    between atoms: C_3  and  C_7 
REMARK    3  A    between atoms: C_8  and  C_17 
REMARK    4  A    between atoms: N_11  and  C_17 
ROOT
HETATM    1  C   UNL     1      63.638   8.289   4.837  1.00  0.00    -0.033 A 
HETATM    2  C   UNL     1      62.247   9.799   2.894  1.00  0.00    -0.033 A 
HETATM    3  C   UNL     1      63.146   9.565   5.142  1.00  0.00     0.009 A 
HETATM    4  C   UNL     1      63.456   7.791   3.540  1.00  0.00     0.009 A 
HETATM    5  C   UNL     1      62.766   8.536   2.579  1.00  0.00     0.009 A 
HETATM    6  C   UNL     1      62.459  10.311   4.181  1.00  0.00     0.009 A 
ENDROOT
BRANCH   1   7
HETATM    7  C   UNL     1      64.340   7.455   5.890  1.00  0.00     0.273 C 
BRANCH   7   8
HETATM    8  N   UNL     1      65.790   7.293   5.668  1.00  0.00    -0.066 N 
HETATM    9  C   UNL     1      66.614   7.850   6.750  1.00  0.00     0.263 C 
HETATM   10  C   UNL     1      66.810   6.963   7.996  1.00  0.00     0.262 C 
HETATM   11  N   UNL     1      68.029   6.141   7.906  1.00  0.00    -0.073 N 
HETATM   12  C   UNL     1      67.919   5.048   6.933  1.00  0.00     0.236 C 
HETATM   13  C   UNL     1      68.377   5.607   9.225  1.00  0.00     0.269 C 
HETATM   14  H   UNL     1      68.771   6.757   7.574  1.00  0.00     0.279 HD
HETATM   15  C   UNL     1      67.558   5.453   5.496  1.00  0.00     0.055 C 
HETATM   16  C   UNL     1      66.099   5.896   5.336  1.00  0.00     0.237 C 
HETATM   17  H   UNL     1      66.049   7.859   4.859  1.00  0.00     0.280 HD
ENDBRANCH   7   8
ENDBRANCH   1   7
BRANCH   2  18
HETATM   18  C   UNL     1      61.469  10.589   1.871  1.00  0.00     0.268 C 
BRANCH  18  19
HETATM   19  N   UNL     1      61.839  12.000   1.890  1.00  0.00    -0.075 N 
HETATM   20  H   UNL     1      62.438  12.205   1.091  1.00  0.00     0.274 HD
HETATM   21  H   UNL     1      62.339  12.210   2.753  1.00  0.00     0.274 HD
HETATM   22  H   UNL     1      60.995  12.572   1.838  1.00  0.00     0.274 HD
ENDBRANCH  18  19
ENDBRANCH   2  18
TORSDOF 4
ENDMDL
MODEL 2
REMARK VINA RESULT:      -5.5      1.345      2.331
REMARK  4 active torsions:
REMARK  status: ('A' for Active; 'I' for Inactive)
REMARK    1  A    between atoms: N_1  and  C_3 
REMARK    2  A    between atoms: C_3  and  C_7 
REMARK    3  A    between atoms: C_8  and  C_17 
REMARK    4  A    between atoms: N_11  and  C_17 
ROOT
HETATM    1  C   UNL     1      64.694   7.544   4.626  1.00  0.00    -0.033 A 
HETATM    2  C   UNL     1      62.651   8.958   3.276  1.00  0.00    -0.033 A 
HETATM    3  C   UNL     1      64.136   7.037   3.444  1.00  0.00     0.009 A 
HETATM    4  C   UNL     1      64.196   8.748   5.142  1.00  0.00     0.009 A 
HETATM    5  C   UNL     1      63.187   9.449   4.474  1.00  0.00     0.009 A 
HETATM    6  C   UNL     1      63.126   7.737   2.778  1.00  0.00     0.009 A 
ENDROOT
BRANCH   1   7
HETATM    7  C   UNL     1      65.824   6.815   5.325  1.00  0.00     0.273 C 
BRANCH   7   8
HETATM    8  N   UNL     1      65.625   6.641   6.777  1.00  0.00    -0.066 N 
HETATM    9  C   UNL     1      65.313   5.256   7.162  1.00  0.00     0.263 C 
HETATM   10  C   UNL     1      66.509   4.295   7.314  1.00  0.00     0.262 C 
HETATM   11  N   UNL     1      67.008   4.243   8.699  1.00  0.00    -0.073 N 
HETATM   12  C   UNL     1      67.716   5.463   9.104  1.00  0.00     0.236 C 
HETATM   13  C   UNL     1      67.872   3.075   8.882  1.00  0.00     0.269 C 
HETATM   14  H   UNL     1      66.188   4.167   9.300  1.00  0.00     0.279 HD
HETATM   15  C   UNL     1      66.935   6.778   8.970  1.00  0.00     0.055 C 
HETATM   16  C   UNL     1      66.749   7.231   7.516  1.00  0.00     0.237 C 
HETATM   17  H   UNL     1      64.786   7.155   7.043  1.00  0.00     0.280 HD
ENDBRANCH   7   8
ENDBRANCH   1   7
BRANCH   2  18
HETATM   18  C   UNL     1      61.591   9.730   2.533  1.00  0.00     0.268 C 
BRANCH  18  19
HETATM   19  N   UNL     1      61.703  11.164   2.776  1.00  0.00    -0.075 N 
HETATM   20  H   UNL     1      61.997  11.632   1.920  1.00  0.00     0.274 HD
HETATM   21  H   UNL     1      62.390  11.332   3.509  1.00  0.00     0.274 HD
HETATM   22  H   UNL     1      60.796  11.531   3.069  1.00  0.00     0.274 HD
ENDBRANCH  18  19
ENDBRANCH   2  18
TORSDOF 4
ENDMDL
MODEL 3
REMARK VINA RESULT:      -5.3      1.886      7.428
REMARK  4 active torsions:
REMARK  status: ('A' for Active; 'I' for Inactive)
REMARK    1  A    between atoms: N_1  and  C_3 
REMARK    2  A    between atoms: C_3  and  C_7 
REMARK    3  A    between atoms: C_8  and  C_17 
REMARK    4  A    between atoms: N_11  and  C_17 
ROOT
HETATM    1  C   UNL     1      66.983   6.448   6.825  1.00  0.00    -0.033 A 
HETATM    2  C   UNL     1      68.363   4.844   8.699  1.00  0.00    -0.033 A 
HETATM    3  C   UNL     1      67.109   6.858   8.159  1.00  0.00     0.009 A 
HETATM    4  C   UNL     1      67.526   5.213   6.447  1.00  0.00     0.009 A 
HETATM    5  C   UNL     1      68.210   4.420   7.372  1.00  0.00     0.009 A 
HETATM    6  C   UNL     1      67.791   6.064   9.085  1.00  0.00     0.009 A 
ENDROOT
BRANCH   1   7
HETATM    7  C   UNL     1      66.288   7.328   5.805  1.00  0.00     0.273 C 
BRANCH   7   8
HETATM    8  N   UNL     1      64.939   7.772   6.207  1.00  0.00    -0.066 N 
HETATM    9  C   UNL     1      64.401   8.848   5.362  1.00  0.00     0.263 C 
HETATM   10  C   UNL     1      63.751   8.421   4.030  1.00  0.00     0.262 C 
HETATM   11  N   UNL     1      62.299   8.216   4.161  1.00  0.00    -0.073 N 
HETATM   12  C   UNL     1      61.952   7.006   4.916  1.00  0.00     0.236 C 
HETATM   13  C   UNL     1      61.672   8.180   2.838  1.00  0.00     0.269 C 
HETATM   14  H   UNL     1      61.941   9.007   4.694  1.00  0.00     0.279 HD
HETATM   15  C   UNL     1      62.538   6.898   6.331  1.00  0.00     0.055 C 
HETATM   16  C   UNL     1      64.045   6.614   6.347  1.00  0.00     0.237 C 
HETATM   17  H   UNL     1      65.013   8.208   7.126  1.00  0.00     0.280 HD
ENDBRANCH   7   8
ENDBRANCH   1   7
BRANCH   2  18
HETATM   18  C   UNL     1      69.134   4.010   9.691  1.00  0.00     0.268 C 
BRANCH  18  19
HETATM   19  N   UNL     1      70.574   4.178   9.528  1.00  0.00    -0.075 N 
HETATM   20  H   UNL     1      71.024   4.159  10.442  1.00  0.00     0.274 HD
HETATM   21  H   UNL     1      70.763   5.071   9.073  1.00  0.00     0.274 HD
HETATM   22  H   UNL     1      70.941   3.419   8.952  1.00  0.00     0.274 HD
ENDBRANCH  18  19
ENDBRANCH   2  18
TORSDOF 4
ENDMDL
MODEL 4
REMARK VINA RESULT:      -5.0     15.934     17.417
REMARK  4 active torsions:
REMARK  status: ('A' for Active; 'I' for Inactive)
REMARK    1  A    between atoms: N_1  and  C_3 
REMARK    2  A    between atoms: C_3  and  C_7 
REMARK    3  A    between atoms: C_8  and  C_17 
REMARK    4  A    between atoms: N_11  and  C_17 
ROOT
HETATM    1  C   UNL     1      75.155   2.546  17.514  1.00  0.00    -0.033 A 
HETATM    2  C   UNL     1      76.241   5.085  16.910  1.00  0.00    -0.033 A 
HETATM    3  C   UNL     1      74.429   3.469  16.749  1.00  0.00     0.009 A 
HETATM    4  C   UNL     1      76.415   2.919  18.001  1.00  0.00     0.009 A 
HETATM    5  C   UNL     1      76.954   4.174  17.701  1.00  0.00     0.009 A 
HETATM    6  C   UNL     1      74.967   4.724  16.451  1.00  0.00     0.009 A 
ENDROOT
BRANCH   1   7
HETATM    7  C   UNL     1      74.599   1.165  17.798  1.00  0.00     0.273 C 
BRANCH   7   8
HETATM    8  N   UNL     1      74.416   0.327  16.597  1.00  0.00    -0.066 N 
HETATM    9  C   UNL     1      75.636   0.189  15.788  1.00  0.00     0.263 C 
HETATM   10  C   UNL     1      76.654  -0.873  16.249  1.00  0.00     0.262 C 
HETATM   11  N   UNL     1      76.439  -2.172  15.590  1.00  0.00    -0.073 N 
HETATM   12  C   UNL     1      75.238  -2.869  16.063  1.00  0.00     0.236 C 
HETATM   13  C   UNL     1      77.617  -3.027  15.759  1.00  0.00     0.269 C 
HETATM   14  H   UNL     1      76.293  -1.974  14.600  1.00  0.00     0.279 HD
HETATM   15  C   UNL     1      73.916  -2.097  15.950  1.00  0.00     0.055 C 
HETATM   16  C   UNL     1      73.789  -0.951  16.961  1.00  0.00     0.237 C 
HETATM   17  H   UNL     1      73.771   0.810  15.972  1.00  0.00     0.280 HD
ENDBRANCH   7   8
ENDBRANCH   1   7
BRANCH   2  18
HETATM   18  C   UNL     1      76.835   6.424  16.552  1.00  0.00     0.268 C 
BRANCH  18  19
HETATM   19  N   UNL     1      76.993   6.572  15.109  1.00  0.00    -0.075 N 
HETATM   20  H   UNL     1      77.965   6.786  14.894  1.00  0.00     0.274 HD
HETATM   21  H   UNL     1      76.396   7.328  14.777  1.00  0.00     0.274 HD
HETATM   22  H   UNL     1      76.727   5.701  14.648  1.00  0.00     0.274 HD
ENDBRANCH  18  19
ENDBRANCH   2  18
TORSDOF 4
ENDMDL
MODEL 5
REMARK VINA RESULT:      -4.8     15.950     17.976
REMARK  4 active torsions:
REMARK  status: ('A' for Active; 'I' for Inactive)
REMARK    1  A    between atoms: N_1  and  C_3 
REMARK    2  A    between atoms: C_3  and  C_7 
REMARK    3  A    between atoms: C_8  and  C_17 
REMARK    4  A    between atoms: N_11  and  C_17 
ROOT
HETATM    1  C   UNL     1      75.224   2.513  17.544  1.00  0.00    -0.033 A 
HETATM    2  C   UNL     1      76.242   5.075  16.916  1.00  0.00    -0.033 A 
HETATM    3  C   UNL     1      74.474   3.409  16.768  1.00  0.00     0.009 A 
HETATM    4  C   UNL     1      76.472   2.925  18.028  1.00  0.00     0.009 A 
HETATM    5  C   UNL     1      76.977   4.191  17.717  1.00  0.00     0.009 A 
HETATM    6  C   UNL     1      74.979   4.675  16.459  1.00  0.00     0.009 A 
ENDROOT
BRANCH   1   7
HETATM    7  C   UNL     1      74.704   1.120  17.840  1.00  0.00     0.273 C 
BRANCH   7   8
HETATM    8  N   UNL     1      75.752   0.083  17.900  1.00  0.00    -0.066 N 
HETATM    9  C   UNL     1      75.524  -0.917  18.954  1.00  0.00     0.263 C 
HETATM   10  C   UNL     1      74.551  -2.065  18.618  1.00  0.00     0.262 C 
HETATM   11  N   UNL     1      75.248  -3.244  18.076  1.00  0.00    -0.073 N 
HETATM   12  C   UNL     1      75.751  -3.042  16.712  1.00  0.00     0.236 C 
HETATM   13  C   UNL     1      74.370  -4.415  18.120  1.00  0.00     0.269 C 
HETATM   14  H   UNL     1      76.063  -3.398  18.670  1.00  0.00     0.279 HD
HETATM   15  C   UNL     1      76.691  -1.845  16.506  1.00  0.00     0.055 C 
HETATM   16  C   UNL     1      75.975  -0.490  16.566  1.00  0.00     0.237 C 
HETATM   17  H   UNL     1      76.622   0.532  18.184  1.00  0.00     0.280 HD
ENDBRANCH   7   8
ENDBRANCH   1   7
BRANCH   2  18
HETATM   18  C   UNL     1      76.800   6.426  16.546  1.00  0.00     0.268 C 
BRANCH  18  19
HETATM   19  N   UNL     1      76.976   6.556  15.104  1.00  0.00    -0.075 N 
HETATM   20  H   UNL     1      76.117   6.916  14.688  1.00  0.00     0.274 HD
HETATM   21  H   UNL     1      77.191   5.644  14.703  1.00  0.00     0.274 HD
HETATM   22  H   UNL     1      77.743   7.202  14.913  1.00  0.00     0.274 HD
ENDBRANCH  18  19
ENDBRANCH   2  18
TORSDOF 4
ENDMDL
MODEL 6
REMARK VINA RESULT:      -4.6     13.380     15.631
REMARK  4 active torsions:
REMARK  status: ('A' for Active; 'I' for Inactive)
REMARK    1  A    between atoms: N_1  and  C_3 
REMARK    2  A    between atoms: C_3  and  C_7 
REMARK    3  A    between atoms: C_8  and  C_17 
REMARK    4  A    between atoms: N_11  and  C_17 
ROOT
HETATM    1  C   UNL     1      76.650  13.784   5.383  1.00  0.00    -0.033 A 
HETATM    2  C   UNL     1      78.062  11.389   5.898  1.00  0.00    -0.033 A 
HETATM    3  C   UNL     1      76.593  13.179   6.646  1.00  0.00     0.009 A 
HETATM    4  C   UNL     1      77.394  13.161   4.372  1.00  0.00     0.009 A 
HETATM    5  C   UNL     1      78.094  11.978   4.627  1.00  0.00     0.009 A 
HETATM    6  C   UNL     1      77.291  11.995   6.899  1.00  0.00     0.009 A 
ENDROOT
BRANCH   1   7
HETATM    7  C   UNL     1      75.936  15.094   5.118  1.00  0.00     0.273 C 
BRANCH   7   8
HETATM    8  N   UNL     1      76.568  16.268   5.751  1.00  0.00    -0.066 N 
HETATM    9  C   UNL     1      77.521  16.964   4.874  1.00  0.00     0.263 C 
HETATM   10  C   UNL     1      76.925  17.961   3.860  1.00  0.00     0.262 C 
HETATM   11  N   UNL     1      76.882  19.334   4.391  1.00  0.00    -0.073 N 
HETATM   12  C   UNL     1      75.864  19.520   5.432  1.00  0.00     0.236 C 
HETATM   13  C   UNL     1      76.669  20.291   3.302  1.00  0.00     0.269 C 
HETATM   14  H   UNL     1      77.786  19.504   4.830  1.00  0.00     0.279 HD
HETATM   15  C   UNL     1      75.957  18.585   6.646  1.00  0.00     0.055 C 
HETATM   16  C   UNL     1      75.542  17.141   6.337  1.00  0.00     0.237 C 
HETATM   17  H   UNL     1      77.152  15.934   6.518  1.00  0.00     0.280 HD
ENDBRANCH   7   8
ENDBRANCH   1   7
BRANCH   2  18
HETATM   18  C   UNL     1      78.847  10.135   6.187  1.00  0.00     0.268 C 
BRANCH  18  19
HETATM   19  N   UNL     1      78.475   9.554   7.472  1.00  0.00    -0.075 N 
HETATM   20  H   UNL     1      77.536   9.859   7.724  1.00  0.00     0.274 HD
HETATM   21  H   UNL     1      79.135   9.858   8.187  1.00  0.00     0.274 HD
HETATM   22  H   UNL     1      78.495   8.535   7.403  1.00  0.00     0.274 HD
ENDBRANCH  18  19
ENDBRANCH   2  18
TORSDOF 4
ENDMDL
MODEL 7
REMARK VINA RESULT:      -4.6      2.527      7.326
REMARK  4 active torsions:
REMARK  status: ('A' for Active; 'I' for Inactive)
REMARK    1  A    between atoms: N_1  and  C_3 
REMARK    2  A    between atoms: C_3  and  C_7 
REMARK    3  A    between atoms: C_8  and  C_17 
REMARK    4  A    between atoms: N_11  and  C_17 
ROOT
HETATM    1  C   UNL     1      63.715   7.946   5.218  1.00  0.00    -0.033 A 
HETATM    2  C   UNL     1      65.868   7.076   6.830  1.00  0.00    -0.033 A 
HETATM    3  C   UNL     1      63.541   6.905   6.142  1.00  0.00     0.009 A 
HETATM    4  C   UNL     1      64.985   8.523   5.087  1.00  0.00     0.009 A 
HETATM    5  C   UNL     1      66.050   8.095   5.886  1.00  0.00     0.009 A 
HETATM    6  C   UNL     1      64.607   6.477   6.938  1.00  0.00     0.009 A 
ENDROOT
BRANCH   1   7
HETATM    7  C   UNL     1      62.551   8.449   4.388  1.00  0.00     0.273 C 
BRANCH   7   8
HETATM    8  N   UNL     1      62.456   7.841   3.047  1.00  0.00    -0.066 N 
HETATM    9  C   UNL     1      61.484   6.741   2.971  1.00  0.00     0.263 C 
HETATM   10  C   UNL     1      60.005   7.136   2.784  1.00  0.00     0.262 C 
HETATM   11  N   UNL     1      59.614   7.171   1.365  1.00  0.00    -0.073 N 
HETATM   12  C   UNL     1      60.189   8.307   0.634  1.00  0.00     0.236 C 
HETATM   13  C   UNL     1      58.155   7.181   1.242  1.00  0.00     0.269 C 
HETATM   14  H   UNL     1      59.994   6.326   0.938  1.00  0.00     0.279 HD
HETATM   15  C   UNL     1      61.719   8.432   0.670  1.00  0.00     0.055 C 
HETATM   16  C   UNL     1      62.263   8.885   2.031  1.00  0.00     0.237 C 
HETATM   17  H   UNL     1      63.346   7.386   2.845  1.00  0.00     0.280 HD
ENDBRANCH   7   8
ENDBRANCH   1   7
BRANCH   2  18
HETATM   18  C   UNL     1      67.005   6.639   7.720  1.00  0.00     0.268 C 
BRANCH  18  19
HETATM   19  N   UNL     1      68.255   6.529   6.977  1.00  0.00    -0.075 N 
HETATM   20  H   UNL     1      68.096   6.784   6.003  1.00  0.00     0.274 HD
HETATM   21  H   UNL     1      68.598   5.570   7.026  1.00  0.00     0.274 HD
HETATM   22  H   UNL     1      68.948   7.159   7.385  1.00  0.00     0.274 HD
ENDBRANCH  18  19
ENDBRANCH   2  18
TORSDOF 4
ENDMDL
MODEL 8
REMARK VINA RESULT:      -4.5      3.015      8.615
REMARK  4 active torsions:
REMARK  status: ('A' for Active; 'I' for Inactive)
REMARK    1  A    between atoms: N_1  and  C_3 
REMARK    2  A    between atoms: C_3  and  C_7 
REMARK    3  A    between atoms: C_8  and  C_17 
REMARK    4  A    between atoms: N_11  and  C_17 
ROOT
HETATM    1  C   UNL     1      67.764   3.864   8.732  1.00  0.00    -0.033 A 
HETATM    2  C   UNL     1      69.514   1.766   9.460  1.00  0.00    -0.033 A 
HETATM    3  C   UNL     1      68.838   4.099   9.602  1.00  0.00     0.009 A 
HETATM    4  C   UNL     1      67.556   2.562   8.257  1.00  0.00     0.009 A 
HETATM    5  C   UNL     1      68.423   1.524   8.615  1.00  0.00     0.009 A 
HETATM    6  C   UNL     1      69.702   3.061   9.961  1.00  0.00     0.009 A 
ENDROOT
BRANCH   1   7
HETATM    7  C   UNL     1      66.854   4.996   8.298  1.00  0.00     0.273 C 
BRANCH   7   8
HETATM    8  N   UNL     1      66.634   5.072   6.841  1.00  0.00    -0.066 N 
HETATM    9  C   UNL     1      65.253   5.421   6.474  1.00  0.00     0.263 C 
HETATM   10  C   UNL     1      64.888   6.919   6.504  1.00  0.00     0.262 C 
HETATM   11  N   UNL     1      65.073   7.563   5.193  1.00  0.00    -0.073 N 
HETATM   12  C   UNL     1      66.484   7.737   4.829  1.00  0.00     0.236 C 
HETATM   13  C   UNL     1      64.382   8.853   5.161  1.00  0.00     0.269 C 
HETATM   14  H   UNL     1      64.668   6.933   4.501  1.00  0.00     0.279 HD
HETATM   15  C   UNL     1      67.345   6.466   4.817  1.00  0.00     0.055 C 
HETATM   16  C   UNL     1      67.655   5.926   6.219  1.00  0.00     0.237 C 
HETATM   17  H   UNL     1      66.751   4.135   6.456  1.00  0.00     0.280 HD
ENDBRANCH   7   8
ENDBRANCH   1   7
BRANCH   2  18
HETATM   18  C   UNL     1      70.472   0.659   9.817  1.00  0.00     0.268 C 
BRANCH  18  19
HETATM   19  N   UNL     1      69.904  -0.654   9.533  1.00  0.00    -0.075 N 
HETATM   20  H   UNL     1      70.335  -1.350  10.140  1.00  0.00     0.274 HD
HETATM   21  H   UNL     1      70.079  -0.898   8.559  1.00  0.00     0.274 HD
HETATM   22  H   UNL     1      68.897  -0.632   9.703  1.00  0.00     0.274 HD
ENDBRANCH  18  19
ENDBRANCH   2  18
TORSDOF 4
ENDMDL
MODEL 9
REMARK VINA RESULT:      -4.5     16.966     18.907
REMARK  4 active torsions:
REMARK  status: ('A' for Active; 'I' for Inactive)
REMARK    1  A    between atoms: N_1  and  C_3 
REMARK    2  A    between atoms: C_3  and  C_7 
REMARK    3  A    between atoms: C_8  and  C_17 
REMARK    4  A    between atoms: N_11  and  C_17 
ROOT
HETATM    1  C   UNL     1      48.511  17.850   2.334  1.00  0.00    -0.033 A 
HETATM    2  C   UNL     1      49.161  20.579   1.993  1.00  0.00    -0.033 A 
HETATM    3  C   UNL     1      47.792  18.845   3.011  1.00  0.00     0.009 A 
HETATM    4  C   UNL     1      49.578  18.233   1.511  1.00  0.00     0.009 A 
HETATM    5  C   UNL     1      49.899  19.583   1.340  1.00  0.00     0.009 A 
HETATM    6  C   UNL     1      48.115  20.194   2.841  1.00  0.00     0.009 A 
ENDROOT
BRANCH   1   7
HETATM    7  C   UNL     1      48.133  16.388   2.474  1.00  0.00     0.273 C 
BRANCH   7   8
HETATM    8  N   UNL     1      47.961  15.938   3.869  1.00  0.00    -0.066 N 
HETATM    9  C   UNL     1      47.085  14.765   4.002  1.00  0.00     0.263 C 
HETATM   10  C   UNL     1      47.731  13.388   3.745  1.00  0.00     0.262 C 
HETATM   11  N   UNL     1      48.233  12.770   4.983  1.00  0.00    -0.073 N 
HETATM   12  C   UNL     1      49.435  13.427   5.511  1.00  0.00     0.236 C 
HETATM   13  C   UNL     1      48.492  11.345   4.769  1.00  0.00     0.269 C 
HETATM   14  H   UNL     1      47.502  12.889   5.684  1.00  0.00     0.279 HD
HETATM   15  C   UNL     1      49.319  14.932   5.789  1.00  0.00     0.055 C 
HETATM   16  C   UNL     1      49.271  15.786   4.516  1.00  0.00     0.237 C 
HETATM   17  H   UNL     1      47.458  16.667   4.374  1.00  0.00     0.280 HD
ENDBRANCH   7   8
ENDBRANCH   1   7
BRANCH   2  18
HETATM   18  C   UNL     1      49.480  22.038   1.781  1.00  0.00     0.268 C 
BRANCH  18  19
HETATM   19  N   UNL     1      50.484  22.510   2.727  1.00  0.00    -0.075 N 
HETATM   20  H   UNL     1      50.218  22.234   3.672  1.00  0.00     0.274 HD
HETATM   21  H   UNL     1      50.550  23.526   2.675  1.00  0.00     0.274 HD
HETATM   22  H   UNL     1      51.389  22.098   2.495  1.00  0.00     0.274 HD
ENDBRANCH  18  19
ENDBRANCH   2  18
TORSDOF 4
ENDMDL
