MODEL 1
REMARK VINA RESULT:      -5.0      0.000      0.000
REMARK  3 active torsions:
REMARK  status: ('A' for Active; 'I' for Inactive)
REMARK    1  A    between atoms: N_1  and  C_2 
REMARK    2  A    between atoms: C_2  and  C_3 
REMARK    3  A    between atoms: C_5  and  N_6 
ROOT
HETATM    1  C   UNL     1      63.669   8.891   4.531  1.00  0.00    -0.030 A 
HETATM    2  C   UNL     1      62.905   8.753   3.361  1.00  0.00     0.037 A 
HETATM    3  C   UNL     1      61.974   9.731   2.980  1.00  0.00     0.026 A 
HETATM    4  C   UNL     1      62.588  11.025   4.938  1.00  0.00     0.003 A 
HETATM    5  C   UNL     1      63.488  10.032   5.324  1.00  0.00     0.009 A 
HETATM    6  C   UNL     1      61.861  10.886   3.757  1.00  0.00     0.029 A 
ENDROOT
BRANCH   1   7
HETATM    7  C   UNL     1      64.722   7.863   4.896  1.00  0.00     0.273 C 
BRANCH   7   8
HETATM    8  N   UNL     1      65.181   7.912   6.295  1.00  0.00    -0.067 N 
HETATM    9  C   UNL     1      66.624   8.157   6.435  1.00  0.00     0.235 C 
HETATM   10  C   UNL     1      67.287   6.800   6.285  1.00  0.00     0.029 C 
HETATM   11  C   UNL     1      66.286   5.840   6.901  1.00  0.00     0.029 C 
HETATM   12  C   UNL     1      64.966   6.606   6.949  1.00  0.00     0.235 C 
HETATM   13  H   UNL     1      64.648   8.675   6.713  1.00  0.00     0.280 HD
ENDBRANCH   7   8
ENDBRANCH   1   7
BRANCH   3  14
HETATM   14  N   UNL     1      61.364   9.673   1.719  1.00  0.00    -0.399 N 
HETATM   15  H   UNL     1      61.553   8.918   1.115  1.00  0.00     0.156 HD
HETATM   16  H   UNL     1      60.747  10.387   1.437  1.00  0.00     0.156 HD
ENDBRANCH   3  14
TORSDOF 3
ENDMDL
MODEL 2
REMARK VINA RESULT:      -4.8      3.870      7.914
REMARK  3 active torsions:
REMARK  status: ('A' for Active; 'I' for Inactive)
REMARK    1  A    between atoms: N_1  and  C_2 
REMARK    2  A    between atoms: C_2  and  C_3 
REMARK    3  A    between atoms: C_5  and  N_6 
ROOT
HETATM    1  C   UNL     1      68.393   4.650   7.903  1.00  0.00    -0.030 A 
HETATM    2  C   UNL     1      67.626   3.520   8.235  1.00  0.00     0.037 A 
HETATM    3  C   UNL     1      68.010   2.660   9.274  1.00  0.00     0.026 A 
HETATM    4  C   UNL     1      69.934   4.078   9.688  1.00  0.00     0.003 A 
HETATM    5  C   UNL     1      69.561   4.910   8.633  1.00  0.00     0.009 A 
HETATM    6  C   UNL     1      69.144   2.980  10.024  1.00  0.00     0.029 A 
ENDROOT
BRANCH   1   7
HETATM    7  C   UNL     1      67.932   5.611   6.826  1.00  0.00     0.273 C 
BRANCH   7   8
HETATM    8  N   UNL     1      67.347   6.868   7.324  1.00  0.00    -0.067 N 
HETATM    9  C   UNL     1      66.013   6.704   7.921  1.00  0.00     0.235 C 
HETATM   10  C   UNL     1      65.037   6.731   6.759  1.00  0.00     0.029 C 
HETATM   11  C   UNL     1      65.673   7.698   5.777  1.00  0.00     0.029 C 
HETATM   12  C   UNL     1      67.134   7.810   6.206  1.00  0.00     0.235 C 
HETATM   13  H   UNL     1      68.011   7.201   8.023  1.00  0.00     0.280 HD
ENDBRANCH   7   8
ENDBRANCH   1   7
BRANCH   3  14
HETATM   14  N   UNL     1      67.139   1.654   9.716  1.00  0.00    -0.399 N 
HETATM   15  H   UNL     1      66.469   1.853  10.410  1.00  0.00     0.156 HD
HETATM   16  H   UNL     1      67.197   0.749   9.332  1.00  0.00     0.156 HD
ENDBRANCH   3  14
TORSDOF 3
ENDMDL
MODEL 3
REMARK VINA RESULT:      -4.6      2.206      3.478
REMARK  3 active torsions:
REMARK  status: ('A' for Active; 'I' for Inactive)
REMARK    1  A    between atoms: N_1  and  C_2 
REMARK    2  A    between atoms: C_2  and  C_3 
REMARK    3  A    between atoms: C_5  and  N_6 
ROOT
HETATM    1  C   UNL     1      66.076   7.224   5.227  1.00  0.00    -0.030 A 
HETATM    2  C   UNL     1      65.405   8.396   5.618  1.00  0.00     0.037 A 
HETATM    3  C   UNL     1      64.237   8.816   4.967  1.00  0.00     0.026 A 
HETATM    4  C   UNL     1      64.377   6.864   3.533  1.00  0.00     0.003 A 
HETATM    5  C   UNL     1      65.555   6.472   4.166  1.00  0.00     0.009 A 
HETATM    6  C   UNL     1      63.707   8.012   3.954  1.00  0.00     0.029 A 
ENDROOT
BRANCH   1   7
HETATM    7  C   UNL     1      67.298   6.741   5.984  1.00  0.00     0.273 C 
BRANCH   7   8
HETATM    8  N   UNL     1      67.076   5.558   6.832  1.00  0.00    -0.067 N 
HETATM    9  C   UNL     1      66.013   5.740   7.833  1.00  0.00     0.235 C 
HETATM   10  C   UNL     1      66.672   6.437   9.009  1.00  0.00     0.029 C 
HETATM   11  C   UNL     1      68.083   5.877   9.016  1.00  0.00     0.029 C 
HETATM   12  C   UNL     1      68.284   5.268   7.631  1.00  0.00     0.235 C 
HETATM   13  H   UNL     1      66.826   4.816   6.179  1.00  0.00     0.280 HD
ENDBRANCH   7   8
ENDBRANCH   1   7
BRANCH   3  14
HETATM   14  N   UNL     1      63.478   9.873   5.490  1.00  0.00    -0.399 N 
HETATM   15  H   UNL     1      62.547   9.719   5.771  1.00  0.00     0.156 HD
HETATM   16  H   UNL     1      63.877  10.769   5.576  1.00  0.00     0.156 HD
ENDBRANCH   3  14
TORSDOF 3
ENDMDL
MODEL 4
REMARK VINA RESULT:      -4.6      3.166      4.877
REMARK  3 active torsions:
REMARK  status: ('A' for Active; 'I' for Inactive)
REMARK    1  A    between atoms: N_1  and  C_2 
REMARK    2  A    between atoms: C_2  and  C_3 
REMARK    3  A    between atoms: C_5  and  N_6 
ROOT
HETATM    1  C   UNL     1      66.761   5.748   6.422  1.00  0.00    -0.030 A 
HETATM    2  C   UNL     1      65.492   6.272   6.721  1.00  0.00     0.037 A 
HETATM    3  C   UNL     1      64.997   7.403   6.055  1.00  0.00     0.026 A 
HETATM    4  C   UNL     1      67.039   7.481   4.748  1.00  0.00     0.003 A 
HETATM    5  C   UNL     1      67.535   6.376   5.438  1.00  0.00     0.009 A 
HETATM    6  C   UNL     1      65.766   7.969   5.035  1.00  0.00     0.029 A 
ENDROOT
BRANCH   1   7
HETATM    7  C   UNL     1      67.256   4.484   7.098  1.00  0.00     0.273 C 
BRANCH   7   8
HETATM    8  N   UNL     1      67.476   4.601   8.550  1.00  0.00    -0.067 N 
HETATM    9  C   UNL     1      68.434   5.653   8.920  1.00  0.00     0.235 C 
HETATM   10  C   UNL     1      69.808   5.025   8.782  1.00  0.00     0.029 C 
HETATM   11  C   UNL     1      69.584   3.576   9.176  1.00  0.00     0.029 C 
HETATM   12  C   UNL     1      68.076   3.359   9.077  1.00  0.00     0.235 C 
HETATM   13  H   UNL     1      66.554   4.808   8.933  1.00  0.00     0.280 HD
ENDBRANCH   7   8
ENDBRANCH   1   7
BRANCH   3  14
HETATM   14  N   UNL     1      63.662   7.795   6.225  1.00  0.00    -0.399 N 
HETATM   15  H   UNL     1      63.179   7.554   7.049  1.00  0.00     0.156 HD
HETATM   16  H   UNL     1      63.207   8.312   5.521  1.00  0.00     0.156 HD
ENDBRANCH   3  14
TORSDOF 3
ENDMDL
MODEL 5
REMARK VINA RESULT:      -4.6      2.246      5.586
REMARK  3 active torsions:
REMARK  status: ('A' for Active; 'I' for Inactive)
REMARK    1  A    between atoms: N_1  and  C_2 
REMARK    2  A    between atoms: C_2  and  C_3 
REMARK    3  A    between atoms: C_5  and  N_6 
ROOT
HETATM    1  C   UNL     1      61.963   9.097   3.633  1.00  0.00    -0.030 A 
HETATM    2  C   UNL     1      63.062   8.458   4.232  1.00  0.00     0.037 A 
HETATM    3  C   UNL     1      63.905   9.141   5.120  1.00  0.00     0.026 A 
HETATM    4  C   UNL     1      62.530  11.121   4.845  1.00  0.00     0.003 A 
HETATM    5  C   UNL     1      61.717  10.442   3.939  1.00  0.00     0.009 A 
HETATM    6  C   UNL     1      63.597  10.462   5.454  1.00  0.00     0.029 A 
ENDROOT
BRANCH   1   7
HETATM    7  C   UNL     1      61.017   8.330   2.730  1.00  0.00     0.273 C 
BRANCH   7   8
HETATM    8  N   UNL     1      60.832   8.909   1.388  1.00  0.00    -0.067 N 
HETATM    9  C   UNL     1      59.928   8.131   0.528  1.00  0.00     0.235 C 
HETATM   10  C   UNL     1      60.784   7.036  -0.082  1.00  0.00     0.029 C 
HETATM   11  C   UNL     1      62.142   7.692  -0.251  1.00  0.00     0.029 C 
HETATM   12  C   UNL     1      62.115   8.920   0.656  1.00  0.00     0.235 C 
HETATM   13  H   UNL     1      60.448   9.838   1.561  1.00  0.00     0.280 HD
ENDBRANCH   7   8
ENDBRANCH   1   7
BRANCH   3  14
HETATM   14  N   UNL     1      64.874   8.442   5.853  1.00  0.00    -0.399 N 
HETATM   15  H   UNL     1      64.607   7.894   6.626  1.00  0.00     0.156 HD
HETATM   16  H   UNL     1      65.823   8.498   5.593  1.00  0.00     0.156 HD
ENDBRANCH   3  14
TORSDOF 3
ENDMDL
MODEL 6
REMARK VINA RESULT:      -4.4      2.614      5.643
REMARK  3 active torsions:
REMARK  status: ('A' for Active; 'I' for Inactive)
REMARK    1  A    between atoms: N_1  and  C_2 
REMARK    2  A    between atoms: C_2  and  C_3 
REMARK    3  A    between atoms: C_5  and  N_6 
ROOT
HETATM    1  C   UNL     1      62.210   9.539   2.868  1.00  0.00    -0.030 A 
HETATM    2  C   UNL     1      62.872   8.730   3.806  1.00  0.00     0.037 A 
HETATM    3  C   UNL     1      63.242   9.226   5.064  1.00  0.00     0.026 A 
HETATM    4  C   UNL     1      62.255  11.361   4.470  1.00  0.00     0.003 A 
HETATM    5  C   UNL     1      61.920  10.867   3.211  1.00  0.00     0.009 A 
HETATM    6  C   UNL     1      62.883  10.534   5.400  1.00  0.00     0.029 A 
ENDROOT
BRANCH   1   7
HETATM    7  C   UNL     1      61.752   8.972   1.539  1.00  0.00     0.273 C 
BRANCH   7   8
HETATM    8  N   UNL     1      61.291   7.574   1.586  1.00  0.00    -0.067 N 
HETATM    9  C   UNL     1      60.920   7.030   0.270  1.00  0.00     0.235 C 
HETATM   10  C   UNL     1      59.489   7.475   0.031  1.00  0.00     0.029 C 
HETATM   11  C   UNL     1      58.873   7.471   1.418  1.00  0.00     0.029 C 
HETATM   12  C   UNL     1      60.054   7.471   2.386  1.00  0.00     0.235 C 
HETATM   13  H   UNL     1      62.078   7.057   1.976  1.00  0.00     0.280 HD
ENDBRANCH   7   8
ENDBRANCH   1   7
BRANCH   3  14
HETATM   14  N   UNL     1      63.724   8.357   6.053  1.00  0.00    -0.399 N 
HETATM   15  H   UNL     1      63.101   7.769   6.538  1.00  0.00     0.156 HD
HETATM   16  H   UNL     1      64.687   8.335   6.262  1.00  0.00     0.156 HD
ENDBRANCH   3  14
TORSDOF 3
ENDMDL
MODEL 7
REMARK VINA RESULT:      -4.3     16.963     19.419
REMARK  3 active torsions:
REMARK  status: ('A' for Active; 'I' for Inactive)
REMARK    1  A    between atoms: N_1  and  C_2 
REMARK    2  A    between atoms: C_2  and  C_3 
REMARK    3  A    between atoms: C_5  and  N_6 
ROOT
HETATM    1  C   UNL     1      75.928   2.135  17.640  1.00  0.00    -0.030 A 
HETATM    2  C   UNL     1      76.829   3.204  17.779  1.00  0.00     0.037 A 
HETATM    3  C   UNL     1      76.507   4.491  17.323  1.00  0.00     0.026 A 
HETATM    4  C   UNL     1      74.345   3.656  16.605  1.00  0.00     0.003 A 
HETATM    5  C   UNL     1      74.687   2.374  17.033  1.00  0.00     0.009 A 
HETATM    6  C   UNL     1      75.239   4.711  16.779  1.00  0.00     0.029 A 
ENDROOT
BRANCH   1   7
HETATM    7  C   UNL     1      76.257   0.766  18.200  1.00  0.00     0.273 C 
BRANCH   7   8
HETATM    8  N   UNL     1      77.614   0.280  17.897  1.00  0.00    -0.067 N 
HETATM    9  C   UNL     1      77.644  -1.080  17.338  1.00  0.00     0.235 C 
HETATM   10  C   UNL     1      77.596  -2.016  18.533  1.00  0.00     0.029 C 
HETATM   11  C   UNL     1      78.364  -1.269  19.607  1.00  0.00     0.029 C 
HETATM   12  C   UNL     1      78.410   0.183  19.137  1.00  0.00     0.235 C 
HETATM   13  H   UNL     1      77.982   0.950  17.222  1.00  0.00     0.280 HD
ENDBRANCH   7   8
ENDBRANCH   1   7
BRANCH   3  14
HETATM   14  N   UNL     1      77.331   5.579  17.641  1.00  0.00    -0.399 N 
HETATM   15  H   UNL     1      78.307   5.506  17.533  1.00  0.00     0.156 HD
HETATM   16  H   UNL     1      76.934   6.418  17.971  1.00  0.00     0.156 HD
ENDBRANCH   3  14
TORSDOF 3
ENDMDL
MODEL 8
REMARK VINA RESULT:      -4.2     17.468     18.908
REMARK  3 active torsions:
REMARK  status: ('A' for Active; 'I' for Inactive)
REMARK    1  A    between atoms: N_1  and  C_2 
REMARK    2  A    between atoms: C_2  and  C_3 
REMARK    3  A    between atoms: C_5  and  N_6 
ROOT
HETATM    1  C   UNL     1      75.131   1.687  17.163  1.00  0.00    -0.030 A 
HETATM    2  C   UNL     1      76.251   1.515  17.993  1.00  0.00     0.037 A 
HETATM    3  C   UNL     1      77.070   2.598  18.344  1.00  0.00     0.026 A 
HETATM    4  C   UNL     1      75.627   4.059  17.053  1.00  0.00     0.003 A 
HETATM    5  C   UNL     1      74.838   2.971  16.684  1.00  0.00     0.009 A 
HETATM    6  C   UNL     1      76.716   3.875  17.903  1.00  0.00     0.029 A 
ENDROOT
BRANCH   1   7
HETATM    7  C   UNL     1      74.213   0.523  16.847  1.00  0.00     0.273 C 
BRANCH   7   8
HETATM    8  N   UNL     1      74.509  -0.720  17.581  1.00  0.00    -0.067 N 
HETATM    9  C   UNL     1      74.368  -1.936  16.765  1.00  0.00     0.235 C 
HETATM   10  C   UNL     1      72.892  -2.287  16.804  1.00  0.00     0.029 C 
HETATM   11  C   UNL     1      72.456  -1.857  18.193  1.00  0.00     0.029 C 
HETATM   12  C   UNL     1      73.544  -0.905  18.683  1.00  0.00     0.235 C 
HETATM   13  H   UNL     1      75.474  -0.610  17.892  1.00  0.00     0.280 HD
ENDBRANCH   7   8
ENDBRANCH   1   7
BRANCH   3  14
HETATM   14  N   UNL     1      78.063   2.444  19.322  1.00  0.00    -0.399 N 
HETATM   15  H   UNL     1      78.665   1.666  19.295  1.00  0.00     0.156 HD
HETATM   16  H   UNL     1      78.157   3.116  20.037  1.00  0.00     0.156 HD
ENDBRANCH   3  14
TORSDOF 3
ENDMDL
MODEL 9
REMARK VINA RESULT:      -4.1     17.754     19.243
REMARK  3 active torsions:
REMARK  status: ('A' for Active; 'I' for Inactive)
REMARK    1  A    between atoms: N_1  and  C_2 
REMARK    2  A    between atoms: C_2  and  C_3 
REMARK    3  A    between atoms: C_5  and  N_6 
ROOT
HETATM    1  C   UNL     1      76.435   0.356  16.555  1.00  0.00    -0.030 A 
HETATM    2  C   UNL     1      77.148   1.152  17.467  1.00  0.00     0.037 A 
HETATM    3  C   UNL     1      76.647   2.388  17.899  1.00  0.00     0.026 A 
HETATM    4  C   UNL     1      74.680   2.030  16.526  1.00  0.00     0.003 A 
HETATM    5  C   UNL     1      75.201   0.817  16.078  1.00  0.00     0.009 A 
HETATM    6  C   UNL     1      75.386   2.793  17.455  1.00  0.00     0.029 A 
ENDROOT
BRANCH   1   7
HETATM    7  C   UNL     1      76.952  -1.010  16.149  1.00  0.00     0.273 C 
BRANCH   7   8
HETATM    8  N   UNL     1      78.102  -0.991  15.228  1.00  0.00    -0.067 N 
HETATM    9  C   UNL     1      77.758  -0.570  13.862  1.00  0.00     0.235 C 
HETATM   10  C   UNL     1      77.244  -1.817  13.165  1.00  0.00     0.029 C 
HETATM   11  C   UNL     1      78.064  -2.937  13.780  1.00  0.00     0.029 C 
HETATM   12  C   UNL     1      78.648  -2.354  15.065  1.00  0.00     0.235 C 
HETATM   13  H   UNL     1      78.757  -0.333  15.650  1.00  0.00     0.280 HD
ENDBRANCH   7   8
ENDBRANCH   1   7
BRANCH   3  14
HETATM   14  N   UNL     1      77.273   3.076  18.948  1.00  0.00    -0.399 N 
HETATM   15  H   UNL     1      76.821   3.839  19.376  1.00  0.00     0.156 HD
HETATM   16  H   UNL     1      78.165   2.795  19.258  1.00  0.00     0.156 HD
ENDBRANCH   3  14
TORSDOF 3
ENDMDL
