MODEL 1
REMARK VINA RESULT:      -6.2      0.000      0.000
REMARK  4 active torsions:
REMARK  status: ('A' for Active; 'I' for Inactive)
REMARK    1  A    between atoms: N_1  and  C_2 
REMARK    2  A    between atoms: C_2  and  C_3 
REMARK    3  A    between atoms: C_5  and  C_11 
REMARK    4  A    between atoms: N_6  and  C_11 
ROOT
HETATM    1  C   UNL     1      77.717   9.560  17.999  1.00  0.00    -0.032 A 
HETATM    2  C   UNL     1      77.931   9.749  16.624  1.00  0.00     0.017 A 
HETATM    3  C   UNL     1      77.589   8.762  15.685  1.00  0.00    -0.033 A 
HETATM    4  C   UNL     1      76.829   7.353  17.506  1.00  0.00     0.001 A 
HETATM    5  C   UNL     1      77.160   8.348  18.427  1.00  0.00     0.009 A 
HETATM    6  C   UNL     1      77.042   7.558  16.143  1.00  0.00     0.009 A 
ENDROOT
BRANCH   1   7
HETATM    7  C   UNL     1      78.030  10.670  18.980  1.00  0.00     0.273 C 
BRANCH   7   8
HETATM    8  N   UNL     1      76.916  11.419  19.571  1.00  0.00    -0.067 N 
HETATM    9  C   UNL     1      76.388  12.510  18.757  1.00  0.00     0.235 C 
HETATM   10  C   UNL     1      77.050  13.771  19.278  1.00  0.00     0.029 C 
HETATM   11  C   UNL     1      77.333  13.475  20.742  1.00  0.00     0.029 C 
HETATM   12  C   UNL     1      77.170  11.969  20.900  1.00  0.00     0.235 C 
HETATM   13  H   UNL     1      76.222  10.673  19.633  1.00  0.00     0.280 HD
ENDBRANCH   7   8
ENDBRANCH   1   7
BRANCH   3  14
HETATM   14  C   UNL     1      77.799   9.006  14.214  1.00  0.00     0.268 C 
BRANCH  14  15
HETATM   15  N   UNL     1      77.739   7.759  13.458  1.00  0.00    -0.075 N 
HETATM   16  H   UNL     1      77.075   7.124  13.901  1.00  0.00     0.274 HD
HETATM   17  H   UNL     1      78.663   7.327  13.442  1.00  0.00     0.274 HD
HETATM   18  H   UNL     1      77.438   7.954  12.503  1.00  0.00     0.274 HD
ENDBRANCH  14  15
ENDBRANCH   3  14
TORSDOF 4
ENDMDL
MODEL 2
REMARK VINA RESULT:      -6.1      2.865      4.843
REMARK  4 active torsions:
REMARK  status: ('A' for Active; 'I' for Inactive)
REMARK    1  A    between atoms: N_1  and  C_2 
REMARK    2  A    between atoms: C_2  and  C_3 
REMARK    3  A    between atoms: C_5  and  C_11 
REMARK    4  A    between atoms: N_6  and  C_11 
ROOT
HETATM    1  C   UNL     1      77.724  12.581  20.761  1.00  0.00    -0.032 A 
HETATM    2  C   UNL     1      78.026  11.356  20.145  1.00  0.00     0.017 A 
HETATM    3  C   UNL     1      77.436  10.982  18.927  1.00  0.00    -0.033 A 
HETATM    4  C   UNL     1      76.196  13.066  18.935  1.00  0.00     0.001 A 
HETATM    5  C   UNL     1      76.801  13.432  20.139  1.00  0.00     0.009 A 
HETATM    6  C   UNL     1      76.511  11.849  18.332  1.00  0.00     0.009 A 
ENDROOT
BRANCH   1   7
HETATM    7  C   UNL     1      78.429  12.988  22.037  1.00  0.00     0.273 C 
BRANCH   7   8
HETATM    8  N   UNL     1      79.489  12.119  22.561  1.00  0.00    -0.067 N 
HETATM    9  C   UNL     1      79.517  11.964  24.013  1.00  0.00     0.235 C 
HETATM   10  C   UNL     1      80.562  12.945  24.511  1.00  0.00     0.029 C 
HETATM   11  C   UNL     1      81.544  13.073  23.359  1.00  0.00     0.029 C 
HETATM   12  C   UNL     1      80.845  12.471  22.147  1.00  0.00     0.235 C 
HETATM   13  H   UNL     1      79.215  11.235  22.129  1.00  0.00     0.280 HD
ENDBRANCH   7   8
ENDBRANCH   1   7
BRANCH   3  14
HETATM   14  C   UNL     1      77.804   9.676  18.272  1.00  0.00     0.268 C 
BRANCH  14  15
HETATM   15  N   UNL     1      79.252   9.526  18.172  1.00  0.00    -0.075 N 
HETATM   16  H   UNL     1      79.709  10.335  18.594  1.00  0.00     0.274 HD
HETATM   17  H   UNL     1      79.520   9.459  17.190  1.00  0.00     0.274 HD
HETATM   18  H   UNL     1      79.540   8.679  18.661  1.00  0.00     0.274 HD
ENDBRANCH  14  15
ENDBRANCH   3  14
TORSDOF 4
ENDMDL
MODEL 3
REMARK VINA RESULT:      -5.9      1.685      5.908
REMARK  4 active torsions:
REMARK  status: ('A' for Active; 'I' for Inactive)
REMARK    1  A    between atoms: N_1  and  C_2 
REMARK    2  A    between atoms: C_2  and  C_3 
REMARK    3  A    between atoms: C_5  and  C_11 
REMARK    4  A    between atoms: N_6  and  C_11 
ROOT
HETATM    1  C   UNL     1      77.027  11.815  18.998  1.00  0.00    -0.032 A 
HETATM    2  C   UNL     1      78.092  11.610  19.891  1.00  0.00     0.017 A 
HETATM    3  C   UNL     1      78.285  12.441  21.005  1.00  0.00    -0.033 A 
HETATM    4  C   UNL     1      76.345  13.730  20.330  1.00  0.00     0.001 A 
HETATM    5  C   UNL     1      76.156  12.886  19.234  1.00  0.00     0.009 A 
HETATM    6  C   UNL     1      77.404  13.509  21.211  1.00  0.00     0.009 A 
ENDROOT
BRANCH   1   7
HETATM    7  C   UNL     1      76.802  10.860  17.846  1.00  0.00     0.273 C 
BRANCH   7   8
HETATM    8  N   UNL     1      77.776   9.784  17.626  1.00  0.00    -0.067 N 
HETATM    9  C   UNL     1      78.199   9.590  16.242  1.00  0.00     0.235 C 
HETATM   10  C   UNL     1      77.351   8.452  15.707  1.00  0.00     0.029 C 
HETATM   11  C   UNL     1      77.031   7.609  16.930  1.00  0.00     0.029 C 
HETATM   12  C   UNL     1      77.381   8.473  18.134  1.00  0.00     0.235 C 
HETATM   13  H   UNL     1      78.557  10.146  18.174  1.00  0.00     0.280 HD
ENDBRANCH   7   8
ENDBRANCH   1   7
BRANCH   3  14
HETATM   14  C   UNL     1      79.416  12.177  21.965  1.00  0.00     0.268 C 
BRANCH  14  15
HETATM   15  N   UNL     1      80.412  11.289  21.375  1.00  0.00    -0.075 N 
HETATM   16  H   UNL     1      80.421  10.402  21.881  1.00  0.00     0.274 HD
HETATM   17  H   UNL     1      81.333  11.722  21.435  1.00  0.00     0.274 HD
HETATM   18  H   UNL     1      80.179  11.119  20.396  1.00  0.00     0.274 HD
ENDBRANCH  14  15
ENDBRANCH   3  14
TORSDOF 4
ENDMDL
MODEL 4
REMARK VINA RESULT:      -5.8      2.686      6.431
REMARK  4 active torsions:
REMARK  status: ('A' for Active; 'I' for Inactive)
REMARK    1  A    between atoms: N_1  and  C_2 
REMARK    2  A    between atoms: C_2  and  C_3 
REMARK    3  A    between atoms: C_5  and  C_11 
REMARK    4  A    between atoms: N_6  and  C_11 
ROOT
HETATM    1  C   UNL     1      77.047   7.247  16.014  1.00  0.00    -0.032 A 
HETATM    2  C   UNL     1      77.247   7.857  17.264  1.00  0.00     0.017 A 
HETATM    3  C   UNL     1      77.645   9.199  17.370  1.00  0.00    -0.033 A 
HETATM    4  C   UNL     1      77.676   9.339  14.950  1.00  0.00     0.001 A 
HETATM    5  C   UNL     1      77.266   8.007  14.858  1.00  0.00     0.009 A 
HETATM    6  C   UNL     1      77.865   9.932  16.197  1.00  0.00     0.009 A 
ENDROOT
BRANCH   1   7
HETATM    7  C   UNL     1      76.550   5.820  15.932  1.00  0.00     0.273 C 
BRANCH   7   8
HETATM    8  N   UNL     1      75.866   5.247  17.097  1.00  0.00    -0.067 N 
HETATM    9  C   UNL     1      76.718   4.520  18.034  1.00  0.00     0.235 C 
HETATM   10  C   UNL     1      76.573   3.054  17.671  1.00  0.00     0.029 C 
HETATM   11  C   UNL     1      75.178   2.946  17.079  1.00  0.00     0.029 C 
HETATM   12  C   UNL     1      74.736   4.374  16.790  1.00  0.00     0.235 C 
HETATM   13  H   UNL     1      75.530   6.105  17.538  1.00  0.00     0.280 HD
ENDBRANCH   7   8
ENDBRANCH   1   7
BRANCH   3  14
HETATM   14  C   UNL     1      77.820   9.836  18.724  1.00  0.00     0.268 C 
BRANCH  14  15
HETATM   15  N   UNL     1      79.232   9.988  19.058  1.00  0.00    -0.075 N 
HETATM   16  H   UNL     1      79.644   9.069  19.225  1.00  0.00     0.274 HD
HETATM   17  H   UNL     1      79.324  10.559  19.897  1.00  0.00     0.274 HD
HETATM   18  H   UNL     1      79.718  10.441  18.283  1.00  0.00     0.274 HD
ENDBRANCH  14  15
ENDBRANCH   3  14
TORSDOF 4
ENDMDL
MODEL 5
REMARK VINA RESULT:      -5.4      2.326      6.330
REMARK  4 active torsions:
REMARK  status: ('A' for Active; 'I' for Inactive)
REMARK    1  A    between atoms: N_1  and  C_2 
REMARK    2  A    between atoms: C_2  and  C_3 
REMARK    3  A    between atoms: C_5  and  C_11 
REMARK    4  A    between atoms: N_6  and  C_11 
ROOT
HETATM    1  C   UNL     1      78.575  11.087  19.821  1.00  0.00    -0.032 A 
HETATM    2  C   UNL     1      79.664  11.279  20.686  1.00  0.00     0.017 A 
HETATM    3  C   UNL     1      79.632  12.246  21.703  1.00  0.00    -0.033 A 
HETATM    4  C   UNL     1      77.403  12.872  20.981  1.00  0.00     0.001 A 
HETATM    5  C   UNL     1      77.443  11.897  19.983  1.00  0.00     0.009 A 
HETATM    6  C   UNL     1      78.490  13.046  21.837  1.00  0.00     0.009 A 
ENDROOT
BRANCH   1   7
HETATM    7  C   UNL     1      78.612   9.990  18.779  1.00  0.00     0.273 C 
BRANCH   7   8
HETATM    8  N   UNL     1      77.409   9.747  17.973  1.00  0.00    -0.067 N 
HETATM    9  C   UNL     1      76.669   8.531  18.298  1.00  0.00     0.235 C 
HETATM   10  C   UNL     1      77.124   7.490  17.292  1.00  0.00     0.029 C 
HETATM   11  C   UNL     1      77.513   8.295  16.062  1.00  0.00     0.029 C 
HETATM   12  C   UNL     1      77.618   9.741  16.528  1.00  0.00     0.235 C 
HETATM   13  H   UNL     1      76.857  10.563  18.239  1.00  0.00     0.280 HD
ENDBRANCH   7   8
ENDBRANCH   1   7
BRANCH   3  14
HETATM   14  C   UNL     1      80.802  12.407  22.638  1.00  0.00     0.268 C 
BRANCH  14  15
HETATM   15  N   UNL     1      81.586  13.591  22.304  1.00  0.00    -0.075 N 
HETATM   16  H   UNL     1      82.252  13.782  23.053  1.00  0.00     0.274 HD
HETATM   17  H   UNL     1      80.964  14.391  22.191  1.00  0.00     0.274 HD
HETATM   18  H   UNL     1      82.092  13.429  21.432  1.00  0.00     0.274 HD
ENDBRANCH  14  15
ENDBRANCH   3  14
TORSDOF 4
ENDMDL
MODEL 6
REMARK VINA RESULT:      -5.3      3.827      7.621
REMARK  4 active torsions:
REMARK  status: ('A' for Active; 'I' for Inactive)
REMARK    1  A    between atoms: N_1  and  C_2 
REMARK    2  A    between atoms: C_2  and  C_3 
REMARK    3  A    between atoms: C_5  and  C_11 
REMARK    4  A    between atoms: N_6  and  C_11 
ROOT
HETATM    1  C   UNL     1      79.208  12.434  22.592  1.00  0.00    -0.032 A 
HETATM    2  C   UNL     1      79.146  12.066  23.945  1.00  0.00     0.017 A 
HETATM    3  C   UNL     1      80.221  12.297  24.818  1.00  0.00    -0.033 A 
HETATM    4  C   UNL     1      81.464  13.253  22.969  1.00  0.00     0.001 A 
HETATM    5  C   UNL     1      80.383  13.032  22.115  1.00  0.00     0.009 A 
HETATM    6  C   UNL     1      81.385  12.889  24.313  1.00  0.00     0.009 A 
ENDROOT
BRANCH   1   7
HETATM    7  C   UNL     1      78.007  12.237  21.691  1.00  0.00     0.273 C 
BRANCH   7   8
HETATM    8  N   UNL     1      78.163  12.476  20.252  1.00  0.00    -0.067 N 
HETATM    9  C   UNL     1      77.349  13.555  19.700  1.00  0.00     0.235 C 
HETATM   10  C   UNL     1      76.129  12.883  19.098  1.00  0.00     0.029 C 
HETATM   11  C   UNL     1      76.615  11.502  18.694  1.00  0.00     0.029 C 
HETATM   12  C   UNL     1      77.952  11.309  19.399  1.00  0.00     0.235 C 
HETATM   13  H   UNL     1      79.147  12.747  20.228  1.00  0.00     0.280 HD
ENDBRANCH   7   8
ENDBRANCH   1   7
BRANCH   3  14
HETATM   14  C   UNL     1      80.114  11.923  26.274  1.00  0.00     0.268 C 
BRANCH  14  15
HETATM   15  N   UNL     1      78.924  11.116  26.525  1.00  0.00    -0.075 N 
HETATM   16  H   UNL     1      79.020  10.213  26.060  1.00  0.00     0.274 HD
HETATM   17  H   UNL     1      78.103  11.599  26.161  1.00  0.00     0.274 HD
HETATM   18  H   UNL     1      78.816  10.972  27.529  1.00  0.00     0.274 HD
ENDBRANCH  14  15
ENDBRANCH   3  14
TORSDOF 4
ENDMDL
MODEL 7
REMARK VINA RESULT:      -5.1     15.362     17.684
REMARK  4 active torsions:
REMARK  status: ('A' for Active; 'I' for Inactive)
REMARK    1  A    between atoms: N_1  and  C_2 
REMARK    2  A    between atoms: C_2  and  C_3 
REMARK    3  A    between atoms: C_5  and  C_11 
REMARK    4  A    between atoms: N_6  and  C_11 
ROOT
HETATM    1  C   UNL     1      65.395   7.685   4.956  1.00  0.00    -0.032 A 
HETATM    2  C   UNL     1      64.726   8.860   5.333  1.00  0.00     0.017 A 
HETATM    3  C   UNL     1      63.537   9.262   4.703  1.00  0.00    -0.033 A 
HETATM    4  C   UNL     1      63.685   7.310   3.272  1.00  0.00     0.001 A 
HETATM    5  C   UNL     1      64.858   6.915   3.917  1.00  0.00     0.009 A 
HETATM    6  C   UNL     1      63.028   8.476   3.662  1.00  0.00     0.009 A 
ENDROOT
BRANCH   1   7
HETATM    7  C   UNL     1      66.636   7.241   5.701  1.00  0.00     0.273 C 
BRANCH   7   8
HETATM    8  N   UNL     1      66.526   6.120   6.642  1.00  0.00    -0.067 N 
HETATM    9  C   UNL     1      65.908   6.434   7.927  1.00  0.00     0.235 C 
HETATM   10  C   UNL     1      67.056   6.669   8.890  1.00  0.00     0.029 C 
HETATM   11  C   UNL     1      68.188   5.812   8.349  1.00  0.00     0.029 C 
HETATM   12  C   UNL     1      67.778   5.426   6.934  1.00  0.00     0.235 C 
HETATM   13  H   UNL     1      65.909   5.508   6.107  1.00  0.00     0.280 HD
ENDBRANCH   7   8
ENDBRANCH   1   7
BRANCH   3  14
HETATM   14  C   UNL     1      62.822  10.510   5.151  1.00  0.00     0.268 C 
BRANCH  14  15
HETATM   15  N   UNL     1      63.623  11.261   6.111  1.00  0.00    -0.075 N 
HETATM   16  H   UNL     1      63.708  12.230   5.800  1.00  0.00     0.274 HD
HETATM   17  H   UNL     1      64.551  10.844   6.180  1.00  0.00     0.274 HD
HETATM   18  H   UNL     1      63.170  11.236   7.025  1.00  0.00     0.274 HD
ENDBRANCH  14  15
ENDBRANCH   3  14
TORSDOF 4
ENDMDL
MODEL 8
REMARK VINA RESULT:      -5.1     17.173     19.351
REMARK  4 active torsions:
REMARK  status: ('A' for Active; 'I' for Inactive)
REMARK    1  A    between atoms: N_1  and  C_2 
REMARK    2  A    between atoms: C_2  and  C_3 
REMARK    3  A    between atoms: C_5  and  C_11 
REMARK    4  A    between atoms: N_6  and  C_11 
ROOT
HETATM    1  C   UNL     1      63.591   8.652   4.459  1.00  0.00    -0.032 A 
HETATM    2  C   UNL     1      62.988   8.537   3.196  1.00  0.00     0.017 A 
HETATM    3  C   UNL     1      62.159   9.549   2.685  1.00  0.00    -0.033 A 
HETATM    4  C   UNL     1      62.506  10.809   4.727  1.00  0.00     0.001 A 
HETATM    5  C   UNL     1      63.340   9.802   5.217  1.00  0.00     0.009 A 
HETATM    6  C   UNL     1      61.919  10.684   3.468  1.00  0.00     0.009 A 
ENDROOT
BRANCH   1   7
HETATM    7  C   UNL     1      64.536   7.577   4.954  1.00  0.00     0.273 C 
BRANCH   7   8
HETATM    8  N   UNL     1      65.161   7.744   6.271  1.00  0.00    -0.067 N 
HETATM    9  C   UNL     1      66.556   8.176   6.256  1.00  0.00     0.235 C 
HETATM   10  C   UNL     1      67.380   6.913   6.417  1.00  0.00     0.029 C 
HETATM   11  C   UNL     1      66.485   5.974   7.209  1.00  0.00     0.029 C 
HETATM   12  C   UNL     1      65.089   6.579   7.148  1.00  0.00     0.235 C 
HETATM   13  H   UNL     1      64.576   8.494   6.644  1.00  0.00     0.280 HD
ENDBRANCH   7   8
ENDBRANCH   1   7
BRANCH   3  14
HETATM   14  C   UNL     1      61.552   9.414   1.313  1.00  0.00     0.268 C 
BRANCH  14  15
HETATM   15  N   UNL     1      60.263   8.732   1.370  1.00  0.00    -0.075 N 
HETATM   16  H   UNL     1      59.608   9.186   0.732  1.00  0.00     0.274 HD
HETATM   17  H   UNL     1      59.896   8.778   2.321  1.00  0.00     0.274 HD
HETATM   18  H   UNL     1      60.382   7.756   1.099  1.00  0.00     0.274 HD
ENDBRANCH  14  15
ENDBRANCH   3  14
TORSDOF 4
ENDMDL
MODEL 9
REMARK VINA RESULT:      -5.1      1.753      5.882
REMARK  4 active torsions:
REMARK  status: ('A' for Active; 'I' for Inactive)
REMARK    1  A    between atoms: N_1  and  C_2 
REMARK    2  A    between atoms: C_2  and  C_3 
REMARK    3  A    between atoms: C_5  and  C_11 
REMARK    4  A    between atoms: N_6  and  C_11 
ROOT
HETATM    1  C   UNL     1      78.658  10.315  19.112  1.00  0.00    -0.032 A 
HETATM    2  C   UNL     1      77.513  11.057  19.446  1.00  0.00     0.017 A 
HETATM    3  C   UNL     1      77.540  12.031  20.457  1.00  0.00    -0.033 A 
HETATM    4  C   UNL     1      79.878  11.512  20.839  1.00  0.00     0.001 A 
HETATM    5  C   UNL     1      79.841  10.556  19.822  1.00  0.00     0.009 A 
HETATM    6  C   UNL     1      78.735  12.246  21.155  1.00  0.00     0.009 A 
ENDROOT
BRANCH   1   7
HETATM    7  C   UNL     1      78.617   9.321  17.971  1.00  0.00     0.273 C 
BRANCH   7   8
HETATM    8  N   UNL     1      77.313   8.955  17.406  1.00  0.00    -0.067 N 
HETATM    9  C   UNL     1      76.606   7.879  18.095  1.00  0.00     0.235 C 
HETATM   10  C   UNL     1      76.906   6.618  17.305  1.00  0.00     0.029 C 
HETATM   11  C   UNL     1      77.135   7.105  15.884  1.00  0.00     0.029 C 
HETATM   12  C   UNL     1      77.322   8.613  15.986  1.00  0.00     0.235 C 
HETATM   13  H   UNL     1      76.813   9.834  17.546  1.00  0.00     0.280 HD
ENDBRANCH   7   8
ENDBRANCH   1   7
BRANCH   3  14
HETATM   14  C   UNL     1      76.306  12.836  20.771  1.00  0.00     0.268 C 
BRANCH  14  15
HETATM   15  N   UNL     1      76.313  14.111  20.062  1.00  0.00    -0.075 N 
HETATM   16  H   UNL     1      76.165  13.949  19.066  1.00  0.00     0.274 HD
HETATM   17  H   UNL     1      77.212  14.573  20.201  1.00  0.00     0.274 HD
HETATM   18  H   UNL     1      75.567  14.706  20.425  1.00  0.00     0.274 HD
ENDBRANCH  14  15
ENDBRANCH   3  14
TORSDOF 4
ENDMDL
