MODEL 1
REMARK VINA RESULT:      -5.4      0.000      0.000
REMARK  3 active torsions:
REMARK  status: ('A' for Active; 'I' for Inactive)
REMARK    1  A    between atoms: N_1  and  C_7 
REMARK    2  A    between atoms: C_7  and  C_8 
REMARK    3  A    between atoms: C_9  and  N_10 
ROOT
HETATM    1  C   UNL     1      80.755  12.693  22.963  1.00  0.00    -0.038 A 
HETATM    2  C   UNL     1      81.397  14.410  25.114  1.00  0.00     0.025 A 
HETATM    3  C   UNL     1      82.033  14.547  23.879  1.00  0.00     0.029 A 
HETATM    4  C   UNL     1      80.398  13.443  25.246  1.00  0.00     0.029 A 
HETATM    5  C   UNL     1      81.737  13.681  22.821  1.00  0.00     0.011 A 
HETATM    6  C   UNL     1      80.093  12.577  24.193  1.00  0.00     0.011 A 
ENDROOT
BRANCH   1   7
HETATM    7  C   UNL     1      80.407  11.788  21.808  1.00  0.00     0.186 C 
BRANCH   7   8
HETATM    8  N   UNL     1      79.093  12.089  21.258  1.00  0.00    -0.299 N 
HETATM    9  N   UNL     1      78.537  11.272  20.338  1.00  0.00    -0.310 N 
HETATM   10  C   UNL     1      77.376  11.861  20.051  1.00  0.00     0.108 A 
ATOM     11  HN  UNL     1      78.916  10.406  19.953  1.00  0.00     0.186 HD
HETATM   12  C   UNL     1      77.200  13.070  20.750  1.00  0.00     0.037 A 
HETATM   13  C   UNL     1      78.338  13.201  21.510  1.00  0.00     0.112 A 
ENDBRANCH   7   8
ENDBRANCH   1   7
BRANCH   2  14
HETATM   14  N   UNL     1      81.588  15.368  26.117  1.00  0.00    -0.399 N 
HETATM   15  H   UNL     1      81.739  15.084  27.047  1.00  0.00     0.156 HD
HETATM   16  H   UNL     1      81.571  16.326  25.892  1.00  0.00     0.156 HD
ENDBRANCH   2  14
TORSDOF 3
ENDMDL
MODEL 2
REMARK VINA RESULT:      -5.3     22.050     25.123
REMARK  3 active torsions:
REMARK  status: ('A' for Active; 'I' for Inactive)
REMARK    1  A    between atoms: N_1  and  C_7 
REMARK    2  A    between atoms: C_7  and  C_8 
REMARK    3  A    between atoms: C_9  and  N_10 
ROOT
HETATM    1  C   UNL     1      62.999   8.824   4.726  1.00  0.00    -0.038 A 
HETATM    2  C   UNL     1      61.925  10.817   3.033  1.00  0.00     0.025 A 
HETATM    3  C   UNL     1      62.323  11.127   4.335  1.00  0.00     0.029 A 
HETATM    4  C   UNL     1      62.120   9.515   2.568  1.00  0.00     0.029 A 
HETATM    5  C   UNL     1      62.829  10.137   5.184  1.00  0.00     0.011 A 
HETATM    6  C   UNL     1      62.630   8.520   3.409  1.00  0.00     0.011 A 
ENDROOT
BRANCH   1   7
HETATM    7  C   UNL     1      63.584   7.769   5.630  1.00  0.00     0.186 C 
BRANCH   7   8
HETATM    8  N   UNL     1      65.030   7.673   5.489  1.00  0.00    -0.299 N 
HETATM    9  N   UNL     1      65.842   8.328   6.346  1.00  0.00    -0.310 N 
HETATM   10  C   UNL     1      67.067   8.038   5.906  1.00  0.00     0.108 A 
ATOM     11  HN  UNL     1      65.581   8.909   7.142  1.00  0.00     0.186 HD
HETATM   12  C   UNL     1      67.047   7.234   4.751  1.00  0.00     0.037 A 
HETATM   13  C   UNL     1      65.713   7.030   4.493  1.00  0.00     0.112 A 
ENDBRANCH   7   8
ENDBRANCH   1   7
BRANCH   2  14
HETATM   14  N   UNL     1      61.561  11.836   2.144  1.00  0.00    -0.399 N 
HETATM   15  H   UNL     1      60.613  12.072   2.028  1.00  0.00     0.156 HD
HETATM   16  H   UNL     1      62.254  12.315   1.635  1.00  0.00     0.156 HD
ENDBRANCH   2  14
TORSDOF 3
ENDMDL
MODEL 3
REMARK VINA RESULT:      -5.3     24.925     27.803
REMARK  3 active torsions:
REMARK  status: ('A' for Active; 'I' for Inactive)
REMARK    1  A    between atoms: N_1  and  C_7 
REMARK    2  A    between atoms: C_7  and  C_8 
REMARK    3  A    between atoms: C_9  and  N_10 
ROOT
HETATM    1  C   UNL     1      62.107   9.581   2.232  1.00  0.00    -0.038 A 
HETATM    2  C   UNL     1      62.660  10.638   4.795  1.00  0.00     0.025 A 
HETATM    3  C   UNL     1      63.031   9.333   4.467  1.00  0.00     0.029 A 
HETATM    4  C   UNL     1      62.059  11.427   3.811  1.00  0.00     0.029 A 
HETATM    5  C   UNL     1      62.735   8.798   3.209  1.00  0.00     0.011 A 
HETATM    6  C   UNL     1      61.763  10.902   2.550  1.00  0.00     0.011 A 
ENDROOT
BRANCH   1   7
HETATM    7  C   UNL     1      61.826   9.016   0.862  1.00  0.00     0.186 C 
BRANCH   7   8
HETATM    8  N   UNL     1      60.675   8.125   0.867  1.00  0.00    -0.299 N 
HETATM    9  N   UNL     1      59.434   8.618   1.061  1.00  0.00    -0.310 N 
HETATM   10  C   UNL     1      58.655   7.536   1.028  1.00  0.00     0.108 A 
ATOM     11  HN  UNL     1      59.156   9.589   1.200  1.00  0.00     0.186 HD
HETATM   12  C   UNL     1      59.390   6.349   0.854  1.00  0.00     0.037 A 
HETATM   13  C   UNL     1      60.699   6.760   0.771  1.00  0.00     0.112 A 
ENDBRANCH   7   8
ENDBRANCH   1   7
BRANCH   2  14
HETATM   14  N   UNL     1      63.089  11.214   5.996  1.00  0.00    -0.399 N 
HETATM   15  H   UNL     1      62.785  12.117   6.245  1.00  0.00     0.156 HD
HETATM   16  H   UNL     1      63.696  10.717   6.591  1.00  0.00     0.156 HD
ENDBRANCH   2  14
TORSDOF 3
ENDMDL
MODEL 4
REMARK VINA RESULT:      -5.1     19.345     20.808
REMARK  3 active torsions:
REMARK  status: ('A' for Active; 'I' for Inactive)
REMARK    1  A    between atoms: N_1  and  C_7 
REMARK    2  A    between atoms: C_7  and  C_8 
REMARK    3  A    between atoms: C_9  and  N_10 
ROOT
HETATM    1  C   UNL     1      68.496   5.505   8.243  1.00  0.00    -0.038 A 
HETATM    2  C   UNL     1      66.135   6.804   7.392  1.00  0.00     0.025 A 
HETATM    3  C   UNL     1      67.044   6.298   6.462  1.00  0.00     0.029 A 
HETATM    4  C   UNL     1      66.391   6.604   8.751  1.00  0.00     0.029 A 
HETATM    5  C   UNL     1      68.227   5.679   6.879  1.00  0.00     0.011 A 
HETATM    6  C   UNL     1      67.568   5.983   9.177  1.00  0.00     0.011 A 
ENDROOT
BRANCH   1   7
HETATM    7  C   UNL     1      69.752   4.799   8.690  1.00  0.00     0.186 C 
BRANCH   7   8
HETATM    8  N   UNL     1      69.478   3.452   9.167  1.00  0.00    -0.299 N 
HETATM    9  N   UNL     1      69.763   3.110  10.442  1.00  0.00    -0.310 N 
HETATM   10  C   UNL     1      69.413   1.826  10.512  1.00  0.00     0.108 A 
ATOM     11  HN  UNL     1      70.155   3.697  11.179  1.00  0.00     0.186 HD
HETATM   12  C   UNL     1      68.941   1.329   9.282  1.00  0.00     0.037 A 
HETATM   13  C   UNL     1      69.013   2.401   8.424  1.00  0.00     0.112 A 
ENDBRANCH   7   8
ENDBRANCH   1   7
BRANCH   2  14
HETATM   14  N   UNL     1      64.889   7.286   6.973  1.00  0.00    -0.399 N 
HETATM   15  H   UNL     1      64.101   7.187   7.555  1.00  0.00     0.156 HD
HETATM   16  H   UNL     1      64.801   7.723   6.096  1.00  0.00     0.156 HD
ENDBRANCH   2  14
TORSDOF 3
ENDMDL
MODEL 5
REMARK VINA RESULT:      -5.0      2.154      5.363
REMARK  3 active torsions:
REMARK  status: ('A' for Active; 'I' for Inactive)
REMARK    1  A    between atoms: N_1  and  C_7 
REMARK    2  A    between atoms: C_7  and  C_8 
REMARK    3  A    between atoms: C_9  and  N_10 
ROOT
HETATM    1  C   UNL     1      78.917  12.267  21.070  1.00  0.00    -0.038 A 
HETATM    2  C   UNL     1      76.587  12.560  19.497  1.00  0.00     0.025 A 
HETATM    3  C   UNL     1      77.458  11.490  19.287  1.00  0.00     0.029 A 
HETATM    4  C   UNL     1      76.863  13.450  20.537  1.00  0.00     0.029 A 
HETATM    5  C   UNL     1      78.626  11.357  20.046  1.00  0.00     0.011 A 
HETATM    6  C   UNL     1      78.026  13.323  21.303  1.00  0.00     0.011 A 
ENDROOT
BRANCH   1   7
HETATM    7  C   UNL     1      80.155  12.097  21.915  1.00  0.00     0.186 C 
BRANCH   7   8
HETATM    8  N   UNL     1      79.834  11.951  23.327  1.00  0.00    -0.299 N 
HETATM    9  N   UNL     1      78.740  11.258  23.709  1.00  0.00    -0.310 N 
HETATM   10  C   UNL     1      78.751  11.356  25.038  1.00  0.00     0.108 A 
ATOM     11  HN  UNL     1      78.063  10.774  23.118  1.00  0.00     0.186 HD
HETATM   12  C   UNL     1      79.821  12.138  25.511  1.00  0.00     0.037 A 
HETATM   13  C   UNL     1      80.495  12.526  24.378  1.00  0.00     0.112 A 
ENDBRANCH   7   8
ENDBRANCH   1   7
BRANCH   2  14
HETATM   14  N   UNL     1      75.351  12.605  18.841  1.00  0.00    -0.399 N 
HETATM   15  H   UNL     1      75.306  12.877  17.896  1.00  0.00     0.156 HD
HETATM   16  H   UNL     1      74.528  12.364  19.324  1.00  0.00     0.156 HD
ENDBRANCH   2  14
TORSDOF 3
ENDMDL
MODEL 6
REMARK VINA RESULT:      -4.7     19.300     21.569
REMARK  3 active torsions:
REMARK  status: ('A' for Active; 'I' for Inactive)
REMARK    1  A    between atoms: N_1  and  C_7 
REMARK    2  A    between atoms: C_7  and  C_8 
REMARK    3  A    between atoms: C_9  and  N_10 
ROOT
HETATM    1  C   UNL     1      68.022   4.671   6.900  1.00  0.00    -0.038 A 
HETATM    2  C   UNL     1      69.061   3.821   9.387  1.00  0.00     0.025 A 
HETATM    3  C   UNL     1      68.724   2.892   8.401  1.00  0.00     0.029 A 
HETATM    4  C   UNL     1      68.925   5.181   9.097  1.00  0.00     0.029 A 
HETATM    5  C   UNL     1      68.184   3.308   7.180  1.00  0.00     0.011 A 
HETATM    6  C   UNL     1      68.391   5.605   7.877  1.00  0.00     0.011 A 
ENDROOT
BRANCH   1   7
HETATM    7  C   UNL     1      67.479   5.119   5.566  1.00  0.00     0.186 C 
BRANCH   7   8
HETATM    8  N   UNL     1      66.468   6.156   5.710  1.00  0.00    -0.299 N 
HETATM    9  N   UNL     1      65.279   5.871   6.283  1.00  0.00    -0.310 N 
HETATM   10  C   UNL     1      64.614   7.025   6.221  1.00  0.00     0.108 A 
ATOM     11  HN  UNL     1      64.963   4.983   6.672  1.00  0.00     0.186 HD
HETATM   12  C   UNL     1      65.351   8.037   5.579  1.00  0.00     0.037 A 
HETATM   13  C   UNL     1      66.542   7.439   5.241  1.00  0.00     0.112 A 
ENDBRANCH   7   8
ENDBRANCH   1   7
BRANCH   2  14
HETATM   14  N   UNL     1      69.736   3.411  10.543  1.00  0.00    -0.399 N 
HETATM   15  H   UNL     1      70.625   2.993  10.472  1.00  0.00     0.156 HD
HETATM   16  H   UNL     1      69.322   3.540  11.427  1.00  0.00     0.156 HD
ENDBRANCH   2  14
TORSDOF 3
ENDMDL
MODEL 7
REMARK VINA RESULT:      -4.6     19.527     20.759
REMARK  3 active torsions:
REMARK  status: ('A' for Active; 'I' for Inactive)
REMARK    1  A    between atoms: N_1  and  C_7 
REMARK    2  A    between atoms: C_7  and  C_8 
REMARK    3  A    between atoms: C_9  and  N_10 
ROOT
HETATM    1  C   UNL     1      69.256   3.932   8.790  1.00  0.00    -0.038 A 
HETATM    2  C   UNL     1      69.166   1.137   9.204  1.00  0.00     0.025 A 
HETATM    3  C   UNL     1      68.949   1.677   7.935  1.00  0.00     0.029 A 
HETATM    4  C   UNL     1      69.483   2.004  10.252  1.00  0.00     0.029 A 
HETATM    5  C   UNL     1      68.966   3.061   7.732  1.00  0.00     0.011 A 
HETATM    6  C   UNL     1      69.507   3.389  10.057  1.00  0.00     0.011 A 
ENDROOT
BRANCH   1   7
HETATM    7  C   UNL     1      69.315   5.421   8.560  1.00  0.00     0.186 C 
BRANCH   7   8
HETATM    8  N   UNL     1      68.034   5.956   8.123  1.00  0.00    -0.299 N 
HETATM    9  N   UNL     1      67.944   6.653   6.971  1.00  0.00    -0.310 N 
HETATM   10  C   UNL     1      66.658   6.999   6.909  1.00  0.00     0.108 A 
ATOM     11  HN  UNL     1      68.686   6.865   6.303  1.00  0.00     0.186 HD
HETATM   12  C   UNL     1      65.930   6.564   8.032  1.00  0.00     0.037 A 
HETATM   13  C   UNL     1      66.852   5.907   8.811  1.00  0.00     0.112 A 
ENDBRANCH   7   8
ENDBRANCH   1   7
BRANCH   2  14
HETATM   14  N   UNL     1      69.295  -0.247   9.370  1.00  0.00    -0.399 N 
HETATM   15  H   UNL     1      69.789  -0.606  10.143  1.00  0.00     0.156 HD
HETATM   16  H   UNL     1      68.894  -0.861   8.715  1.00  0.00     0.156 HD
ENDBRANCH   2  14
TORSDOF 3
ENDMDL
MODEL 8
REMARK VINA RESULT:      -4.4     23.500     26.685
REMARK  3 active torsions:
REMARK  status: ('A' for Active; 'I' for Inactive)
REMARK    1  A    between atoms: N_1  and  C_7 
REMARK    2  A    between atoms: C_7  and  C_8 
REMARK    3  A    between atoms: C_9  and  N_10 
ROOT
HETATM    1  C   UNL     1      62.034   9.098   3.710  1.00  0.00    -0.038 A 
HETATM    2  C   UNL     1      60.595   8.319   1.406  1.00  0.00     0.025 A 
HETATM    3  C   UNL     1      61.501   9.381   1.355  1.00  0.00     0.029 A 
HETATM    4  C   UNL     1      60.457   7.617   2.605  1.00  0.00     0.029 A 
HETATM    5  C   UNL     1      62.194   9.785   2.500  1.00  0.00     0.011 A 
HETATM    6  C   UNL     1      61.150   8.012   3.753  1.00  0.00     0.011 A 
ENDROOT
BRANCH   1   7
HETATM    7  C   UNL     1      62.815   9.510   4.933  1.00  0.00     0.186 C 
BRANCH   7   8
HETATM    8  N   UNL     1      63.729   8.466   5.372  1.00  0.00    -0.299 N 
HETATM    9  N   UNL     1      63.433   7.712   6.452  1.00  0.00    -0.310 N 
HETATM   10  C   UNL     1      64.484   6.899   6.569  1.00  0.00     0.108 A 
ATOM     11  HN  UNL     1      62.602   7.754   7.041  1.00  0.00     0.186 HD
HETATM   12  C   UNL     1      65.469   7.151   5.596  1.00  0.00     0.037 A 
HETATM   13  C   UNL     1      64.961   8.185   4.846  1.00  0.00     0.112 A 
ENDBRANCH   7   8
ENDBRANCH   1   7
BRANCH   2  14
HETATM   14  N   UNL     1      60.019   7.825   0.229  1.00  0.00    -0.399 N 
HETATM   15  H   UNL     1      59.311   8.336  -0.224  1.00  0.00     0.156 HD
HETATM   16  H   UNL     1      60.322   6.967  -0.144  1.00  0.00     0.156 HD
ENDBRANCH   2  14
TORSDOF 3
ENDMDL
MODEL 9
REMARK VINA RESULT:      -4.4     19.870     21.107
REMARK  3 active torsions:
REMARK  status: ('A' for Active; 'I' for Inactive)
REMARK    1  A    between atoms: N_1  and  C_7 
REMARK    2  A    between atoms: C_7  and  C_8 
REMARK    3  A    between atoms: C_9  and  N_10 
ROOT
HETATM    1  C   UNL     1      68.490   4.321   8.287  1.00  0.00    -0.038 A 
HETATM    2  C   UNL     1      67.191   6.731   7.583  1.00  0.00     0.025 A 
HETATM    3  C   UNL     1      67.553   6.477   8.907  1.00  0.00     0.029 A 
HETATM    4  C   UNL     1      67.534   5.793   6.607  1.00  0.00     0.029 A 
HETATM    5  C   UNL     1      68.172   5.274   9.263  1.00  0.00     0.011 A 
HETATM    6  C   UNL     1      68.157   4.590   6.953  1.00  0.00     0.011 A 
ENDROOT
BRANCH   1   7
HETATM    7  C   UNL     1      69.195   3.044   8.667  1.00  0.00     0.186 C 
BRANCH   7   8
HETATM    8  N   UNL     1      68.291   2.087   9.289  1.00  0.00    -0.299 N 
HETATM    9  N   UNL     1      68.285   1.929  10.630  1.00  0.00    -0.310 N 
HETATM   10  C   UNL     1      67.374   0.977  10.832  1.00  0.00     0.108 A 
ATOM     11  HN  UNL     1      68.846   2.422  11.325  1.00  0.00     0.186 HD
HETATM   12  C   UNL     1      66.824   0.495   9.630  1.00  0.00     0.037 A 
HETATM   13  C   UNL     1      67.451   1.220   8.645  1.00  0.00     0.112 A 
ENDBRANCH   7   8
ENDBRANCH   1   7
BRANCH   2  14
HETATM   14  N   UNL     1      66.710   7.992   7.211  1.00  0.00    -0.399 N 
HETATM   15  H   UNL     1      67.248   8.796   7.392  1.00  0.00     0.156 HD
HETATM   16  H   UNL     1      65.835   8.074   6.769  1.00  0.00     0.156 HD
ENDBRANCH   2  14
TORSDOF 3
ENDMDL
