MODEL 1
REMARK VINA RESULT:      -6.2      0.000      0.000
REMARK  4 active torsions:
REMARK  status: ('A' for Active; 'I' for Inactive)
REMARK    1  A    between atoms: C_1  and  C_5 
REMARK    2  A    between atoms: C_2  and  C_13 
REMARK    3  A    between atoms: C_3  and  N_4 
REMARK    4  A    between atoms: C_13  and  N_14 
ROOT
HETATM    1  C   UNL     1      76.539   2.157  17.924  1.00  0.00    -0.005 A 
HETATM    2  C   UNL     1      75.299   1.756  17.352  1.00  0.00     0.038 A 
HETATM    3  C   UNL     1      76.078   4.498  17.323  1.00  0.00     0.048 A 
HETATM    4  C   UNL     1      76.897   3.519  17.898  1.00  0.00     0.027 A 
HETATM    5  C   UNL     1      74.490   2.749  16.770  1.00  0.00     0.031 A 
HETATM    6  C   UNL     1      74.871   4.098  16.751  1.00  0.00     0.018 A 
ENDROOT
BRANCH   2   7
HETATM    7  N   UNL     1      74.927   0.412  17.334  1.00  0.00    -0.376 N 
HETATM    8  C   UNL     1      74.324  -0.188  16.127  1.00  0.00     0.149 C 
HETATM    9  C   UNL     1      74.484  -1.719  16.228  1.00  0.00     0.187 C 
HETATM   10  O   UNL     1      73.897  -2.246  17.435  1.00  0.00    -0.388 OA
HETATM   11  C   UNL     1      74.462  -1.613  18.598  1.00  0.00     0.187 C 
HETATM   12  C   UNL     1      74.246  -0.088  18.552  1.00  0.00     0.149 C 
ENDBRANCH   2   7
BRANCH   1  13
HETATM   13  C   UNL     1      77.565   1.127  18.390  1.00  0.00     0.272 C 
BRANCH  13  14
HETATM   14  N   UNL     1      78.559   1.658  19.341  1.00  0.00    -0.075 N 
HETATM   15  C   UNL     1      79.021   0.612  20.246  1.00  0.00     0.267 C 
HETATM   16  H   UNL     1      78.133   2.407  19.886  1.00  0.00     0.277 HD
HETATM   17  H   UNL     1      79.358   2.011  18.814  1.00  0.00     0.277 HD
ENDBRANCH  13  14
ENDBRANCH   1  13
BRANCH   3  18
HETATM   18  C   UNL     1      76.508   5.944  17.297  1.00  0.00     0.417 C 
HETATM   19  F   UNL     1      77.789   6.142  17.722  1.00  0.00    -0.166 F 
HETATM   20  F   UNL     1      75.730   6.738  18.084  1.00  0.00    -0.166 F 
HETATM   21  F   UNL     1      76.448   6.483  16.047  1.00  0.00    -0.166 F 
ENDBRANCH   3  18
TORSDOF 4
ENDMDL
MODEL 2
REMARK VINA RESULT:      -5.5     15.700     17.298
REMARK  4 active torsions:
REMARK  status: ('A' for Active; 'I' for Inactive)
REMARK    1  A    between atoms: C_1  and  C_5 
REMARK    2  A    between atoms: C_2  and  C_13 
REMARK    3  A    between atoms: C_3  and  N_4 
REMARK    4  A    between atoms: C_13  and  N_14 
ROOT
HETATM    1  C   UNL     1      65.520   7.650   5.427  1.00  0.00    -0.005 A 
HETATM    2  C   UNL     1      64.908   6.785   6.378  1.00  0.00     0.038 A 
HETATM    3  C   UNL     1      63.316   8.550   4.804  1.00  0.00     0.048 A 
HETATM    4  C   UNL     1      64.708   8.513   4.666  1.00  0.00     0.027 A 
HETATM    5  C   UNL     1      63.507   6.826   6.500  1.00  0.00     0.031 A 
HETATM    6  C   UNL     1      62.720   7.690   5.726  1.00  0.00     0.018 A 
ENDROOT
BRANCH   2   7
HETATM    7  N   UNL     1      65.679   5.896   7.127  1.00  0.00    -0.376 N 
HETATM    8  C   UNL     1      65.352   4.456   7.161  1.00  0.00     0.149 C 
HETATM    9  C   UNL     1      66.608   3.695   7.629  1.00  0.00     0.187 C 
HETATM   10  O   UNL     1      67.080   4.164   8.908  1.00  0.00    -0.388 OA
HETATM   11  C   UNL     1      67.346   5.578   8.869  1.00  0.00     0.187 C 
HETATM   12  C   UNL     1      66.080   6.364   8.475  1.00  0.00     0.149 C 
ENDBRANCH   2   7
BRANCH   1  13
HETATM   13  C   UNL     1      67.002   7.527   5.083  1.00  0.00     0.272 C 
BRANCH  13  14
HETATM   14  N   UNL     1      67.267   6.864   3.794  1.00  0.00    -0.075 N 
HETATM   15  C   UNL     1      67.115   5.418   3.914  1.00  0.00     0.267 C 
HETATM   16  H   UNL     1      68.219   7.076   3.498  1.00  0.00     0.277 HD
HETATM   17  H   UNL     1      66.596   7.206   3.107  1.00  0.00     0.277 HD
ENDBRANCH  13  14
ENDBRANCH   1  13
BRANCH   3  18
HETATM   18  C   UNL     1      62.481   9.475   3.954  1.00  0.00     0.417 C 
HETATM   19  F   UNL     1      61.146   9.199   3.992  1.00  0.00    -0.166 F 
HETATM   20  F   UNL     1      62.830   9.437   2.638  1.00  0.00    -0.166 F 
HETATM   21  F   UNL     1      62.597  10.779   4.333  1.00  0.00    -0.166 F 
ENDBRANCH   3  18
TORSDOF 4
ENDMDL
MODEL 3
REMARK VINA RESULT:      -5.5     13.539     15.316
REMARK  4 active torsions:
REMARK  status: ('A' for Active; 'I' for Inactive)
REMARK    1  A    between atoms: C_1  and  C_5 
REMARK    2  A    between atoms: C_2  and  C_13 
REMARK    3  A    between atoms: C_3  and  N_4 
REMARK    4  A    between atoms: C_13  and  N_14 
ROOT
HETATM    1  C   UNL     1      67.146   4.921   6.496  1.00  0.00    -0.005 A 
HETATM    2  C   UNL     1      66.558   6.107   7.018  1.00  0.00     0.038 A 
HETATM    3  C   UNL     1      68.625   4.773   8.457  1.00  0.00     0.048 A 
HETATM    4  C   UNL     1      68.164   4.281   7.230  1.00  0.00     0.027 A 
HETATM    5  C   UNL     1      67.037   6.595   8.247  1.00  0.00     0.031 A 
HETATM    6  C   UNL     1      68.056   5.944   8.956  1.00  0.00     0.018 A 
ENDROOT
BRANCH   2   7
HETATM    7  N   UNL     1      65.569   6.782   6.303  1.00  0.00    -0.376 N 
HETATM    8  C   UNL     1      65.740   8.202   5.933  1.00  0.00     0.149 C 
HETATM    9  C   UNL     1      64.771   8.511   4.774  1.00  0.00     0.187 C 
HETATM   10  O   UNL     1      63.404   8.212   5.117  1.00  0.00    -0.388 OA
HETATM   11  C   UNL     1      63.266   6.837   5.522  1.00  0.00     0.187 C 
HETATM   12  C   UNL     1      64.172   6.528   6.730  1.00  0.00     0.149 C 
ENDBRANCH   2   7
BRANCH   1  13
HETATM   13  C   UNL     1      66.834   4.438   5.082  1.00  0.00     0.272 C 
BRANCH  13  14
HETATM   14  N   UNL     1      67.500   5.214   4.021  1.00  0.00    -0.075 N 
HETATM   15  C   UNL     1      67.144   4.703   2.702  1.00  0.00     0.267 C 
HETATM   16  H   UNL     1      68.510   5.148   4.143  1.00  0.00     0.277 HD
HETATM   17  H   UNL     1      67.196   6.185   4.088  1.00  0.00     0.277 HD
ENDBRANCH  13  14
ENDBRANCH   1  13
BRANCH   3  18
HETATM   18  C   UNL     1      69.732   4.069   9.202  1.00  0.00     0.417 C 
HETATM   19  F   UNL     1      70.958   4.639   9.028  1.00  0.00    -0.166 F 
HETATM   20  F   UNL     1      69.873   2.767   8.827  1.00  0.00    -0.166 F 
HETATM   21  F   UNL     1      69.524   4.050  10.548  1.00  0.00    -0.166 F 
ENDBRANCH   3  18
TORSDOF 4
ENDMDL
MODEL 4
REMARK VINA RESULT:      -5.2     17.554     19.260
REMARK  4 active torsions:
REMARK  status: ('A' for Active; 'I' for Inactive)
REMARK    1  A    between atoms: C_1  and  C_5 
REMARK    2  A    between atoms: C_2  and  C_13 
REMARK    3  A    between atoms: C_3  and  N_4 
REMARK    4  A    between atoms: C_13  and  N_14 
ROOT
HETATM    1  C   UNL     1      64.139   6.901   3.341  1.00  0.00    -0.005 A 
HETATM    2  C   UNL     1      64.385   7.610   4.551  1.00  0.00     0.038 A 
HETATM    3  C   UNL     1      62.611   8.678   2.590  1.00  0.00     0.048 A 
HETATM    4  C   UNL     1      63.260   7.454   2.390  1.00  0.00     0.027 A 
HETATM    5  C   UNL     1      63.719   8.834   4.743  1.00  0.00     0.031 A 
HETATM    6  C   UNL     1      62.844   9.361   3.783  1.00  0.00     0.018 A 
ENDROOT
BRANCH   2   7
HETATM    7  N   UNL     1      65.226   7.078   5.527  1.00  0.00    -0.376 N 
HETATM    8  C   UNL     1      64.686   6.632   6.827  1.00  0.00     0.149 C 
HETATM    9  C   UNL     1      65.713   5.673   7.464  1.00  0.00     0.187 C 
HETATM   10  O   UNL     1      67.009   6.286   7.608  1.00  0.00    -0.388 OA
HETATM   11  C   UNL     1      67.496   6.758   6.339  1.00  0.00     0.187 C 
HETATM   12  C   UNL     1      66.519   7.777   5.720  1.00  0.00     0.149 C 
ENDBRANCH   2   7
BRANCH   1  13
HETATM   13  C   UNL     1      64.655   5.478   3.139  1.00  0.00     0.272 C 
BRANCH  13  14
HETATM   14  N   UNL     1      63.742   4.433   3.637  1.00  0.00    -0.075 N 
HETATM   15  C   UNL     1      64.418   3.572   4.601  1.00  0.00     0.267 C 
HETATM   16  H   UNL     1      63.422   3.867   2.851  1.00  0.00     0.277 HD
HETATM   17  H   UNL     1      62.952   4.882   4.098  1.00  0.00     0.277 HD
ENDBRANCH  13  14
ENDBRANCH   1  13
BRANCH   3  18
HETATM   18  C   UNL     1      61.660   9.225   1.555  1.00  0.00     0.417 C 
HETATM   19  F   UNL     1      60.423   8.652   1.590  1.00  0.00    -0.166 F 
HETATM   20  F   UNL     1      62.113   9.051   0.282  1.00  0.00    -0.166 F 
HETATM   21  F   UNL     1      61.449  10.564   1.697  1.00  0.00    -0.166 F 
ENDBRANCH   3  18
TORSDOF 4
ENDMDL
MODEL 5
REMARK VINA RESULT:      -5.2     18.094     19.796
REMARK  4 active torsions:
REMARK  status: ('A' for Active; 'I' for Inactive)
REMARK    1  A    between atoms: C_1  and  C_5 
REMARK    2  A    between atoms: C_2  and  C_13 
REMARK    3  A    between atoms: C_3  and  N_4 
REMARK    4  A    between atoms: C_13  and  N_14 
ROOT
HETATM    1  C   UNL     1      63.588   8.528   4.373  1.00  0.00    -0.005 A 
HETATM    2  C   UNL     1      63.485   7.505   3.388  1.00  0.00     0.038 A 
HETATM    3  C   UNL     1      65.834   7.733   4.988  1.00  0.00     0.048 A 
HETATM    4  C   UNL     1      64.762   8.618   5.146  1.00  0.00     0.027 A 
HETATM    5  C   UNL     1      64.567   6.616   3.246  1.00  0.00     0.031 A 
HETATM    6  C   UNL     1      65.722   6.723   4.032  1.00  0.00     0.018 A 
ENDROOT
BRANCH   2   7
HETATM    7  N   UNL     1      62.326   7.368   2.625  1.00  0.00    -0.376 N 
HETATM    8  C   UNL     1      61.570   6.099   2.621  1.00  0.00     0.149 C 
HETATM    9  C   UNL     1      60.142   6.398   2.121  1.00  0.00     0.187 C 
HETATM   10  O   UNL     1      60.143   7.022   0.822  1.00  0.00    -0.388 OA
HETATM   11  C   UNL     1      60.925   8.231   0.835  1.00  0.00     0.187 C 
HETATM   12  C   UNL     1      62.378   7.940   1.259  1.00  0.00     0.149 C 
ENDBRANCH   2   7
BRANCH   1  13
HETATM   13  C   UNL     1      62.390   9.401   4.735  1.00  0.00     0.272 C 
BRANCH  13  14
HETATM   14  N   UNL     1      62.551  10.821   4.374  1.00  0.00    -0.075 N 
HETATM   15  C   UNL     1      61.878  11.116   3.114  1.00  0.00     0.267 C 
HETATM   16  H   UNL     1      63.544  11.031   4.279  1.00  0.00     0.277 HD
HETATM   17  H   UNL     1      62.135  11.394   5.108  1.00  0.00     0.277 HD
ENDBRANCH  13  14
ENDBRANCH   1  13
BRANCH   3  18
HETATM   18  C   UNL     1      67.066   7.851   5.852  1.00  0.00     0.417 C 
HETATM   19  F   UNL     1      67.429   6.681   6.450  1.00  0.00    -0.166 F 
HETATM   20  F   UNL     1      66.914   8.752   6.862  1.00  0.00    -0.166 F 
HETATM   21  F   UNL     1      68.159   8.258   5.148  1.00  0.00    -0.166 F 
ENDBRANCH   3  18
TORSDOF 4
ENDMDL
MODEL 6
REMARK VINA RESULT:      -5.0     12.681     14.574
REMARK  4 active torsions:
REMARK  status: ('A' for Active; 'I' for Inactive)
REMARK    1  A    between atoms: C_1  and  C_5 
REMARK    2  A    between atoms: C_2  and  C_13 
REMARK    3  A    between atoms: C_3  and  N_4 
REMARK    4  A    between atoms: C_13  and  N_14 
ROOT
HETATM    1  C   UNL     1      67.306   3.875   7.119  1.00  0.00    -0.005 A 
HETATM    2  C   UNL     1      67.589   5.243   7.396  1.00  0.00     0.038 A 
HETATM    3  C   UNL     1      68.601   3.189   9.095  1.00  0.00     0.048 A 
HETATM    4  C   UNL     1      67.818   2.883   7.976  1.00  0.00     0.027 A 
HETATM    5  C   UNL     1      68.385   5.536   8.518  1.00  0.00     0.031 A 
HETATM    6  C   UNL     1      68.887   4.530   9.354  1.00  0.00     0.018 A 
ENDROOT
BRANCH   2   7
HETATM    7  N   UNL     1      67.123   6.249   6.551  1.00  0.00    -0.376 N 
HETATM    8  C   UNL     1      68.065   7.063   5.755  1.00  0.00     0.149 C 
HETATM    9  C   UNL     1      67.275   7.709   4.599  1.00  0.00     0.187 C 
HETATM   10  O   UNL     1      66.164   8.494   5.076  1.00  0.00    -0.388 OA
HETATM   11  C   UNL     1      65.284   7.696   5.889  1.00  0.00     0.187 C 
HETATM   12  C   UNL     1      66.039   7.102   7.094  1.00  0.00     0.149 C 
ENDBRANCH   2   7
BRANCH   1  13
HETATM   13  C   UNL     1      66.628   3.456   5.817  1.00  0.00     0.272 C 
BRANCH  13  14
HETATM   14  N   UNL     1      67.566   3.159   4.719  1.00  0.00    -0.075 N 
HETATM   15  C   UNL     1      67.343   4.054   3.589  1.00  0.00     0.267 C 
HETATM   16  H   UNL     1      67.429   2.196   4.414  1.00  0.00     0.277 HD
HETATM   17  H   UNL     1      68.518   3.293   5.059  1.00  0.00     0.277 HD
ENDBRANCH  13  14
ENDBRANCH   1  13
BRANCH   3  18
HETATM   18  C   UNL     1      69.148   2.094   9.977  1.00  0.00     0.417 C 
HETATM   19  F   UNL     1      68.183   1.311  10.539  1.00  0.00    -0.166 F 
HETATM   20  F   UNL     1      69.886   2.575  11.016  1.00  0.00    -0.166 F 
HETATM   21  F   UNL     1      69.966   1.240   9.301  1.00  0.00    -0.166 F 
ENDBRANCH   3  18
TORSDOF 4
ENDMDL
MODEL 7
REMARK VINA RESULT:      -4.9     13.559     15.238
REMARK  4 active torsions:
REMARK  status: ('A' for Active; 'I' for Inactive)
REMARK    1  A    between atoms: C_1  and  C_5 
REMARK    2  A    between atoms: C_2  and  C_13 
REMARK    3  A    between atoms: C_3  and  N_4 
REMARK    4  A    between atoms: C_13  and  N_14 
ROOT
HETATM    1  C   UNL     1      66.922   5.557   7.156  1.00  0.00    -0.005 A 
HETATM    2  C   UNL     1      66.821   4.616   6.093  1.00  0.00     0.038 A 
HETATM    3  C   UNL     1      68.775   4.272   8.140  1.00  0.00     0.048 A 
HETATM    4  C   UNL     1      67.898   5.363   8.152  1.00  0.00     0.027 A 
HETATM    5  C   UNL     1      67.703   3.520   6.098  1.00  0.00     0.031 A 
HETATM    6  C   UNL     1      68.663   3.345   7.104  1.00  0.00     0.018 A 
ENDROOT
BRANCH   2   7
HETATM    7  N   UNL     1      65.846   4.761   5.106  1.00  0.00    -0.376 N 
HETATM    8  C   UNL     1      64.721   3.810   5.011  1.00  0.00     0.149 C 
HETATM    9  C   UNL     1      63.597   4.483   4.198  1.00  0.00     0.187 C 
HETATM   10  O   UNL     1      64.049   4.905   2.896  1.00  0.00    -0.388 OA
HETATM   11  C   UNL     1      65.177   5.792   3.008  1.00  0.00     0.187 C 
HETATM   12  C   UNL     1      66.341   5.109   3.752  1.00  0.00     0.149 C 
ENDBRANCH   2   7
BRANCH   1  13
HETATM   13  C   UNL     1      65.879   6.656   7.341  1.00  0.00     0.272 C 
BRANCH  13  14
HETATM   14  N   UNL     1      66.290   7.969   6.813  1.00  0.00    -0.075 N 
HETATM   15  C   UNL     1      65.507   8.323   5.634  1.00  0.00     0.267 C 
HETATM   16  H   UNL     1      67.277   7.933   6.560  1.00  0.00     0.277 HD
HETATM   17  H   UNL     1      66.134   8.674   7.533  1.00  0.00     0.277 HD
ENDBRANCH  13  14
ENDBRANCH   1  13
BRANCH   3  18
HETATM   18  C   UNL     1      69.793   4.090   9.238  1.00  0.00     0.417 C 
HETATM   19  F   UNL     1      69.328   4.418  10.477  1.00  0.00    -0.166 F 
HETATM   20  F   UNL     1      70.911   4.846   9.050  1.00  0.00    -0.166 F 
HETATM   21  F   UNL     1      70.226   2.802   9.339  1.00  0.00    -0.166 F 
ENDBRANCH   3  18
TORSDOF 4
ENDMDL
MODEL 8
REMARK VINA RESULT:      -4.9     15.685     17.391
REMARK  4 active torsions:
REMARK  status: ('A' for Active; 'I' for Inactive)
REMARK    1  A    between atoms: C_1  and  C_5 
REMARK    2  A    between atoms: C_2  and  C_13 
REMARK    3  A    between atoms: C_3  and  N_4 
REMARK    4  A    between atoms: C_13  and  N_14 
ROOT
HETATM    1  C   UNL     1      64.093   6.283   5.799  1.00  0.00    -0.005 A 
HETATM    2  C   UNL     1      65.316   6.946   6.104  1.00  0.00     0.038 A 
HETATM    3  C   UNL     1      63.277   8.291   4.633  1.00  0.00     0.048 A 
HETATM    4  C   UNL     1      63.105   6.972   5.069  1.00  0.00     0.027 A 
HETATM    5  C   UNL     1      65.471   8.274   5.669  1.00  0.00     0.031 A 
HETATM    6  C   UNL     1      64.471   8.940   4.948  1.00  0.00     0.018 A 
ENDROOT
BRANCH   2   7
HETATM    7  N   UNL     1      66.303   6.304   6.851  1.00  0.00    -0.376 N 
HETATM    8  C   UNL     1      66.798   6.893   8.112  1.00  0.00     0.149 C 
HETATM    9  C   UNL     1      67.474   5.771   8.927  1.00  0.00     0.187 C 
HETATM   10  O   UNL     1      68.532   5.129   8.188  1.00  0.00    -0.388 OA
HETATM   11  C   UNL     1      68.041   4.605   6.940  1.00  0.00     0.187 C 
HETATM   12  C   UNL     1      67.428   5.726   6.078  1.00  0.00     0.149 C 
ENDBRANCH   2   7
BRANCH   1  13
HETATM   13  C   UNL     1      63.757   4.923   6.405  1.00  0.00     0.272 C 
BRANCH  13  14
HETATM   14  N   UNL     1      64.200   3.777   5.590  1.00  0.00    -0.075 N 
HETATM   15  C   UNL     1      64.834   2.761   6.424  1.00  0.00     0.267 C 
HETATM   16  H   UNL     1      64.869   4.102   4.893  1.00  0.00     0.277 HD
HETATM   17  H   UNL     1      63.385   3.365   5.137  1.00  0.00     0.277 HD
ENDBRANCH  13  14
ENDBRANCH   1  13
BRANCH   3  18
HETATM   18  C   UNL     1      62.185   8.999   3.871  1.00  0.00     0.417 C 
HETATM   19  F   UNL     1      61.877  10.229   4.373  1.00  0.00    -0.166 F 
HETATM   20  F   UNL     1      61.015   8.301   3.858  1.00  0.00    -0.166 F 
HETATM   21  F   UNL     1      62.511   9.207   2.565  1.00  0.00    -0.166 F 
ENDBRANCH   3  18
TORSDOF 4
ENDMDL
MODEL 9
REMARK VINA RESULT:      -4.9     16.291     18.090
REMARK  4 active torsions:
REMARK  status: ('A' for Active; 'I' for Inactive)
REMARK    1  A    between atoms: C_1  and  C_5 
REMARK    2  A    between atoms: C_2  and  C_13 
REMARK    3  A    between atoms: C_3  and  N_4 
REMARK    4  A    between atoms: C_13  and  N_14 
ROOT
HETATM    1  C   UNL     1      63.909   6.654   6.202  1.00  0.00    -0.005 A 
HETATM    2  C   UNL     1      64.247   7.691   5.287  1.00  0.00     0.038 A 
HETATM    3  C   UNL     1      66.156   6.778   7.198  1.00  0.00     0.048 A 
HETATM    4  C   UNL     1      64.871   6.225   7.137  1.00  0.00     0.027 A 
HETATM    5  C   UNL     1      65.544   8.231   5.354  1.00  0.00     0.031 A 
HETATM    6  C   UNL     1      66.487   7.784   6.290  1.00  0.00     0.018 A 
ENDROOT
BRANCH   2   7
HETATM    7  N   UNL     1      63.329   8.119   4.329  1.00  0.00    -0.376 N 
HETATM    8  C   UNL     1      63.419   7.646   2.933  1.00  0.00     0.149 C 
HETATM    9  C   UNL     1      62.047   7.871   2.265  1.00  0.00     0.187 C 
HETATM   10  O   UNL     1      61.631   9.250   2.335  1.00  0.00    -0.388 OA
HETATM   11  C   UNL     1      61.596   9.706   3.700  1.00  0.00     0.187 C 
HETATM   12  C   UNL     1      62.980   9.559   4.363  1.00  0.00     0.149 C 
ENDBRANCH   2   7
BRANCH   1  13
HETATM   13  C   UNL     1      62.604   5.873   6.067  1.00  0.00     0.272 C 
BRANCH  13  14
HETATM   14  N   UNL     1      61.441   6.538   6.681  1.00  0.00    -0.075 N 
HETATM   15  C   UNL     1      60.417   5.564   7.042  1.00  0.00     0.267 C 
HETATM   16  H   UNL     1      61.048   7.204   6.017  1.00  0.00     0.277 HD
HETATM   17  H   UNL     1      61.748   7.018   7.527  1.00  0.00     0.277 HD
ENDBRANCH  13  14
ENDBRANCH   1  13
BRANCH   3  18
HETATM   18  C   UNL     1      67.164   6.276   8.201  1.00  0.00     0.417 C 
HETATM   19  F   UNL     1      67.386   7.138   9.234  1.00  0.00    -0.166 F 
HETATM   20  F   UNL     1      68.386   6.041   7.646  1.00  0.00    -0.166 F 
HETATM   21  F   UNL     1      66.784   5.101   8.779  1.00  0.00    -0.166 F 
ENDBRANCH   3  18
TORSDOF 4
ENDMDL
