MODEL 1
REMARK VINA RESULT:      -5.8      0.000      0.000
REMARK  4 active torsions:
REMARK  status: ('A' for Active; 'I' for Inactive)
REMARK    1  A    between atoms: N_1  and  C_2 
REMARK    2  A    between atoms: C_5  and  C_8 
REMARK    3  A    between atoms: C_5  and  O_16 
REMARK    4  A    between atoms: O_16  and  C_19 
ROOT
HETATM    1  N   UNL     1      65.548   6.318   5.935  1.00  0.00    -0.366 N 
HETATM    2  C   UNL     1      63.627   8.240   5.013  1.00  0.00     0.088 C 
HETATM    3  C   UNL     1      65.906   7.163   4.803  1.00  0.00     0.125 C 
HETATM    4  C   UNL     1      64.136   6.076   6.202  1.00  0.00     0.125 C 
HETATM    5  C   UNL     1      65.134   8.477   4.827  1.00  0.00     0.034 C 
HETATM    6  C   UNL     1      63.371   7.394   6.263  1.00  0.00     0.034 C 
ENDROOT
BRANCH   1   7
HETATM    7  C   UNL     1      66.493   6.024   6.902  1.00  0.00     0.119 A 
HETATM    8  N   UNL     1      67.230   4.892   6.812  1.00  0.00    -0.344 N 
HETATM    9  C   UNL     1      68.152   4.667   7.789  1.00  0.00     0.022 A 
ATOM     10  HN  UNL     1      67.101   4.235   6.042  1.00  0.00     0.167 HD
HETATM   11  C   UNL     1      68.308   5.538   8.860  1.00  0.00     0.112 A 
HETATM   12  C   UNL     1      69.041   3.471   7.648  1.00  0.00     0.069 C 
HETATM   13  N   UNL     1      67.581   6.662   8.997  1.00  0.00    -0.370 N 
HETATM   14  C   UNL     1      66.688   6.874   7.999  1.00  0.00     0.136 A 
ATOM     15  HN  UNL     1      67.692   7.300   9.785  1.00  0.00     0.164 HD
ENDBRANCH   1   7
BRANCH   2  16
HETATM   16  C   UNL     1      62.874   9.553   5.092  1.00  0.00     0.263 C 
HETATM   17  O   UNL     1      63.025  10.401   5.963  1.00  0.00    -0.265 OA
BRANCH  16  18
HETATM   18  O   UNL     1      62.035   9.680   4.023  1.00  0.00    -0.322 OA
BRANCH  18  19
HETATM   19  C   UNL     1      61.874  11.009   3.505  1.00  0.00     0.174 C 
HETATM   20  C   UNL     1      61.921  11.004   1.988  1.00  0.00     0.034 C 
ENDBRANCH  18  19
ENDBRANCH  16  18
ENDBRANCH   2  16
TORSDOF 4
ENDMDL
MODEL 2
REMARK VINA RESULT:      -5.7      2.532      4.021
REMARK  4 active torsions:
REMARK  status: ('A' for Active; 'I' for Inactive)
REMARK    1  A    between atoms: N_1  and  C_2 
REMARK    2  A    between atoms: C_5  and  C_8 
REMARK    3  A    between atoms: C_5  and  O_16 
REMARK    4  A    between atoms: O_16  and  C_19 
ROOT
HETATM    1  N   UNL     1      68.249   5.132   8.525  1.00  0.00    -0.366 N 
HETATM    2  C   UNL     1      66.403   6.818   7.116  1.00  0.00     0.088 C 
HETATM    3  C   UNL     1      67.651   6.251   9.242  1.00  0.00     0.125 C 
HETATM    4  C   UNL     1      68.344   5.209   7.073  1.00  0.00     0.125 C 
HETATM    5  C   UNL     1      66.306   6.639   8.639  1.00  0.00     0.034 C 
HETATM    6  C   UNL     1      66.988   5.560   6.469  1.00  0.00     0.034 C 
ENDROOT
BRANCH   1   7
HETATM    7  C   UNL     1      68.425   3.917   9.165  1.00  0.00     0.119 A 
HETATM    8  N   UNL     1      67.540   2.912   8.970  1.00  0.00    -0.344 N 
HETATM    9  C   UNL     1      67.775   1.738   9.619  1.00  0.00     0.022 A 
ATOM     10  HN  UNL     1      66.729   3.029   8.362  1.00  0.00     0.167 HD
HETATM   11  C   UNL     1      68.856   1.583  10.479  1.00  0.00     0.112 A 
HETATM   12  C   UNL     1      66.861   0.588   9.335  1.00  0.00     0.069 C 
HETATM   13  N   UNL     1      69.746   2.564  10.714  1.00  0.00    -0.370 N 
HETATM   14  C   UNL     1      69.501   3.713  10.039  1.00  0.00     0.136 A 
ATOM     15  HN  UNL     1      70.537   2.452  11.348  1.00  0.00     0.164 HD
ENDBRANCH   1   7
BRANCH   2  16
HETATM   16  C   UNL     1      65.050   7.149   6.518  1.00  0.00     0.263 C 
HETATM   17  O   UNL     1      63.978   7.048   7.102  1.00  0.00    -0.265 OA
BRANCH  16  18
HETATM   18  O   UNL     1      65.200   7.625   5.249  1.00  0.00    -0.322 OA
BRANCH  18  19
HETATM   19  C   UNL     1      64.296   8.670   4.857  1.00  0.00     0.174 C 
HETATM   20  C   UNL     1      63.390   8.204   3.732  1.00  0.00     0.034 C 
ENDBRANCH  18  19
ENDBRANCH  16  18
ENDBRANCH   2  16
TORSDOF 4
ENDMDL
MODEL 3
REMARK VINA RESULT:      -5.6     20.327     23.686
REMARK  4 active torsions:
REMARK  status: ('A' for Active; 'I' for Inactive)
REMARK    1  A    between atoms: N_1  and  C_2 
REMARK    2  A    between atoms: C_5  and  C_8 
REMARK    3  A    between atoms: C_5  and  O_16 
REMARK    4  A    between atoms: O_16  and  C_19 
ROOT
HETATM    1  N   UNL     1      79.604  12.013  22.228  1.00  0.00    -0.366 N 
HETATM    2  C   UNL     1      81.201  13.353  24.201  1.00  0.00     0.088 C 
HETATM    3  C   UNL     1      79.173  11.958  23.619  1.00  0.00     0.125 C 
HETATM    4  C   UNL     1      81.017  12.237  21.947  1.00  0.00     0.125 C 
HETATM    5  C   UNL     1      79.692  13.154  24.407  1.00  0.00     0.034 C 
HETATM    6  C   UNL     1      81.525  13.457  22.708  1.00  0.00     0.034 C 
ENDROOT
BRANCH   1   7
HETATM    7  C   UNL     1      78.668  12.169  21.221  1.00  0.00     0.119 A 
HETATM    8  N   UNL     1      78.495  11.197  20.296  1.00  0.00    -0.344 N 
HETATM    9  C   UNL     1      77.549  11.406  19.338  1.00  0.00     0.022 A 
ATOM     10  HN  UNL     1      79.051  10.342  20.315  1.00  0.00     0.167 HD
HETATM   11  C   UNL     1      76.815  12.584  19.283  1.00  0.00     0.112 A 
HETATM   12  C   UNL     1      77.280  10.297  18.370  1.00  0.00     0.069 C 
HETATM   13  N   UNL     1      76.971  13.582  20.171  1.00  0.00    -0.370 N 
HETATM   14  C   UNL     1      77.901  13.339  21.126  1.00  0.00     0.136 A 
ATOM     15  HN  UNL     1      76.435  14.449  20.128  1.00  0.00     0.164 HD
ENDBRANCH   1   7
BRANCH   2  16
HETATM   16  C   UNL     1      81.698  14.577  24.943  1.00  0.00     0.263 C 
HETATM   17  O   UNL     1      82.418  15.446  24.466  1.00  0.00    -0.265 OA
BRANCH  16  18
HETATM   18  O   UNL     1      81.187  14.601  26.208  1.00  0.00    -0.322 OA
BRANCH  18  19
HETATM   19  C   UNL     1      82.114  14.311  27.266  1.00  0.00     0.174 C 
HETATM   20  C   UNL     1      81.940  12.885  27.757  1.00  0.00     0.034 C 
ENDBRANCH  18  19
ENDBRANCH  16  18
ENDBRANCH   2  16
TORSDOF 4
ENDMDL
MODEL 4
REMARK VINA RESULT:      -5.6     17.205     20.131
REMARK  4 active torsions:
REMARK  status: ('A' for Active; 'I' for Inactive)
REMARK    1  A    between atoms: N_1  and  C_2 
REMARK    2  A    between atoms: C_5  and  C_8 
REMARK    3  A    between atoms: C_5  and  O_16 
REMARK    4  A    between atoms: O_16  and  C_19 
ROOT
HETATM    1  N   UNL     1      77.755  12.129  21.250  1.00  0.00    -0.366 N 
HETATM    2  C   UNL     1      76.726  12.079  18.571  1.00  0.00     0.088 C 
HETATM    3  C   UNL     1      77.505  10.834  20.631  1.00  0.00     0.125 C 
HETATM    4  C   UNL     1      77.010  13.285  20.767  1.00  0.00     0.125 C 
HETATM    5  C   UNL     1      77.582  10.922  19.112  1.00  0.00     0.034 C 
HETATM    6  C   UNL     1      77.119  13.394  19.249  1.00  0.00     0.034 C 
ENDROOT
BRANCH   1   7
HETATM    7  C   UNL     1      78.879  12.313  22.036  1.00  0.00     0.119 A 
HETATM    8  N   UNL     1      78.820  12.087  23.370  1.00  0.00    -0.344 N 
HETATM    9  C   UNL     1      79.964  12.274  24.086  1.00  0.00     0.022 A 
ATOM     10  HN  UNL     1      77.955  11.789  23.820  1.00  0.00     0.167 HD
HETATM   11  C   UNL     1      81.136  12.717  23.487  1.00  0.00     0.112 A 
HETATM   12  C   UNL     1      79.938  11.933  25.543  1.00  0.00     0.069 C 
HETATM   13  N   UNL     1      81.230  12.972  22.169  1.00  0.00    -0.370 N 
HETATM   14  C   UNL     1      80.085  12.755  21.476  1.00  0.00     0.136 A 
ATOM     15  HN  UNL     1      82.089  13.300  21.729  1.00  0.00     0.164 HD
ENDBRANCH   1   7
BRANCH   2  16
HETATM   16  C   UNL     1      76.853  12.194  17.065  1.00  0.00     0.263 C 
HETATM   17  O   UNL     1      76.701  13.227  16.423  1.00  0.00    -0.265 OA
BRANCH  16  18
HETATM   18  O   UNL     1      77.209  10.992  16.529  1.00  0.00    -0.322 OA
BRANCH  18  19
HETATM   19  C   UNL     1      77.544  11.000  15.132  1.00  0.00     0.174 C 
HETATM   20  C   UNL     1      77.944   9.612  14.667  1.00  0.00     0.034 C 
ENDBRANCH  18  19
ENDBRANCH  16  18
ENDBRANCH   2  16
TORSDOF 4
ENDMDL
MODEL 5
REMARK VINA RESULT:      -5.5      1.448      1.750
REMARK  4 active torsions:
REMARK  status: ('A' for Active; 'I' for Inactive)
REMARK    1  A    between atoms: N_1  and  C_2 
REMARK    2  A    between atoms: C_5  and  C_8 
REMARK    3  A    between atoms: C_5  and  O_16 
REMARK    4  A    between atoms: O_16  and  C_19 
ROOT
HETATM    1  N   UNL     1      66.389   5.219   6.393  1.00  0.00    -0.366 N 
HETATM    2  C   UNL     1      64.847   7.293   5.146  1.00  0.00     0.088 C 
HETATM    3  C   UNL     1      66.849   5.747   5.115  1.00  0.00     0.125 C 
HETATM    4  C   UNL     1      64.974   5.329   6.722  1.00  0.00     0.125 C 
HETATM    5  C   UNL     1      66.359   7.173   4.896  1.00  0.00     0.034 C 
HETATM    6  C   UNL     1      64.494   6.765   6.539  1.00  0.00     0.034 C 
ENDROOT
BRANCH   1   7
HETATM    7  C   UNL     1      67.307   4.920   7.386  1.00  0.00     0.119 A 
HETATM    8  N   UNL     1      67.193   3.771   8.092  1.00  0.00    -0.344 N 
HETATM    9  C   UNL     1      68.135   3.530   9.047  1.00  0.00     0.022 A 
ATOM     10  HN  UNL     1      66.434   3.113   7.917  1.00  0.00     0.167 HD
HETATM   11  C   UNL     1      69.150   4.438   9.318  1.00  0.00     0.112 A 
HETATM   12  C   UNL     1      68.079   2.218   9.766  1.00  0.00     0.069 C 
HETATM   13  N   UNL     1      69.285   5.600   8.652  1.00  0.00    -0.370 N 
HETATM   14  C   UNL     1      68.349   5.805   7.692  1.00  0.00     0.136 A 
ATOM     15  HN  UNL     1      70.027   6.269   8.852  1.00  0.00     0.164 HD
ENDBRANCH   1   7
BRANCH   2  16
HETATM   16  C   UNL     1      64.379   8.725   4.981  1.00  0.00     0.263 C 
HETATM   17  O   UNL     1      64.710   9.661   5.698  1.00  0.00    -0.265 OA
BRANCH  16  18
HETATM   18  O   UNL     1      63.571   8.834   3.887  1.00  0.00    -0.322 OA
BRANCH  18  19
HETATM   19  C   UNL     1      62.217   9.237   4.142  1.00  0.00     0.174 C 
HETATM   20  C   UNL     1      61.966  10.639   3.617  1.00  0.00     0.034 C 
ENDBRANCH  18  19
ENDBRANCH  16  18
ENDBRANCH   2  16
TORSDOF 4
ENDMDL
MODEL 6
REMARK VINA RESULT:      -5.5      2.958      6.962
REMARK  4 active torsions:
REMARK  status: ('A' for Active; 'I' for Inactive)
REMARK    1  A    between atoms: N_1  and  C_2 
REMARK    2  A    between atoms: C_5  and  C_8 
REMARK    3  A    between atoms: C_5  and  O_16 
REMARK    4  A    between atoms: O_16  and  C_19 
ROOT
HETATM    1  N   UNL     1      65.181   7.284   5.029  1.00  0.00    -0.366 N 
HETATM    2  C   UNL     1      66.389   5.979   7.281  1.00  0.00     0.088 C 
HETATM    3  C   UNL     1      64.822   5.898   5.298  1.00  0.00     0.125 C 
HETATM    4  C   UNL     1      66.465   7.775   5.513  1.00  0.00     0.125 C 
HETATM    5  C   UNL     1      65.003   5.555   6.771  1.00  0.00     0.034 C 
HETATM    6  C   UNL     1      66.628   7.464   6.998  1.00  0.00     0.034 C 
ENDROOT
BRANCH   1   7
HETATM    7  C   UNL     1      64.211   8.180   4.615  1.00  0.00     0.119 A 
HETATM    8  N   UNL     1      63.936   9.276   5.360  1.00  0.00    -0.344 N 
HETATM    9  C   UNL     1      62.979  10.125   4.891  1.00  0.00     0.022 A 
ATOM     10  HN  UNL     1      64.425   9.459   6.236  1.00  0.00     0.167 HD
HETATM   11  C   UNL     1      62.282   9.864   3.718  1.00  0.00     0.112 A 
HETATM   12  C   UNL     1      62.735  11.390   5.653  1.00  0.00     0.069 C 
HETATM   13  N   UNL     1      62.512   8.776   2.961  1.00  0.00    -0.370 N 
HETATM   14  C   UNL     1      63.484   7.960   3.437  1.00  0.00     0.136 A 
ATOM     15  HN  UNL     1      61.998   8.582   2.102  1.00  0.00     0.164 HD
ENDBRANCH   1   7
BRANCH   2  16
HETATM   16  C   UNL     1      66.540   5.686   8.761  1.00  0.00     0.263 C 
HETATM   17  O   UNL     1      66.309   6.481   9.664  1.00  0.00    -0.265 OA
BRANCH  16  18
HETATM   18  O   UNL     1      66.923   4.391   8.947  1.00  0.00    -0.322 OA
BRANCH  18  19
HETATM   19  C   UNL     1      68.147   3.998   8.305  1.00  0.00     0.174 C 
HETATM   20  C   UNL     1      69.348   4.444   9.119  1.00  0.00     0.034 C 
ENDBRANCH  18  19
ENDBRANCH  16  18
ENDBRANCH   2  16
TORSDOF 4
ENDMDL
MODEL 7
REMARK VINA RESULT:      -5.5      2.897      6.967
REMARK  4 active torsions:
REMARK  status: ('A' for Active; 'I' for Inactive)
REMARK    1  A    between atoms: N_1  and  C_2 
REMARK    2  A    between atoms: C_5  and  C_8 
REMARK    3  A    between atoms: C_5  and  O_16 
REMARK    4  A    between atoms: O_16  and  C_19 
ROOT
HETATM    1  N   UNL     1      64.822   7.567   4.857  1.00  0.00    -0.366 N 
HETATM    2  C   UNL     1      66.249   6.530   7.120  1.00  0.00     0.088 C 
HETATM    3  C   UNL     1      64.402   6.287   5.410  1.00  0.00     0.125 C 
HETATM    4  C   UNL     1      66.198   7.999   5.071  1.00  0.00     0.125 C 
HETATM    5  C   UNL     1      64.774   6.170   6.883  1.00  0.00     0.034 C 
HETATM    6  C   UNL     1      66.557   7.917   6.552  1.00  0.00     0.034 C 
ENDROOT
BRANCH   1   7
HETATM    7  C   UNL     1      63.873   8.478   4.427  1.00  0.00     0.119 A 
HETATM    8  N   UNL     1      63.307   8.345   3.205  1.00  0.00    -0.344 N 
HETATM    9  C   UNL     1      62.371   9.268   2.846  1.00  0.00     0.022 A 
ATOM     10  HN  UNL     1      63.571   7.585   2.578  1.00  0.00     0.167 HD
HETATM   11  C   UNL     1      62.033  10.327   3.679  1.00  0.00     0.112 A 
HETATM   12  C   UNL     1      61.667   9.075   1.539  1.00  0.00     0.069 C 
HETATM   13  N   UNL     1      62.587  10.506   4.891  1.00  0.00    -0.370 N 
HETATM   14  C   UNL     1      63.498   9.562   5.234  1.00  0.00     0.136 A 
ATOM     15  HN  UNL     1      62.343  11.285   5.502  1.00  0.00     0.164 HD
ENDBRANCH   1   7
BRANCH   2  16
HETATM   16  C   UNL     1      66.597   6.466   8.594  1.00  0.00     0.263 C 
HETATM   17  O   UNL     1      65.787   6.529   9.512  1.00  0.00    -0.265 OA
BRANCH  16  18
HETATM   18  O   UNL     1      67.938   6.278   8.754  1.00  0.00    -0.322 OA
BRANCH  18  19
HETATM   19  C   UNL     1      68.421   4.948   8.510  1.00  0.00     0.174 C 
HETATM   20  C   UNL     1      69.924   4.876   8.710  1.00  0.00     0.034 C 
ENDBRANCH  18  19
ENDBRANCH  16  18
ENDBRANCH   2  16
TORSDOF 4
ENDMDL
MODEL 8
REMARK VINA RESULT:      -5.4      4.086      7.616
REMARK  4 active torsions:
REMARK  status: ('A' for Active; 'I' for Inactive)
REMARK    1  A    between atoms: N_1  and  C_2 
REMARK    2  A    between atoms: C_5  and  C_8 
REMARK    3  A    between atoms: C_5  and  O_16 
REMARK    4  A    between atoms: O_16  and  C_19 
ROOT
HETATM    1  N   UNL     1      61.878   8.519   2.503  1.00  0.00    -0.366 N 
HETATM    2  C   UNL     1      63.992   8.530   4.443  1.00  0.00     0.088 C 
HETATM    3  C   UNL     1      62.972   7.572   2.336  1.00  0.00     0.125 C 
HETATM    4  C   UNL     1      62.125   9.741   3.257  1.00  0.00     0.125 C 
HETATM    5  C   UNL     1      63.635   7.251   3.670  1.00  0.00     0.034 C 
HETATM    6  C   UNL     1      62.754   9.415   4.608  1.00  0.00     0.034 C 
ENDROOT
BRANCH   1   7
HETATM    7  C   UNL     1      60.578   8.125   2.235  1.00  0.00     0.119 A 
HETATM    8  N   UNL     1      59.709   7.911   3.250  1.00  0.00    -0.344 N 
HETATM    9  C   UNL     1      58.441   7.537   2.919  1.00  0.00     0.022 A 
ATOM     10  HN  UNL     1      59.991   8.025   4.223  1.00  0.00     0.167 HD
HETATM   11  C   UNL     1      58.059   7.343   1.597  1.00  0.00     0.112 A 
HETATM   12  C   UNL     1      57.445   7.394   4.026  1.00  0.00     0.069 C 
HETATM   13  N   UNL     1      58.899   7.526   0.562  1.00  0.00    -0.370 N 
HETATM   14  C   UNL     1      60.146   7.920   0.917  1.00  0.00     0.136 A 
ATOM     15  HN  UNL     1      58.620   7.381  -0.408  1.00  0.00     0.164 HD
ENDBRANCH   1   7
BRANCH   2  16
HETATM   16  C   UNL     1      64.599   8.202   5.792  1.00  0.00     0.263 C 
HETATM   17  O   UNL     1      64.145   7.391   6.590  1.00  0.00    -0.265 OA
BRANCH  16  18
HETATM   18  O   UNL     1      65.755   8.903   5.972  1.00  0.00    -0.322 OA
BRANCH  18  19
HETATM   19  C   UNL     1      66.917   8.128   6.304  1.00  0.00     0.174 C 
HETATM   20  C   UNL     1      67.631   7.663   5.048  1.00  0.00     0.034 C 
ENDBRANCH  18  19
ENDBRANCH  16  18
ENDBRANCH   2  16
TORSDOF 4
ENDMDL
MODEL 9
REMARK VINA RESULT:      -5.2      4.779      8.542
REMARK  4 active torsions:
REMARK  status: ('A' for Active; 'I' for Inactive)
REMARK    1  A    between atoms: N_1  and  C_2 
REMARK    2  A    between atoms: C_5  and  C_8 
REMARK    3  A    between atoms: C_5  and  O_16 
REMARK    4  A    between atoms: O_16  and  C_19 
ROOT
HETATM    1  N   UNL     1      68.576   4.760   7.489  1.00  0.00    -0.366 N 
HETATM    2  C   UNL     1      69.557   2.682   9.207  1.00  0.00     0.088 C 
HETATM    3  C   UNL     1      68.776   3.433   6.922  1.00  0.00     0.125 C 
HETATM    4  C   UNL     1      69.347   5.136   8.667  1.00  0.00     0.125 C 
HETATM    5  C   UNL     1      68.676   2.353   7.992  1.00  0.00     0.034 C 
HETATM    6  C   UNL     1      69.215   4.071   9.752  1.00  0.00     0.034 C 
ENDROOT
BRANCH   1   7
HETATM    7  C   UNL     1      67.472   5.508   7.120  1.00  0.00     0.119 A 
HETATM    8  N   UNL     1      67.198   5.717   5.811  1.00  0.00    -0.344 N 
HETATM    9  C   UNL     1      66.090   6.453   5.514  1.00  0.00     0.022 A 
ATOM     10  HN  UNL     1      67.797   5.340   5.077  1.00  0.00     0.167 HD
HETATM   11  C   UNL     1      65.290   7.002   6.508  1.00  0.00     0.112 A 
HETATM   12  C   UNL     1      65.722   6.607   4.071  1.00  0.00     0.069 C 
HETATM   13  N   UNL     1      65.540   6.834   7.819  1.00  0.00    -0.370 N 
HETATM   14  C   UNL     1      66.634   6.080   8.087  1.00  0.00     0.136 A 
ATOM     15  HN  UNL     1      64.956   7.240   8.550  1.00  0.00     0.164 HD
ENDBRANCH   1   7
BRANCH   2  16
HETATM   16  C   UNL     1      69.409   1.631  10.290  1.00  0.00     0.263 C 
HETATM   17  O   UNL     1      68.404   1.456  10.968  1.00  0.00    -0.265 OA
BRANCH  16  18
HETATM   18  O   UNL     1      70.540   0.873  10.368  1.00  0.00    -0.322 OA
BRANCH  18  19
HETATM   19  C   UNL     1      70.417  -0.488   9.926  1.00  0.00     0.174 C 
HETATM   20  C   UNL     1      71.038  -0.665   8.552  1.00  0.00     0.034 C 
ENDBRANCH  18  19
ENDBRANCH  16  18
ENDBRANCH   2  16
TORSDOF 4
ENDMDL
