MODEL 1
REMARK VINA RESULT:      -6.8      0.000      0.000
REMARK  3 active torsions:
REMARK  status: ('A' for Active; 'I' for Inactive)
REMARK    1  A    between atoms: C_3  and  C_7 
REMARK    2  A    between atoms: C_9  and  C_14 
REMARK    3  A    between atoms: N_10  and  C_14 
ROOT
HETATM    1  C   UNL     1      77.326  11.079  18.809  1.00  0.00    -0.007 A 
HETATM    2  C   UNL     1      78.193  11.188  19.904  1.00  0.00     0.022 A 
HETATM    3  C   UNL     1      78.206  12.340  20.704  1.00  0.00    -0.032 A 
HETATM    4  C   UNL     1      76.459  12.141  18.518  1.00  0.00     0.014 A 
HETATM    5  C   UNL     1      76.460  13.289  19.309  1.00  0.00     0.002 A 
HETATM    6  C   UNL     1      77.330  13.388  20.395  1.00  0.00     0.009 A 
ENDROOT
BRANCH   1   7
HETATM    7  C   UNL     1      77.354   9.893  17.955  1.00  0.00     0.059 A 
HETATM    8  N   UNL     1      77.060   8.672  18.426  1.00  0.00    -0.299 N 
HETATM    9  N   UNL     1      77.134   7.870  17.355  1.00  0.00    -0.307 N 
ATOM     10  HN  UNL     1      76.831   8.412  19.386  1.00  0.00     0.187 HD
HETATM   11  C   UNL     1      77.483   8.522  16.213  1.00  0.00     0.112 A 
HETATM   12  C   UNL     1      76.788   6.478  17.489  1.00  0.00     0.177 C 
HETATM   13  C   UNL     1      77.636   9.839  16.566  1.00  0.00     0.050 A 
ENDBRANCH   1   7
BRANCH   3  14
HETATM   14  C   UNL     1      79.172  12.455  21.854  1.00  0.00     0.268 C 
BRANCH  14  15
HETATM   15  N   UNL     1      80.323  11.578  21.682  1.00  0.00    -0.075 N 
HETATM   16  H   UNL     1      81.178  12.096  21.884  1.00  0.00     0.274 HD
HETATM   17  H   UNL     1      80.351  11.239  20.720  1.00  0.00     0.274 HD
HETATM   18  H   UNL     1      80.245  10.786  22.320  1.00  0.00     0.274 HD
ENDBRANCH  14  15
ENDBRANCH   3  14
TORSDOF 3
ENDMDL
MODEL 2
REMARK VINA RESULT:      -6.6      1.669      5.692
REMARK  3 active torsions:
REMARK  status: ('A' for Active; 'I' for Inactive)
REMARK    1  A    between atoms: C_3  and  C_7 
REMARK    2  A    between atoms: C_9  and  C_14 
REMARK    3  A    between atoms: N_10  and  C_14 
ROOT
HETATM    1  C   UNL     1      77.324   9.887  17.971  1.00  0.00    -0.007 A 
HETATM    2  C   UNL     1      77.583  10.034  16.603  1.00  0.00     0.022 A 
HETATM    3  C   UNL     1      77.546   8.932  15.737  1.00  0.00    -0.032 A 
HETATM    4  C   UNL     1      77.018   8.614  18.473  1.00  0.00     0.014 A 
HETATM    5  C   UNL     1      76.974   7.512  17.622  1.00  0.00     0.002 A 
HETATM    6  C   UNL     1      77.238   7.670  16.260  1.00  0.00     0.009 A 
ENDROOT
BRANCH   1   7
HETATM    7  C   UNL     1      77.411  11.035  18.872  1.00  0.00     0.059 A 
HETATM    8  N   UNL     1      78.252  11.055  19.917  1.00  0.00    -0.299 N 
HETATM    9  N   UNL     1      78.089  12.271  20.457  1.00  0.00    -0.307 N 
ATOM     10  HN  UNL     1      78.875  10.311  20.231  1.00  0.00     0.187 HD
HETATM   11  C   UNL     1      77.162  13.030  19.814  1.00  0.00     0.112 A 
HETATM   12  C   UNL     1      78.917  12.666  21.568  1.00  0.00     0.177 C 
HETATM   13  C   UNL     1      76.698  12.258  18.779  1.00  0.00     0.050 A 
ENDBRANCH   1   7
BRANCH   3  14
HETATM   14  C   UNL     1      77.866   9.103  14.274  1.00  0.00     0.268 C 
BRANCH  14  15
HETATM   15  N   UNL     1      77.744   7.847  13.545  1.00  0.00    -0.075 N 
HETATM   16  H   UNL     1      78.493   7.781  12.856  1.00  0.00     0.274 HD
HETATM   17  H   UNL     1      76.841   7.816  13.072  1.00  0.00     0.274 HD
HETATM   18  H   UNL     1      77.813   7.067  14.199  1.00  0.00     0.274 HD
ENDBRANCH  14  15
ENDBRANCH   3  14
TORSDOF 3
ENDMDL
MODEL 3
REMARK VINA RESULT:      -6.5      2.588      4.743
REMARK  3 active torsions:
REMARK  status: ('A' for Active; 'I' for Inactive)
REMARK    1  A    between atoms: C_3  and  C_7 
REMARK    2  A    between atoms: C_9  and  C_14 
REMARK    3  A    between atoms: N_10  and  C_14 
ROOT
HETATM    1  C   UNL     1      76.924   6.991  16.713  1.00  0.00    -0.007 A 
HETATM    2  C   UNL     1      77.179   7.835  17.801  1.00  0.00     0.022 A 
HETATM    3  C   UNL     1      77.608   9.156  17.608  1.00  0.00    -0.032 A 
HETATM    4  C   UNL     1      77.099   7.485  15.413  1.00  0.00     0.014 A 
HETATM    5  C   UNL     1      77.521   8.797  15.207  1.00  0.00     0.002 A 
HETATM    6  C   UNL     1      77.775   9.628  16.299  1.00  0.00     0.009 A 
ENDROOT
BRANCH   1   7
HETATM    7  C   UNL     1      76.521   5.602  16.927  1.00  0.00     0.059 A 
HETATM    8  N   UNL     1      77.294   4.734  17.597  1.00  0.00    -0.299 N 
HETATM    9  N   UNL     1      76.575   3.604  17.637  1.00  0.00    -0.307 N 
ATOM     10  HN  UNL     1      78.222   4.898  17.989  1.00  0.00     0.187 HD
HETATM   11  C   UNL     1      75.376   3.701  17.001  1.00  0.00     0.112 A 
HETATM   12  C   UNL     1      77.081   2.471  18.369  1.00  0.00     0.177 C 
HETATM   13  C   UNL     1      75.308   4.986  16.526  1.00  0.00     0.050 A 
ENDBRANCH   1   7
BRANCH   3  14
HETATM   14  C   UNL     1      77.914  10.037  18.791  1.00  0.00     0.268 C 
BRANCH  14  15
HETATM   15  N   UNL     1      79.328   9.995  19.142  1.00  0.00    -0.075 N 
HETATM   16  H   UNL     1      79.694   9.059  18.969  1.00  0.00     0.274 HD
HETATM   17  H   UNL     1      79.439  10.226  20.130  1.00  0.00     0.274 HD
HETATM   18  H   UNL     1      79.839  10.671  18.575  1.00  0.00     0.274 HD
ENDBRANCH  14  15
ENDBRANCH   3  14
TORSDOF 3
ENDMDL
MODEL 4
REMARK VINA RESULT:      -6.4      1.855      5.755
REMARK  3 active torsions:
REMARK  status: ('A' for Active; 'I' for Inactive)
REMARK    1  A    between atoms: C_3  and  C_7 
REMARK    2  A    between atoms: C_9  and  C_14 
REMARK    3  A    between atoms: N_10  and  C_14 
ROOT
HETATM    1  C   UNL     1      77.430   8.984  17.082  1.00  0.00    -0.007 A 
HETATM    2  C   UNL     1      77.021   7.704  17.475  1.00  0.00     0.022 A 
HETATM    3  C   UNL     1      76.783   6.698  16.527  1.00  0.00    -0.032 A 
HETATM    4  C   UNL     1      77.606   9.255  15.718  1.00  0.00     0.014 A 
HETATM    5  C   UNL     1      77.377   8.263  14.767  1.00  0.00     0.002 A 
HETATM    6  C   UNL     1      76.966   6.991  15.169  1.00  0.00     0.009 A 
ENDROOT
BRANCH   1   7
HETATM    7  C   UNL     1      77.631  10.038  18.076  1.00  0.00     0.059 A 
HETATM    8  N   UNL     1      76.816  11.100  18.159  1.00  0.00    -0.299 N 
HETATM    9  N   UNL     1      77.278  11.798  19.206  1.00  0.00    -0.307 N 
ATOM     10  HN  UNL     1      76.022  11.326  17.559  1.00  0.00     0.187 HD
HETATM   11  C   UNL     1      78.371  11.239  19.791  1.00  0.00     0.112 A 
HETATM   12  C   UNL     1      76.570  12.977  19.637  1.00  0.00     0.177 C 
HETATM   13  C   UNL     1      78.631  10.094  19.081  1.00  0.00     0.050 A 
ENDBRANCH   1   7
BRANCH   3  14
HETATM   14  C   UNL     1      76.307   5.338  16.965  1.00  0.00     0.268 C 
BRANCH  14  15
HETATM   15  N   UNL     1      77.176   4.765  17.986  1.00  0.00    -0.075 N 
HETATM   16  H   UNL     1      78.008   5.346  18.088  1.00  0.00     0.274 HD
HETATM   17  H   UNL     1      77.451   3.823  17.707  1.00  0.00     0.274 HD
HETATM   18  H   UNL     1      76.675   4.725  18.874  1.00  0.00     0.274 HD
ENDBRANCH  14  15
ENDBRANCH   3  14
TORSDOF 3
ENDMDL
MODEL 5
REMARK VINA RESULT:      -6.3      1.750      5.697
REMARK  3 active torsions:
REMARK  status: ('A' for Active; 'I' for Inactive)
REMARK    1  A    between atoms: C_3  and  C_7 
REMARK    2  A    between atoms: C_9  and  C_14 
REMARK    3  A    between atoms: N_10  and  C_14 
ROOT
HETATM    1  C   UNL     1      78.467  12.423  21.083  1.00  0.00    -0.007 A 
HETATM    2  C   UNL     1      78.511  11.326  20.213  1.00  0.00     0.022 A 
HETATM    3  C   UNL     1      77.580  11.191  19.173  1.00  0.00    -0.032 A 
HETATM    4  C   UNL     1      77.478  13.398  20.902  1.00  0.00     0.014 A 
HETATM    5  C   UNL     1      76.550  13.278  19.869  1.00  0.00     0.002 A 
HETATM    6  C   UNL     1      76.600  12.179  19.009  1.00  0.00     0.009 A 
ENDROOT
BRANCH   1   7
HETATM    7  C   UNL     1      79.414  12.529  22.192  1.00  0.00     0.059 A 
HETATM    8  N   UNL     1      79.082  12.184  23.445  1.00  0.00    -0.299 N 
HETATM    9  N   UNL     1      80.206  12.361  24.153  1.00  0.00    -0.307 N 
ATOM     10  HN  UNL     1      78.175  11.858  23.783  1.00  0.00     0.187 HD
HETATM   11  C   UNL     1      81.246  12.826  23.411  1.00  0.00     0.112 A 
HETATM   12  C   UNL     1      80.228  11.996  25.547  1.00  0.00     0.177 C 
HETATM   13  C   UNL     1      80.767  12.949  22.131  1.00  0.00     0.050 A 
ENDBRANCH   1   7
BRANCH   3  14
HETATM   14  C   UNL     1      77.618   9.986  18.271  1.00  0.00     0.268 C 
BRANCH  14  15
HETATM   15  N   UNL     1      78.982   9.523  18.046  1.00  0.00    -0.075 N 
HETATM   16  H   UNL     1      79.495  10.225  17.512  1.00  0.00     0.274 HD
HETATM   17  H   UNL     1      78.961   8.647  17.524  1.00  0.00     0.274 HD
HETATM   18  H   UNL     1      79.442   9.374  18.944  1.00  0.00     0.274 HD
ENDBRANCH  14  15
ENDBRANCH   3  14
TORSDOF 3
ENDMDL
MODEL 6
REMARK VINA RESULT:      -5.7      3.272      7.539
REMARK  3 active torsions:
REMARK  status: ('A' for Active; 'I' for Inactive)
REMARK    1  A    between atoms: C_3  and  C_7 
REMARK    2  A    between atoms: C_9  and  C_14 
REMARK    3  A    between atoms: N_10  and  C_14 
ROOT
HETATM    1  C   UNL     1      76.154   4.787  17.033  1.00  0.00    -0.007 A 
HETATM    2  C   UNL     1      77.002   3.873  17.670  1.00  0.00     0.022 A 
HETATM    3  C   UNL     1      76.598   2.550  17.900  1.00  0.00    -0.032 A 
HETATM    4  C   UNL     1      74.884   4.363  16.618  1.00  0.00     0.014 A 
HETATM    5  C   UNL     1      74.472   3.050  16.837  1.00  0.00     0.002 A 
HETATM    6  C   UNL     1      75.324   2.148  17.476  1.00  0.00     0.009 A 
ENDROOT
BRANCH   1   7
HETATM    7  C   UNL     1      76.568   6.176  16.839  1.00  0.00     0.059 A 
HETATM    8  N   UNL     1      76.670   7.036  17.864  1.00  0.00    -0.299 N 
HETATM    9  N   UNL     1      77.124   8.168  17.310  1.00  0.00    -0.307 N 
ATOM     10  HN  UNL     1      76.450   6.865  18.846  1.00  0.00     0.187 HD
HETATM   11  C   UNL     1      77.302   8.080  15.964  1.00  0.00     0.112 A 
HETATM   12  C   UNL     1      77.432   9.294  18.155  1.00  0.00     0.177 C 
HETATM   13  C   UNL     1      76.948   6.799  15.623  1.00  0.00     0.050 A 
ENDBRANCH   1   7
BRANCH   3  14
HETATM   14  C   UNL     1      77.509   1.591  18.621  1.00  0.00     0.268 C 
BRANCH  14  15
HETATM   15  N   UNL     1      78.243   2.249  19.695  1.00  0.00    -0.075 N 
HETATM   16  H   UNL     1      78.418   3.221  19.440  1.00  0.00     0.274 HD
HETATM   17  H   UNL     1      79.132   1.771  19.841  1.00  0.00     0.274 HD
HETATM   18  H   UNL     1      77.693   2.214  20.553  1.00  0.00     0.274 HD
ENDBRANCH  14  15
ENDBRANCH   3  14
TORSDOF 3
ENDMDL
MODEL 7
REMARK VINA RESULT:      -5.6      2.386      4.483
REMARK  3 active torsions:
REMARK  status: ('A' for Active; 'I' for Inactive)
REMARK    1  A    between atoms: C_3  and  C_7 
REMARK    2  A    between atoms: C_9  and  C_14 
REMARK    3  A    between atoms: N_10  and  C_14 
ROOT
HETATM    1  C   UNL     1      79.229  12.338  22.069  1.00  0.00    -0.007 A 
HETATM    2  C   UNL     1      80.436  13.042  21.979  1.00  0.00     0.022 A 
HETATM    3  C   UNL     1      81.229  13.266  23.114  1.00  0.00    -0.032 A 
HETATM    4  C   UNL     1      78.816  11.850  23.316  1.00  0.00     0.014 A 
HETATM    5  C   UNL     1      79.597  12.062  24.451  1.00  0.00     0.002 A 
HETATM    6  C   UNL     1      80.797  12.767  24.350  1.00  0.00     0.009 A 
ENDROOT
BRANCH   1   7
HETATM    7  C   UNL     1      78.388  12.151  20.887  1.00  0.00     0.059 A 
HETATM    8  N   UNL     1      78.505  11.073  20.097  1.00  0.00    -0.299 N 
HETATM    9  N   UNL     1      77.546  11.227  19.174  1.00  0.00    -0.307 N 
ATOM     10  HN  UNL     1      79.175  10.308  20.180  1.00  0.00     0.187 HD
HETATM   11  C   UNL     1      76.826  12.371  19.325  1.00  0.00     0.112 A 
HETATM   12  C   UNL     1      77.331  10.188  18.199  1.00  0.00     0.177 C 
HETATM   13  C   UNL     1      77.347  12.998  20.429  1.00  0.00     0.050 A 
ENDBRANCH   1   7
BRANCH   3  14
HETATM   14  C   UNL     1      82.506  14.058  23.005  1.00  0.00     0.268 C 
BRANCH  14  15
HETATM   15  N   UNL     1      82.513  15.197  23.915  1.00  0.00    -0.075 N 
HETATM   16  H   UNL     1      83.389  15.709  23.811  1.00  0.00     0.274 HD
HETATM   17  H   UNL     1      82.424  14.865  24.875  1.00  0.00     0.274 HD
HETATM   18  H   UNL     1      81.730  15.813  23.694  1.00  0.00     0.274 HD
ENDBRANCH  14  15
ENDBRANCH   3  14
TORSDOF 3
ENDMDL
MODEL 8
REMARK VINA RESULT:      -5.5      1.908      2.737
REMARK  3 active torsions:
REMARK  status: ('A' for Active; 'I' for Inactive)
REMARK    1  A    between atoms: C_3  and  C_7 
REMARK    2  A    between atoms: C_9  and  C_14 
REMARK    3  A    between atoms: N_10  and  C_14 
ROOT
HETATM    1  C   UNL     1      78.032  10.110  18.564  1.00  0.00    -0.007 A 
HETATM    2  C   UNL     1      77.100  11.015  19.089  1.00  0.00     0.022 A 
HETATM    3  C   UNL     1      77.444  11.882  20.135  1.00  0.00    -0.032 A 
HETATM    4  C   UNL     1      79.328  10.083  19.096  1.00  0.00     0.014 A 
HETATM    5  C   UNL     1      79.684  10.943  20.134  1.00  0.00     0.002 A 
HETATM    6  C   UNL     1      78.746  11.838  20.651  1.00  0.00     0.009 A 
ENDROOT
BRANCH   1   7
HETATM    7  C   UNL     1      77.649   9.179  17.504  1.00  0.00     0.059 A 
HETATM    8  N   UNL     1      77.778   9.489  16.206  1.00  0.00    -0.299 N 
HETATM    9  N   UNL     1      77.387   8.384  15.555  1.00  0.00    -0.307 N 
ATOM     10  HN  UNL     1      78.101  10.369  15.803  1.00  0.00     0.187 HD
HETATM   11  C   UNL     1      76.992   7.379  16.382  1.00  0.00     0.112 A 
HETATM   12  C   UNL     1      77.483   8.340  14.118  1.00  0.00     0.177 C 
HETATM   13  C   UNL     1      77.146   7.861  17.657  1.00  0.00     0.050 A 
ENDBRANCH   1   7
BRANCH   3  14
HETATM   14  C   UNL     1      76.417  12.822  20.713  1.00  0.00     0.268 C 
BRANCH  14  15
HETATM   15  N   UNL     1      76.375  14.086  19.989  1.00  0.00    -0.075 N 
HETATM   16  H   UNL     1      77.048  14.734  20.397  1.00  0.00     0.274 HD
HETATM   17  H   UNL     1      75.438  14.483  20.053  1.00  0.00     0.274 HD
HETATM   18  H   UNL     1      76.609  13.923  19.009  1.00  0.00     0.274 HD
ENDBRANCH  14  15
ENDBRANCH   3  14
TORSDOF 3
ENDMDL
MODEL 9
REMARK VINA RESULT:      -5.5     18.617     20.812
REMARK  3 active torsions:
REMARK  status: ('A' for Active; 'I' for Inactive)
REMARK    1  A    between atoms: C_3  and  C_7 
REMARK    2  A    between atoms: C_9  and  C_14 
REMARK    3  A    between atoms: N_10  and  C_14 
ROOT
HETATM    1  C   UNL     1      63.310   9.017   4.689  1.00  0.00    -0.007 A 
HETATM    2  C   UNL     1      62.884   8.703   3.392  1.00  0.00     0.022 A 
HETATM    3  C   UNL     1      62.160   9.627   2.626  1.00  0.00    -0.032 A 
HETATM    4  C   UNL     1      63.007  10.278   5.220  1.00  0.00     0.014 A 
HETATM    5  C   UNL     1      62.292  11.207   4.465  1.00  0.00     0.002 A 
HETATM    6  C   UNL     1      61.869  10.883   3.176  1.00  0.00     0.009 A 
ENDROOT
BRANCH   1   7
HETATM    7  C   UNL     1      64.024   8.029   5.497  1.00  0.00     0.059 A 
HETATM    8  N   UNL     1      65.235   8.280   6.017  1.00  0.00    -0.299 N 
HETATM    9  N   UNL     1      65.530   7.182   6.727  1.00  0.00    -0.307 N 
ATOM     10  HN  UNL     1      65.803   9.119   5.900  1.00  0.00     0.187 HD
HETATM   11  C   UNL     1      64.566   6.223   6.670  1.00  0.00     0.112 A 
HETATM   12  C   UNL     1      66.745   7.146   7.501  1.00  0.00     0.177 C 
HETATM   13  C   UNL     1      63.573   6.739   5.876  1.00  0.00     0.050 A 
ENDBRANCH   1   7
BRANCH   3  14
HETATM   14  C   UNL     1      61.677   9.258   1.247  1.00  0.00     0.268 C 
BRANCH  14  15
HETATM   15  N   UNL     1      60.302   8.774   1.269  1.00  0.00    -0.075 N 
HETATM   16  H   UNL     1      59.670   9.535   1.020  1.00  0.00     0.274 HD
HETATM   17  H   UNL     1      60.076   8.436   2.204  1.00  0.00     0.274 HD
HETATM   18  H   UNL     1      60.200   8.013   0.598  1.00  0.00     0.274 HD
ENDBRANCH  14  15
ENDBRANCH   3  14
TORSDOF 3
ENDMDL
