MODEL 1
REMARK VINA RESULT:      -5.5      0.000      0.000
REMARK  0 active torsions:
REMARK  status: ('A' for Active; 'I' for Inactive)
ROOT
HETATM    1  C   UNL     1      79.210  11.015  20.134  1.00  0.00     0.135 A 
HETATM    2  N   UNL     1      79.389  10.052  19.136  1.00  0.00    -0.372 N 
HETATM    3  N   UNL     1      80.221  11.164  21.011  1.00  0.00    -0.350 N 
ATOM      4  HN  UNL     1      81.059  10.586  20.961  1.00  0.00     0.166 HD
HETATM    5  C   UNL     1      78.042  11.794  20.185  1.00  0.00     0.112 A 
HETATM    6  O   UNL     1      76.968  11.627  19.343  1.00  0.00    -0.346 OA
HETATM    7  C   UNL     1      78.122   9.562  18.630  1.00  0.00     0.148 C 
HETATM    8  C   UNL     1      80.076  12.116  21.961  1.00  0.00     0.090 A 
HETATM    9  C   UNL     1      77.262  10.765  18.229  1.00  0.00     0.195 C 
HETATM   10  C   UNL     1      77.915  12.752  21.184  1.00  0.00     0.042 A 
HETATM   11  C   UNL     1      78.956  12.924  22.090  1.00  0.00     0.020 A 
HETATM   12  H   UNL     1      80.268   9.743  18.816  1.00  0.00     0.161 HD
ENDROOT
TORSDOF 0
ENDMDL
MODEL 2
REMARK VINA RESULT:      -5.3      1.897      2.280
REMARK  0 active torsions:
REMARK  status: ('A' for Active; 'I' for Inactive)
ROOT
HETATM    1  C   UNL     1      77.503  10.945  19.616  1.00  0.00     0.135 A 
HETATM    2  N   UNL     1      77.991   9.648  19.435  1.00  0.00    -0.372 N 
HETATM    3  N   UNL     1      77.526  11.425  20.874  1.00  0.00    -0.350 N 
ATOM      4  HN  UNL     1      77.859  10.859  21.654  1.00  0.00     0.166 HD
HETATM    5  C   UNL     1      77.042  11.703  18.526  1.00  0.00     0.112 A 
HETATM    6  O   UNL     1      76.949  11.224  17.240  1.00  0.00    -0.346 OA
HETATM    7  C   UNL     1      77.427   9.022  18.255  1.00  0.00     0.148 C 
HETATM    8  C   UNL     1      77.088  12.691  21.059  1.00  0.00     0.090 A 
HETATM    9  C   UNL     1      77.625   9.966  17.064  1.00  0.00     0.195 C 
HETATM   10  C   UNL     1      76.582  12.995  18.750  1.00  0.00     0.042 A 
HETATM   11  C   UNL     1      76.610  13.506  20.043  1.00  0.00     0.020 A 
HETATM   12  H   UNL     1      78.638   9.212  20.036  1.00  0.00     0.161 HD
ENDROOT
TORSDOF 0
ENDMDL
MODEL 3
REMARK VINA RESULT:      -4.6      7.762      9.405
REMARK  0 active torsions:
REMARK  status: ('A' for Active; 'I' for Inactive)
ROOT
HETATM    1  C   UNL     1      76.088   2.856  17.905  1.00  0.00     0.135 A 
HETATM    2  N   UNL     1      76.166   1.528  18.334  1.00  0.00    -0.372 N 
HETATM    3  N   UNL     1      76.964   3.717  18.457  1.00  0.00    -0.350 N 
ATOM      4  HN  UNL     1      77.630   3.416  19.168  1.00  0.00     0.166 HD
HETATM    5  C   UNL     1      75.156   3.246  16.928  1.00  0.00     0.112 A 
HETATM    6  O   UNL     1      74.210   2.408  16.388  1.00  0.00    -0.346 OA
HETATM    7  C   UNL     1      74.906   0.833  18.160  1.00  0.00     0.148 C 
HETATM    8  C   UNL     1      76.922   4.998  18.027  1.00  0.00     0.090 A 
HETATM    9  C   UNL     1      74.441   1.025  16.713  1.00  0.00     0.195 C 
HETATM   10  C   UNL     1      75.126   4.575  16.520  1.00  0.00     0.042 A 
HETATM   11  C   UNL     1      76.032   5.472  17.074  1.00  0.00     0.020 A 
HETATM   12  H   UNL     1      76.978   1.114  18.708  1.00  0.00     0.161 HD
ENDROOT
TORSDOF 0
ENDMDL
MODEL 4
REMARK VINA RESULT:      -4.5      7.654      9.740
REMARK  0 active torsions:
REMARK  status: ('A' for Active; 'I' for Inactive)
ROOT
HETATM    1  C   UNL     1      76.265   2.891  18.032  1.00  0.00     0.135 A 
HETATM    2  N   UNL     1      76.989   3.963  18.564  1.00  0.00    -0.372 N 
HETATM    3  N   UNL     1      76.541   1.673  18.534  1.00  0.00    -0.350 N 
ATOM      4  HN  UNL     1      77.259   1.541  19.247  1.00  0.00     0.166 HD
HETATM    5  C   UNL     1      75.286   3.100  17.046  1.00  0.00     0.112 A 
HETATM    6  O   UNL     1      75.021   4.320  16.470  1.00  0.00    -0.346 OA
HETATM    7  C   UNL     1      77.066   5.072  17.634  1.00  0.00     0.148 C 
HETATM    8  C   UNL     1      75.824   0.632  18.053  1.00  0.00     0.090 A 
HETATM    9  C   UNL     1      75.647   5.412  17.166  1.00  0.00     0.195 C 
HETATM   10  C   UNL     1      74.578   2.007  16.559  1.00  0.00     0.042 A 
HETATM   11  C   UNL     1      74.846   0.745  17.077  1.00  0.00     0.020 A 
HETATM   12  H   UNL     1      77.398   3.964  19.460  1.00  0.00     0.161 HD
ENDROOT
TORSDOF 0
ENDMDL
MODEL 5
REMARK VINA RESULT:      -4.4      8.285      9.623
REMARK  0 active torsions:
REMARK  status: ('A' for Active; 'I' for Inactive)
ROOT
HETATM    1  C   UNL     1      77.029   3.023  18.555  1.00  0.00     0.135 A 
HETATM    2  N   UNL     1      76.543   4.331  18.471  1.00  0.00    -0.372 N 
HETATM    3  N   UNL     1      77.988   2.797  19.472  1.00  0.00    -0.350 N 
ATOM      4  HN  UNL     1      78.356   3.549  20.054  1.00  0.00     0.166 HD
HETATM    5  C   UNL     1      76.510   2.005  17.736  1.00  0.00     0.112 A 
HETATM    6  O   UNL     1      75.574   2.213  16.750  1.00  0.00    -0.346 OA
HETATM    7  C   UNL     1      75.987   4.614  17.163  1.00  0.00     0.148 C 
HETATM    8  C   UNL     1      78.444   1.529  19.587  1.00  0.00     0.090 A 
HETATM    9  C   UNL     1      74.972   3.518  16.819  1.00  0.00     0.195 C 
HETATM   10  C   UNL     1      77.011   0.716  17.866  1.00  0.00     0.042 A 
HETATM   11  C   UNL     1      77.995   0.467  18.817  1.00  0.00     0.020 A 
HETATM   12  H   UNL     1      76.575   4.981  19.210  1.00  0.00     0.161 HD
ENDROOT
TORSDOF 0
ENDMDL
MODEL 6
REMARK VINA RESULT:      -4.4     15.333     15.973
REMARK  0 active torsions:
REMARK  status: ('A' for Active; 'I' for Inactive)
ROOT
HETATM    1  C   UNL     1      72.270  23.565  13.236  1.00  0.00     0.135 A 
HETATM    2  N   UNL     1      73.023  24.447  14.016  1.00  0.00    -0.372 N 
HETATM    3  N   UNL     1      72.940  22.875  12.293  1.00  0.00    -0.350 N 
ATOM      4  HN  UNL     1      73.940  23.012  12.144  1.00  0.00     0.166 HD
HETATM    5  C   UNL     1      70.892  23.400  13.457  1.00  0.00     0.112 A 
HETATM    6  O   UNL     1      70.166  24.130  14.369  1.00  0.00    -0.346 OA
HETATM    7  C   UNL     1      72.206  25.512  14.563  1.00  0.00     0.148 C 
HETATM    8  C   UNL     1      72.231  21.994  11.553  1.00  0.00     0.090 A 
HETATM    9  C   UNL     1      70.999  24.884  15.269  1.00  0.00     0.195 C 
HETATM   10  C   UNL     1      70.187  22.499  12.668  1.00  0.00     0.042 A 
HETATM   11  C   UNL     1      70.869  21.773  11.699  1.00  0.00     0.020 A 
HETATM   12  H   UNL     1      73.991  24.357  14.176  1.00  0.00     0.161 HD
ENDROOT
TORSDOF 0
ENDMDL
MODEL 7
REMARK VINA RESULT:      -4.4     14.688     15.084
REMARK  0 active torsions:
REMARK  status: ('A' for Active; 'I' for Inactive)
ROOT
HETATM    1  C   UNL     1      72.582  22.804  12.658  1.00  0.00     0.135 A 
HETATM    2  N   UNL     1      72.692  22.313  11.353  1.00  0.00    -0.372 N 
HETATM    3  N   UNL     1      73.728  23.183  13.255  1.00  0.00    -0.350 N 
ATOM      4  HN  UNL     1      74.628  23.092  12.785  1.00  0.00     0.166 HD
HETATM    5  C   UNL     1      71.329  22.914  13.285  1.00  0.00     0.112 A 
HETATM    6  O   UNL     1      70.149  22.482  12.728  1.00  0.00    -0.346 OA
HETATM    7  C   UNL     1      71.590  21.434  11.016  1.00  0.00     0.148 C 
HETATM    8  C   UNL     1      73.632  23.692  14.504  1.00  0.00     0.090 A 
HETATM    9  C   UNL     1      70.277  22.159  11.331  1.00  0.00     0.195 C 
HETATM   10  C   UNL     1      71.265  23.424  14.576  1.00  0.00     0.042 A 
HETATM   11  C   UNL     1      72.440  23.830  15.200  1.00  0.00     0.020 A 
HETATM   12  H   UNL     1      73.429  22.537  10.739  1.00  0.00     0.161 HD
ENDROOT
TORSDOF 0
ENDMDL
MODEL 8
REMARK VINA RESULT:      -4.3     20.725     21.947
REMARK  0 active torsions:
REMARK  status: ('A' for Active; 'I' for Inactive)
ROOT
HETATM    1  C   UNL     1      63.929   9.166   5.133  1.00  0.00     0.135 A 
HETATM    2  N   UNL     1      64.936   8.497   5.835  1.00  0.00    -0.372 N 
HETATM    3  N   UNL     1      63.502  10.330   5.658  1.00  0.00    -0.350 N 
ATOM      4  HN  UNL     1      63.879  10.687   6.536  1.00  0.00     0.166 HD
HETATM    5  C   UNL     1      63.422   8.648   3.929  1.00  0.00     0.112 A 
HETATM    6  O   UNL     1      63.792   7.436   3.396  1.00  0.00    -0.346 OA
HETATM    7  C   UNL     1      64.928   7.074   5.560  1.00  0.00     0.148 C 
HETATM    8  C   UNL     1      62.553  11.004   4.971  1.00  0.00     0.090 A 
HETATM    9  C   UNL     1      64.949   6.873   4.041  1.00  0.00     0.195 C 
HETATM   10  C   UNL     1      62.434   9.356   3.255  1.00  0.00     0.042 A 
HETATM   11  C   UNL     1      61.992  10.564   3.782  1.00  0.00     0.020 A 
HETATM   12  H   UNL     1      65.573   8.938   6.443  1.00  0.00     0.161 HD
ENDROOT
TORSDOF 0
ENDMDL
MODEL 9
REMARK VINA RESULT:      -4.1     16.508     17.182
REMARK  0 active torsions:
REMARK  status: ('A' for Active; 'I' for Inactive)
ROOT
HETATM    1  C   UNL     1      67.840   3.233   9.175  1.00  0.00     0.135 A 
HETATM    2  N   UNL     1      67.433   1.996   9.684  1.00  0.00    -0.372 N 
HETATM    3  N   UNL     1      66.885   3.991   8.604  1.00  0.00    -0.350 N 
ATOM      4  HN  UNL     1      65.922   3.665   8.527  1.00  0.00     0.166 HD
HETATM    5  C   UNL     1      69.176   3.656   9.288  1.00  0.00     0.112 A 
HETATM    6  O   UNL     1      70.186   2.884   9.810  1.00  0.00    -0.346 OA
HETATM    7  C   UNL     1      68.530   1.051   9.742  1.00  0.00     0.148 C 
HETATM    8  C   UNL     1      67.259   5.204   8.137  1.00  0.00     0.090 A 
HETATM    9  C   UNL     1      69.699   1.709  10.483  1.00  0.00     0.195 C 
HETATM   10  C   UNL     1      69.532   4.901   8.782  1.00  0.00     0.042 A 
HETATM   11  C   UNL     1      68.553   5.698   8.200  1.00  0.00     0.020 A 
HETATM   12  H   UNL     1      66.512   1.792   9.969  1.00  0.00     0.161 HD
ENDROOT
TORSDOF 0
ENDMDL
