MODEL 1
REMARK VINA RESULT:      -3.8      0.000      0.000
REMARK  2 active torsions:
REMARK  status: ('A' for Active; 'I' for Inactive)
REMARK    1  A    between atoms: N_1  and  C_4 
REMARK    2  A    between atoms: C_4  and  C_6 
ROOT
HETATM    1  S   UNL     1      66.623   5.097   8.118  1.00  0.00    -0.169 SA
HETATM    2  C   UNL     1      69.657   4.043   8.414  1.00  0.00     0.075 C 
HETATM    3  C   UNL     1      67.924   5.778   9.182  1.00  0.00     0.075 C 
HETATM    4  C   UNL     1      67.210   3.385   7.996  1.00  0.00     0.075 C 
HETATM    5  C   UNL     1      69.314   5.529   8.601  1.00  0.00     0.028 C 
HETATM    6  C   UNL     1      68.654   3.324   7.501  1.00  0.00     0.028 C 
ENDROOT
BRANCH   2   7
HETATM    7  C   UNL     1      69.687   3.361   9.772  1.00  0.00    -0.073 C 
BRANCH   7   8
HETATM    8  N   UNL     1      69.712   2.795  10.898  1.00  0.00    -0.369 N 
ATOM      9  HN2 UNL     1      69.692   3.253   9.986  1.00  0.00     0.165 HD
ATOM     10  HN1 UNL     1      69.733   2.337  11.809  1.00  0.00     0.165 HD
ENDBRANCH   7   8
ENDBRANCH   2   7
TORSDOF 2
ENDMDL
MODEL 2
REMARK VINA RESULT:      -3.5     10.634     11.393
REMARK  2 active torsions:
REMARK  status: ('A' for Active; 'I' for Inactive)
REMARK    1  A    between atoms: N_1  and  C_4 
REMARK    2  A    between atoms: C_4  and  C_6 
ROOT
HETATM    1  S   UNL     1      59.853   7.240   2.443  1.00  0.00    -0.169 SA
HETATM    2  C   UNL     1      62.397   9.063   1.659  1.00  0.00     0.075 C 
HETATM    3  C   UNL     1      60.060   8.258   0.956  1.00  0.00     0.075 C 
HETATM    4  C   UNL     1      60.949   8.145   3.572  1.00  0.00     0.075 C 
HETATM    5  C   UNL     1      61.532   8.404   0.574  1.00  0.00     0.028 C 
HETATM    6  C   UNL     1      62.353   8.294   2.987  1.00  0.00     0.028 C 
ENDROOT
BRANCH   2   7
HETATM    7  C   UNL     1      61.921  10.489   1.883  1.00  0.00    -0.073 C 
BRANCH   7   8
HETATM    8  N   UNL     1      61.526  11.671   2.069  1.00  0.00    -0.369 N 
ATOM      9  HN2 UNL     1      61.846  10.714   1.919  1.00  0.00     0.165 HD
ATOM     10  HN1 UNL     1      61.207  12.628   2.219  1.00  0.00     0.165 HD
ENDBRANCH   7   8
ENDBRANCH   2   7
TORSDOF 2
ENDMDL
MODEL 3
REMARK VINA RESULT:      -3.4      1.743      2.598
REMARK  2 active torsions:
REMARK  status: ('A' for Active; 'I' for Inactive)
REMARK    1  A    between atoms: N_1  and  C_4 
REMARK    2  A    between atoms: C_4  and  C_6 
ROOT
HETATM    1  S   UNL     1      67.614   4.667   6.536  1.00  0.00    -0.169 SA
HETATM    2  C   UNL     1      69.060   4.347   9.403  1.00  0.00     0.075 C 
HETATM    3  C   UNL     1      68.777   3.370   7.042  1.00  0.00     0.075 C 
HETATM    4  C   UNL     1      68.150   5.993   7.653  1.00  0.00     0.075 C 
HETATM    5  C   UNL     1      68.717   3.117   8.548  1.00  0.00     0.028 C 
HETATM    6  C   UNL     1      68.133   5.536   9.111  1.00  0.00     0.028 C 
ENDROOT
BRANCH   2   7
HETATM    7  C   UNL     1      70.501   4.752   9.144  1.00  0.00    -0.073 C 
BRANCH   7   8
HETATM    8  N   UNL     1      71.697   5.088   8.929  1.00  0.00    -0.369 N 
ATOM      9  HN2 UNL     1      70.729   4.816   9.103  1.00  0.00     0.165 HD
ATOM     10  HN1 UNL     1      72.664   5.361   8.755  1.00  0.00     0.165 HD
ENDBRANCH   7   8
ENDBRANCH   2   7
TORSDOF 2
ENDMDL
MODEL 4
REMARK VINA RESULT:      -3.3     10.384     11.208
REMARK  2 active torsions:
REMARK  status: ('A' for Active; 'I' for Inactive)
REMARK    1  A    between atoms: N_1  and  C_4 
REMARK    2  A    between atoms: C_4  and  C_6 
ROOT
HETATM    1  S   UNL     1      62.681   9.255   4.181  1.00  0.00    -0.169 SA
HETATM    2  C   UNL     1      61.905   8.903   1.069  1.00  0.00     0.075 C 
HETATM    3  C   UNL     1      62.312   7.708   3.308  1.00  0.00     0.075 C 
HETATM    4  C   UNL     1      61.738  10.408   3.144  1.00  0.00     0.075 C 
HETATM    5  C   UNL     1      62.664   7.802   1.824  1.00  0.00     0.028 C 
HETATM    6  C   UNL     1      62.140  10.294   1.675  1.00  0.00     0.028 C 
ENDROOT
BRANCH   2   7
HETATM    7  C   UNL     1      60.418   8.588   1.086  1.00  0.00    -0.073 C 
BRANCH   7   8
HETATM    8  N   UNL     1      59.185   8.328   1.100  1.00  0.00    -0.369 N 
ATOM      9  HN2 UNL     1      60.183   8.539   1.089  1.00  0.00     0.165 HD
ATOM     10  HN1 UNL     1      58.187   8.117   1.111  1.00  0.00     0.165 HD
ENDBRANCH   7   8
ENDBRANCH   2   7
TORSDOF 2
ENDMDL
MODEL 5
REMARK VINA RESULT:      -3.3      3.106      3.889
REMARK  2 active torsions:
REMARK  status: ('A' for Active; 'I' for Inactive)
REMARK    1  A    between atoms: N_1  and  C_4 
REMARK    2  A    between atoms: C_4  and  C_6 
ROOT
HETATM    1  S   UNL     1      68.438   3.907   7.347  1.00  0.00    -0.169 SA
HETATM    2  C   UNL     1      66.571   6.190   8.654  1.00  0.00     0.075 C 
HETATM    3  C   UNL     1      68.978   5.378   8.260  1.00  0.00     0.075 C 
HETATM    4  C   UNL     1      66.846   4.515   6.726  1.00  0.00     0.075 C 
HETATM    5  C   UNL     1      67.928   5.826   9.276  1.00  0.00     0.028 C 
HETATM    6  C   UNL     1      65.961   5.025   7.863  1.00  0.00     0.028 C 
ENDROOT
BRANCH   2   7
HETATM    7  C   UNL     1      66.746   7.390   7.736  1.00  0.00    -0.073 C 
BRANCH   7   8
HETATM    8  N   UNL     1      66.891   8.384   6.975  1.00  0.00    -0.369 N 
ATOM      9  HN2 UNL     1      66.773   7.579   7.591  1.00  0.00     0.165 HD
ATOM     10  HN1 UNL     1      67.008   9.188   6.360  1.00  0.00     0.165 HD
ENDBRANCH   7   8
ENDBRANCH   2   7
TORSDOF 2
ENDMDL
MODEL 6
REMARK VINA RESULT:      -3.2      2.115      2.900
REMARK  2 active torsions:
REMARK  status: ('A' for Active; 'I' for Inactive)
REMARK    1  A    between atoms: N_1  and  C_4 
REMARK    2  A    between atoms: C_4  and  C_6 
ROOT
HETATM    1  S   UNL     1      67.542   1.599   8.654  1.00  0.00    -0.169 SA
HETATM    2  C   UNL     1      69.572   4.088   8.343  1.00  0.00     0.075 C 
HETATM    3  C   UNL     1      67.535   2.869   7.358  1.00  0.00     0.075 C 
HETATM    4  C   UNL     1      68.339   2.543   9.983  1.00  0.00     0.075 C 
HETATM    5  C   UNL     1      68.935   3.428   7.110  1.00  0.00     0.028 C 
HETATM    6  C   UNL     1      69.679   3.122   9.531  1.00  0.00     0.028 C 
ENDROOT
BRANCH   2   7
HETATM    7  C   UNL     1      68.746   5.299   8.747  1.00  0.00    -0.073 C 
BRANCH   7   8
HETATM    8  N   UNL     1      68.062   6.303   9.082  1.00  0.00    -0.369 N 
ATOM      9  HN2 UNL     1      68.616   5.490   8.811  1.00  0.00     0.165 HD
ATOM     10  HN1 UNL     1      67.509   7.115   9.353  1.00  0.00     0.165 HD
ENDBRANCH   7   8
ENDBRANCH   2   7
TORSDOF 2
ENDMDL
MODEL 7
REMARK VINA RESULT:      -3.2     16.375     17.143
REMARK  2 active torsions:
REMARK  status: ('A' for Active; 'I' for Inactive)
REMARK    1  A    between atoms: N_1  and  C_4 
REMARK    2  A    between atoms: C_4  and  C_6 
ROOT
HETATM    1  S   UNL     1      76.740  12.550  18.292  1.00  0.00    -0.169 SA
HETATM    2  C   UNL     1      77.390  12.437  21.450  1.00  0.00     0.075 C 
HETATM    3  C   UNL     1      77.675  11.272  19.177  1.00  0.00     0.075 C 
HETATM    4  C   UNL     1      77.032  13.951  19.407  1.00  0.00     0.075 C 
HETATM    5  C   UNL     1      77.222  11.148  20.630  1.00  0.00     0.028 C 
HETATM    6  C   UNL     1      76.623  13.619  20.841  1.00  0.00     0.028 C 
ENDROOT
BRANCH   2   7
HETATM    7  C   UNL     1      78.867  12.784  21.543  1.00  0.00    -0.073 C 
BRANCH   7   8
HETATM    8  N   UNL     1      80.091  13.071  21.619  1.00  0.00    -0.369 N 
ATOM      9  HN2 UNL     1      79.100  12.838  21.557  1.00  0.00     0.165 HD
ATOM     10  HN1 UNL     1      81.082  13.304  21.681  1.00  0.00     0.165 HD
ENDBRANCH   7   8
ENDBRANCH   2   7
TORSDOF 2
ENDMDL
MODEL 8
REMARK VINA RESULT:      -3.2      3.698      4.288
REMARK  2 active torsions:
REMARK  status: ('A' for Active; 'I' for Inactive)
REMARK    1  A    between atoms: N_1  and  C_4 
REMARK    2  A    between atoms: C_4  and  C_6 
ROOT
HETATM    1  S   UNL     1      66.411   6.105   8.978  1.00  0.00    -0.169 SA
HETATM    2  C   UNL     1      67.320   5.634   5.919  1.00  0.00     0.075 C 
HETATM    3  C   UNL     1      65.676   6.833   7.489  1.00  0.00     0.075 C 
HETATM    4  C   UNL     1      68.092   5.812   8.362  1.00  0.00     0.075 C 
HETATM    5  C   UNL     1      65.853   5.926   6.272  1.00  0.00     0.028 C 
HETATM    6  C   UNL     1      68.080   4.980   7.081  1.00  0.00     0.028 C 
ENDROOT
BRANCH   2   7
HETATM    7  C   UNL     1      68.009   6.931   5.527  1.00  0.00    -0.073 C 
BRANCH   7   8
HETATM    8  N   UNL     1      68.581   8.006   5.203  1.00  0.00    -0.369 N 
ATOM      9  HN2 UNL     1      68.118   7.135   5.466  1.00  0.00     0.165 HD
ATOM     10  HN1 UNL     1      69.043   8.876   4.940  1.00  0.00     0.165 HD
ENDBRANCH   7   8
ENDBRANCH   2   7
TORSDOF 2
ENDMDL
MODEL 9
REMARK VINA RESULT:      -3.1      2.252      2.889
REMARK  2 active torsions:
REMARK  status: ('A' for Active; 'I' for Inactive)
REMARK    1  A    between atoms: N_1  and  C_4 
REMARK    2  A    between atoms: C_4  and  C_6 
ROOT
HETATM    1  S   UNL     1      68.828   1.471   7.742  1.00  0.00    -0.169 SA
HETATM    2  C   UNL     1      68.981   4.384   9.120  1.00  0.00     0.075 C 
HETATM    3  C   UNL     1      69.550   1.889   9.353  1.00  0.00     0.075 C 
HETATM    4  C   UNL     1      69.019   3.073   6.911  1.00  0.00     0.075 C 
HETATM    5  C   UNL     1      68.874   3.111   9.972  1.00  0.00     0.028 C 
HETATM    6  C   UNL     1      68.379   4.200   7.719  1.00  0.00     0.028 C 
ENDROOT
BRANCH   2   7
HETATM    7  C   UNL     1      70.442   4.783   8.994  1.00  0.00    -0.073 C 
BRANCH   7   8
HETATM    8  N   UNL     1      71.654   5.114   8.891  1.00  0.00    -0.369 N 
ATOM      9  HN2 UNL     1      70.673   4.846   8.975  1.00  0.00     0.165 HD
ATOM     10  HN1 UNL     1      72.634   5.381   8.807  1.00  0.00     0.165 HD
ENDBRANCH   7   8
ENDBRANCH   2   7
TORSDOF 2
ENDMDL
