MODEL 1
REMARK VINA RESULT:      -3.4      0.000      0.000
REMARK  1 active torsions:
REMARK  status: ('A' for Active; 'I' for Inactive)
REMARK    1  A    between atoms: C_2  and  O_5 
ROOT
HETATM    1  S   UNL     1      62.612   8.121   2.244  1.00  0.00    -0.169 SA
HETATM    2  C   UNL     1      61.787  10.840   3.718  1.00  0.00     0.119 C 
HETATM    3  C   UNL     1      61.951  10.809   2.200  1.00  0.00     0.042 C 
HETATM    4  C   UNL     1      62.652   9.804   4.433  1.00  0.00     0.042 C 
HETATM    5  C   UNL     1      61.578   9.465   1.594  1.00  0.00     0.076 C 
HETATM    6  C   UNL     1      62.320   8.381   4.018  1.00  0.00     0.076 C 
ENDROOT
BRANCH   2   7
HETATM    7  O   UNL     1      62.124  12.141   4.197  1.00  0.00    -0.396 OA
HETATM    8  H   UNL     1      61.596  12.805   3.728  1.00  0.00     0.210 HD
ENDBRANCH   2   7
TORSDOF 1
ENDMDL
MODEL 2
REMARK VINA RESULT:      -3.2     11.009     11.725
REMARK  1 active torsions:
REMARK  status: ('A' for Active; 'I' for Inactive)
REMARK    1  A    between atoms: C_2  and  O_5 
ROOT
HETATM    1  S   UNL     1      67.526   4.041   8.089  1.00  0.00    -0.169 SA
HETATM    2  C   UNL     1      69.454   2.420  10.065  1.00  0.00     0.119 C 
HETATM    3  C   UNL     1      68.006   1.976   9.870  1.00  0.00     0.042 C 
HETATM    4  C   UNL     1      69.653   3.919   9.846  1.00  0.00     0.042 C 
HETATM    5  C   UNL     1      67.483   2.266   8.471  1.00  0.00     0.076 C 
HETATM    6  C   UNL     1      69.280   4.357   8.439  1.00  0.00     0.076 C 
ENDROOT
BRANCH   2   7
HETATM    7  O   UNL     1      69.872   2.082  11.386  1.00  0.00    -0.396 OA
HETATM    8  H   UNL     1      70.241   1.185  11.388  1.00  0.00     0.210 HD
ENDBRANCH   2   7
TORSDOF 1
ENDMDL
MODEL 3
REMARK VINA RESULT:      -3.1     10.810     11.845
REMARK  1 active torsions:
REMARK  status: ('A' for Active; 'I' for Inactive)
REMARK    1  A    between atoms: C_2  and  O_5 
ROOT
HETATM    1  S   UNL     1      68.766   3.422   7.193  1.00  0.00    -0.169 SA
HETATM    2  C   UNL     1      69.083   2.410  10.213  1.00  0.00     0.119 C 
HETATM    3  C   UNL     1      69.345   3.873   9.862  1.00  0.00     0.042 C 
HETATM    4  C   UNL     1      69.347   1.460   9.046  1.00  0.00     0.042 C 
HETATM    5  C   UNL     1      68.478   4.369   8.715  1.00  0.00     0.076 C 
HETATM    6  C   UNL     1      68.466   1.753   7.844  1.00  0.00     0.076 C 
ENDROOT
BRANCH   2   7
HETATM    7  O   UNL     1      69.910   2.039  11.314  1.00  0.00    -0.396 OA
HETATM    8  H   UNL     1      70.611   2.699  11.429  1.00  0.00     0.210 HD
ENDBRANCH   2   7
TORSDOF 1
ENDMDL
MODEL 4
REMARK VINA RESULT:      -3.0      1.518      2.597
REMARK  1 active torsions:
REMARK  status: ('A' for Active; 'I' for Inactive)
REMARK    1  A    between atoms: C_2  and  O_5 
ROOT
HETATM    1  S   UNL     1      61.446   8.748   3.285  1.00  0.00    -0.169 SA
HETATM    2  C   UNL     1      63.305  10.605   5.113  1.00  0.00     0.119 C 
HETATM    3  C   UNL     1      63.054   9.150   5.502  1.00  0.00     0.042 C 
HETATM    4  C   UNL     1      62.160  11.213   4.305  1.00  0.00     0.042 C 
HETATM    5  C   UNL     1      62.865   8.240   4.298  1.00  0.00     0.076 C 
HETATM    6  C   UNL     1      61.916  10.479   2.997  1.00  0.00     0.076 C 
ENDROOT
BRANCH   2   7
HETATM    7  O   UNL     1      63.504  11.377   6.295  1.00  0.00    -0.396 OA
HETATM    8  H   UNL     1      63.581  10.784   7.059  1.00  0.00     0.210 HD
ENDBRANCH   2   7
TORSDOF 1
ENDMDL
MODEL 5
REMARK VINA RESULT:      -3.0     20.490     21.315
REMARK  1 active torsions:
REMARK  status: ('A' for Active; 'I' for Inactive)
REMARK    1  A    between atoms: C_2  and  O_5 
ROOT
HETATM    1  S   UNL     1      76.454  -0.326  15.134  1.00  0.00    -0.169 SA
HETATM    2  C   UNL     1      75.136   0.996  17.734  1.00  0.00     0.119 C 
HETATM    3  C   UNL     1      74.316   0.832  16.457  1.00  0.00     0.042 C 
HETATM    4  C   UNL     1      76.634   1.140  17.467  1.00  0.00     0.042 C 
HETATM    5  C   UNL     1      74.715  -0.396  15.652  1.00  0.00     0.076 C 
HETATM    6  C   UNL     1      77.219  -0.072  16.762  1.00  0.00     0.076 C 
ENDROOT
BRANCH   2   7
HETATM    7  O   UNL     1      74.675   2.146  18.440  1.00  0.00    -0.396 OA
HETATM    8  H   UNL     1      73.869   2.482  18.019  1.00  0.00     0.210 HD
ENDBRANCH   2   7
TORSDOF 1
ENDMDL
MODEL 6
REMARK VINA RESULT:      -3.0     20.244     21.214
REMARK  1 active torsions:
REMARK  status: ('A' for Active; 'I' for Inactive)
REMARK    1  A    between atoms: C_2  and  O_5 
ROOT
HETATM    1  S   UNL     1      76.118  -0.784  15.299  1.00  0.00    -0.169 SA
HETATM    2  C   UNL     1      75.341   1.608  17.279  1.00  0.00     0.119 C 
HETATM    3  C   UNL     1      76.468   0.644  17.644  1.00  0.00     0.042 C 
HETATM    4  C   UNL     1      74.283   0.975  16.378  1.00  0.00     0.042 C 
HETATM    5  C   UNL     1      77.215   0.121  16.427  1.00  0.00     0.076 C 
HETATM    6  C   UNL     1      74.854   0.497  15.053  1.00  0.00     0.076 C 
ENDROOT
BRANCH   2   7
HETATM    7  O   UNL     1      74.719   2.073  18.475  1.00  0.00    -0.396 OA
HETATM    8  H   UNL     1      75.187   2.859  18.798  1.00  0.00     0.210 HD
ENDBRANCH   2   7
TORSDOF 1
ENDMDL
MODEL 7
REMARK VINA RESULT:      -3.0      1.246      2.283
REMARK  1 active torsions:
REMARK  status: ('A' for Active; 'I' for Inactive)
REMARK    1  A    between atoms: C_2  and  O_5 
ROOT
HETATM    1  S   UNL     1      62.247   7.616   3.478  1.00  0.00    -0.169 SA
HETATM    2  C   UNL     1      62.076  10.602   2.337  1.00  0.00     0.119 C 
HETATM    3  C   UNL     1      61.940  10.344   3.836  1.00  0.00     0.042 C 
HETATM    4  C   UNL     1      61.618   9.420   1.484  1.00  0.00     0.042 C 
HETATM    5  C   UNL     1      62.757   9.149   4.306  1.00  0.00     0.076 C 
HETATM    6  C   UNL     1      62.423   8.160   1.754  1.00  0.00     0.076 C 
ENDROOT
BRANCH   2   7
HETATM    7  O   UNL     1      61.309  11.753   1.991  1.00  0.00    -0.396 OA
HETATM    8  H   UNL     1      60.365  11.558   2.100  1.00  0.00     0.210 HD
ENDBRANCH   2   7
TORSDOF 1
ENDMDL
MODEL 8
REMARK VINA RESULT:      -2.9      8.717      9.709
REMARK  1 active torsions:
REMARK  status: ('A' for Active; 'I' for Inactive)
REMARK    1  A    between atoms: C_2  and  O_5 
ROOT
HETATM    1  S   UNL     1      67.728   6.036   6.559  1.00  0.00    -0.169 SA
HETATM    2  C   UNL     1      68.383   4.344   9.196  1.00  0.00     0.119 C 
HETATM    3  C   UNL     1      68.082   5.838   9.298  1.00  0.00     0.042 C 
HETATM    4  C   UNL     1      68.991   3.948   7.852  1.00  0.00     0.042 C 
HETATM    5  C   UNL     1      67.099   6.315   8.239  1.00  0.00     0.076 C 
HETATM    6  C   UNL     1      68.070   4.257   6.683  1.00  0.00     0.076 C 
ENDROOT
BRANCH   2   7
HETATM    7  O   UNL     1      69.283   3.978  10.241  1.00  0.00    -0.396 OA
HETATM    8  H   UNL     1      70.095   4.504  10.168  1.00  0.00     0.210 HD
ENDBRANCH   2   7
TORSDOF 1
ENDMDL
MODEL 9
REMARK VINA RESULT:      -2.8      9.172      9.929
REMARK  1 active torsions:
REMARK  status: ('A' for Active; 'I' for Inactive)
REMARK    1  A    between atoms: C_2  and  O_5 
ROOT
HETATM    1  S   UNL     1      68.408   2.560   8.964  1.00  0.00    -0.169 SA
HETATM    2  C   UNL     1      68.572   5.512   7.737  1.00  0.00     0.119 C 
HETATM    3  C   UNL     1      68.427   5.314   9.244  1.00  0.00     0.042 C 
HETATM    4  C   UNL     1      67.968   4.368   6.924  1.00  0.00     0.042 C 
HETATM    5  C   UNL     1      69.104   4.046   9.741  1.00  0.00     0.076 C 
HETATM    6  C   UNL     1      68.624   3.031   7.223  1.00  0.00     0.076 C 
ENDROOT
BRANCH   2   7
HETATM    7  O   UNL     1      67.940   6.735   7.364  1.00  0.00    -0.396 OA
HETATM    8  H   UNL     1      68.601   7.339   6.990  1.00  0.00     0.210 HD
ENDBRANCH   2   7
TORSDOF 1
ENDMDL
