MODEL 1
REMARK VINA RESULT:      -4.9      0.000      0.000
REMARK  1 active torsions:
REMARK  status: ('A' for Active; 'I' for Inactive)
REMARK    1  A    between atoms: C_2  and  C_8 
ROOT
HETATM    1  C   UNL     1      67.411   6.306   7.191  1.00  0.00     0.147 A 
HETATM    2  C   UNL     1      66.012   7.732   5.778  1.00  0.00     0.100 A 
HETATM    3  S   UNL     1      65.713   6.458   6.877  1.00  0.00    -0.046 SA
HETATM    4  N   UNL     1      68.155   7.132   6.485  1.00  0.00    -0.345 N 
ATOM      5  HN  UNL     1      69.174   7.176   6.530  1.00  0.00     0.167 HD
HETATM    6  C   UNL     1      67.371   7.930   5.676  1.00  0.00     0.116 A 
HETATM    7  N   UNL     1      67.916   5.433   8.099  1.00  0.00    -0.361 N 
HETATM    8  C   UNL     1      69.347   5.341   8.337  1.00  0.00     0.125 C 
HETATM    9  C   UNL     1      67.202   4.266   8.587  1.00  0.00     0.125 C 
HETATM   10  C   UNL     1      68.254   3.492   9.380  1.00  0.00     0.021 C 
HETATM   11  C   UNL     1      69.562   3.877   8.707  1.00  0.00     0.021 C 
ENDROOT
BRANCH   2  12
HETATM   12  C   UNL     1      64.927   8.412   5.137  1.00  0.00     0.218 C 
HETATM   13  O   UNL     1      64.217   8.034   4.216  1.00  0.00    -0.643 OA
HETATM   14  O   UNL     1      64.704   9.626   5.697  1.00  0.00    -0.643 OA
ENDBRANCH   2  12
TORSDOF 1
ENDMDL
MODEL 2
REMARK VINA RESULT:      -4.7      3.821      5.715
REMARK  1 active torsions:
REMARK  status: ('A' for Active; 'I' for Inactive)
REMARK    1  A    between atoms: C_2  and  C_8 
ROOT
HETATM    1  C   UNL     1      67.340   6.108   7.258  1.00  0.00     0.147 A 
HETATM    2  C   UNL     1      68.394   4.695   8.954  1.00  0.00     0.100 A 
HETATM    3  S   UNL     1      67.870   4.460   7.345  1.00  0.00    -0.046 SA
HETATM    4  N   UNL     1      67.509   6.778   8.379  1.00  0.00    -0.345 N 
ATOM      5  HN  UNL     1      67.245   7.754   8.516  1.00  0.00     0.167 HD
HETATM    6  C   UNL     1      68.091   5.981   9.344  1.00  0.00     0.116 A 
HETATM    7  N   UNL     1      66.822   6.656   6.129  1.00  0.00    -0.361 N 
HETATM    8  C   UNL     1      66.396   8.045   6.097  1.00  0.00     0.125 C 
HETATM    9  C   UNL     1      66.262   5.883   5.035  1.00  0.00     0.125 C 
HETATM   10  C   UNL     1      65.609   6.932   4.136  1.00  0.00     0.021 C 
HETATM   11  C   UNL     1      65.240   8.048   5.101  1.00  0.00     0.021 C 
ENDROOT
BRANCH   2  12
HETATM   12  C   UNL     1      69.041   3.638   9.672  1.00  0.00     0.218 C 
HETATM   13  O   UNL     1      70.165   3.610  10.154  1.00  0.00    -0.643 OA
HETATM   14  O   UNL     1      68.226   2.566   9.816  1.00  0.00    -0.643 OA
ENDBRANCH   2  12
TORSDOF 1
ENDMDL
MODEL 3
REMARK VINA RESULT:      -4.7      1.189      1.610
REMARK  1 active torsions:
REMARK  status: ('A' for Active; 'I' for Inactive)
REMARK    1  A    between atoms: C_2  and  C_8 
ROOT
HETATM    1  C   UNL     1      67.417   5.640   6.846  1.00  0.00     0.147 A 
HETATM    2  C   UNL     1      65.910   7.185   5.693  1.00  0.00     0.100 A 
HETATM    3  S   UNL     1      66.705   7.179   7.206  1.00  0.00    -0.046 SA
HETATM    4  N   UNL     1      67.048   5.146   5.683  1.00  0.00    -0.345 N 
ATOM      5  HN  UNL     1      67.357   4.247   5.311  1.00  0.00     0.167 HD
HETATM    6  C   UNL     1      66.187   6.008   5.034  1.00  0.00     0.116 A 
HETATM    7  N   UNL     1      68.290   5.021   7.680  1.00  0.00    -0.361 N 
HETATM    8  C   UNL     1      68.870   3.733   7.337  1.00  0.00     0.125 C 
HETATM    9  C   UNL     1      68.410   5.318   9.096  1.00  0.00     0.125 C 
HETATM   10  C   UNL     1      69.328   4.219   9.630  1.00  0.00     0.021 C 
HETATM   11  C   UNL     1      69.072   3.053   8.688  1.00  0.00     0.021 C 
ENDROOT
BRANCH   2  12
HETATM   12  C   UNL     1      65.115   8.306   5.291  1.00  0.00     0.218 C 
HETATM   13  O   UNL     1      65.071   9.430   5.771  1.00  0.00    -0.643 OA
HETATM   14  O   UNL     1      64.352   8.010   4.212  1.00  0.00    -0.643 OA
ENDBRANCH   2  12
TORSDOF 1
ENDMDL
MODEL 4
REMARK VINA RESULT:      -4.5     14.151     15.086
REMARK  1 active torsions:
REMARK  status: ('A' for Active; 'I' for Inactive)
REMARK    1  A    between atoms: C_2  and  C_8 
ROOT
HETATM    1  C   UNL     1      75.798   0.768  16.733  1.00  0.00     0.147 A 
HETATM    2  C   UNL     1      76.267   2.910  17.819  1.00  0.00     0.100 A 
HETATM    3  S   UNL     1      76.979   1.357  17.857  1.00  0.00    -0.046 SA
HETATM    4  N   UNL     1      74.904   1.670  16.385  1.00  0.00    -0.345 N 
ATOM      5  HN  UNL     1      74.130   1.499  15.743  1.00  0.00     0.167 HD
HETATM    6  C   UNL     1      75.156   2.877  17.006  1.00  0.00     0.116 A 
HETATM    7  N   UNL     1      75.815  -0.498  16.245  1.00  0.00    -0.361 N 
HETATM    8  C   UNL     1      74.810  -0.950  15.298  1.00  0.00     0.125 C 
HETATM    9  C   UNL     1      76.509  -1.604  16.880  1.00  0.00     0.125 C 
HETATM   10  C   UNL     1      76.038  -2.833  16.103  1.00  0.00     0.021 C 
HETATM   11  C   UNL     1      74.655  -2.435  15.612  1.00  0.00     0.021 C 
ENDROOT
BRANCH   2  12
HETATM   12  C   UNL     1      76.841   3.994  18.558  1.00  0.00     0.218 C 
HETATM   13  O   UNL     1      76.995   5.160  18.221  1.00  0.00    -0.643 OA
HETATM   14  O   UNL     1      77.220   3.602  19.798  1.00  0.00    -0.643 OA
ENDBRANCH   2  12
TORSDOF 1
ENDMDL
MODEL 5
REMARK VINA RESULT:      -4.3      4.386      6.107
REMARK  1 active torsions:
REMARK  status: ('A' for Active; 'I' for Inactive)
REMARK    1  A    between atoms: C_2  and  C_8 
ROOT
HETATM    1  C   UNL     1      67.915   4.512   7.388  1.00  0.00     0.147 A 
HETATM    2  C   UNL     1      68.613   2.831   9.022  1.00  0.00     0.100 A 
HETATM    3  S   UNL     1      67.833   4.349   9.111  1.00  0.00    -0.046 SA
HETATM    4  N   UNL     1      68.525   3.510   6.790  1.00  0.00    -0.345 N 
ATOM      5  HN  UNL     1      68.676   3.442   5.783  1.00  0.00     0.167 HD
HETATM    6  C   UNL     1      68.933   2.565   7.709  1.00  0.00     0.116 A 
HETATM    7  N   UNL     1      67.377   5.566   6.722  1.00  0.00    -0.361 N 
HETATM    8  C   UNL     1      67.462   5.661   5.274  1.00  0.00     0.125 C 
HETATM    9  C   UNL     1      67.065   6.842   7.340  1.00  0.00     0.125 C 
HETATM   10  C   UNL     1      66.720   7.751   6.161  1.00  0.00     0.021 C 
HETATM   11  C   UNL     1      67.523   7.163   5.011  1.00  0.00     0.021 C 
ENDROOT
BRANCH   2  12
HETATM   12  C   UNL     1      68.832   2.052  10.204  1.00  0.00     0.218 C 
HETATM   13  O   UNL     1      68.026   1.413  10.865  1.00  0.00    -0.643 OA
HETATM   14  O   UNL     1      70.138   2.054  10.563  1.00  0.00    -0.643 OA
ENDBRANCH   2  12
TORSDOF 1
ENDMDL
MODEL 6
REMARK VINA RESULT:      -4.3      3.345      5.699
REMARK  1 active torsions:
REMARK  status: ('A' for Active; 'I' for Inactive)
REMARK    1  A    between atoms: C_2  and  C_8 
ROOT
HETATM    1  C   UNL     1      65.624   6.675   6.229  1.00  0.00     0.147 A 
HETATM    2  C   UNL     1      66.761   5.371   7.957  1.00  0.00     0.100 A 
HETATM    3  S   UNL     1      66.093   5.018   6.425  1.00  0.00    -0.046 SA
HETATM    4  N   UNL     1      65.914   7.433   7.265  1.00  0.00    -0.345 N 
ATOM      5  HN  UNL     1      65.702   8.429   7.332  1.00  0.00     0.167 HD
HETATM    6  C   UNL     1      66.544   6.699   8.249  1.00  0.00     0.116 A 
HETATM    7  N   UNL     1      65.034   7.144   5.100  1.00  0.00    -0.361 N 
HETATM    8  C   UNL     1      64.662   8.543   4.973  1.00  0.00     0.125 C 
HETATM    9  C   UNL     1      64.352   6.304   4.131  1.00  0.00     0.125 C 
HETATM   10  C   UNL     1      63.667   7.299   3.194  1.00  0.00     0.021 C 
HETATM   11  C   UNL     1      63.427   8.512   4.078  1.00  0.00     0.021 C 
ENDROOT
BRANCH   2  12
HETATM   12  C   UNL     1      67.425   4.353   8.715  1.00  0.00     0.218 C 
HETATM   13  O   UNL     1      67.123   3.176   8.855  1.00  0.00    -0.643 OA
HETATM   14  O   UNL     1      68.543   4.830   9.312  1.00  0.00    -0.643 OA
ENDBRANCH   2  12
TORSDOF 1
ENDMDL
MODEL 7
REMARK VINA RESULT:      -4.3      2.794      3.874
REMARK  1 active torsions:
REMARK  status: ('A' for Active; 'I' for Inactive)
REMARK    1  A    between atoms: C_2  and  C_8 
ROOT
HETATM    1  C   UNL     1      64.313   7.256   5.927  1.00  0.00     0.147 A 
HETATM    2  C   UNL     1      62.778   8.668   4.649  1.00  0.00     0.100 A 
HETATM    3  S   UNL     1      64.414   8.791   5.129  1.00  0.00    -0.046 SA
HETATM    4  N   UNL     1      63.117   6.707   5.871  1.00  0.00    -0.345 N 
ATOM      5  HN  UNL     1      62.870   5.812   6.294  1.00  0.00     0.167 HD
HETATM    6  C   UNL     1      62.244   7.507   5.162  1.00  0.00     0.116 A 
HETATM    7  N   UNL     1      65.378   6.670   6.531  1.00  0.00    -0.361 N 
HETATM    8  C   UNL     1      65.253   5.377   7.184  1.00  0.00     0.125 C 
HETATM    9  C   UNL     1      66.566   7.387   6.957  1.00  0.00     0.125 C 
HETATM   10  C   UNL     1      67.346   6.361   7.778  1.00  0.00     0.021 C 
HETATM   11  C   UNL     1      66.262   5.446   8.326  1.00  0.00     0.021 C 
ENDROOT
BRANCH   2  12
HETATM   12  C   UNL     1      62.179   9.681   3.832  1.00  0.00     0.218 C 
HETATM   13  O   UNL     1      61.712  10.761   4.164  1.00  0.00    -0.643 OA
HETATM   14  O   UNL     1      62.189   9.331   2.524  1.00  0.00    -0.643 OA
ENDBRANCH   2  12
TORSDOF 1
ENDMDL
MODEL 8
REMARK VINA RESULT:      -4.2     14.581     16.338
REMARK  1 active torsions:
REMARK  status: ('A' for Active; 'I' for Inactive)
REMARK    1  A    between atoms: C_2  and  C_8 
ROOT
HETATM    1  C   UNL     1      77.624   0.882  18.698  1.00  0.00     0.147 A 
HETATM    2  C   UNL     1      76.180   2.563  17.663  1.00  0.00     0.100 A 
HETATM    3  S   UNL     1      76.360   0.870  17.512  1.00  0.00    -0.046 SA
HETATM    4  N   UNL     1      77.917   2.084  19.147  1.00  0.00    -0.345 N 
ATOM      5  HN  UNL     1      78.640   2.284  19.839  1.00  0.00     0.167 HD
HETATM    6  C   UNL     1      77.114   3.038  18.556  1.00  0.00     0.116 A 
HETATM    7  N   UNL     1      78.232  -0.250  19.135  1.00  0.00    -0.361 N 
HETATM    8  C   UNL     1      79.283  -0.197  20.138  1.00  0.00     0.125 C 
HETATM    9  C   UNL     1      78.229  -1.507  18.408  1.00  0.00     0.125 C 
HETATM   10  C   UNL     1      79.224  -2.380  19.171  1.00  0.00     0.021 C 
HETATM   11  C   UNL     1      80.187  -1.373  19.780  1.00  0.00     0.021 C 
ENDROOT
BRANCH   2  12
HETATM   12  C   UNL     1      75.167   3.257  16.924  1.00  0.00     0.218 C 
HETATM   13  O   UNL     1      75.108   4.441  16.625  1.00  0.00    -0.643 OA
HETATM   14  O   UNL     1      74.187   2.416  16.518  1.00  0.00    -0.643 OA
ENDBRANCH   2  12
TORSDOF 1
ENDMDL
MODEL 9
REMARK VINA RESULT:      -4.1      5.254      6.904
REMARK  1 active torsions:
REMARK  status: ('A' for Active; 'I' for Inactive)
REMARK    1  A    between atoms: C_2  and  C_8 
ROOT
HETATM    1  C   UNL     1      68.310   3.515   9.127  1.00  0.00     0.147 A 
HETATM    2  C   UNL     1      69.192   1.252   9.417  1.00  0.00     0.100 A 
HETATM    3  S   UNL     1      68.062   1.980   8.362  1.00  0.00    -0.046 SA
HETATM    4  N   UNL     1      69.156   3.473  10.135  1.00  0.00    -0.345 N 
ATOM      5  HN  UNL     1      69.415   4.276  10.708  1.00  0.00     0.167 HD
HETATM    6  C   UNL     1      69.647   2.195  10.311  1.00  0.00     0.116 A 
HETATM    7  N   UNL     1      67.704   4.653   8.705  1.00  0.00    -0.361 N 
HETATM    8  C   UNL     1      67.945   5.923   9.371  1.00  0.00     0.125 C 
HETATM    9  C   UNL     1      66.502   4.680   7.891  1.00  0.00     0.125 C 
HETATM   10  C   UNL     1      66.087   6.151   7.888  1.00  0.00     0.021 C 
HETATM   11  C   UNL     1      66.628   6.675   9.209  1.00  0.00     0.021 C 
ENDROOT
BRANCH   2  12
HETATM   12  C   UNL     1      69.531  -0.133   9.279  1.00  0.00     0.218 C 
HETATM   13  O   UNL     1      70.411  -0.647   8.603  1.00  0.00    -0.643 OA
HETATM   14  O   UNL     1      68.740  -0.916  10.051  1.00  0.00    -0.643 OA
ENDBRANCH   2  12
TORSDOF 1
ENDMDL
