MODEL 1
REMARK VINA RESULT:      -6.4      0.000      0.000
REMARK  3 active torsions:
REMARK  status: ('A' for Active; 'I' for Inactive)
REMARK    1  A    between atoms: C_3  and  C_7 
REMARK    2  A    between atoms: C_6  and  C_8 
REMARK    3  A    between atoms: C_8  and  N_9 
ROOT
HETATM    1  N   UNL     1      77.592   9.866  16.635  1.00  0.00    -0.260 N 
ATOM      2  HN  UNL     1      77.867  10.679  16.083  1.00  0.00     0.195 HD
HETATM    3  C   UNL     1      77.293   9.847  17.946  1.00  0.00     0.067 A 
HETATM    4  C   UNL     1      76.969   8.524  18.352  1.00  0.00     0.069 A 
HETATM    5  O   UNL     1      77.454   8.568  16.183  1.00  0.00    -0.240 OA
HETATM    6  C   UNL     1      77.086   7.765  17.214  1.00  0.00     0.104 A 
ENDROOT
BRANCH   3   7
HETATM    7  C   UNL     1      77.330  11.052  18.771  1.00  0.00    -0.007 A 
HETATM    8  C   UNL     1      76.476  12.132  18.493  1.00  0.00     0.014 A 
HETATM    9  C   UNL     1      76.500  13.280  19.290  1.00  0.00     0.001 A 
HETATM   10  C   UNL     1      77.373  13.360  20.372  1.00  0.00     0.000 A 
HETATM   11  C   UNL     1      78.228  12.297  20.657  1.00  0.00     0.001 A 
HETATM   12  C   UNL     1      78.210  11.150  19.858  1.00  0.00     0.014 A 
ENDBRANCH   3   7
BRANCH   6  13
HETATM   13  C   UNL     1      76.907   6.328  16.916  1.00  0.00     0.296 C 
BRANCH  13  14
HETATM   14  N   UNL     1      76.055   5.695  17.920  1.00  0.00    -0.073 N 
HETATM   15  H   UNL     1      76.147   6.192  18.806  1.00  0.00     0.274 HD
HETATM   16  H   UNL     1      76.341   4.723  18.044  1.00  0.00     0.274 HD
HETATM   17  H   UNL     1      75.084   5.727  17.612  1.00  0.00     0.274 HD
ENDBRANCH  13  14
ENDBRANCH   6  13
TORSDOF 3
ENDMDL
MODEL 2
REMARK VINA RESULT:      -6.2      2.462      5.453
REMARK  3 active torsions:
REMARK  status: ('A' for Active; 'I' for Inactive)
REMARK    1  A    between atoms: C_3  and  C_7 
REMARK    2  A    between atoms: C_6  and  C_8 
REMARK    3  A    between atoms: C_8  and  N_9 
ROOT
HETATM    1  N   UNL     1      79.226   9.757  18.502  1.00  0.00    -0.260 N 
ATOM      2  HN  UNL     1      80.028   9.194  18.218  1.00  0.00     0.195 HD
HETATM    3  C   UNL     1      77.992   9.727  17.970  1.00  0.00     0.067 A 
HETATM    4  C   UNL     1      77.155  10.668  18.628  1.00  0.00     0.069 A 
HETATM    5  O   UNL     1      79.195  10.702  19.509  1.00  0.00    -0.240 OA
HETATM    6  C   UNL     1      77.955  11.251  19.579  1.00  0.00     0.104 A 
ENDROOT
BRANCH   3   7
HETATM    7  C   UNL     1      77.641   8.836  16.867  1.00  0.00    -0.007 A 
HETATM    8  C   UNL     1      77.165   7.540  17.121  1.00  0.00     0.014 A 
HETATM    9  C   UNL     1      76.815   6.691  16.067  1.00  0.00     0.001 A 
HETATM   10  C   UNL     1      76.935   7.129  14.750  1.00  0.00     0.000 A 
HETATM   11  C   UNL     1      77.409   8.411  14.483  1.00  0.00     0.001 A 
HETATM   12  C   UNL     1      77.765   9.260  15.536  1.00  0.00     0.014 A 
ENDBRANCH   3   7
BRANCH   6  13
HETATM   13  C   UNL     1      77.742  12.301  20.598  1.00  0.00     0.296 C 
BRANCH  13  14
HETATM   14  N   UNL     1      77.690  11.718  21.936  1.00  0.00    -0.073 N 
HETATM   15  H   UNL     1      78.583  11.273  22.149  1.00  0.00     0.274 HD
HETATM   16  H   UNL     1      76.945  11.020  21.975  1.00  0.00     0.274 HD
HETATM   17  H   UNL     1      77.504  12.451  22.620  1.00  0.00     0.274 HD
ENDBRANCH  13  14
ENDBRANCH   6  13
TORSDOF 3
ENDMDL
MODEL 3
REMARK VINA RESULT:      -6.2      3.499      5.060
REMARK  3 active torsions:
REMARK  status: ('A' for Active; 'I' for Inactive)
REMARK    1  A    between atoms: C_3  and  C_7 
REMARK    2  A    between atoms: C_6  and  C_8 
REMARK    3  A    between atoms: C_8  and  N_9 
ROOT
HETATM    1  N   UNL     1      77.278   4.875  17.637  1.00  0.00    -0.260 N 
ATOM      2  HN  UNL     1      78.154   5.135  18.091  1.00  0.00     0.195 HD
HETATM    3  C   UNL     1      76.540   5.640  16.813  1.00  0.00     0.067 A 
HETATM    4  C   UNL     1      75.384   4.928  16.394  1.00  0.00     0.069 A 
HETATM    5  O   UNL     1      76.615   3.668  17.749  1.00  0.00    -0.240 OA
HETATM    6  C   UNL     1      75.477   3.704  17.008  1.00  0.00     0.104 A 
ENDROOT
BRANCH   3   7
HETATM    7  C   UNL     1      76.933   7.001  16.454  1.00  0.00    -0.007 A 
HETATM    8  C   UNL     1      77.165   7.961  17.450  1.00  0.00     0.014 A 
HETATM    9  C   UNL     1      77.554   9.260  17.109  1.00  0.00     0.001 A 
HETATM   10  C   UNL     1      77.718   9.610  15.770  1.00  0.00     0.000 A 
HETATM   11  C   UNL     1      77.488   8.667  14.771  1.00  0.00     0.001 A 
HETATM   12  C   UNL     1      77.093   7.369  15.110  1.00  0.00     0.014 A 
ENDBRANCH   3   7
BRANCH   6  13
HETATM   13  C   UNL     1      74.628   2.495  17.023  1.00  0.00     0.296 C 
BRANCH  13  14
HETATM   14  N   UNL     1      74.735   1.804  18.306  1.00  0.00    -0.073 N 
HETATM   15  H   UNL     1      75.564   1.210  18.304  1.00  0.00     0.274 HD
HETATM   16  H   UNL     1      73.905   1.228  18.453  1.00  0.00     0.274 HD
HETATM   17  H   UNL     1      74.810   2.490  19.056  1.00  0.00     0.274 HD
ENDBRANCH  13  14
ENDBRANCH   6  13
TORSDOF 3
ENDMDL
MODEL 4
REMARK VINA RESULT:      -6.1      1.631      2.351
REMARK  3 active torsions:
REMARK  status: ('A' for Active; 'I' for Inactive)
REMARK    1  A    between atoms: C_3  and  C_7 
REMARK    2  A    between atoms: C_6  and  C_8 
REMARK    3  A    between atoms: C_8  and  N_9 
ROOT
HETATM    1  N   UNL     1      77.130   8.915  17.835  1.00  0.00    -0.260 N 
ATOM      2  HN  UNL     1      76.924   8.472  18.730  1.00  0.00     0.195 HD
HETATM    3  C   UNL     1      77.303  10.229  17.608  1.00  0.00     0.067 A 
HETATM    4  C   UNL     1      77.562  10.455  16.229  1.00  0.00     0.069 A 
HETATM    5  O   UNL     1      77.285   8.284  16.616  1.00  0.00    -0.240 OA
HETATM    6  C   UNL     1      77.538   9.208  15.654  1.00  0.00     0.104 A 
ENDROOT
BRANCH   3   7
HETATM    7  C   UNL     1      77.212  11.223  18.675  1.00  0.00    -0.007 A 
HETATM    8  C   UNL     1      78.010  11.109  19.824  1.00  0.00     0.014 A 
HETATM    9  C   UNL     1      77.934  12.066  20.841  1.00  0.00     0.001 A 
HETATM   10  C   UNL     1      77.064  13.147  20.716  1.00  0.00     0.000 A 
HETATM   11  C   UNL     1      76.264  13.271  19.582  1.00  0.00     0.001 A 
HETATM   12  C   UNL     1      76.334  12.311  18.568  1.00  0.00     0.014 A 
ENDBRANCH   3   7
BRANCH   6  13
HETATM   13  C   UNL     1      77.717   8.710  14.274  1.00  0.00     0.296 C 
BRANCH  13  14
HETATM   14  N   UNL     1      77.297   7.315  14.170  1.00  0.00    -0.073 N 
HETATM   15  H   UNL     1      76.335   7.274  13.833  1.00  0.00     0.274 HD
HETATM   16  H   UNL     1      77.354   6.873  15.089  1.00  0.00     0.274 HD
HETATM   17  H   UNL     1      77.907   6.823  13.519  1.00  0.00     0.274 HD
ENDBRANCH  13  14
ENDBRANCH   6  13
TORSDOF 3
ENDMDL
MODEL 5
REMARK VINA RESULT:      -5.9      3.549      4.634
REMARK  3 active torsions:
REMARK  status: ('A' for Active; 'I' for Inactive)
REMARK    1  A    between atoms: C_3  and  C_7 
REMARK    2  A    between atoms: C_6  and  C_8 
REMARK    3  A    between atoms: C_8  and  N_9 
ROOT
HETATM    1  N   UNL     1      76.773   7.175  17.888  1.00  0.00    -0.260 N 
ATOM      2  HN  UNL     1      76.699   8.069  18.375  1.00  0.00     0.195 HD
HETATM    3  C   UNL     1      77.070   6.986  16.590  1.00  0.00     0.067 A 
HETATM    4  C   UNL     1      77.066   5.598  16.287  1.00  0.00     0.069 A 
HETATM    5  O   UNL     1      76.587   5.919  18.434  1.00  0.00    -0.240 OA
HETATM    6  C   UNL     1      76.757   4.976  17.471  1.00  0.00     0.104 A 
ENDROOT
BRANCH   3   7
HETATM    7  C   UNL     1      77.336   8.100  15.683  1.00  0.00    -0.007 A 
HETATM    8  C   UNL     1      77.373   7.895  14.295  1.00  0.00     0.014 A 
HETATM    9  C   UNL     1      77.614   8.962  13.424  1.00  0.00     0.001 A 
HETATM   10  C   UNL     1      77.815  10.244  13.932  1.00  0.00     0.000 A 
HETATM   11  C   UNL     1      77.784  10.461  15.308  1.00  0.00     0.001 A 
HETATM   12  C   UNL     1      77.550   9.393  16.180  1.00  0.00     0.014 A 
ENDBRANCH   3   7
BRANCH   6  13
HETATM   13  C   UNL     1      76.579   3.565  17.874  1.00  0.00     0.296 C 
BRANCH  13  14
HETATM   14  N   UNL     1      76.863   3.395  19.297  1.00  0.00    -0.073 N 
HETATM   15  H   UNL     1      77.831   3.096  19.417  1.00  0.00     0.274 HD
HETATM   16  H   UNL     1      76.239   2.688  19.687  1.00  0.00     0.274 HD
HETATM   17  H   UNL     1      76.718   4.281  19.781  1.00  0.00     0.274 HD
ENDBRANCH  13  14
ENDBRANCH   6  13
TORSDOF 3
ENDMDL
MODEL 6
REMARK VINA RESULT:      -5.7     18.318     19.577
REMARK  3 active torsions:
REMARK  status: ('A' for Active; 'I' for Inactive)
REMARK    1  A    between atoms: C_3  and  C_7 
REMARK    2  A    between atoms: C_6  and  C_8 
REMARK    3  A    between atoms: C_8  and  N_9 
ROOT
HETATM    1  N   UNL     1      62.930   8.005   6.237  1.00  0.00    -0.260 N 
ATOM      2  HN  UNL     1      61.948   8.174   6.457  1.00  0.00     0.195 HD
HETATM    3  C   UNL     1      63.590   8.406   5.136  1.00  0.00     0.067 A 
HETATM    4  C   UNL     1      64.940   7.966   5.191  1.00  0.00     0.069 A 
HETATM    5  O   UNL     1      63.843   7.317   7.012  1.00  0.00    -0.240 OA
HETATM    6  C   UNL     1      65.045   7.290   6.380  1.00  0.00     0.104 A 
ENDROOT
BRANCH   3   7
HETATM    7  C   UNL     1      62.940   9.172   4.075  1.00  0.00    -0.007 A 
HETATM    8  C   UNL     1      62.486  10.478   4.314  1.00  0.00     0.014 A 
HETATM    9  C   UNL     1      61.877  11.218   3.296  1.00  0.00     0.001 A 
HETATM   10  C   UNL     1      61.719  10.661   2.029  1.00  0.00     0.000 A 
HETATM   11  C   UNL     1      62.163   9.364   1.778  1.00  0.00     0.001 A 
HETATM   12  C   UNL     1      62.766   8.621   2.797  1.00  0.00     0.014 A 
ENDBRANCH   3   7
BRANCH   6  13
HETATM   13  C   UNL     1      66.146   6.576   7.062  1.00  0.00     0.296 C 
BRANCH  13  14
HETATM   14  N   UNL     1      67.084   7.524   7.658  1.00  0.00    -0.073 N 
HETATM   15  H   UNL     1      68.031   7.306   7.348  1.00  0.00     0.274 HD
HETATM   16  H   UNL     1      67.036   7.455   8.676  1.00  0.00     0.274 HD
HETATM   17  H   UNL     1      66.841   8.470   7.370  1.00  0.00     0.274 HD
ENDBRANCH  13  14
ENDBRANCH   6  13
TORSDOF 3
ENDMDL
MODEL 7
REMARK VINA RESULT:      -5.5     14.527     16.473
REMARK  3 active torsions:
REMARK  status: ('A' for Active; 'I' for Inactive)
REMARK    1  A    between atoms: C_3  and  C_7 
REMARK    2  A    between atoms: C_6  and  C_8 
REMARK    3  A    between atoms: C_8  and  N_9 
ROOT
HETATM    1  N   UNL     1      66.932   8.316   7.100  1.00  0.00    -0.260 N 
ATOM      2  HN  UNL     1      67.654   8.690   7.716  1.00  0.00     0.195 HD
HETATM    3  C   UNL     1      66.697   7.020   6.829  1.00  0.00     0.067 A 
HETATM    4  C   UNL     1      65.613   6.902   5.917  1.00  0.00     0.069 A 
HETATM    5  O   UNL     1      66.002   9.041   6.381  1.00  0.00    -0.240 OA
HETATM    6  C   UNL     1      65.216   8.192   5.668  1.00  0.00     0.104 A 
ENDROOT
BRANCH   3   7
HETATM    7  C   UNL     1      67.492   5.945   7.417  1.00  0.00    -0.007 A 
HETATM    8  C   UNL     1      67.849   4.822   6.655  1.00  0.00     0.014 A 
HETATM    9  C   UNL     1      68.621   3.799   7.212  1.00  0.00     0.001 A 
HETATM   10  C   UNL     1      69.048   3.890   8.535  1.00  0.00     0.000 A 
HETATM   11  C   UNL     1      68.699   4.998   9.305  1.00  0.00     0.001 A 
HETATM   12  C   UNL     1      67.921   6.019   8.750  1.00  0.00     0.014 A 
ENDBRANCH   3   7
BRANCH   6  13
HETATM   13  C   UNL     1      64.168   8.799   4.820  1.00  0.00     0.296 C 
BRANCH  13  14
HETATM   14  N   UNL     1      63.493   9.882   5.531  1.00  0.00    -0.073 N 
HETATM   15  H   UNL     1      62.956  10.441   4.868  1.00  0.00     0.274 HD
HETATM   16  H   UNL     1      64.187  10.473   5.990  1.00  0.00     0.274 HD
HETATM   17  H   UNL     1      62.864   9.489   6.231  1.00  0.00     0.274 HD
ENDBRANCH  13  14
ENDBRANCH   6  13
TORSDOF 3
ENDMDL
MODEL 8
REMARK VINA RESULT:      -5.4      4.874      9.254
REMARK  3 active torsions:
REMARK  status: ('A' for Active; 'I' for Inactive)
REMARK    1  A    between atoms: C_3  and  C_7 
REMARK    2  A    between atoms: C_6  and  C_8 
REMARK    3  A    between atoms: C_8  and  N_9 
ROOT
HETATM    1  N   UNL     1      76.485   3.121  18.734  1.00  0.00    -0.260 N 
ATOM      2  HN  UNL     1      76.658   2.407  19.442  1.00  0.00     0.195 HD
HETATM    3  C   UNL     1      75.756   2.983  17.612  1.00  0.00     0.067 A 
HETATM    4  C   UNL     1      75.761   4.199  16.876  1.00  0.00     0.069 A 
HETATM    5  O   UNL     1      76.954   4.420  18.739  1.00  0.00    -0.240 OA
HETATM    6  C   UNL     1      76.524   5.062  17.622  1.00  0.00     0.104 A 
ENDROOT
BRANCH   3   7
HETATM    7  C   UNL     1      75.094   1.728  17.263  1.00  0.00    -0.007 A 
HETATM    8  C   UNL     1      74.630   0.864  18.267  1.00  0.00     0.014 A 
HETATM    9  C   UNL     1      73.983  -0.330  17.935  1.00  0.00     0.001 A 
HETATM   10  C   UNL     1      73.791  -0.670  16.598  1.00  0.00     0.000 A 
HETATM   11  C   UNL     1      74.250   0.177  15.591  1.00  0.00     0.001 A 
HETATM   12  C   UNL     1      74.902   1.369  15.922  1.00  0.00     0.014 A 
ENDBRANCH   3   7
BRANCH   6  13
HETATM   13  C   UNL     1      76.947   6.468  17.451  1.00  0.00     0.296 C 
BRANCH  13  14
HETATM   14  N   UNL     1      76.920   6.847  16.040  1.00  0.00    -0.073 N 
HETATM   15  H   UNL     1      76.775   6.016  15.468  1.00  0.00     0.274 HD
HETATM   16  H   UNL     1      77.808   7.283  15.788  1.00  0.00     0.274 HD
HETATM   17  H   UNL     1      76.160   7.507  15.880  1.00  0.00     0.274 HD
ENDBRANCH  13  14
ENDBRANCH   6  13
TORSDOF 3
ENDMDL
MODEL 9
REMARK VINA RESULT:      -5.3     21.416     22.900
REMARK  3 active torsions:
REMARK  status: ('A' for Active; 'I' for Inactive)
REMARK    1  A    between atoms: C_3  and  C_7 
REMARK    2  A    between atoms: C_6  and  C_8 
REMARK    3  A    between atoms: C_8  and  N_9 
ROOT
HETATM    1  N   UNL     1      61.522  11.158   2.050  1.00  0.00    -0.260 N 
ATOM      2  HN  UNL     1      61.174  11.570   1.184  1.00  0.00     0.195 HD
HETATM    3  C   UNL     1      61.761   9.855   2.282  1.00  0.00     0.067 A 
HETATM    4  C   UNL     1      62.228   9.675   3.612  1.00  0.00     0.069 A 
HETATM    5  O   UNL     1      61.840  11.828   3.215  1.00  0.00    -0.240 OA
HETATM    6  C   UNL     1      62.257  10.937   4.152  1.00  0.00     0.104 A 
ENDROOT
BRANCH   3   7
HETATM    7  C   UNL     1      61.539   8.829   1.265  1.00  0.00    -0.007 A 
HETATM    8  C   UNL     1      60.249   8.336   1.020  1.00  0.00     0.014 A 
HETATM    9  C   UNL     1      60.032   7.365   0.038  1.00  0.00     0.001 A 
HETATM   10  C   UNL     1      61.103   6.880  -0.710  1.00  0.00     0.000 A 
HETATM   11  C   UNL     1      62.390   7.359  -0.475  1.00  0.00     0.001 A 
HETATM   12  C   UNL     1      62.608   8.326   0.510  1.00  0.00     0.014 A 
ENDBRANCH   3   7
BRANCH   6  13
HETATM   13  C   UNL     1      62.626  11.479   5.477  1.00  0.00     0.296 C 
BRANCH  13  14
HETATM   14  N   UNL     1      63.863  10.869   5.958  1.00  0.00    -0.073 N 
HETATM   15  H   UNL     1      64.525  11.601   6.216  1.00  0.00     0.274 HD
HETATM   16  H   UNL     1      64.267  10.291   5.219  1.00  0.00     0.274 HD
HETATM   17  H   UNL     1      63.662  10.289   6.772  1.00  0.00     0.274 HD
ENDBRANCH  13  14
ENDBRANCH   6  13
TORSDOF 3
ENDMDL
