MODEL 1
REMARK VINA RESULT:      -4.4      0.000      0.000
REMARK  3 active torsions:
REMARK  status: ('A' for Active; 'I' for Inactive)
REMARK    1  A    between atoms: O_2  and  C_6 
REMARK    2  A    between atoms: C_3  and  C_7 
REMARK    3  A    between atoms: C_6  and  C_7 
ROOT
HETATM    1  O   UNL     1      76.850  12.413  18.373  1.00  0.00    -0.391 OA
HETATM    2  C   UNL     1      77.333  12.706  21.226  1.00  0.00    -0.009 C 
HETATM    3  C   UNL     1      76.992  13.717  18.934  1.00  0.00     0.168 C 
HETATM    4  C   UNL     1      77.638  11.433  19.048  1.00  0.00     0.168 C 
HETATM    5  C   UNL     1      76.539  13.721  20.389  1.00  0.00     0.031 C 
HETATM    6  C   UNL     1      77.253  11.338  20.523  1.00  0.00     0.031 C 
ENDROOT
BRANCH   2   7
HETATM    7  C   UNL     1      78.802  13.110  21.467  1.00  0.00     0.031 C 
BRANCH   7   8
HETATM    8  C   UNL     1      79.566  12.160  22.386  1.00  0.00     0.164 C 
BRANCH   8   9
HETATM    9  O   UNL     1      80.467  11.374  21.616  1.00  0.00    -0.401 OA
HETATM   10  H   UNL     1      80.801  11.900  20.872  1.00  0.00     0.209 HD
ENDBRANCH   8   9
ENDBRANCH   7   8
ENDBRANCH   2   7
TORSDOF 3
ENDMDL
MODEL 2
REMARK VINA RESULT:      -4.0      3.292      4.946
REMARK  3 active torsions:
REMARK  status: ('A' for Active; 'I' for Inactive)
REMARK    1  A    between atoms: O_2  and  C_6 
REMARK    2  A    between atoms: C_3  and  C_7 
REMARK    3  A    between atoms: C_6  and  C_7 
ROOT
HETATM    1  O   UNL     1      77.693  11.839  18.961  1.00  0.00    -0.391 OA
HETATM    2  C   UNL     1      77.936   9.298  17.568  1.00  0.00    -0.009 C 
HETATM    3  C   UNL     1      76.703  11.461  18.006  1.00  0.00     0.168 C 
HETATM    4  C   UNL     1      78.252  10.721  19.649  1.00  0.00     0.168 C 
HETATM    5  C   UNL     1      77.310  10.553  16.943  1.00  0.00     0.031 C 
HETATM    6  C   UNL     1      78.909   9.747  18.673  1.00  0.00     0.031 C 
ENDROOT
BRANCH   2   7
HETATM    7  C   UNL     1      76.902   8.297  18.125  1.00  0.00     0.031 C 
BRANCH   7   8
HETATM    8  C   UNL     1      76.954   6.920  17.469  1.00  0.00     0.164 C 
BRANCH   8   9
HETATM    9  O   UNL     1      76.197   5.995  18.242  1.00  0.00    -0.401 OA
HETATM   10  H   UNL     1      75.822   5.317  17.658  1.00  0.00     0.209 HD
ENDBRANCH   8   9
ENDBRANCH   7   8
ENDBRANCH   2   7
TORSDOF 3
ENDMDL
MODEL 3
REMARK VINA RESULT:      -3.8      1.650      2.362
REMARK  3 active torsions:
REMARK  status: ('A' for Active; 'I' for Inactive)
REMARK    1  A    between atoms: O_2  and  C_6 
REMARK    2  A    between atoms: C_3  and  C_7 
REMARK    3  A    between atoms: C_6  and  C_7 
ROOT
HETATM    1  O   UNL     1      76.959  11.593  18.282  1.00  0.00    -0.391 OA
HETATM    2  C   UNL     1      78.256  12.493  20.726  1.00  0.00    -0.009 C 
HETATM    3  C   UNL     1      77.653  10.653  19.100  1.00  0.00     0.168 C 
HETATM    4  C   UNL     1      76.362  12.647  19.038  1.00  0.00     0.168 C 
HETATM    5  C   UNL     1      78.782  11.340  19.859  1.00  0.00     0.031 C 
HETATM    6  C   UNL     1      77.415  13.421  19.829  1.00  0.00     0.031 C 
ENDROOT
BRANCH   2   7
HETATM    7  C   UNL     1      77.439  12.031  21.950  1.00  0.00     0.031 C 
BRANCH   7   8
HETATM    8  C   UNL     1      78.287  11.691  23.172  1.00  0.00     0.164 C 
BRANCH   8   9
HETATM    9  O   UNL     1      77.638  10.684  23.939  1.00  0.00    -0.401 OA
HETATM   10  H   UNL     1      78.233  10.380  24.642  1.00  0.00     0.209 HD
ENDBRANCH   8   9
ENDBRANCH   7   8
ENDBRANCH   2   7
TORSDOF 3
ENDMDL
MODEL 4
REMARK VINA RESULT:      -3.8      2.121      3.270
REMARK  3 active torsions:
REMARK  status: ('A' for Active; 'I' for Inactive)
REMARK    1  A    between atoms: O_2  and  C_6 
REMARK    2  A    between atoms: C_3  and  C_7 
REMARK    3  A    between atoms: C_6  and  C_7 
ROOT
HETATM    1  O   UNL     1      76.287  13.085  20.975  1.00  0.00    -0.391 OA
HETATM    2  C   UNL     1      77.982  11.511  19.212  1.00  0.00    -0.009 C 
HETATM    3  C   UNL     1      75.791  12.673  19.703  1.00  0.00     0.168 C 
HETATM    4  C   UNL     1      77.196  12.143  21.544  1.00  0.00     0.168 C 
HETATM    5  C   UNL     1      76.937  12.518  18.711  1.00  0.00     0.031 C 
HETATM    6  C   UNL     1      78.403  11.925  20.634  1.00  0.00     0.031 C 
ENDROOT
BRANCH   2   7
HETATM    7  C   UNL     1      77.496  10.046  19.192  1.00  0.00     0.031 C 
BRANCH   7   8
HETATM    8  C   UNL     1      78.030   9.229  18.019  1.00  0.00     0.164 C 
BRANCH   8   9
HETATM    9  O   UNL     1      79.262   9.783  17.573  1.00  0.00    -0.401 OA
HETATM   10  H   UNL     1      79.867   9.872  18.325  1.00  0.00     0.209 HD
ENDBRANCH   8   9
ENDBRANCH   7   8
ENDBRANCH   2   7
TORSDOF 3
ENDMDL
MODEL 5
REMARK VINA RESULT:      -3.7      9.813     11.327
REMARK  3 active torsions:
REMARK  status: ('A' for Active; 'I' for Inactive)
REMARK    1  A    between atoms: O_2  and  C_6 
REMARK    2  A    between atoms: C_3  and  C_7 
REMARK    3  A    between atoms: C_6  and  C_7 
ROOT
HETATM    1  O   UNL     1      81.032  23.614  14.256  1.00  0.00    -0.391 OA
HETATM    2  C   UNL     1      80.021  21.082  15.271  1.00  0.00    -0.009 C 
HETATM    3  C   UNL     1      80.342  22.727  13.377  1.00  0.00     0.168 C 
HETATM    4  C   UNL     1      80.550  23.546  15.598  1.00  0.00     0.168 C 
HETATM    5  C   UNL     1      80.520  21.283  13.832  1.00  0.00     0.031 C 
HETATM    6  C   UNL     1      80.700  22.136  16.165  1.00  0.00     0.031 C 
ENDROOT
BRANCH   2   7
HETATM    7  C   UNL     1      78.486  21.153  15.413  1.00  0.00     0.031 C 
BRANCH   7   8
HETATM    8  C   UNL     1      78.005  21.435  16.834  1.00  0.00     0.164 C 
BRANCH   8   9
HETATM    9  O   UNL     1      77.342  20.288  17.350  1.00  0.00    -0.401 OA
HETATM   10  H   UNL     1      77.943  19.804  17.938  1.00  0.00     0.209 HD
ENDBRANCH   8   9
ENDBRANCH   7   8
ENDBRANCH   2   7
TORSDOF 3
ENDMDL
MODEL 6
REMARK VINA RESULT:      -3.6     16.245     17.410
REMARK  3 active torsions:
REMARK  status: ('A' for Active; 'I' for Inactive)
REMARK    1  A    between atoms: O_2  and  C_6 
REMARK    2  A    between atoms: C_3  and  C_7 
REMARK    3  A    between atoms: C_6  and  C_7 
ROOT
HETATM    1  O   UNL     1      67.648   5.566   7.141  1.00  0.00    -0.391 OA
HETATM    2  C   UNL     1      69.304   3.609   8.516  1.00  0.00    -0.009 C 
HETATM    3  C   UNL     1      67.466   4.176   6.874  1.00  0.00     0.168 C 
HETATM    4  C   UNL     1      68.053   5.821   8.486  1.00  0.00     0.168 C 
HETATM    5  C   UNL     1      68.772   3.419   7.087  1.00  0.00     0.031 C 
HETATM    6  C   UNL     1      69.372   5.120   8.805  1.00  0.00     0.031 C 
ENDROOT
BRANCH   2   7
HETATM    7  C   UNL     1      68.470   2.885   9.593  1.00  0.00     0.031 C 
BRANCH   7   8
HETATM    8  C   UNL     1      69.185   1.706  10.246  1.00  0.00     0.164 C 
BRANCH   8   9
HETATM    9  O   UNL     1      69.886   2.153  11.400  1.00  0.00    -0.401 OA
HETATM   10  H   UNL     1      70.131   1.389  11.946  1.00  0.00     0.209 HD
ENDBRANCH   8   9
ENDBRANCH   7   8
ENDBRANCH   2   7
TORSDOF 3
ENDMDL
MODEL 7
REMARK VINA RESULT:      -3.6     16.406     17.402
REMARK  3 active torsions:
REMARK  status: ('A' for Active; 'I' for Inactive)
REMARK    1  A    between atoms: O_2  and  C_6 
REMARK    2  A    between atoms: C_3  and  C_7 
REMARK    3  A    between atoms: C_6  and  C_7 
ROOT
HETATM    1  O   UNL     1      68.904   2.395   8.905  1.00  0.00    -0.391 OA
HETATM    2  C   UNL     1      68.949   5.241   8.306  1.00  0.00    -0.009 C 
HETATM    3  C   UNL     1      69.546   3.296   9.806  1.00  0.00     0.168 C 
HETATM    4  C   UNL     1      67.786   2.983   8.242  1.00  0.00     0.168 C 
HETATM    5  C   UNL     1      70.074   4.512   9.055  1.00  0.00     0.031 C 
HETATM    6  C   UNL     1      68.207   4.210   7.436  1.00  0.00     0.031 C 
ENDROOT
BRANCH   2   7
HETATM    7  C   UNL     1      67.963   5.984   9.231  1.00  0.00     0.031 C 
BRANCH   7   8
HETATM    8  C   UNL     1      66.756   6.575   8.509  1.00  0.00     0.164 C 
BRANCH   8   9
HETATM    9  O   UNL     1      67.156   7.724   7.772  1.00  0.00    -0.401 OA
HETATM   10  H   UNL     1      66.712   7.725   6.909  1.00  0.00     0.209 HD
ENDBRANCH   8   9
ENDBRANCH   7   8
ENDBRANCH   2   7
TORSDOF 3
ENDMDL
MODEL 8
REMARK VINA RESULT:      -3.5     10.546     11.696
REMARK  3 active torsions:
REMARK  status: ('A' for Active; 'I' for Inactive)
REMARK    1  A    between atoms: O_2  and  C_6 
REMARK    2  A    between atoms: C_3  and  C_7 
REMARK    3  A    between atoms: C_6  and  C_7 
ROOT
HETATM    1  O   UNL     1      75.444  -0.350  15.786  1.00  0.00    -0.391 OA
HETATM    2  C   UNL     1      75.775   1.575  17.941  1.00  0.00    -0.009 C 
HETATM    3  C   UNL     1      74.357   0.501  16.145  1.00  0.00     0.168 C 
HETATM    4  C   UNL     1      76.716   0.271  15.973  1.00  0.00     0.168 C 
HETATM    5  C   UNL     1      74.444   0.880  17.618  1.00  0.00     0.031 C 
HETATM    6  C   UNL     1      76.919   0.679  17.431  1.00  0.00     0.031 C 
ENDROOT
BRANCH   2   7
HETATM    7  C   UNL     1      75.895   2.997  17.356  1.00  0.00     0.031 C 
BRANCH   7   8
HETATM    8  C   UNL     1      76.936   3.870  18.050  1.00  0.00     0.164 C 
BRANCH   8   9
HETATM    9  O   UNL     1      76.774   3.777  19.461  1.00  0.00    -0.401 OA
HETATM   10  H   UNL     1      76.346   2.935  19.682  1.00  0.00     0.209 HD
ENDBRANCH   8   9
ENDBRANCH   7   8
ENDBRANCH   2   7
TORSDOF 3
ENDMDL
MODEL 9
REMARK VINA RESULT:      -3.4     22.817     24.537
REMARK  3 active torsions:
REMARK  status: ('A' for Active; 'I' for Inactive)
REMARK    1  A    between atoms: O_2  and  C_6 
REMARK    2  A    between atoms: C_3  and  C_7 
REMARK    3  A    between atoms: C_6  and  C_7 
ROOT
HETATM    1  O   UNL     1      61.025   7.051   1.015  1.00  0.00    -0.391 OA
HETATM    2  C   UNL     1      62.576   8.958   2.568  1.00  0.00    -0.009 C 
HETATM    3  C   UNL     1      61.484   6.692   2.317  1.00  0.00     0.168 C 
HETATM    4  C   UNL     1      60.734   8.443   0.897  1.00  0.00     0.168 C 
HETATM    5  C   UNL     1      62.771   7.437   2.650  1.00  0.00     0.031 C 
HETATM    6  C   UNL     1      61.969   9.290   1.193  1.00  0.00     0.031 C 
ENDROOT
BRANCH   2   7
HETATM    7  C   UNL     1      61.706   9.537   3.703  1.00  0.00     0.031 C 
BRANCH   7   8
HETATM    8  C   UNL     1      62.297  10.775   4.371  1.00  0.00     0.164 C 
BRANCH   8   9
HETATM    9  O   UNL     1      61.909  11.938   3.649  1.00  0.00    -0.401 OA
HETATM   10  H   UNL     1      62.255  11.887   2.745  1.00  0.00     0.209 HD
ENDBRANCH   8   9
ENDBRANCH   7   8
ENDBRANCH   2   7
TORSDOF 3
ENDMDL
