MODEL 1
REMARK VINA RESULT:      -4.3      0.000      0.000
REMARK  4 active torsions:
REMARK  status: ('A' for Active; 'I' for Inactive)
REMARK    1  A    between atoms: C_1  and  C_4 
REMARK    2  A    between atoms: C_1  and  O_5 
REMARK    3  A    between atoms: C_4  and  C_6 
REMARK    4  A    between atoms: O_5  and  C_9 
ROOT
HETATM    1  O   UNL     1      68.547   3.623   8.466  1.00  0.00    -0.391 OA
HETATM    2  C   UNL     1      67.611   6.174   7.503  1.00  0.00    -0.001 C 
HETATM    3  C   UNL     1      68.945   4.809   9.151  1.00  0.00     0.168 C 
HETATM    4  C   UNL     1      68.436   3.826   7.059  1.00  0.00     0.168 C 
HETATM    5  C   UNL     1      67.358   4.860   6.750  1.00  0.00     0.031 C 
HETATM    6  C   UNL     1      67.894   5.902   8.988  1.00  0.00     0.031 C 
ENDROOT
BRANCH   2   7
HETATM    7  C   UNL     1      66.511   7.229   7.305  1.00  0.00     0.115 C 
BRANCH   7   8
HETATM    8  C   UNL     1      66.697   8.189   6.150  1.00  0.00     0.259 C 
HETATM    9  O   UNL     1      67.704   8.228   5.450  1.00  0.00    -0.265 OA
BRANCH   8  10
HETATM   10  O   UNL     1      65.597   8.971   5.993  1.00  0.00    -0.322 OA
BRANCH  10  11
HETATM   11  C   UNL     1      64.640   8.549   5.006  1.00  0.00     0.174 C 
HETATM   12  C   UNL     1      63.380   9.396   5.065  1.00  0.00     0.034 C 
ENDBRANCH  10  11
ENDBRANCH   8  10
ENDBRANCH   7   8
ENDBRANCH   2   7
TORSDOF 4
ENDMDL
MODEL 2
REMARK VINA RESULT:      -4.2      3.173      7.047
REMARK  4 active torsions:
REMARK  status: ('A' for Active; 'I' for Inactive)
REMARK    1  A    between atoms: C_1  and  C_4 
REMARK    2  A    between atoms: C_1  and  O_5 
REMARK    3  A    between atoms: C_4  and  C_6 
REMARK    4  A    between atoms: O_5  and  C_9 
ROOT
HETATM    1  O   UNL     1      62.025  10.930   2.352  1.00  0.00    -0.391 OA
HETATM    2  C   UNL     1      62.650   8.627   3.970  1.00  0.00    -0.001 C 
HETATM    3  C   UNL     1      61.905  11.028   3.770  1.00  0.00     0.168 C 
HETATM    4  C   UNL     1      61.668   9.636   1.871  1.00  0.00     0.168 C 
HETATM    5  C   UNL     1      62.607   8.576   2.436  1.00  0.00     0.031 C 
HETATM    6  C   UNL     1      62.869  10.067   4.459  1.00  0.00     0.031 C 
ENDROOT
BRANCH   2   7
HETATM    7  C   UNL     1      63.648   7.643   4.600  1.00  0.00     0.115 C 
BRANCH   7   8
HETATM    8  C   UNL     1      63.689   7.600   6.113  1.00  0.00     0.259 C 
HETATM    9  O   UNL     1      62.688   7.581   6.823  1.00  0.00    -0.265 OA
BRANCH   8  10
HETATM   10  O   UNL     1      64.972   7.567   6.557  1.00  0.00    -0.322 OA
BRANCH  10  11
HETATM   11  C   UNL     1      65.949   7.000   5.668  1.00  0.00     0.174 C 
HETATM   12  C   UNL     1      67.249   7.785   5.705  1.00  0.00     0.034 C 
ENDBRANCH  10  11
ENDBRANCH   8  10
ENDBRANCH   7   8
ENDBRANCH   2   7
TORSDOF 4
ENDMDL
MODEL 3
REMARK VINA RESULT:      -4.1      2.725      6.022
REMARK  4 active torsions:
REMARK  status: ('A' for Active; 'I' for Inactive)
REMARK    1  A    between atoms: C_1  and  C_4 
REMARK    2  A    between atoms: C_1  and  O_5 
REMARK    3  A    between atoms: C_4  and  C_6 
REMARK    4  A    between atoms: O_5  and  C_9 
ROOT
HETATM    1  O   UNL     1      67.169   6.544   7.204  1.00  0.00    -0.391 OA
HETATM    2  C   UNL     1      68.209   4.467   8.912  1.00  0.00    -0.001 C 
HETATM    3  C   UNL     1      66.923   6.615   8.607  1.00  0.00     0.168 C 
HETATM    4  C   UNL     1      67.174   5.200   6.726  1.00  0.00     0.168 C 
HETATM    5  C   UNL     1      68.296   4.402   7.380  1.00  0.00     0.031 C 
HETATM    6  C   UNL     1      68.035   5.919   9.384  1.00  0.00     0.031 C 
ENDROOT
BRANCH   2   7
HETATM    7  C   UNL     1      69.364   3.756   9.634  1.00  0.00     0.115 C 
BRANCH   7   8
HETATM    8  C   UNL     1      69.030   2.446  10.315  1.00  0.00     0.259 C 
HETATM    9  O   UNL     1      69.830   1.801  10.985  1.00  0.00    -0.265 OA
BRANCH   8  10
HETATM   10  O   UNL     1      67.732   2.108  10.093  1.00  0.00    -0.322 OA
BRANCH  10  11
HETATM   11  C   UNL     1      67.495   0.839   9.460  1.00  0.00     0.174 C 
HETATM   12  C   UNL     1      66.786   1.013   8.127  1.00  0.00     0.034 C 
ENDBRANCH  10  11
ENDBRANCH   8  10
ENDBRANCH   7   8
ENDBRANCH   2   7
TORSDOF 4
ENDMDL
MODEL 4
REMARK VINA RESULT:      -3.9      2.096      3.324
REMARK  4 active torsions:
REMARK  status: ('A' for Active; 'I' for Inactive)
REMARK    1  A    between atoms: C_1  and  C_4 
REMARK    2  A    between atoms: C_1  and  O_5 
REMARK    3  A    between atoms: C_4  and  C_6 
REMARK    4  A    between atoms: O_5  and  C_9 
ROOT
HETATM    1  O   UNL     1      69.470   1.777   8.530  1.00  0.00    -0.391 OA
HETATM    2  C   UNL     1      68.342   4.388   9.002  1.00  0.00    -0.001 C 
HETATM    3  C   UNL     1      68.342   2.192   7.762  1.00  0.00     0.168 C 
HETATM    4  C   UNL     1      69.423   2.273   9.866  1.00  0.00     0.168 C 
HETATM    5  C   UNL     1      69.459   3.797   9.874  1.00  0.00     0.031 C 
HETATM    6  C   UNL     1      68.315   3.710   7.623  1.00  0.00     0.031 C 
ENDROOT
BRANCH   2   7
HETATM    7  C   UNL     1      68.378   5.921   8.894  1.00  0.00     0.115 C 
BRANCH   7   8
HETATM    8  C   UNL     1      67.042   6.617   8.742  1.00  0.00     0.259 C 
HETATM    9  O   UNL     1      66.108   6.482   9.527  1.00  0.00    -0.265 OA
BRANCH   8  10
HETATM   10  O   UNL     1      67.038   7.412   7.640  1.00  0.00    -0.322 OA
BRANCH  10  11
HETATM   11  C   UNL     1      66.480   6.849   6.440  1.00  0.00     0.174 C 
HETATM   12  C   UNL     1      67.547   6.652   5.377  1.00  0.00     0.034 C 
ENDBRANCH  10  11
ENDBRANCH   8  10
ENDBRANCH   7   8
ENDBRANCH   2   7
TORSDOF 4
ENDMDL
MODEL 5
REMARK VINA RESULT:      -3.7      2.763      6.862
REMARK  4 active torsions:
REMARK  status: ('A' for Active; 'I' for Inactive)
REMARK    1  A    between atoms: C_1  and  C_4 
REMARK    2  A    between atoms: C_1  and  O_5 
REMARK    3  A    between atoms: C_4  and  C_6 
REMARK    4  A    between atoms: O_5  and  C_9 
ROOT
HETATM    1  O   UNL     1      66.300   6.626   7.604  1.00  0.00    -0.391 OA
HETATM    2  C   UNL     1      67.748   4.520   8.938  1.00  0.00    -0.001 C 
HETATM    3  C   UNL     1      66.635   6.782   8.981  1.00  0.00     0.168 C 
HETATM    4  C   UNL     1      66.000   5.272   7.274  1.00  0.00     0.168 C 
HETATM    5  C   UNL     1      67.217   4.382   7.504  1.00  0.00     0.031 C 
HETATM    6  C   UNL     1      67.900   6.001   9.320  1.00  0.00     0.031 C 
ENDROOT
BRANCH   2   7
HETATM    7  C   UNL     1      69.030   3.717   9.210  1.00  0.00     0.115 C 
BRANCH   7   8
HETATM    8  C   UNL     1      68.867   2.436  10.000  1.00  0.00     0.259 C 
HETATM    9  O   UNL     1      67.782   1.982  10.349  1.00  0.00    -0.265 OA
BRANCH   8  10
HETATM   10  O   UNL     1      70.076   1.865  10.243  1.00  0.00    -0.322 OA
BRANCH  10  11
HETATM   11  C   UNL     1      70.267   0.525   9.758  1.00  0.00     0.174 C 
HETATM   12  C   UNL     1      71.652   0.007  10.105  1.00  0.00     0.034 C 
ENDBRANCH  10  11
ENDBRANCH   8  10
ENDBRANCH   7   8
ENDBRANCH   2   7
TORSDOF 4
ENDMDL
MODEL 6
REMARK VINA RESULT:      -3.6      3.672      6.739
REMARK  4 active torsions:
REMARK  status: ('A' for Active; 'I' for Inactive)
REMARK    1  A    between atoms: C_1  and  C_4 
REMARK    2  A    between atoms: C_1  and  O_5 
REMARK    3  A    between atoms: C_4  and  C_6 
REMARK    4  A    between atoms: O_5  and  C_9 
ROOT
HETATM    1  O   UNL     1      61.458   6.234   2.110  1.00  0.00    -0.391 OA
HETATM    2  C   UNL     1      62.412   8.730   3.193  1.00  0.00    -0.001 C 
HETATM    3  C   UNL     1      62.776   6.671   1.784  1.00  0.00     0.168 C 
HETATM    4  C   UNL     1      60.546   7.324   2.231  1.00  0.00     0.168 C 
HETATM    5  C   UNL     1      60.964   8.251   3.367  1.00  0.00     0.031 C 
HETATM    6  C   UNL     1      63.344   7.546   2.896  1.00  0.00     0.031 C 
ENDROOT
BRANCH   2   7
HETATM    7  C   UNL     1      62.927   9.598   4.353  1.00  0.00     0.115 C 
BRANCH   7   8
HETATM    8  C   UNL     1      63.618   8.868   5.485  1.00  0.00     0.259 C 
HETATM    9  O   UNL     1      63.047   8.099   6.251  1.00  0.00    -0.265 OA
BRANCH   8  10
HETATM   10  O   UNL     1      64.942   9.172   5.513  1.00  0.00    -0.322 OA
BRANCH  10  11
HETATM   11  C   UNL     1      65.836   8.125   5.930  1.00  0.00     0.174 C 
HETATM   12  C   UNL     1      66.757   7.705   4.797  1.00  0.00     0.034 C 
ENDBRANCH  10  11
ENDBRANCH   8  10
ENDBRANCH   7   8
ENDBRANCH   2   7
TORSDOF 4
ENDMDL
MODEL 7
REMARK VINA RESULT:      -3.6      3.322      4.717
REMARK  4 active torsions:
REMARK  status: ('A' for Active; 'I' for Inactive)
REMARK    1  A    between atoms: C_1  and  C_4 
REMARK    2  A    between atoms: C_1  and  O_5 
REMARK    3  A    between atoms: C_4  and  C_6 
REMARK    4  A    between atoms: O_5  and  C_9 
ROOT
HETATM    1  O   UNL     1      67.115   7.235   4.110  1.00  0.00    -0.391 OA
HETATM    2  C   UNL     1      64.433   7.389   5.154  1.00  0.00    -0.001 C 
HETATM    3  C   UNL     1      66.181   6.213   3.769  1.00  0.00     0.168 C 
HETATM    4  C   UNL     1      66.923   7.718   5.438  1.00  0.00     0.168 C 
HETATM    5  C   UNL     1      65.545   8.357   5.581  1.00  0.00     0.031 C 
HETATM    6  C   UNL     1      64.756   6.757   3.792  1.00  0.00     0.031 C 
ENDROOT
BRANCH   2   7
HETATM    7  C   UNL     1      63.024   8.002   5.190  1.00  0.00     0.115 C 
BRANCH   7   8
HETATM    8  C   UNL     1      62.934   9.499   4.985  1.00  0.00     0.259 C 
HETATM    9  O   UNL     1      62.974  10.317   5.899  1.00  0.00    -0.265 OA
BRANCH   8  10
HETATM   10  O   UNL     1      62.825   9.797   3.663  1.00  0.00    -0.322 OA
BRANCH  10  11
HETATM   11  C   UNL     1      61.904   9.003   2.896  1.00  0.00     0.174 C 
HETATM   12  C   UNL     1      61.900   9.420   1.436  1.00  0.00     0.034 C 
ENDBRANCH  10  11
ENDBRANCH   8  10
ENDBRANCH   7   8
ENDBRANCH   2   7
TORSDOF 4
ENDMDL
MODEL 8
REMARK VINA RESULT:      -3.6     13.679     14.854
REMARK  4 active torsions:
REMARK  status: ('A' for Active; 'I' for Inactive)
REMARK    1  A    between atoms: C_1  and  C_4 
REMARK    2  A    between atoms: C_1  and  O_5 
REMARK    3  A    between atoms: C_4  and  C_6 
REMARK    4  A    between atoms: O_5  and  C_9 
ROOT
HETATM    1  O   UNL     1      75.427  -2.262  14.738  1.00  0.00    -0.391 OA
HETATM    2  C   UNL     1      74.365   0.311  15.490  1.00  0.00    -0.001 C 
HETATM    3  C   UNL     1      75.452  -1.199  13.788  1.00  0.00     0.168 C 
HETATM    4  C   UNL     1      74.268  -2.214  15.568  1.00  0.00     0.168 C 
HETATM    5  C   UNL     1      74.250  -0.929  16.389  1.00  0.00     0.031 C 
HETATM    6  C   UNL     1      75.522   0.152  14.493  1.00  0.00     0.031 C 
ENDROOT
BRANCH   2   7
HETATM    7  C   UNL     1      74.443   1.637  16.262  1.00  0.00     0.115 C 
BRANCH   7   8
HETATM    8  C   UNL     1      75.173   1.605  17.588  1.00  0.00     0.259 C 
HETATM    9  O   UNL     1      74.611   1.523  18.676  1.00  0.00    -0.265 OA
BRANCH   8  10
HETATM   10  O   UNL     1      76.517   1.658  17.397  1.00  0.00    -0.322 OA
BRANCH  10  11
HETATM   11  C   UNL     1      77.324   0.827  18.248  1.00  0.00     0.174 C 
HETATM   12  C   UNL     1      77.587  -0.526  17.607  1.00  0.00     0.034 C 
ENDBRANCH  10  11
ENDBRANCH   8  10
ENDBRANCH   7   8
ENDBRANCH   2   7
TORSDOF 4
ENDMDL
MODEL 9
REMARK VINA RESULT:      -3.6      2.461      6.027
REMARK  4 active torsions:
REMARK  status: ('A' for Active; 'I' for Inactive)
REMARK    1  A    between atoms: C_1  and  C_4 
REMARK    2  A    between atoms: C_1  and  O_5 
REMARK    3  A    between atoms: C_4  and  C_6 
REMARK    4  A    between atoms: O_5  and  C_9 
ROOT
HETATM    1  O   UNL     1      60.643   7.313   4.037  1.00  0.00    -0.391 OA
HETATM    2  C   UNL     1      63.385   8.013   4.589  1.00  0.00    -0.001 C 
HETATM    3  C   UNL     1      61.378   6.538   4.983  1.00  0.00     0.168 C 
HETATM    4  C   UNL     1      61.464   7.771   2.965  1.00  0.00     0.168 C 
HETATM    5  C   UNL     1      62.563   8.692   3.485  1.00  0.00     0.031 C 
HETATM    6  C   UNL     1      62.463   7.382   5.643  1.00  0.00     0.031 C 
ENDROOT
BRANCH   2   7
HETATM    7  C   UNL     1      64.454   8.920   5.220  1.00  0.00     0.115 C 
BRANCH   7   8
HETATM    8  C   UNL     1      65.728   8.243   5.679  1.00  0.00     0.259 C 
HETATM    9  O   UNL     1      66.778   8.265   5.046  1.00  0.00    -0.265 OA
BRANCH   8  10
HETATM   10  O   UNL     1      65.543   7.635   6.880  1.00  0.00    -0.322 OA
BRANCH  10  11
HETATM   11  C   UNL     1      66.693   7.005   7.469  1.00  0.00     0.174 C 
HETATM   12  C   UNL     1      66.397   6.526   8.880  1.00  0.00     0.034 C 
ENDBRANCH  10  11
ENDBRANCH   8  10
ENDBRANCH   7   8
ENDBRANCH   2   7
TORSDOF 4
ENDMDL
