MODEL 1
REMARK VINA RESULT:      -8.2      0.000      0.000
REMARK  3 active torsions:
REMARK  status: ('A' for Active; 'I' for Inactive)
REMARK    1  A    between atoms: C_1  and  C_2 
REMARK    2  A    between atoms: C_5  and  C_6 
REMARK    3  A    between atoms: C_8  and  C_9 
ROOT
HETATM    1  C   UNL     1      78.281  11.809  20.267  1.00  0.00     0.063 A 
HETATM    2  N   UNL     1      76.891  10.883  18.523  1.00  0.00    -0.364 N 
ATOM      3  HN  UNL     1      76.024  10.910  17.988  1.00  0.00     0.165 HD
HETATM    4  C   UNL     1      77.836   9.943  18.268  1.00  0.00     0.042 A 
HETATM    5  C   UNL     1      77.126  11.783  19.505  1.00  0.00     0.104 A 
HETATM    6  C   UNL     1      79.266  10.866  19.969  1.00  0.00     0.020 A 
HETATM    7  C   UNL     1      79.045   9.928  18.961  1.00  0.00     0.031 A 
ENDROOT
BRANCH   4   8
HETATM    8  C   UNL     1      77.465   8.926  17.263  1.00  0.00    -0.009 A 
HETATM    9  C   UNL     1      77.013   7.653  17.664  1.00  0.00     0.032 A 
HETATM   10  C   UNL     1      76.736   6.647  16.727  1.00  0.00     0.041 A 
HETATM   11  C   UNL     1      76.891   6.911  15.362  1.00  0.00     0.018 A 
HETATM   12  C   UNL     1      77.323   8.165  14.941  1.00  0.00     0.002 A 
HETATM   13  C   UNL     1      77.608   9.158  15.882  1.00  0.00     0.014 A 
BRANCH  10  14
HETATM   14  C   UNL     1      76.312   5.288  17.135  1.00  0.00     0.209 C 
HETATM   15  O   UNL     1      75.512   4.586  16.545  1.00  0.00    -0.644 OA
HETATM   16  O   UNL     1      76.926   4.859  18.252  1.00  0.00    -0.644 OA
ENDBRANCH  10  14
ENDBRANCH   4   8
BRANCH   1  17
HETATM   17  C   UNL     1      78.451  12.802  21.373  1.00  0.00     0.418 C 
HETATM   18  F   UNL     1      77.583  13.850  21.308  1.00  0.00    -0.166 F 
HETATM   19  F   UNL     1      79.696  13.349  21.398  1.00  0.00    -0.166 F 
HETATM   20  F   UNL     1      78.265  12.243  22.602  1.00  0.00    -0.166 F 
ENDBRANCH   1  17
TORSDOF 3
ENDMDL
MODEL 2
REMARK VINA RESULT:      -7.9      2.187      2.784
REMARK  3 active torsions:
REMARK  status: ('A' for Active; 'I' for Inactive)
REMARK    1  A    between atoms: C_1  and  C_2 
REMARK    2  A    between atoms: C_5  and  C_6 
REMARK    3  A    between atoms: C_8  and  C_9 
ROOT
HETATM    1  C   UNL     1      78.423  11.793  20.536  1.00  0.00     0.063 A 
HETATM    2  N   UNL     1      77.071  10.937  18.728  1.00  0.00    -0.364 N 
ATOM      3  HN  UNL     1      76.195  10.951  18.207  1.00  0.00     0.165 HD
HETATM    4  C   UNL     1      78.077  10.099  18.372  1.00  0.00     0.042 A 
HETATM    5  C   UNL     1      77.259  11.754  19.789  1.00  0.00     0.104 A 
HETATM    6  C   UNL     1      79.468  10.959  20.137  1.00  0.00     0.020 A 
HETATM    7  C   UNL     1      79.297  10.107  19.045  1.00  0.00     0.031 A 
ENDROOT
BRANCH   4   8
HETATM    8  C   UNL     1      77.762   9.157  17.278  1.00  0.00    -0.009 A 
HETATM    9  C   UNL     1      77.937   9.537  15.932  1.00  0.00     0.032 A 
HETATM   10  C   UNL     1      77.564   8.689  14.879  1.00  0.00     0.041 A 
HETATM   11  C   UNL     1      77.024   7.430  15.162  1.00  0.00     0.018 A 
HETATM   12  C   UNL     1      76.853   7.028  16.483  1.00  0.00     0.002 A 
HETATM   13  C   UNL     1      77.216   7.884  17.526  1.00  0.00     0.014 A 
BRANCH  10  14
HETATM   14  C   UNL     1      77.693   9.094  13.460  1.00  0.00     0.209 C 
HETATM   15  O   UNL     1      77.721   8.340  12.506  1.00  0.00    -0.644 OA
HETATM   16  O   UNL     1      77.759  10.427  13.299  1.00  0.00    -0.644 OA
ENDBRANCH  10  14
ENDBRANCH   4   8
BRANCH   1  17
HETATM   17  C   UNL     1      78.542  12.687  21.731  1.00  0.00     0.418 C 
HETATM   18  F   UNL     1      77.732  13.780  21.680  1.00  0.00    -0.166 F 
HETATM   19  F   UNL     1      79.804  13.164  21.904  1.00  0.00    -0.166 F 
HETATM   20  F   UNL     1      78.224  12.044  22.889  1.00  0.00    -0.166 F 
ENDBRANCH   1  17
TORSDOF 3
ENDMDL
MODEL 3
REMARK VINA RESULT:      -7.9      5.037      7.093
REMARK  3 active torsions:
REMARK  status: ('A' for Active; 'I' for Inactive)
REMARK    1  A    between atoms: C_1  and  C_2 
REMARK    2  A    between atoms: C_5  and  C_6 
REMARK    3  A    between atoms: C_8  and  C_9 
ROOT
HETATM    1  C   UNL     1      77.087   7.576  16.644  1.00  0.00     0.063 A 
HETATM    2  N   UNL     1      77.025   8.799  18.725  1.00  0.00    -0.364 N 
ATOM      3  HN  UNL     1      76.871   8.806  19.733  1.00  0.00     0.165 HD
HETATM    4  C   UNL     1      77.375   9.935  18.068  1.00  0.00     0.042 A 
HETATM    5  C   UNL     1      76.887   7.659  18.011  1.00  0.00     0.104 A 
HETATM    6  C   UNL     1      77.488   8.739  15.984  1.00  0.00     0.020 A 
HETATM    7  C   UNL     1      77.636   9.926  16.700  1.00  0.00     0.031 A 
ENDROOT
BRANCH   4   8
HETATM    8  C   UNL     1      77.396  11.162  18.890  1.00  0.00    -0.009 A 
HETATM    9  C   UNL     1      78.310  11.297  19.954  1.00  0.00     0.032 A 
HETATM   10  C   UNL     1      78.290  12.417  20.798  1.00  0.00     0.041 A 
HETATM   11  C   UNL     1      77.358  13.435  20.573  1.00  0.00     0.018 A 
HETATM   12  C   UNL     1      76.453  13.331  19.521  1.00  0.00     0.002 A 
HETATM   13  C   UNL     1      76.473  12.206  18.693  1.00  0.00     0.014 A 
BRANCH  10  14
HETATM   14  C   UNL     1      79.209  12.549  21.952  1.00  0.00     0.209 C 
HETATM   15  O   UNL     1      80.287  13.111  21.942  1.00  0.00    -0.644 OA
HETATM   16  O   UNL     1      78.724  11.990  23.076  1.00  0.00    -0.644 OA
ENDBRANCH  10  14
ENDBRANCH   4   8
BRANCH   1  17
HETATM   17  C   UNL     1      76.866   6.290  15.910  1.00  0.00     0.418 C 
HETATM   18  F   UNL     1      75.561   5.903  15.865  1.00  0.00    -0.166 F 
HETATM   19  F   UNL     1      77.546   5.249  16.462  1.00  0.00    -0.166 F 
HETATM   20  F   UNL     1      77.277   6.359  14.613  1.00  0.00    -0.166 F 
ENDBRANCH   1  17
TORSDOF 3
ENDMDL
MODEL 4
REMARK VINA RESULT:      -7.8      6.257      8.144
REMARK  3 active torsions:
REMARK  status: ('A' for Active; 'I' for Inactive)
REMARK    1  A    between atoms: C_1  and  C_2 
REMARK    2  A    between atoms: C_5  and  C_6 
REMARK    3  A    between atoms: C_8  and  C_9 
ROOT
HETATM    1  C   UNL     1      75.382   2.511  17.336  1.00  0.00     0.063 A 
HETATM    2  N   UNL     1      74.997   4.801  16.675  1.00  0.00    -0.364 N 
ATOM      3  HN  UNL     1      74.384   5.501  16.260  1.00  0.00     0.165 HD
HETATM    4  C   UNL     1      76.227   5.142  17.138  1.00  0.00     0.042 A 
HETATM    5  C   UNL     1      74.605   3.511  16.779  1.00  0.00     0.104 A 
HETATM    6  C   UNL     1      76.627   2.878  17.848  1.00  0.00     0.020 A 
HETATM    7  C   UNL     1      77.053   4.203  17.752  1.00  0.00     0.031 A 
ENDROOT
BRANCH   4   8
HETATM    8  C   UNL     1      76.633   6.540  16.891  1.00  0.00    -0.009 A 
HETATM    9  C   UNL     1      76.863   6.998  15.578  1.00  0.00     0.032 A 
HETATM   10  C   UNL     1      77.330   8.297  15.329  1.00  0.00     0.041 A 
HETATM   11  C   UNL     1      77.557   9.168  16.399  1.00  0.00     0.018 A 
HETATM   12  C   UNL     1      77.325   8.743  17.704  1.00  0.00     0.002 A 
HETATM   13  C   UNL     1      76.871   7.444  17.944  1.00  0.00     0.014 A 
BRANCH  10  14
HETATM   14  C   UNL     1      77.627   8.777  13.959  1.00  0.00     0.209 C 
HETATM   15  O   UNL     1      77.649   8.091  12.955  1.00  0.00    -0.644 OA
HETATM   16  O   UNL     1      77.860  10.100  13.906  1.00  0.00    -0.644 OA
ENDBRANCH  10  14
ENDBRANCH   4   8
BRANCH   1  17
HETATM   17  C   UNL     1      74.904   1.093  17.369  1.00  0.00     0.418 C 
HETATM   18  F   UNL     1      75.899   0.175  17.220  1.00  0.00    -0.166 F 
HETATM   19  F   UNL     1      73.997   0.823  16.392  1.00  0.00    -0.166 F 
HETATM   20  F   UNL     1      74.288   0.784  18.545  1.00  0.00    -0.166 F 
ENDBRANCH   1  17
TORSDOF 3
ENDMDL
MODEL 5
REMARK VINA RESULT:      -7.4      5.909      7.891
REMARK  3 active torsions:
REMARK  status: ('A' for Active; 'I' for Inactive)
REMARK    1  A    between atoms: C_1  and  C_2 
REMARK    2  A    between atoms: C_5  and  C_6 
REMARK    3  A    between atoms: C_8  and  C_9 
ROOT
HETATM    1  C   UNL     1      75.445   2.831  17.273  1.00  0.00     0.063 A 
HETATM    2  N   UNL     1      75.220   5.004  16.245  1.00  0.00    -0.364 N 
ATOM      3  HN  UNL     1      74.693   5.640  15.647  1.00  0.00     0.165 HD
HETATM    4  C   UNL     1      76.377   5.402  16.833  1.00  0.00     0.042 A 
HETATM    5  C   UNL     1      74.784   3.744  16.470  1.00  0.00     0.104 A 
HETATM    6  C   UNL     1      76.610   3.263  17.908  1.00  0.00     0.020 A 
HETATM    7  C   UNL     1      77.080   4.558  17.690  1.00  0.00     0.031 A 
ENDROOT
BRANCH   4   8
HETATM    8  C   UNL     1      76.851   6.748  16.453  1.00  0.00    -0.009 A 
HETATM    9  C   UNL     1      77.056   7.740  17.433  1.00  0.00     0.032 A 
HETATM   10  C   UNL     1      77.424   9.047  17.084  1.00  0.00     0.041 A 
HETATM   11  C   UNL     1      77.614   9.377  15.738  1.00  0.00     0.018 A 
HETATM   12  C   UNL     1      77.431   8.412  14.753  1.00  0.00     0.002 A 
HETATM   13  C   UNL     1      77.052   7.115  15.108  1.00  0.00     0.014 A 
BRANCH  10  14
HETATM   14  C   UNL     1      77.591  10.114  18.097  1.00  0.00     0.209 C 
HETATM   15  O   UNL     1      77.140  11.242  18.024  1.00  0.00    -0.644 OA
HETATM   16  O   UNL     1      78.297   9.714  19.170  1.00  0.00    -0.644 OA
ENDBRANCH  10  14
ENDBRANCH   4   8
BRANCH   1  17
HETATM   17  C   UNL     1      74.930   1.435  17.436  1.00  0.00     0.418 C 
HETATM   18  F   UNL     1      73.935   1.112  16.564  1.00  0.00    -0.166 F 
HETATM   19  F   UNL     1      74.428   1.204  18.679  1.00  0.00    -0.166 F 
HETATM   20  F   UNL     1      75.904   0.501  17.249  1.00  0.00    -0.166 F 
ENDBRANCH   1  17
TORSDOF 3
ENDMDL
MODEL 6
REMARK VINA RESULT:      -7.4      3.765      5.543
REMARK  3 active torsions:
REMARK  status: ('A' for Active; 'I' for Inactive)
REMARK    1  A    between atoms: C_1  and  C_2 
REMARK    2  A    between atoms: C_5  and  C_6 
REMARK    3  A    between atoms: C_8  and  C_9 
ROOT
HETATM    1  C   UNL     1      77.292   8.330  16.278  1.00  0.00     0.063 A 
HETATM    2  N   UNL     1      76.649   6.587  17.820  1.00  0.00    -0.364 N 
ATOM      3  HN  UNL     1      76.490   6.281  18.780  1.00  0.00     0.165 HD
HETATM    4  C   UNL     1      76.451   5.738  16.780  1.00  0.00     0.042 A 
HETATM    5  C   UNL     1      77.063   7.846  17.554  1.00  0.00     0.104 A 
HETATM    6  C   UNL     1      77.045   7.464  15.212  1.00  0.00     0.020 A 
HETATM    7  C   UNL     1      76.618   6.160  15.462  1.00  0.00     0.031 A 
ENDROOT
BRANCH   4   8
HETATM    8  C   UNL     1      76.111   4.349  17.149  1.00  0.00    -0.009 A 
HETATM    9  C   UNL     1      77.020   3.558  17.879  1.00  0.00     0.032 A 
HETATM   10  C   UNL     1      76.751   2.212  18.167  1.00  0.00     0.041 A 
HETATM   11  C   UNL     1      75.547   1.641  17.740  1.00  0.00     0.018 A 
HETATM   12  C   UNL     1      74.628   2.405  17.029  1.00  0.00     0.002 A 
HETATM   13  C   UNL     1      74.909   3.742  16.736  1.00  0.00     0.014 A 
BRANCH  10  14
HETATM   14  C   UNL     1      77.718   1.353  18.887  1.00  0.00     0.209 C 
HETATM   15  O   UNL     1      78.083   0.246  18.538  1.00  0.00    -0.644 OA
HETATM   16  O   UNL     1      78.205   1.929  20.001  1.00  0.00    -0.644 OA
ENDBRANCH  10  14
ENDBRANCH   4   8
BRANCH   1  17
HETATM   17  C   UNL     1      77.800   9.721  16.061  1.00  0.00     0.418 C 
HETATM   18  F   UNL     1      79.159   9.814  16.054  1.00  0.00    -0.166 F 
HETATM   19  F   UNL     1      77.371  10.589  17.016  1.00  0.00    -0.166 F 
HETATM   20  F   UNL     1      77.387  10.241  14.872  1.00  0.00    -0.166 F 
ENDBRANCH   1  17
TORSDOF 3
ENDMDL
MODEL 7
REMARK VINA RESULT:      -7.3     16.221     18.113
REMARK  3 active torsions:
REMARK  status: ('A' for Active; 'I' for Inactive)
REMARK    1  A    between atoms: C_1  and  C_2 
REMARK    2  A    between atoms: C_5  and  C_6 
REMARK    3  A    between atoms: C_8  and  C_9 
ROOT
HETATM    1  C   UNL     1      67.787   5.973   7.489  1.00  0.00     0.063 A 
HETATM    2  N   UNL     1      65.919   7.446   7.079  1.00  0.00    -0.364 N 
ATOM      3  HN  UNL     1      65.218   8.092   7.440  1.00  0.00     0.165 HD
HETATM    4  C   UNL     1      65.983   7.159   5.754  1.00  0.00     0.042 A 
HETATM    5  C   UNL     1      66.807   6.854   7.909  1.00  0.00     0.104 A 
HETATM    6  C   UNL     1      67.873   5.717   6.120  1.00  0.00     0.020 A 
HETATM    7  C   UNL     1      66.968   6.316   5.244  1.00  0.00     0.031 A 
ENDROOT
BRANCH   4   8
HETATM    8  C   UNL     1      64.914   7.751   4.924  1.00  0.00    -0.009 A 
HETATM    9  C   UNL     1      64.339   8.990   5.271  1.00  0.00     0.032 A 
HETATM   10  C   UNL     1      63.267   9.527   4.545  1.00  0.00     0.041 A 
HETATM   11  C   UNL     1      62.763   8.834   3.440  1.00  0.00     0.018 A 
HETATM   12  C   UNL     1      63.322   7.615   3.069  1.00  0.00     0.002 A 
HETATM   13  C   UNL     1      64.382   7.081   3.806  1.00  0.00     0.014 A 
BRANCH  10  14
HETATM   14  C   UNL     1      62.618  10.802   4.928  1.00  0.00     0.209 C 
HETATM   15  O   UNL     1      61.816  11.422   4.256  1.00  0.00    -0.644 OA
HETATM   16  O   UNL     1      62.986  11.233   6.148  1.00  0.00    -0.644 OA
ENDBRANCH  10  14
ENDBRANCH   4   8
BRANCH   1  17
HETATM   17  C   UNL     1      68.704   5.315   8.473  1.00  0.00     0.418 C 
HETATM   18  F   UNL     1      68.337   5.497   9.771  1.00  0.00    -0.166 F 
HETATM   19  F   UNL     1      69.984   5.766   8.378  1.00  0.00    -0.166 F 
HETATM   20  F   UNL     1      68.771   3.966   8.292  1.00  0.00    -0.166 F 
ENDBRANCH   1  17
TORSDOF 3
ENDMDL
MODEL 8
REMARK VINA RESULT:      -7.1      5.410      7.792
REMARK  3 active torsions:
REMARK  status: ('A' for Active; 'I' for Inactive)
REMARK    1  A    between atoms: C_1  and  C_2 
REMARK    2  A    between atoms: C_5  and  C_6 
REMARK    3  A    between atoms: C_8  and  C_9 
ROOT
HETATM    1  C   UNL     1      77.250  12.389  19.599  1.00  0.00     0.063 A 
HETATM    2  N   UNL     1      78.991  11.522  21.030  1.00  0.00    -0.364 N 
ATOM      3  HN  UNL     1      79.732  10.841  21.193  1.00  0.00     0.165 HD
HETATM    4  C   UNL     1      78.708  12.476  21.953  1.00  0.00     0.042 A 
HETATM    5  C   UNL     1      78.265  11.495  19.889  1.00  0.00     0.104 A 
HETATM    6  C   UNL     1      76.995  13.393  20.534  1.00  0.00     0.020 A 
HETATM    7  C   UNL     1      77.730  13.441  21.718  1.00  0.00     0.031 A 
ENDROOT
BRANCH   4   8
HETATM    8  C   UNL     1      79.460  12.376  23.220  1.00  0.00    -0.009 A 
HETATM    9  C   UNL     1      78.938  11.648  24.308  1.00  0.00     0.032 A 
HETATM   10  C   UNL     1      79.597  11.611  25.546  1.00  0.00     0.041 A 
HETATM   11  C   UNL     1      80.807  12.293  25.706  1.00  0.00     0.018 A 
HETATM   12  C   UNL     1      81.349  13.008  24.643  1.00  0.00     0.002 A 
HETATM   13  C   UNL     1      80.680  13.050  23.417  1.00  0.00     0.014 A 
BRANCH  10  14
HETATM   14  C   UNL     1      79.036  10.894  26.714  1.00  0.00     0.209 C 
HETATM   15  O   UNL     1      78.044  11.220  27.339  1.00  0.00    -0.644 OA
HETATM   16  O   UNL     1      79.729   9.787  27.034  1.00  0.00    -0.644 OA
ENDBRANCH  10  14
ENDBRANCH   4   8
BRANCH   1  17
HETATM   17  C   UNL     1      76.454  12.267  18.337  1.00  0.00     0.418 C 
HETATM   18  F   UNL     1      76.655  11.095  17.673  1.00  0.00    -0.166 F 
HETATM   19  F   UNL     1      76.733  13.255  17.445  1.00  0.00    -0.166 F 
HETATM   20  F   UNL     1      75.113  12.339  18.565  1.00  0.00    -0.166 F 
ENDBRANCH   1  17
TORSDOF 3
ENDMDL
MODEL 9
REMARK VINA RESULT:      -6.7      6.893      9.193
REMARK  3 active torsions:
REMARK  status: ('A' for Active; 'I' for Inactive)
REMARK    1  A    between atoms: C_1  and  C_2 
REMARK    2  A    between atoms: C_5  and  C_6 
REMARK    3  A    between atoms: C_8  and  C_9 
ROOT
HETATM    1  C   UNL     1      78.880   0.015  20.079  1.00  0.00     0.063 A 
HETATM    2  N   UNL     1      78.093   2.251  19.619  1.00  0.00    -0.364 N 
ATOM      3  HN  UNL     1      78.064   3.239  19.872  1.00  0.00     0.165 HD
HETATM    4  C   UNL     1      77.432   1.795  18.526  1.00  0.00     0.042 A 
HETATM    5  C   UNL     1      78.792   1.366  20.366  1.00  0.00     0.104 A 
HETATM    6  C   UNL     1      78.232  -0.438  18.929  1.00  0.00     0.020 A 
HETATM    7  C   UNL     1      77.505   0.457  18.144  1.00  0.00     0.031 A 
ENDROOT
BRANCH   4   8
HETATM    8  C   UNL     1      76.600   2.794  17.825  1.00  0.00    -0.009 A 
HETATM    9  C   UNL     1      77.035   4.128  17.698  1.00  0.00     0.032 A 
HETATM   10  C   UNL     1      76.223   5.109  17.111  1.00  0.00     0.041 A 
HETATM   11  C   UNL     1      74.960   4.759  16.620  1.00  0.00     0.018 A 
HETATM   12  C   UNL     1      74.513   3.446  16.722  1.00  0.00     0.002 A 
HETATM   13  C   UNL     1      75.324   2.477  17.320  1.00  0.00     0.014 A 
BRANCH  10  14
HETATM   14  C   UNL     1      76.644   6.526  17.017  1.00  0.00     0.209 C 
HETATM   15  O   UNL     1      76.944   7.112  15.995  1.00  0.00    -0.644 OA
HETATM   16  O   UNL     1      76.647   7.152  18.208  1.00  0.00    -0.644 OA
ENDBRANCH  10  14
ENDBRANCH   4   8
BRANCH   1  17
HETATM   17  C   UNL     1      79.629  -0.916  20.980  1.00  0.00     0.418 C 
HETATM   18  F   UNL     1      80.101  -0.323  22.111  1.00  0.00    -0.166 F 
HETATM   19  F   UNL     1      80.709  -1.476  20.372  1.00  0.00    -0.166 F 
HETATM   20  F   UNL     1      78.857  -1.958  21.401  1.00  0.00    -0.166 F 
ENDBRANCH   1  17
TORSDOF 3
ENDMDL
