MODEL 1
REMARK VINA RESULT:      -3.6      0.000      0.000
REMARK  3 active torsions:
REMARK  status: ('A' for Active; 'I' for Inactive)
REMARK    1  A    between atoms: C_1  and  C_7 
REMARK    2  A    between atoms: C_2  and  O_6 
REMARK    3  A    between atoms: C_7  and  N_8 
ROOT
HETATM    1  C   UNL     1      76.745   2.001  18.123  1.00  0.00     0.041 A 
HETATM    2  C   UNL     1      76.286   3.209  17.630  1.00  0.00     0.083 A 
HETATM    3  S   UNL     1      75.686   0.714  17.706  1.00  0.00    -0.102 SA
HETATM    4  C   UNL     1      75.077   3.065  16.889  1.00  0.00     0.045 A 
HETATM    5  C   UNL     1      74.639   1.759  16.859  1.00  0.00     0.053 A 
ENDROOT
BRANCH   1   6
HETATM    6  C   UNL     1      77.979   1.709  18.919  1.00  0.00     0.278 C 
BRANCH   6   7
HETATM    7  N   UNL     1      78.121   2.653  20.024  1.00  0.00    -0.075 N 
HETATM    8  H   UNL     1      77.634   2.292  20.844  1.00  0.00     0.274 HD
HETATM    9  H   UNL     1      77.719   3.552  19.758  1.00  0.00     0.274 HD
HETATM   10  H   UNL     1      79.110   2.774  20.243  1.00  0.00     0.274 HD
ENDBRANCH   6   7
ENDBRANCH   1   6
BRANCH   2  11
HETATM   11  O   UNL     1      77.001   4.344  17.855  1.00  0.00    -0.355 OA
HETATM   12  C   UNL     1      76.363   5.538  17.419  1.00  0.00     0.210 C 
ENDBRANCH   2  11
TORSDOF 3
ENDMDL
MODEL 2
REMARK VINA RESULT:      -3.6     18.766     19.667
REMARK  3 active torsions:
REMARK  status: ('A' for Active; 'I' for Inactive)
REMARK    1  A    between atoms: C_1  and  C_7 
REMARK    2  A    between atoms: C_2  and  O_6 
REMARK    3  A    between atoms: C_7  and  N_8 
ROOT
HETATM    1  C   UNL     1      62.861   9.724   4.603  1.00  0.00     0.041 A 
HETATM    2  C   UNL     1      63.923   8.864   4.818  1.00  0.00     0.083 A 
HETATM    3  S   UNL     1      61.652   8.991   3.627  1.00  0.00    -0.102 SA
HETATM    4  C   UNL     1      63.724   7.595   4.199  1.00  0.00     0.045 A 
HETATM    5  C   UNL     1      62.532   7.534   3.513  1.00  0.00     0.053 A 
ENDROOT
BRANCH   1   6
HETATM    6  C   UNL     1      62.659  11.122   5.097  1.00  0.00     0.278 C 
BRANCH   6   7
HETATM    7  N   UNL     1      63.235  11.292   6.429  1.00  0.00    -0.075 N 
HETATM    8  H   UNL     1      63.328  12.287   6.634  1.00  0.00     0.274 HD
HETATM    9  H   UNL     1      64.155  10.851   6.460  1.00  0.00     0.274 HD
HETATM   10  H   UNL     1      62.625  10.859   7.122  1.00  0.00     0.274 HD
ENDBRANCH   6   7
ENDBRANCH   1   6
BRANCH   2  11
HETATM   11  O   UNL     1      64.976   9.270   5.579  1.00  0.00    -0.355 OA
HETATM   12  C   UNL     1      65.916   8.245   5.877  1.00  0.00     0.210 C 
ENDBRANCH   2  11
TORSDOF 3
ENDMDL
MODEL 3
REMARK VINA RESULT:      -3.4     20.225     21.044
REMARK  3 active torsions:
REMARK  status: ('A' for Active; 'I' for Inactive)
REMARK    1  A    between atoms: C_1  and  C_7 
REMARK    2  A    between atoms: C_2  and  O_6 
REMARK    3  A    between atoms: C_7  and  N_8 
ROOT
HETATM    1  C   UNL     1      62.734   9.342   4.620  1.00  0.00     0.041 A 
HETATM    2  C   UNL     1      61.762   9.828   3.763  1.00  0.00     0.083 A 
HETATM    3  S   UNL     1      62.676   7.628   4.722  1.00  0.00    -0.102 SA
HETATM    4  C   UNL     1      60.990   8.783   3.175  1.00  0.00     0.045 A 
HETATM    5  C   UNL     1      61.379   7.538   3.618  1.00  0.00     0.053 A 
ENDROOT
BRANCH   1   6
HETATM    6  C   UNL     1      63.764  10.091   5.406  1.00  0.00     0.278 C 
BRANCH   6   7
HETATM    7  N   UNL     1      63.194  11.304   5.989  1.00  0.00    -0.075 N 
HETATM    8  H   UNL     1      63.652  12.121   5.586  1.00  0.00     0.274 HD
HETATM    9  H   UNL     1      63.339  11.296   6.999  1.00  0.00     0.274 HD
HETATM   10  H   UNL     1      62.195  11.341   5.788  1.00  0.00     0.274 HD
ENDBRANCH   6   7
ENDBRANCH   1   6
BRANCH   2  11
HETATM   11  O   UNL     1      61.661  11.167   3.549  1.00  0.00    -0.355 OA
HETATM   12  C   UNL     1      61.791  11.557   2.187  1.00  0.00     0.210 C 
ENDBRANCH   2  11
TORSDOF 3
ENDMDL
MODEL 4
REMARK VINA RESULT:      -3.4     30.730     31.534
REMARK  3 active torsions:
REMARK  status: ('A' for Active; 'I' for Inactive)
REMARK    1  A    between atoms: C_1  and  C_7 
REMARK    2  A    between atoms: C_2  and  O_6 
REMARK    3  A    between atoms: C_7  and  N_8 
ROOT
HETATM    1  C   UNL     1      51.991  21.461  20.828  1.00  0.00     0.041 A 
HETATM    2  C   UNL     1      50.719  21.505  20.285  1.00  0.00     0.083 A 
HETATM    3  S   UNL     1      52.104  20.266  22.057  1.00  0.00    -0.102 SA
HETATM    4  C   UNL     1      49.850  20.536  20.867  1.00  0.00     0.045 A 
HETATM    5  C   UNL     1      50.476  19.801  21.849  1.00  0.00     0.053 A 
ENDROOT
BRANCH   1   6
HETATM    6  C   UNL     1      53.197  22.276  20.483  1.00  0.00     0.278 C 
BRANCH   6   7
HETATM    7  N   UNL     1      53.276  22.507  19.042  1.00  0.00    -0.075 N 
HETATM    8  H   UNL     1      52.336  22.622  18.665  1.00  0.00     0.274 HD
HETATM    9  H   UNL     1      53.727  21.708  18.594  1.00  0.00     0.274 HD
HETATM   10  H   UNL     1      53.820  23.350  18.862  1.00  0.00     0.274 HD
ENDBRANCH   6   7
ENDBRANCH   1   6
BRANCH   2  11
HETATM   11  O   UNL     1      50.442  22.388  19.288  1.00  0.00    -0.355 OA
HETATM   12  C   UNL     1      49.149  22.242  18.714  1.00  0.00     0.210 C 
ENDBRANCH   2  11
TORSDOF 3
ENDMDL
MODEL 5
REMARK VINA RESULT:      -3.3      1.899      2.939
REMARK  3 active torsions:
REMARK  status: ('A' for Active; 'I' for Inactive)
REMARK    1  A    between atoms: C_1  and  C_7 
REMARK    2  A    between atoms: C_2  and  O_6 
REMARK    3  A    between atoms: C_7  and  N_8 
ROOT
HETATM    1  C   UNL     1      76.189   2.507  17.630  1.00  0.00     0.041 A 
HETATM    2  C   UNL     1      76.597   1.187  17.572  1.00  0.00     0.083 A 
HETATM    3  S   UNL     1      74.663   2.723  16.871  1.00  0.00    -0.102 SA
HETATM    4  C   UNL     1      75.639   0.353  16.924  1.00  0.00     0.045 A 
HETATM    5  C   UNL     1      74.543   1.065  16.489  1.00  0.00     0.053 A 
ENDROOT
BRANCH   1   6
HETATM    6  C   UNL     1      76.877   3.686  18.244  1.00  0.00     0.278 C 
BRANCH   6   7
HETATM    7  N   UNL     1      77.420   3.346  19.557  1.00  0.00    -0.075 N 
HETATM    8  H   UNL     1      77.588   4.201  20.087  1.00  0.00     0.274 HD
HETATM    9  H   UNL     1      78.299   2.841  19.441  1.00  0.00     0.274 HD
HETATM   10  H   UNL     1      76.754   2.760  20.060  1.00  0.00     0.274 HD
ENDBRANCH   6   7
ENDBRANCH   1   6
BRANCH   2  11
HETATM   11  O   UNL     1      77.783   0.823  18.130  1.00  0.00    -0.355 OA
HETATM   12  C   UNL     1      77.720  -0.348  18.936  1.00  0.00     0.210 C 
ENDBRANCH   2  11
TORSDOF 3
ENDMDL
MODEL 6
REMARK VINA RESULT:      -3.3     14.244     15.153
REMARK  3 active torsions:
REMARK  status: ('A' for Active; 'I' for Inactive)
REMARK    1  A    between atoms: C_1  and  C_7 
REMARK    2  A    between atoms: C_2  and  O_6 
REMARK    3  A    between atoms: C_7  and  N_8 
ROOT
HETATM    1  C   UNL     1      67.455   6.025   6.828  1.00  0.00     0.041 A 
HETATM    2  C   UNL     1      66.563   6.802   7.545  1.00  0.00     0.083 A 
HETATM    3  S   UNL     1      68.564   5.227   7.869  1.00  0.00    -0.102 SA
HETATM    4  C   UNL     1      66.782   6.718   8.951  1.00  0.00     0.045 A 
HETATM    5  C   UNL     1      67.846   5.900   9.262  1.00  0.00     0.053 A 
ENDROOT
BRANCH   1   6
HETATM    6  C   UNL     1      67.549   5.809   5.350  1.00  0.00     0.278 C 
BRANCH   6   7
HETATM    7  N   UNL     1      67.779   7.073   4.653  1.00  0.00    -0.075 N 
HETATM    8  H   UNL     1      68.776   7.185   4.473  1.00  0.00     0.274 HD
HETATM    9  H   UNL     1      67.448   7.845   5.232  1.00  0.00     0.274 HD
HETATM   10  H   UNL     1      67.272   7.070   3.768  1.00  0.00     0.274 HD
ENDBRANCH   6   7
ENDBRANCH   1   6
BRANCH   2  11
HETATM   11  O   UNL     1      65.601   7.504   6.887  1.00  0.00    -0.355 OA
HETATM   12  C   UNL     1      64.394   6.784   6.666  1.00  0.00     0.210 C 
ENDBRANCH   2  11
TORSDOF 3
ENDMDL
MODEL 7
REMARK VINA RESULT:      -3.2     17.890     18.690
REMARK  3 active torsions:
REMARK  status: ('A' for Active; 'I' for Inactive)
REMARK    1  A    between atoms: C_1  and  C_7 
REMARK    2  A    between atoms: C_2  and  O_6 
REMARK    3  A    between atoms: C_7  and  N_8 
ROOT
HETATM    1  C   UNL     1      65.023   7.978   4.712  1.00  0.00     0.041 A 
HETATM    2  C   UNL     1      64.023   8.925   4.835  1.00  0.00     0.083 A 
HETATM    3  S   UNL     1      64.571   6.730   3.621  1.00  0.00    -0.102 SA
HETATM    4  C   UNL     1      62.897   8.632   4.010  1.00  0.00     0.045 A 
HETATM    5  C   UNL     1      63.064   7.461   3.304  1.00  0.00     0.053 A 
ENDROOT
BRANCH   1   6
HETATM    6  C   UNL     1      66.366   7.926   5.371  1.00  0.00     0.278 C 
BRANCH   6   7
HETATM    7  N   UNL     1      66.252   8.180   6.805  1.00  0.00    -0.075 N 
HETATM    8  H   UNL     1      65.798   9.081   6.956  1.00  0.00     0.274 HD
HETATM    9  H   UNL     1      67.183   8.195   7.223  1.00  0.00     0.274 HD
HETATM   10  H   UNL     1      65.697   7.443   7.238  1.00  0.00     0.274 HD
ENDBRANCH   6   7
ENDBRANCH   1   6
BRANCH   2  11
HETATM   11  O   UNL     1      64.206   9.996   5.652  1.00  0.00    -0.355 OA
HETATM   12  C   UNL     1      63.131  10.928   5.653  1.00  0.00     0.210 C 
ENDBRANCH   2  11
TORSDOF 3
ENDMDL
MODEL 8
REMARK VINA RESULT:      -3.2      2.626      3.245
REMARK  3 active torsions:
REMARK  status: ('A' for Active; 'I' for Inactive)
REMARK    1  A    between atoms: C_1  and  C_7 
REMARK    2  A    between atoms: C_2  and  O_6 
REMARK    3  A    between atoms: C_7  and  N_8 
ROOT
HETATM    1  C   UNL     1      74.203  -0.148  17.951  1.00  0.00     0.041 A 
HETATM    2  C   UNL     1      74.715   1.078  17.567  1.00  0.00     0.083 A 
HETATM    3  S   UNL     1      73.719  -1.077  16.590  1.00  0.00    -0.102 SA
HETATM    4  C   UNL     1      74.730   1.237  16.150  1.00  0.00     0.045 A 
HETATM    5  C   UNL     1      74.208   0.140  15.500  1.00  0.00     0.053 A 
ENDROOT
BRANCH   1   6
HETATM    6  C   UNL     1      74.042  -0.719  19.325  1.00  0.00     0.278 C 
BRANCH   6   7
HETATM    7  N   UNL     1      75.327  -0.782  20.017  1.00  0.00    -0.075 N 
HETATM    8  H   UNL     1      75.215  -0.447  20.973  1.00  0.00     0.274 HD
HETATM    9  H   UNL     1      76.006  -0.197  19.528  1.00  0.00     0.274 HD
HETATM   10  H   UNL     1      75.658  -1.747  20.032  1.00  0.00     0.274 HD
ENDBRANCH   6   7
ENDBRANCH   1   6
BRANCH   2  11
HETATM   11  O   UNL     1      75.159   1.950  18.512  1.00  0.00    -0.355 OA
HETATM   12  C   UNL     1      76.356   2.636  18.165  1.00  0.00     0.210 C 
ENDBRANCH   2  11
TORSDOF 3
ENDMDL
MODEL 9
REMARK VINA RESULT:      -3.1     11.810     12.666
REMARK  3 active torsions:
REMARK  status: ('A' for Active; 'I' for Inactive)
REMARK    1  A    between atoms: C_1  and  C_7 
REMARK    2  A    between atoms: C_2  and  O_6 
REMARK    3  A    between atoms: C_7  and  N_8 
ROOT
HETATM    1  C   UNL     1      68.352   3.359   8.583  1.00  0.00     0.041 A 
HETATM    2  C   UNL     1      68.092   4.687   8.296  1.00  0.00     0.083 A 
HETATM    3  S   UNL     1      68.286   2.390   7.167  1.00  0.00    -0.102 SA
HETATM    4  C   UNL     1      67.865   4.905   6.906  1.00  0.00     0.045 A 
HETATM    5  C   UNL     1      67.934   3.735   6.180  1.00  0.00     0.053 A 
ENDROOT
BRANCH   1   6
HETATM    6  C   UNL     1      68.669   2.719   9.898  1.00  0.00     0.278 C 
BRANCH   6   7
HETATM    7  N   UNL     1      69.783   3.399  10.554  1.00  0.00    -0.075 N 
HETATM    8  H   UNL     1      70.021   4.242  10.032  1.00  0.00     0.274 HD
HETATM    9  H   UNL     1      70.591   2.777  10.584  1.00  0.00     0.274 HD
HETATM   10  H   UNL     1      69.514   3.654  11.504  1.00  0.00     0.274 HD
ENDBRANCH   6   7
ENDBRANCH   1   6
BRANCH   2  11
HETATM   11  O   UNL     1      68.108   5.609   9.296  1.00  0.00    -0.355 OA
HETATM   12  C   UNL     1      67.013   6.517   9.279  1.00  0.00     0.210 C 
ENDBRANCH   2  11
TORSDOF 3
ENDMDL
