MODEL 1
REMARK VINA RESULT:      -6.6      0.000      0.000
REMARK  4 active torsions:
REMARK  status: ('A' for Active; 'I' for Inactive)
REMARK    1  A    between atoms: C_1  and  N_6 
REMARK    2  A    between atoms: N_6  and  C_10 
REMARK    3  A    between atoms: C_7  and  C_12 
REMARK    4  A    between atoms: N_11  and  C_12 
ROOT
HETATM    1  C   UNL     1      79.903  12.034  22.210  1.00  0.00     0.682 A 
HETATM    2  N   UNL     1      79.208  11.765  23.326  1.00  0.00    -0.201 N 
ATOM      3  HN  UNL     1      78.368  11.186  23.308  1.00  0.00     0.183 HD
HETATM    4  N   UNL     1      81.024  12.774  22.196  1.00  0.00    -0.201 N 
ATOM      5  HN  UNL     1      81.515  12.971  21.325  1.00  0.00     0.183 HD
HETATM    6  C   UNL     1      80.834  13.045  24.567  1.00  0.00    -0.001 A 
HETATM    7  C   UNL     1      79.678  12.301  24.474  1.00  0.00     0.116 A 
HETATM    8  C   UNL     1      81.476  13.246  23.368  1.00  0.00     0.116 A 
ENDROOT
BRANCH   1   9
HETATM    9  N   UNL     1      79.451  11.468  21.020  1.00  0.00    -0.192 N 
HETATM   10  H   UNL     1      79.971  10.705  20.680  1.00  0.00     0.184 HD
BRANCH   9  11
HETATM   11  C   UNL     1      78.346  11.850  20.248  1.00  0.00     0.049 A 
HETATM   12  C   UNL     1      77.820  10.962  19.302  1.00  0.00     0.030 A 
HETATM   13  C   UNL     1      76.776  11.353  18.458  1.00  0.00     0.002 A 
HETATM   14  C   UNL     1      76.233  12.633  18.560  1.00  0.00     0.000 A 
HETATM   15  C   UNL     1      76.735  13.523  19.503  1.00  0.00     0.002 A 
HETATM   16  C   UNL     1      77.790  13.134  20.330  1.00  0.00     0.030 A 
ENDBRANCH   9  11
ENDBRANCH   1   9
BRANCH   6  17
HETATM   17  C   UNL     1      81.361  13.590  25.849  1.00  0.00     0.271 C 
BRANCH  17  18
HETATM   18  N   UNL     1      80.882  14.945  26.088  1.00  0.00    -0.075 N 
HETATM   19  H   UNL     1      79.865  14.938  26.159  1.00  0.00     0.274 HD
HETATM   20  H   UNL     1      81.165  15.547  25.314  1.00  0.00     0.274 HD
HETATM   21  H   UNL     1      81.281  15.299  26.956  1.00  0.00     0.274 HD
ENDBRANCH  17  18
ENDBRANCH   6  17
TORSDOF 4
ENDMDL
MODEL 2
REMARK VINA RESULT:      -5.6     19.606     22.967
REMARK  4 active torsions:
REMARK  status: ('A' for Active; 'I' for Inactive)
REMARK    1  A    between atoms: C_1  and  N_6 
REMARK    2  A    between atoms: N_6  and  C_10 
REMARK    3  A    between atoms: C_7  and  C_12 
REMARK    4  A    between atoms: N_11  and  C_12 
ROOT
HETATM    1  C   UNL     1      64.165   8.152   5.994  1.00  0.00     0.682 A 
HETATM    2  N   UNL     1      65.339   8.712   5.668  1.00  0.00    -0.201 N 
ATOM      3  HN  UNL     1      65.390   9.581   5.136  1.00  0.00     0.183 HD
HETATM    4  N   UNL     1      64.058   7.019   6.709  1.00  0.00    -0.201 N 
ATOM      5  HN  UNL     1      63.146   6.615   6.923  1.00  0.00     0.183 HD
HETATM    6  C   UNL     1      66.445   6.918   6.843  1.00  0.00    -0.001 A 
HETATM    7  C   UNL     1      66.452   8.065   6.079  1.00  0.00     0.116 A 
HETATM    8  C   UNL     1      65.191   6.439   7.134  1.00  0.00     0.116 A 
ENDROOT
BRANCH   1   9
HETATM    9  N   UNL     1      63.006   8.818   5.603  1.00  0.00    -0.192 N 
HETATM   10  H   UNL     1      62.325   8.945   6.302  1.00  0.00     0.184 HD
BRANCH   9  11
HETATM   11  C   UNL     1      62.690   9.329   4.337  1.00  0.00     0.049 A 
HETATM   12  C   UNL     1      62.259  10.656   4.213  1.00  0.00     0.030 A 
HETATM   13  C   UNL     1      61.853  11.162   2.974  1.00  0.00     0.002 A 
HETATM   14  C   UNL     1      61.887  10.352   1.840  1.00  0.00     0.000 A 
HETATM   15  C   UNL     1      62.323   9.036   1.944  1.00  0.00     0.002 A 
HETATM   16  C   UNL     1      62.709   8.530   3.186  1.00  0.00     0.030 A 
ENDBRANCH   9  11
ENDBRANCH   1   9
BRANCH   6  17
HETATM   17  C   UNL     1      67.682   6.243   7.326  1.00  0.00     0.271 C 
BRANCH  17  18
HETATM   18  N   UNL     1      67.876   6.447   8.756  1.00  0.00    -0.075 N 
HETATM   19  H   UNL     1      68.735   5.985   9.052  1.00  0.00     0.274 HD
HETATM   20  H   UNL     1      67.085   6.053   9.266  1.00  0.00     0.274 HD
HETATM   21  H   UNL     1      67.942   7.445   8.952  1.00  0.00     0.274 HD
ENDBRANCH  17  18
ENDBRANCH   6  17
TORSDOF 4
ENDMDL
MODEL 3
REMARK VINA RESULT:      -5.5     20.318     23.143
REMARK  4 active torsions:
REMARK  status: ('A' for Active; 'I' for Inactive)
REMARK    1  A    between atoms: C_1  and  N_6 
REMARK    2  A    between atoms: N_6  and  C_10 
REMARK    3  A    between atoms: C_7  and  C_12 
REMARK    4  A    between atoms: N_11  and  C_12 
ROOT
HETATM    1  C   UNL     1      64.066   8.305   5.955  1.00  0.00     0.682 A 
HETATM    2  N   UNL     1      63.765   7.117   6.500  1.00  0.00    -0.201 N 
ATOM      3  HN  UNL     1      62.800   6.839   6.680  1.00  0.00     0.183 HD
HETATM    4  N   UNL     1      65.322   8.698   5.684  1.00  0.00    -0.201 N 
ATOM      5  HN  UNL     1      65.513   9.617   5.286  1.00  0.00     0.183 HD
HETATM    6  C   UNL     1      66.123   6.607   6.529  1.00  0.00    -0.001 A 
HETATM    7  C   UNL     1      64.805   6.308   6.797  1.00  0.00     0.116 A 
HETATM    8  C   UNL     1      66.318   7.841   5.956  1.00  0.00     0.116 A 
ENDROOT
BRANCH   1   9
HETATM    9  N   UNL     1      63.006   9.143   5.615  1.00  0.00    -0.192 N 
HETATM   10  H   UNL     1      62.487   9.509   6.368  1.00  0.00     0.184 HD
BRANCH   9  11
HETATM   11  C   UNL     1      62.587   9.528   4.335  1.00  0.00     0.049 A 
HETATM   12  C   UNL     1      62.657   8.612   3.278  1.00  0.00     0.030 A 
HETATM   13  C   UNL     1      62.328   8.999   1.975  1.00  0.00     0.002 A 
HETATM   14  C   UNL     1      61.911  10.303   1.714  1.00  0.00     0.000 A 
HETATM   15  C   UNL     1      61.824  11.221   2.754  1.00  0.00     0.002 A 
HETATM   16  C   UNL     1      62.171  10.835   4.050  1.00  0.00     0.030 A 
ENDBRANCH   9  11
ENDBRANCH   1   9
BRANCH   6  17
HETATM   17  C   UNL     1      67.254   5.683   6.822  1.00  0.00     0.271 C 
BRANCH  17  18
HETATM   18  N   UNL     1      68.243   6.312   7.688  1.00  0.00    -0.075 N 
HETATM   19  H   UNL     1      69.050   6.595   7.133  1.00  0.00     0.274 HD
HETATM   20  H   UNL     1      68.539   5.648   8.404  1.00  0.00     0.274 HD
HETATM   21  H   UNL     1      67.833   7.131   8.134  1.00  0.00     0.274 HD
ENDBRANCH  17  18
ENDBRANCH   6  17
TORSDOF 4
ENDMDL
MODEL 4
REMARK VINA RESULT:      -5.3      8.700     11.082
REMARK  4 active torsions:
REMARK  status: ('A' for Active; 'I' for Inactive)
REMARK    1  A    between atoms: C_1  and  N_6 
REMARK    2  A    between atoms: N_6  and  C_10 
REMARK    3  A    between atoms: C_7  and  C_12 
REMARK    4  A    between atoms: N_11  and  C_12 
ROOT
HETATM    1  C   UNL     1      75.929   3.001  17.610  1.00  0.00     0.682 A 
HETATM    2  N   UNL     1      75.245   1.855  17.472  1.00  0.00    -0.201 N 
ATOM      3  HN  UNL     1      74.305   1.836  17.075  1.00  0.00     0.183 HD
HETATM    4  N   UNL     1      77.175   3.064  18.109  1.00  0.00    -0.201 N 
ATOM      5  HN  UNL     1      77.656   3.957  18.213  1.00  0.00     0.183 HD
HETATM    6  C   UNL     1      77.151   0.686  18.380  1.00  0.00    -0.001 A 
HETATM    7  C   UNL     1      75.865   0.728  17.886  1.00  0.00     0.116 A 
HETATM    8  C   UNL     1      77.765   1.913  18.464  1.00  0.00     0.116 A 
ENDROOT
BRANCH   1   9
HETATM    9  N   UNL     1      75.318   4.170  17.163  1.00  0.00    -0.192 N 
HETATM   10  H   UNL     1      74.345   4.122  17.021  1.00  0.00     0.184 HD
BRANCH   9  11
HETATM   11  C   UNL     1      75.918   5.407  16.888  1.00  0.00     0.049 A 
HETATM   12  C   UNL     1      76.260   5.734  15.571  1.00  0.00     0.030 A 
HETATM   13  C   UNL     1      76.940   6.923  15.283  1.00  0.00     0.002 A 
HETATM   14  C   UNL     1      77.272   7.806  16.309  1.00  0.00     0.000 A 
HETATM   15  C   UNL     1      76.928   7.502  17.621  1.00  0.00     0.002 A 
HETATM   16  C   UNL     1      76.267   6.306  17.905  1.00  0.00     0.030 A 
ENDBRANCH   9  11
ENDBRANCH   1   9
BRANCH   6  17
HETATM   17  C   UNL     1      77.835  -0.572  18.790  1.00  0.00     0.271 C 
BRANCH  17  18
HETATM   18  N   UNL     1      79.199  -0.315  19.234  1.00  0.00    -0.075 N 
HETATM   19  H   UNL     1      79.828  -0.340  18.431  1.00  0.00     0.274 HD
HETATM   20  H   UNL     1      79.478  -1.029  19.906  1.00  0.00     0.274 HD
HETATM   21  H   UNL     1      79.247   0.603  19.674  1.00  0.00     0.274 HD
ENDBRANCH  17  18
ENDBRANCH   6  17
TORSDOF 4
ENDMDL
MODEL 5
REMARK VINA RESULT:      -5.2     18.399     20.682
REMARK  4 active torsions:
REMARK  status: ('A' for Active; 'I' for Inactive)
REMARK    1  A    between atoms: C_1  and  N_6 
REMARK    2  A    between atoms: N_6  and  C_10 
REMARK    3  A    between atoms: C_7  and  C_12 
REMARK    4  A    between atoms: N_11  and  C_12 
ROOT
HETATM    1  C   UNL     1      67.532   6.544   7.377  1.00  0.00     0.682 A 
HETATM    2  N   UNL     1      66.243   6.378   7.710  1.00  0.00    -0.201 N 
ATOM      3  HN  UNL     1      65.967   5.865   8.548  1.00  0.00     0.183 HD
HETATM    4  N   UNL     1      67.934   7.229   6.293  1.00  0.00    -0.201 N 
ATOM      5  HN  UNL     1      68.923   7.320   6.064  1.00  0.00     0.183 HD
HETATM    6  C   UNL     1      65.642   7.671   5.764  1.00  0.00    -0.001 A 
HETATM    7  C   UNL     1      65.328   6.924   6.879  1.00  0.00     0.116 A 
HETATM    8  C   UNL     1      66.990   7.792   5.524  1.00  0.00     0.116 A 
ENDROOT
BRANCH   1   9
HETATM    9  N   UNL     1      68.490   6.011   8.236  1.00  0.00    -0.192 N 
HETATM   10  H   UNL     1      69.018   6.664   8.750  1.00  0.00     0.184 HD
BRANCH   9  11
HETATM   11  C   UNL     1      68.796   4.662   8.458  1.00  0.00     0.049 A 
HETATM   12  C   UNL     1      68.655   3.739   7.414  1.00  0.00     0.030 A 
HETATM   13  C   UNL     1      68.869   2.374   7.634  1.00  0.00     0.002 A 
HETATM   14  C   UNL     1      69.239   1.917   8.898  1.00  0.00     0.000 A 
HETATM   15  C   UNL     1      69.395   2.822   9.942  1.00  0.00     0.002 A 
HETATM   16  C   UNL     1      69.163   4.180   9.721  1.00  0.00     0.030 A 
ENDBRANCH   9  11
ENDBRANCH   1   9
BRANCH   6  17
HETATM   17  C   UNL     1      64.621   8.305   4.884  1.00  0.00     0.271 C 
BRANCH  17  18
HETATM   18  N   UNL     1      64.049   9.494   5.503  1.00  0.00    -0.075 N 
HETATM   19  H   UNL     1      63.530  10.025   4.803  1.00  0.00     0.274 HD
HETATM   20  H   UNL     1      64.798  10.073   5.882  1.00  0.00     0.274 HD
HETATM   21  H   UNL     1      63.420   9.217   6.255  1.00  0.00     0.274 HD
ENDBRANCH  17  18
ENDBRANCH   6  17
TORSDOF 4
ENDMDL
MODEL 6
REMARK VINA RESULT:      -5.2     18.193     20.577
REMARK  4 active torsions:
REMARK  status: ('A' for Active; 'I' for Inactive)
REMARK    1  A    between atoms: C_1  and  N_6 
REMARK    2  A    between atoms: N_6  and  C_10 
REMARK    3  A    between atoms: C_7  and  C_12 
REMARK    4  A    between atoms: N_11  and  C_12 
ROOT
HETATM    1  C   UNL     1      67.562   6.255   7.241  1.00  0.00     0.682 A 
HETATM    2  N   UNL     1      67.787   5.134   6.540  1.00  0.00    -0.201 N 
ATOM      3  HN  UNL     1      67.525   5.055   5.557  1.00  0.00     0.183 HD
HETATM    4  N   UNL     1      67.910   6.404   8.530  1.00  0.00    -0.201 N 
ATOM      5  HN  UNL     1      67.707   7.267   9.035  1.00  0.00     0.183 HD
HETATM    6  C   UNL     1      68.800   4.183   8.512  1.00  0.00    -0.001 A 
HETATM    7  C   UNL     1      68.377   4.115   7.202  1.00  0.00     0.116 A 
HETATM    8  C   UNL     1      68.535   5.381   9.131  1.00  0.00     0.116 A 
ENDROOT
BRANCH   1   9
HETATM    9  N   UNL     1      66.979   7.327   6.568  1.00  0.00    -0.192 N 
HETATM   10  H   UNL     1      67.571   8.089   6.376  1.00  0.00     0.184 HD
BRANCH   9  11
HETATM   11  C   UNL     1      65.653   7.453   6.132  1.00  0.00     0.049 A 
HETATM   12  C   UNL     1      65.336   8.389   5.140  1.00  0.00     0.030 A 
HETATM   13  C   UNL     1      64.009   8.597   4.752  1.00  0.00     0.002 A 
HETATM   14  C   UNL     1      62.983   7.860   5.341  1.00  0.00     0.000 A 
HETATM   15  C   UNL     1      63.281   6.918   6.318  1.00  0.00     0.002 A 
HETATM   16  C   UNL     1      64.606   6.728   6.716  1.00  0.00     0.030 A 
ENDBRANCH   9  11
ENDBRANCH   1   9
BRANCH   6  17
HETATM   17  C   UNL     1      69.491   3.064   9.213  1.00  0.00     0.271 C 
BRANCH  17  18
HETATM   18  N   UNL     1      69.754   3.393  10.608  1.00  0.00    -0.075 N 
HETATM   19  H   UNL     1      68.955   3.895  10.996  1.00  0.00     0.274 HD
HETATM   20  H   UNL     1      70.586   3.981  10.668  1.00  0.00     0.274 HD
HETATM   21  H   UNL     1      69.906   2.536  11.137  1.00  0.00     0.274 HD
ENDBRANCH  17  18
ENDBRANCH   6  17
TORSDOF 4
ENDMDL
MODEL 7
REMARK VINA RESULT:      -5.1     18.836     21.768
REMARK  4 active torsions:
REMARK  status: ('A' for Active; 'I' for Inactive)
REMARK    1  A    between atoms: C_1  and  N_6 
REMARK    2  A    between atoms: N_6  and  C_10 
REMARK    3  A    between atoms: C_7  and  C_12 
REMARK    4  A    between atoms: N_11  and  C_12 
ROOT
HETATM    1  C   UNL     1      66.024   7.437   6.705  1.00  0.00     0.682 A 
HETATM    2  N   UNL     1      66.126   8.172   5.587  1.00  0.00    -0.201 N 
ATOM      3  HN  UNL     1      67.020   8.557   5.277  1.00  0.00     0.183 HD
HETATM    4  N   UNL     1      64.871   6.898   7.133  1.00  0.00    -0.201 N 
ATOM      5  HN  UNL     1      64.830   6.359   7.998  1.00  0.00     0.183 HD
HETATM    6  C   UNL     1      63.763   7.839   5.231  1.00  0.00    -0.001 A 
HETATM    7  C   UNL     1      64.986   8.376   4.892  1.00  0.00     0.116 A 
HETATM    8  C   UNL     1      63.774   7.091   6.384  1.00  0.00     0.116 A 
ENDROOT
BRANCH   1   9
HETATM    9  N   UNL     1      67.194   7.192   7.420  1.00  0.00    -0.192 N 
HETATM   10  H   UNL     1      67.678   7.987   7.741  1.00  0.00     0.184 HD
BRANCH   9  11
HETATM   11  C   UNL     1      67.766   5.954   7.739  1.00  0.00     0.049 A 
HETATM   12  C   UNL     1      68.312   5.750   9.012  1.00  0.00     0.030 A 
HETATM   13  C   UNL     1      68.968   4.555   9.326  1.00  0.00     0.002 A 
HETATM   14  C   UNL     1      69.073   3.542   8.373  1.00  0.00     0.000 A 
HETATM   15  C   UNL     1      68.526   3.723   7.109  1.00  0.00     0.002 A 
HETATM   16  C   UNL     1      67.889   4.925   6.795  1.00  0.00     0.030 A 
ENDBRANCH   9  11
ENDBRANCH   1   9
BRANCH   6  17
HETATM   17  C   UNL     1      62.525   8.038   4.428  1.00  0.00     0.271 C 
BRANCH  17  18
HETATM   18  N   UNL     1      62.535   9.325   3.744  1.00  0.00    -0.075 N 
HETATM   19  H   UNL     1      62.178   9.208   2.796  1.00  0.00     0.274 HD
HETATM   20  H   UNL     1      63.489   9.682   3.706  1.00  0.00     0.274 HD
HETATM   21  H   UNL     1      61.945   9.983   4.250  1.00  0.00     0.274 HD
ENDBRANCH  17  18
ENDBRANCH   6  17
TORSDOF 4
ENDMDL
MODEL 8
REMARK VINA RESULT:      -5.1     19.537     21.887
REMARK  4 active torsions:
REMARK  status: ('A' for Active; 'I' for Inactive)
REMARK    1  A    between atoms: C_1  and  N_6 
REMARK    2  A    between atoms: N_6  and  C_10 
REMARK    3  A    between atoms: C_7  and  C_12 
REMARK    4  A    between atoms: N_11  and  C_12 
ROOT
HETATM    1  C   UNL     1      64.752   6.557   6.192  1.00  0.00     0.682 A 
HETATM    2  N   UNL     1      63.435   6.661   6.427  1.00  0.00    -0.201 N 
ATOM      3  HN  UNL     1      62.918   5.928   6.913  1.00  0.00     0.183 HD
HETATM    4  N   UNL     1      65.471   7.508   5.573  1.00  0.00    -0.201 N 
ATOM      5  HN  UNL     1      66.468   7.385   5.398  1.00  0.00     0.183 HD
HETATM    6  C   UNL     1      63.486   8.829   5.371  1.00  0.00    -0.001 A 
HETATM    7  C   UNL     1      62.830   7.785   5.986  1.00  0.00     0.116 A 
HETATM    8  C   UNL     1      64.834   8.626   5.194  1.00  0.00     0.116 A 
ENDROOT
BRANCH   1   9
HETATM    9  N   UNL     1      65.400   5.417   6.664  1.00  0.00    -0.192 N 
HETATM   10  H   UNL     1      64.953   4.560   6.479  1.00  0.00     0.184 HD
BRANCH   9  11
HETATM   11  C   UNL     1      66.608   5.341   7.369  1.00  0.00     0.049 A 
HETATM   12  C   UNL     1      67.603   4.452   6.945  1.00  0.00     0.030 A 
HETATM   13  C   UNL     1      68.781   4.293   7.683  1.00  0.00     0.002 A 
HETATM   14  C   UNL     1      68.985   5.033   8.846  1.00  0.00     0.000 A 
HETATM   15  C   UNL     1      68.012   5.930   9.274  1.00  0.00     0.002 A 
HETATM   16  C   UNL     1      66.831   6.070   8.545  1.00  0.00     0.030 A 
ENDBRANCH   9  11
ENDBRANCH   1   9
BRANCH   6  17
HETATM   17  C   UNL     1      62.810  10.082   4.931  1.00  0.00     0.271 C 
BRANCH  17  18
HETATM   18  N   UNL     1      63.166  11.207   5.787  1.00  0.00    -0.075 N 
HETATM   19  H   UNL     1      63.737  10.875   6.564  1.00  0.00     0.274 HD
HETATM   20  H   UNL     1      62.317  11.641   6.148  1.00  0.00     0.274 HD
HETATM   21  H   UNL     1      63.694  11.891   5.246  1.00  0.00     0.274 HD
ENDBRANCH  17  18
ENDBRANCH   6  17
TORSDOF 4
ENDMDL
MODEL 9
REMARK VINA RESULT:      -5.0     19.158     21.643
REMARK  4 active torsions:
REMARK  status: ('A' for Active; 'I' for Inactive)
REMARK    1  A    between atoms: C_1  and  N_6 
REMARK    2  A    between atoms: N_6  and  C_10 
REMARK    3  A    between atoms: C_7  and  C_12 
REMARK    4  A    between atoms: N_11  and  C_12 
ROOT
HETATM    1  C   UNL     1      66.184   7.394   6.684  1.00  0.00     0.682 A 
HETATM    2  N   UNL     1      67.369   6.987   6.205  1.00  0.00    -0.201 N 
ATOM      3  HN  UNL     1      67.817   7.454   5.416  1.00  0.00     0.183 HD
HETATM    4  N   UNL     1      65.573   6.818   7.734  1.00  0.00    -0.201 N 
ATOM      5  HN  UNL     1      64.664   7.145   8.059  1.00  0.00     0.183 HD
HETATM    6  C   UNL     1      67.407   5.292   7.921  1.00  0.00    -0.001 A 
HETATM    7  C   UNL     1      67.939   5.928   6.820  1.00  0.00     0.116 A 
HETATM    8  C   UNL     1      66.200   5.798   8.340  1.00  0.00     0.116 A 
ENDROOT
BRANCH   1   9
HETATM    9  N   UNL     1      65.594   8.502   6.081  1.00  0.00    -0.192 N 
HETATM   10  H   UNL     1      65.962   9.378   6.336  1.00  0.00     0.184 HD
BRANCH   9  11
HETATM   11  C   UNL     1      64.541   8.523   5.157  1.00  0.00     0.049 A 
HETATM   12  C   UNL     1      64.465   7.533   4.170  1.00  0.00     0.030 A 
HETATM   13  C   UNL     1      63.475   7.582   3.183  1.00  0.00     0.002 A 
HETATM   14  C   UNL     1      62.539   8.615   3.180  1.00  0.00     0.000 A 
HETATM   15  C   UNL     1      62.593   9.599   4.160  1.00  0.00     0.002 A 
HETATM   16  C   UNL     1      63.594   9.555   5.132  1.00  0.00     0.030 A 
ENDBRANCH   9  11
ENDBRANCH   1   9
BRANCH   6  17
HETATM   17  C   UNL     1      68.072   4.153   8.615  1.00  0.00     0.271 C 
BRANCH  17  18
HETATM   18  N   UNL     1      68.950   4.619   9.681  1.00  0.00    -0.075 N 
HETATM   19  H   UNL     1      69.717   3.958   9.802  1.00  0.00     0.274 HD
HETATM   20  H   UNL     1      68.422   4.691  10.550  1.00  0.00     0.274 HD
HETATM   21  H   UNL     1      69.326   5.534   9.436  1.00  0.00     0.274 HD
ENDBRANCH  17  18
ENDBRANCH   6  17
TORSDOF 4
ENDMDL
