MODEL 1
REMARK VINA RESULT:      -5.9      0.000      0.000
REMARK  1 active torsions:
REMARK  status: ('A' for Active; 'I' for Inactive)
REMARK    1  A    between atoms: C_1  and  C_5 
ROOT
HETATM    1  C   UNL     1      76.709   6.017  16.750  1.00  0.00     0.084 A 
HETATM    2  S   UNL     1      77.003   7.466  17.614  1.00  0.00    -0.081 SA
HETATM    3  C   UNL     1      76.877   6.201  15.392  1.00  0.00     0.057 A 
HETATM    4  C   UNL     1      77.246   7.532  15.053  1.00  0.00     0.050 A 
HETATM    5  C   UNL     1      77.354   8.346  16.181  1.00  0.00     0.032 A 
HETATM    6  N   UNL     1      77.473   7.983  13.790  1.00  0.00    -0.365 N 
ATOM      7  HN  UNL     1      77.391   7.378  12.974  1.00  0.00     0.165 HD
HETATM    8  C   UNL     1      77.710   9.695  16.041  1.00  0.00     0.022 A 
HETATM    9  C   UNL     1      77.813   9.282  13.689  1.00  0.00     0.088 A 
HETATM   10  C   UNL     1      77.943  10.159  14.750  1.00  0.00     0.018 A 
ENDROOT
BRANCH   1  11
HETATM   11  C   UNL     1      76.341   4.821  17.467  1.00  0.00     0.216 C 
HETATM   12  O   UNL     1      75.584   3.924  17.125  1.00  0.00    -0.643 OA
HETATM   13  O   UNL     1      76.955   4.756  18.669  1.00  0.00    -0.643 OA
ENDBRANCH   1  11
TORSDOF 1
ENDMDL
MODEL 2
REMARK VINA RESULT:      -5.7      5.247      6.283
REMARK  1 active torsions:
REMARK  status: ('A' for Active; 'I' for Inactive)
REMARK    1  A    between atoms: C_1  and  C_5 
ROOT
HETATM    1  C   UNL     1      78.003  10.194  18.304  1.00  0.00     0.084 A 
HETATM    2  S   UNL     1      76.985  11.440  18.890  1.00  0.00    -0.081 SA
HETATM    3  C   UNL     1      79.149  10.082  19.066  1.00  0.00     0.057 A 
HETATM    4  C   UNL     1      79.197  11.020  20.135  1.00  0.00     0.050 A 
HETATM    5  C   UNL     1      78.068  11.837  20.163  1.00  0.00     0.032 A 
HETATM    6  N   UNL     1      80.211  11.126  21.035  1.00  0.00    -0.365 N 
ATOM      7  HN  UNL     1      81.032  10.522  21.003  1.00  0.00     0.165 HD
HETATM    8  C   UNL     1      77.941  12.824  21.152  1.00  0.00     0.022 A 
HETATM    9  C   UNL     1      80.060  12.081  21.971  1.00  0.00     0.088 A 
HETATM   10  C   UNL     1      78.977  12.935  22.074  1.00  0.00     0.018 A 
ENDROOT
BRANCH   1  11
HETATM   11  C   UNL     1      77.600   9.428  17.149  1.00  0.00     0.216 C 
HETATM   12  O   UNL     1      77.135   8.298  17.101  1.00  0.00    -0.643 OA
HETATM   13  O   UNL     1      77.797  10.120  16.005  1.00  0.00    -0.643 OA
ENDBRANCH   1  11
TORSDOF 1
ENDMDL
MODEL 3
REMARK VINA RESULT:      -5.1      3.682      6.053
REMARK  1 active torsions:
REMARK  status: ('A' for Active; 'I' for Inactive)
REMARK    1  A    between atoms: C_1  and  C_5 
ROOT
HETATM    1  C   UNL     1      76.403   5.383  17.458  1.00  0.00     0.084 A 
HETATM    2  S   UNL     1      75.085   4.824  16.518  1.00  0.00    -0.081 SA
HETATM    3  C   UNL     1      77.004   4.346  18.144  1.00  0.00     0.057 A 
HETATM    4  C   UNL     1      76.385   3.088  17.902  1.00  0.00     0.050 A 
HETATM    5  C   UNL     1      75.309   3.198  17.021  1.00  0.00     0.032 A 
HETATM    6  N   UNL     1      76.776   1.907  18.450  1.00  0.00    -0.365 N 
ATOM      7  HN  UNL     1      77.565   1.840  19.093  1.00  0.00     0.165 HD
HETATM    8  C   UNL     1      74.576   2.056  16.665  1.00  0.00     0.022 A 
HETATM    9  C   UNL     1      76.054   0.830  18.088  1.00  0.00     0.088 A 
HETATM   10  C   UNL     1      74.974   0.846  17.224  1.00  0.00     0.018 A 
ENDROOT
BRANCH   1  11
HETATM   11  C   UNL     1      76.743   6.785  17.449  1.00  0.00     0.216 C 
HETATM   12  O   UNL     1      76.791   7.569  18.386  1.00  0.00    -0.643 OA
HETATM   13  O   UNL     1      77.033   7.215  16.201  1.00  0.00    -0.643 OA
ENDBRANCH   1  11
TORSDOF 1
ENDMDL
MODEL 4
REMARK VINA RESULT:      -5.1      4.650      5.709
REMARK  1 active torsions:
REMARK  status: ('A' for Active; 'I' for Inactive)
REMARK    1  A    between atoms: C_1  and  C_5 
ROOT
HETATM    1  C   UNL     1      77.493  10.063  17.736  1.00  0.00     0.084 A 
HETATM    2  S   UNL     1      78.652  10.024  18.995  1.00  0.00    -0.081 SA
HETATM    3  C   UNL     1      76.636  11.137  17.876  1.00  0.00     0.057 A 
HETATM    4  C   UNL     1      76.928  11.933  19.019  1.00  0.00     0.050 A 
HETATM    5  C   UNL     1      78.017  11.439  19.734  1.00  0.00     0.032 A 
HETATM    6  N   UNL     1      76.241  13.047  19.390  1.00  0.00    -0.365 N 
ATOM      7  HN  UNL     1      75.446  13.398  18.858  1.00  0.00     0.165 HD
HETATM    8  C   UNL     1      78.451  12.096  20.895  1.00  0.00     0.022 A 
HETATM    9  C   UNL     1      76.682  13.655  20.507  1.00  0.00     0.088 A 
HETATM   10  C   UNL     1      77.751  13.236  21.278  1.00  0.00     0.018 A 
ENDROOT
BRANCH   1  11
HETATM   11  C   UNL     1      77.513   9.044  16.715  1.00  0.00     0.216 C 
HETATM   12  O   UNL     1      77.771   9.155  15.525  1.00  0.00    -0.643 OA
HETATM   13  O   UNL     1      77.192   7.832  17.220  1.00  0.00    -0.643 OA
ENDBRANCH   1  11
TORSDOF 1
ENDMDL
MODEL 5
REMARK VINA RESULT:      -4.8      3.607      4.773
REMARK  1 active torsions:
REMARK  status: ('A' for Active; 'I' for Inactive)
REMARK    1  A    between atoms: C_1  and  C_5 
ROOT
HETATM    1  C   UNL     1      77.541   9.876  18.293  1.00  0.00     0.084 A 
HETATM    2  S   UNL     1      77.750   9.949  16.595  1.00  0.00    -0.081 SA
HETATM    3  C   UNL     1      77.105   8.628  18.691  1.00  0.00     0.057 A 
HETATM    4  C   UNL     1      76.939   7.725  17.604  1.00  0.00     0.050 A 
HETATM    5  C   UNL     1      77.260   8.316  16.383  1.00  0.00     0.032 A 
HETATM    6  N   UNL     1      76.521   6.436  17.716  1.00  0.00    -0.365 N 
ATOM      7  HN  UNL     1      76.291   6.015  18.616  1.00  0.00     0.165 HD
HETATM    8  C   UNL     1      77.156   7.575  15.196  1.00  0.00     0.022 A 
HETATM    9  C   UNL     1      76.433   5.751  16.560  1.00  0.00     0.088 A 
HETATM   10  C   UNL     1      76.729   6.256  15.307  1.00  0.00     0.018 A 
ENDROOT
BRANCH   1  11
HETATM   11  C   UNL     1      77.819  11.041  19.097  1.00  0.00     0.216 C 
HETATM   12  O   UNL     1      77.081  11.975  19.376  1.00  0.00    -0.643 OA
HETATM   13  O   UNL     1      79.086  11.025  19.568  1.00  0.00    -0.643 OA
ENDBRANCH   1  11
TORSDOF 1
ENDMDL
MODEL 6
REMARK VINA RESULT:      -4.7     11.959     12.591
REMARK  1 active torsions:
REMARK  status: ('A' for Active; 'I' for Inactive)
REMARK    1  A    between atoms: C_1  and  C_5 
ROOT
HETATM    1  C   UNL     1      68.526   4.335   8.829  1.00  0.00     0.084 A 
HETATM    2  S   UNL     1      68.464   3.889   7.178  1.00  0.00    -0.081 SA
HETATM    3  C   UNL     1      68.047   5.617   9.021  1.00  0.00     0.057 A 
HETATM    4  C   UNL     1      67.627   6.238   7.812  1.00  0.00     0.050 A 
HETATM    5  C   UNL     1      67.798   5.401   6.709  1.00  0.00     0.032 A 
HETATM    6  N   UNL     1      67.116   7.495   7.716  1.00  0.00    -0.365 N 
ATOM      7  HN  UNL     1      66.996   8.096   8.530  1.00  0.00     0.165 HD
HETATM    8  C   UNL     1      67.437   5.846   5.429  1.00  0.00     0.022 A 
HETATM    9  C   UNL     1      66.779   7.892   6.475  1.00  0.00     0.088 A 
HETATM   10  C   UNL     1      66.914   7.132   5.327  1.00  0.00     0.018 A 
ENDROOT
BRANCH   1  11
HETATM   11  C   UNL     1      69.037   3.401   9.803  1.00  0.00     0.216 C 
HETATM   12  O   UNL     1      70.099   3.426  10.407  1.00  0.00    -0.643 OA
HETATM   13  O   UNL     1      68.167   2.390  10.020  1.00  0.00    -0.643 OA
ENDBRANCH   1  11
TORSDOF 1
ENDMDL
MODEL 7
REMARK VINA RESULT:      -4.6     13.731     14.577
REMARK  1 active torsions:
REMARK  status: ('A' for Active; 'I' for Inactive)
REMARK    1  A    between atoms: C_1  and  C_5 
ROOT
HETATM    1  C   UNL     1      66.020   7.288   5.974  1.00  0.00     0.084 A 
HETATM    2  S   UNL     1      66.371   5.758   5.291  1.00  0.00    -0.081 SA
HETATM    3  C   UNL     1      66.690   7.469   7.168  1.00  0.00     0.057 A 
HETATM    4  C   UNL     1      67.494   6.351   7.528  1.00  0.00     0.050 A 
HETATM    5  C   UNL     1      67.417   5.328   6.583  1.00  0.00     0.032 A 
HETATM    6  N   UNL     1      68.255   6.266   8.652  1.00  0.00    -0.365 N 
ATOM      7  HN  UNL     1      68.303   7.022   9.335  1.00  0.00     0.165 HD
HETATM    8  C   UNL     1      68.145   4.144   6.771  1.00  0.00     0.022 A 
HETATM    9  C   UNL     1      68.942   5.119   8.803  1.00  0.00     0.088 A 
HETATM   10  C   UNL     1      68.925   4.054   7.920  1.00  0.00     0.018 A 
ENDROOT
BRANCH   1  11
HETATM   11  C   UNL     1      65.122   8.186   5.290  1.00  0.00     0.216 C 
HETATM   12  O   UNL     1      64.399   7.965   4.330  1.00  0.00    -0.643 OA
HETATM   13  O   UNL     1      65.140   9.419   5.845  1.00  0.00    -0.643 OA
ENDBRANCH   1  11
TORSDOF 1
ENDMDL
MODEL 8
REMARK VINA RESULT:      -4.6     18.556     19.362
REMARK  1 active torsions:
REMARK  status: ('A' for Active; 'I' for Inactive)
REMARK    1  A    between atoms: C_1  and  C_5 
ROOT
HETATM    1  C   UNL     1      62.153   9.990   3.856  1.00  0.00     0.084 A 
HETATM    2  S   UNL     1      61.314   8.606   3.297  1.00  0.00    -0.081 SA
HETATM    3  C   UNL     1      63.000   9.674   4.900  1.00  0.00     0.057 A 
HETATM    4  C   UNL     1      62.963   8.295   5.247  1.00  0.00     0.050 A 
HETATM    5  C   UNL     1      62.075   7.580   4.445  1.00  0.00     0.032 A 
HETATM    6  N   UNL     1      63.697   7.719   6.237  1.00  0.00    -0.365 N 
ATOM      7  HN  UNL     1      64.344   8.254   6.816  1.00  0.00     0.165 HD
HETATM    8  C   UNL     1      61.906   6.201   4.643  1.00  0.00     0.022 A 
HETATM    9  C   UNL     1      63.513   6.396   6.401  1.00  0.00     0.088 A 
HETATM   10  C   UNL     1      62.655   5.609   5.655  1.00  0.00     0.018 A 
ENDROOT
BRANCH   1  11
HETATM   11  C   UNL     1      61.917  11.268   3.231  1.00  0.00     0.216 C 
HETATM   12  O   UNL     1      61.746  11.524   2.047  1.00  0.00    -0.643 OA
HETATM   13  O   UNL     1      61.899  12.267   4.141  1.00  0.00    -0.643 OA
ENDBRANCH   1  11
TORSDOF 1
ENDMDL
MODEL 9
REMARK VINA RESULT:      -4.6     17.972     18.620
REMARK  1 active torsions:
REMARK  status: ('A' for Active; 'I' for Inactive)
REMARK    1  A    between atoms: C_1  and  C_5 
ROOT
HETATM    1  C   UNL     1      63.373   7.721   5.196  1.00  0.00     0.084 A 
HETATM    2  S   UNL     1      63.175   7.242   3.564  1.00  0.00    -0.081 SA
HETATM    3  C   UNL     1      63.023   9.045   5.375  1.00  0.00     0.057 A 
HETATM    4  C   UNL     1      62.592   9.673   4.173  1.00  0.00     0.050 A 
HETATM    5  C   UNL     1      62.623   8.797   3.088  1.00  0.00     0.032 A 
HETATM    6  N   UNL     1      62.192  10.968   4.069  1.00  0.00    -0.365 N 
ATOM      7  HN  UNL     1      62.173  11.598   4.870  1.00  0.00     0.165 HD
HETATM    8  C   UNL     1      62.232   9.242   1.817  1.00  0.00     0.022 A 
HETATM    9  C   UNL     1      61.821  11.364   2.836  1.00  0.00     0.088 A 
HETATM   10  C   UNL     1      61.822  10.567   1.706  1.00  0.00     0.018 A 
ENDROOT
BRANCH   1  11
HETATM   11  C   UNL     1      63.851   6.768   6.167  1.00  0.00     0.216 C 
HETATM   12  O   UNL     1      63.535   5.596   6.313  1.00  0.00    -0.643 OA
HETATM   13  O   UNL     1      64.769   7.321   6.991  1.00  0.00    -0.643 OA
ENDBRANCH   1  11
TORSDOF 1
ENDMDL
