MODEL 1
REMARK VINA RESULT:      -6.3      0.000      0.000
REMARK  3 active torsions:
REMARK  status: ('A' for Active; 'I' for Inactive)
REMARK    1  A    between atoms: C_3  and  C_8 
REMARK    2  A    between atoms: C_6  and  C_9 
REMARK    3  A    between atoms: C_9  and  N_10 
ROOT
HETATM    1  N   UNL     1      79.127  13.042  23.027  1.00  0.00    -0.321 N 
ATOM      2  HN  UNL     1      78.344  13.614  23.344  1.00  0.00     0.169 HD
HETATM    3  C   UNL     1      79.271  12.356  21.837  1.00  0.00     0.137 A 
HETATM    4  N   UNL     1      80.444  11.709  21.722  1.00  0.00    -0.242 N 
ATOM      5  HN  UNL     1      80.779  11.150  20.938  1.00  0.00     0.196 HD
HETATM    6  C   UNL     1      80.254  12.770  23.649  1.00  0.00     0.174 A 
HETATM    7  O   UNL     1      81.094  11.980  22.923  1.00  0.00    -0.221 OA
ENDROOT
BRANCH   3   8
HETATM    8  C   UNL     1      78.240  12.358  20.802  1.00  0.00     0.010 A 
HETATM    9  C   UNL     1      77.302  13.399  20.739  1.00  0.00     0.015 A 
HETATM   10  C   UNL     1      76.319  13.412  19.745  1.00  0.00     0.001 A 
HETATM   11  C   UNL     1      76.262  12.384  18.806  1.00  0.00     0.000 A 
HETATM   12  C   UNL     1      77.184  11.341  18.860  1.00  0.00     0.001 A 
HETATM   13  C   UNL     1      78.168  11.328  19.853  1.00  0.00     0.015 A 
ENDBRANCH   3   8
BRANCH   6  14
HETATM   14  C   UNL     1      80.731  13.210  24.987  1.00  0.00     0.315 C 
BRANCH  14  15
HETATM   15  N   UNL     1      80.248  14.549  25.338  1.00  0.00    -0.072 N 
HETATM   16  H   UNL     1      80.175  15.115  24.492  1.00  0.00     0.274 HD
HETATM   17  H   UNL     1      80.901  14.988  25.986  1.00  0.00     0.274 HD
HETATM   18  H   UNL     1      79.330  14.474  25.776  1.00  0.00     0.274 HD
ENDBRANCH  14  15
ENDBRANCH   6  14
TORSDOF 3
ENDMDL
MODEL 2
REMARK VINA RESULT:      -6.1     10.502     11.706
REMARK  3 active torsions:
REMARK  status: ('A' for Active; 'I' for Inactive)
REMARK    1  A    between atoms: C_3  and  C_8 
REMARK    2  A    between atoms: C_6  and  C_9 
REMARK    3  A    between atoms: C_9  and  N_10 
ROOT
HETATM    1  N   UNL     1      76.927  21.607  15.070  1.00  0.00    -0.321 N 
ATOM      2  HN  UNL     1      76.919  22.116  14.186  1.00  0.00     0.169 HD
HETATM    3  C   UNL     1      78.002  21.065  15.747  1.00  0.00     0.137 A 
HETATM    4  N   UNL     1      77.669  20.470  16.906  1.00  0.00    -0.242 N 
ATOM      5  HN  UNL     1      78.285  20.014  17.578  1.00  0.00     0.196 HD
HETATM    6  C   UNL     1      75.915  21.300  15.852  1.00  0.00     0.174 A 
HETATM    7  O   UNL     1      76.287  20.622  16.975  1.00  0.00    -0.221 OA
ENDROOT
BRANCH   3   8
HETATM    8  C   UNL     1      79.370  21.154  15.243  1.00  0.00     0.010 A 
HETATM    9  C   UNL     1      79.783  20.355  14.167  1.00  0.00     0.015 A 
HETATM   10  C   UNL     1      81.088  20.443  13.674  1.00  0.00     0.001 A 
HETATM   11  C   UNL     1      81.995  21.328  14.254  1.00  0.00     0.000 A 
HETATM   12  C   UNL     1      81.600  22.124  15.327  1.00  0.00     0.001 A 
HETATM   13  C   UNL     1      80.295  22.037  15.820  1.00  0.00     0.015 A 
ENDBRANCH   3   8
BRANCH   6  14
HETATM   14  C   UNL     1      74.466  21.599  15.695  1.00  0.00     0.315 C 
BRANCH  14  15
HETATM   15  N   UNL     1      74.198  23.041  15.657  1.00  0.00    -0.072 N 
HETATM   16  H   UNL     1      73.250  23.200  15.315  1.00  0.00     0.274 HD
HETATM   17  H   UNL     1      74.865  23.494  15.034  1.00  0.00     0.274 HD
HETATM   18  H   UNL     1      74.290  23.429  16.596  1.00  0.00     0.274 HD
ENDBRANCH  14  15
ENDBRANCH   6  14
TORSDOF 3
ENDMDL
MODEL 3
REMARK VINA RESULT:      -6.0     12.709     14.214
REMARK  3 active torsions:
REMARK  status: ('A' for Active; 'I' for Inactive)
REMARK    1  A    between atoms: C_3  and  C_8 
REMARK    2  A    between atoms: C_6  and  C_9 
REMARK    3  A    between atoms: C_9  and  N_10 
ROOT
HETATM    1  N   UNL     1      73.549  22.177  15.492  1.00  0.00    -0.321 N 
ATOM      2  HN  UNL     1      73.059  21.969  16.362  1.00  0.00     0.169 HD
HETATM    3  C   UNL     1      73.075  22.817  14.363  1.00  0.00     0.137 A 
HETATM    4  N   UNL     1      73.993  22.950  13.390  1.00  0.00    -0.242 N 
ATOM      5  HN  UNL     1      73.882  23.394  12.478  1.00  0.00     0.196 HD
HETATM    6  C   UNL     1      74.792  21.903  15.161  1.00  0.00     0.174 A 
HETATM    7  O   UNL     1      75.129  22.342  13.916  1.00  0.00    -0.221 OA
ENDROOT
BRANCH   3   8
HETATM    8  C   UNL     1      71.705  23.312  14.262  1.00  0.00     0.010 A 
HETATM    9  C   UNL     1      70.825  22.772  13.312  1.00  0.00     0.015 A 
HETATM   10  C   UNL     1      69.509  23.235  13.216  1.00  0.00     0.001 A 
HETATM   11  C   UNL     1      69.060  24.243  14.067  1.00  0.00     0.000 A 
HETATM   12  C   UNL     1      69.924  24.792  15.012  1.00  0.00     0.001 A 
HETATM   13  C   UNL     1      71.240  24.329  15.108  1.00  0.00     0.015 A 
ENDBRANCH   3   8
BRANCH   6  14
HETATM   14  C   UNL     1      75.856  21.217  15.943  1.00  0.00     0.315 C 
BRANCH  14  15
HETATM   15  N   UNL     1      77.178  21.359  15.326  1.00  0.00    -0.072 N 
HETATM   16  H   UNL     1      77.131  21.065  14.350  1.00  0.00     0.274 HD
HETATM   17  H   UNL     1      77.850  20.776  15.825  1.00  0.00     0.274 HD
HETATM   18  H   UNL     1      77.472  22.334  15.373  1.00  0.00     0.274 HD
ENDBRANCH  14  15
ENDBRANCH   6  14
TORSDOF 3
ENDMDL
MODEL 4
REMARK VINA RESULT:      -5.6     20.919     23.105
REMARK  3 active torsions:
REMARK  status: ('A' for Active; 'I' for Inactive)
REMARK    1  A    between atoms: C_3  and  C_8 
REMARK    2  A    between atoms: C_6  and  C_9 
REMARK    3  A    between atoms: C_9  and  N_10 
ROOT
HETATM    1  N   UNL     1      64.923   7.980   5.104  1.00  0.00    -0.321 N 
ATOM      2  HN  UNL     1      65.597   8.142   4.355  1.00  0.00     0.169 HD
HETATM    3  C   UNL     1      63.603   8.382   5.181  1.00  0.00     0.137 A 
HETATM    4  N   UNL     1      62.981   7.984   6.304  1.00  0.00    -0.242 N 
ATOM      5  HN  UNL     1      62.012   8.148   6.578  1.00  0.00     0.196 HD
HETATM    6  C   UNL     1      65.091   7.338   6.239  1.00  0.00     0.174 A 
HETATM    7  O   UNL     1      63.966   7.296   7.007  1.00  0.00    -0.221 OA
ENDROOT
BRANCH   3   8
HETATM    8  C   UNL     1      62.955   9.152   4.122  1.00  0.00     0.010 A 
HETATM    9  C   UNL     1      62.499  10.455   4.371  1.00  0.00     0.015 A 
HETATM   10  C   UNL     1      61.888  11.200   3.359  1.00  0.00     0.001 A 
HETATM   11  C   UNL     1      61.723  10.651   2.089  1.00  0.00     0.000 A 
HETATM   12  C   UNL     1      62.166   9.356   1.829  1.00  0.00     0.001 A 
HETATM   13  C   UNL     1      62.779   8.610   2.841  1.00  0.00     0.015 A 
ENDBRANCH   3   8
BRANCH   6  14
HETATM   14  C   UNL     1      66.298   6.654   6.775  1.00  0.00     0.315 C 
BRANCH  14  15
HETATM   15  N   UNL     1      67.087   7.525   7.652  1.00  0.00    -0.072 N 
HETATM   16  H   UNL     1      67.428   8.325   7.118  1.00  0.00     0.274 HD
HETATM   17  H   UNL     1      67.879   7.003   8.027  1.00  0.00     0.274 HD
HETATM   18  H   UNL     1      66.501   7.853   8.420  1.00  0.00     0.274 HD
ENDBRANCH  14  15
ENDBRANCH   6  14
TORSDOF 3
ENDMDL
MODEL 5
REMARK VINA RESULT:      -5.5      9.956     11.708
REMARK  3 active torsions:
REMARK  status: ('A' for Active; 'I' for Inactive)
REMARK    1  A    between atoms: C_3  and  C_8 
REMARK    2  A    between atoms: C_6  and  C_9 
REMARK    3  A    between atoms: C_9  and  N_10 
ROOT
HETATM    1  N   UNL     1      75.731   4.084  17.052  1.00  0.00    -0.321 N 
ATOM      2  HN  UNL     1      75.227   4.269  16.185  1.00  0.00     0.169 HD
HETATM    3  C   UNL     1      75.801   2.911  17.779  1.00  0.00     0.137 A 
HETATM    4  N   UNL     1      76.576   2.998  18.874  1.00  0.00    -0.242 N 
ATOM      5  HN  UNL     1      76.787   2.267  19.554  1.00  0.00     0.196 HD
HETATM    6  C   UNL     1      76.480   4.901  17.760  1.00  0.00     0.174 A 
HETATM    7  O   UNL     1      77.022   4.316  18.864  1.00  0.00    -0.221 OA
ENDROOT
BRANCH   3   8
HETATM    8  C   UNL     1      75.104   1.695  17.370  1.00  0.00     0.010 A 
HETATM    9  C   UNL     1      74.903   1.415  16.011  1.00  0.00     0.015 A 
HETATM   10  C   UNL     1      74.245   0.247  15.613  1.00  0.00     0.001 A 
HETATM   11  C   UNL     1      73.779  -0.651  16.571  1.00  0.00     0.000 A 
HETATM   12  C   UNL     1      73.966  -0.384  17.925  1.00  0.00     0.001 A 
HETATM   13  C   UNL     1      74.625   0.784  18.323  1.00  0.00     0.015 A 
ENDBRANCH   3   8
BRANCH   6  14
HETATM   14  C   UNL     1      76.820   6.329  17.518  1.00  0.00     0.315 C 
BRANCH  14  15
HETATM   15  N   UNL     1      76.893   6.649  16.089  1.00  0.00    -0.072 N 
HETATM   16  H   UNL     1      77.258   5.844  15.580  1.00  0.00     0.274 HD
HETATM   17  H   UNL     1      77.510   7.449  15.950  1.00  0.00     0.274 HD
HETATM   18  H   UNL     1      75.960   6.875  15.744  1.00  0.00     0.274 HD
ENDBRANCH  14  15
ENDBRANCH   6  14
TORSDOF 3
ENDMDL
MODEL 6
REMARK VINA RESULT:      -5.4     18.616     20.564
REMARK  3 active torsions:
REMARK  status: ('A' for Active; 'I' for Inactive)
REMARK    1  A    between atoms: C_3  and  C_8 
REMARK    2  A    between atoms: C_6  and  C_9 
REMARK    3  A    between atoms: C_9  and  N_10 
ROOT
HETATM    1  N   UNL     1      65.677   6.842   6.023  1.00  0.00    -0.321 N 
ATOM      2  HN  UNL     1      65.303   5.958   5.680  1.00  0.00     0.169 HD
HETATM    3  C   UNL     1      66.737   7.057   6.883  1.00  0.00     0.137 A 
HETATM    4  N   UNL     1      66.987   8.357   7.120  1.00  0.00    -0.242 N 
ATOM      5  HN  UNL     1      67.718   8.760   7.706  1.00  0.00     0.196 HD
HETATM    6  C   UNL     1      65.273   8.066   5.760  1.00  0.00     0.174 A 
HETATM    7  O   UNL     1      66.015   9.025   6.380  1.00  0.00    -0.221 OA
ENDROOT
BRANCH   3   8
HETATM    8  C   UNL     1      67.513   5.962   7.458  1.00  0.00     0.010 A 
HETATM    9  C   UNL     1      67.868   4.856   6.672  1.00  0.00     0.015 A 
HETATM   10  C   UNL     1      68.619   3.809   7.214  1.00  0.00     0.001 A 
HETATM   11  C   UNL     1      69.022   3.857   8.548  1.00  0.00     0.000 A 
HETATM   12  C   UNL     1      68.673   4.947   9.341  1.00  0.00     0.001 A 
HETATM   13  C   UNL     1      67.922   5.994   8.799  1.00  0.00     0.015 A 
ENDBRANCH   3   8
BRANCH   6  14
HETATM   14  C   UNL     1      64.161   8.533   4.889  1.00  0.00     0.315 C 
BRANCH  14  15
HETATM   15  N   UNL     1      63.226   9.409   5.603  1.00  0.00    -0.072 N 
HETATM   16  H   UNL     1      63.323  10.364   5.256  1.00  0.00     0.274 HD
HETATM   17  H   UNL     1      63.434   9.387   6.601  1.00  0.00     0.274 HD
HETATM   18  H   UNL     1      62.271   9.086   5.446  1.00  0.00     0.274 HD
ENDBRANCH  14  15
ENDBRANCH   6  14
TORSDOF 3
ENDMDL
MODEL 7
REMARK VINA RESULT:      -5.1     19.943     22.115
REMARK  3 active torsions:
REMARK  status: ('A' for Active; 'I' for Inactive)
REMARK    1  A    between atoms: C_3  and  C_8 
REMARK    2  A    between atoms: C_6  and  C_9 
REMARK    3  A    between atoms: C_9  and  N_10 
ROOT
HETATM    1  N   UNL     1      64.664   7.548   6.703  1.00  0.00    -0.321 N 
ATOM      2  HN  UNL     1      63.800   7.531   7.245  1.00  0.00     0.169 HD
HETATM    3  C   UNL     1      64.897   8.109   5.462  1.00  0.00     0.137 A 
HETATM    4  N   UNL     1      66.163   7.971   5.034  1.00  0.00    -0.242 N 
ATOM      5  HN  UNL     1      66.573   8.309   4.162  1.00  0.00     0.196 HD
HETATM    6  C   UNL     1      65.838   7.039   7.008  1.00  0.00     0.174 A 
HETATM    7  O   UNL     1      66.786   7.259   6.055  1.00  0.00    -0.221 OA
ENDROOT
BRANCH   3   8
HETATM    8  C   UNL     1      63.854   8.801   4.708  1.00  0.00     0.010 A 
HETATM    9  C   UNL     1      63.319  10.008   5.181  1.00  0.00     0.015 A 
HETATM   10  C   UNL     1      62.329  10.679   4.458  1.00  0.00     0.001 A 
HETATM   11  C   UNL     1      61.860  10.149   3.257  1.00  0.00     0.000 A 
HETATM   12  C   UNL     1      62.379   8.948   2.778  1.00  0.00     0.001 A 
HETATM   13  C   UNL     1      63.370   8.277   3.500  1.00  0.00     0.015 A 
ENDBRANCH   3   8
BRANCH   6  14
HETATM   14  C   UNL     1      66.265   6.295   8.223  1.00  0.00     0.315 C 
BRANCH  14  15
HETATM   15  N   UNL     1      67.564   6.752   8.727  1.00  0.00    -0.072 N 
HETATM   16  H   UNL     1      67.443   7.629   9.233  1.00  0.00     0.274 HD
HETATM   17  H   UNL     1      68.201   6.896   7.943  1.00  0.00     0.274 HD
HETATM   18  H   UNL     1      67.952   6.048   9.355  1.00  0.00     0.274 HD
ENDBRANCH  14  15
ENDBRANCH   6  14
TORSDOF 3
ENDMDL
MODEL 8
REMARK VINA RESULT:      -4.8     10.576     12.188
REMARK  3 active torsions:
REMARK  status: ('A' for Active; 'I' for Inactive)
REMARK    1  A    between atoms: C_3  and  C_8 
REMARK    2  A    between atoms: C_6  and  C_9 
REMARK    3  A    between atoms: C_9  and  N_10 
ROOT
HETATM    1  N   UNL     1      77.849   0.025  18.362  1.00  0.00    -0.321 N 
ATOM      2  HN  UNL     1      77.290  -0.540  17.724  1.00  0.00     0.169 HD
HETATM    3  C   UNL     1      77.765   1.380  18.620  1.00  0.00     0.137 A 
HETATM    4  N   UNL     1      78.644   1.812  19.540  1.00  0.00    -0.242 N 
ATOM      5  HN  UNL     1      78.763   2.760  19.900  1.00  0.00     0.196 HD
HETATM    6  C   UNL     1      78.834  -0.352  19.148  1.00  0.00     0.174 A 
HETATM    7  O   UNL     1      79.356   0.667  19.888  1.00  0.00    -0.221 OA
ENDROOT
BRANCH   3   8
HETATM    8  C   UNL     1      76.791   2.244  17.957  1.00  0.00     0.010 A 
HETATM    9  C   UNL     1      75.638   1.697  17.377  1.00  0.00     0.015 A 
HETATM   10  C   UNL     1      74.698   2.520  16.749  1.00  0.00     0.001 A 
HETATM   11  C   UNL     1      74.903   3.897  16.693  1.00  0.00     0.000 A 
HETATM   12  C   UNL     1      76.047   4.453  17.261  1.00  0.00     0.001 A 
HETATM   13  C   UNL     1      76.986   3.631  17.889  1.00  0.00     0.015 A 
ENDBRANCH   3   8
BRANCH   6  14
HETATM   14  C   UNL     1      79.428  -1.701  19.349  1.00  0.00     0.315 C 
BRANCH  14  15
HETATM   15  N   UNL     1      80.529  -1.968  18.418  1.00  0.00    -0.072 N 
HETATM   16  H   UNL     1      80.557  -1.237  17.708  1.00  0.00     0.274 HD
HETATM   17  H   UNL     1      80.384  -2.873  17.970  1.00  0.00     0.274 HD
HETATM   18  H   UNL     1      81.411  -1.979  18.930  1.00  0.00     0.274 HD
ENDBRANCH  14  15
ENDBRANCH   6  14
TORSDOF 3
ENDMDL
MODEL 9
REMARK VINA RESULT:      -4.8     23.709     24.662
REMARK  3 active torsions:
REMARK  status: ('A' for Active; 'I' for Inactive)
REMARK    1  A    between atoms: C_3  and  C_8 
REMARK    2  A    between atoms: C_6  and  C_9 
REMARK    3  A    between atoms: C_9  and  N_10 
ROOT
HETATM    1  N   UNL     1      61.455   7.037   4.882  1.00  0.00    -0.321 N 
ATOM      2  HN  UNL     1      60.676   6.795   4.270  1.00  0.00     0.169 HD
HETATM    3  C   UNL     1      62.293   8.134   4.823  1.00  0.00     0.137 A 
HETATM    4  N   UNL     1      63.214   8.165   5.802  1.00  0.00    -0.242 N 
ATOM      5  HN  UNL     1      63.928   8.874   5.970  1.00  0.00     0.196 HD
HETATM    6  C   UNL     1      61.916   6.384   5.926  1.00  0.00     0.174 A 
HETATM    7  O   UNL     1      62.968   7.005   6.530  1.00  0.00    -0.221 OA
ENDROOT
BRANCH   3   8
HETATM    8  C   UNL     1      62.163   9.163   3.796  1.00  0.00     0.010 A 
HETATM    9  C   UNL     1      62.185   8.816   2.437  1.00  0.00     0.015 A 
HETATM   10  C   UNL     1      62.052   9.796   1.449  1.00  0.00     0.001 A 
HETATM   11  C   UNL     1      61.898  11.133   1.809  1.00  0.00     0.000 A 
HETATM   12  C   UNL     1      61.880  11.494   3.154  1.00  0.00     0.001 A 
HETATM   13  C   UNL     1      62.013  10.514   4.143  1.00  0.00     0.015 A 
ENDBRANCH   3   8
BRANCH   6  14
HETATM   14  C   UNL     1      61.449   5.108   6.533  1.00  0.00     0.315 C 
BRANCH  14  15
HETATM   15  N   UNL     1      60.351   5.314   7.483  1.00  0.00    -0.072 N 
HETATM   16  H   UNL     1      60.054   4.413   7.858  1.00  0.00     0.274 HD
HETATM   17  H   UNL     1      59.568   5.760   7.006  1.00  0.00     0.274 HD
HETATM   18  H   UNL     1      60.670   5.911   8.246  1.00  0.00     0.274 HD
ENDBRANCH  14  15
ENDBRANCH   6  14
TORSDOF 3
ENDMDL
