MODEL 1
REMARK VINA RESULT:      -4.7      0.000      0.000
REMARK  3 active torsions:
REMARK  status: ('A' for Active; 'I' for Inactive)
REMARK    1  A    between atoms: C_1  and  C_2 
REMARK    2  A    between atoms: C_1  and  C_4 
REMARK    3  A    between atoms: N_3  and  C_4 
ROOT
HETATM    1  C   UNL     1      63.280   8.953   4.905  1.00  0.00     0.003 C 
HETATM    2  C   UNL     1      64.806   8.767   5.098  1.00  0.00     0.021 C 
HETATM    3  C   UNL     1      62.599   7.898   5.815  1.00  0.00     0.021 C 
ENDROOT
BRANCH   1   4
HETATM    4  C   UNL     1      62.861   8.773   3.427  1.00  0.00    -0.049 A 
HETATM    5  C   UNL     1      62.217   9.804   2.716  1.00  0.00     0.008 A 
HETATM    6  C   UNL     1      61.829   9.641   1.382  1.00  0.00     0.001 A 
HETATM    7  C   UNL     1      62.061   8.437   0.727  1.00  0.00     0.000 A 
HETATM    8  C   UNL     1      62.673   7.393   1.412  1.00  0.00     0.001 A 
HETATM    9  C   UNL     1      63.059   7.557   2.746  1.00  0.00     0.008 A 
ENDBRANCH   1   4
BRANCH   1  10
HETATM   10  C   UNL     1      62.865  10.392   5.346  1.00  0.00     0.243 C 
BRANCH  10  11
HETATM   11  N   UNL     1      63.876  11.110   6.131  1.00  0.00    -0.078 N 
HETATM   12  H   UNL     1      63.454  11.453   6.995  1.00  0.00     0.274 HD
HETATM   13  H   UNL     1      64.230  11.898   5.589  1.00  0.00     0.274 HD
HETATM   14  H   UNL     1      64.644  10.478   6.355  1.00  0.00     0.274 HD
ENDBRANCH  10  11
ENDBRANCH   1  10
TORSDOF 3
ENDMDL
MODEL 2
REMARK VINA RESULT:      -4.7     18.636     20.288
REMARK  3 active torsions:
REMARK  status: ('A' for Active; 'I' for Inactive)
REMARK    1  A    between atoms: C_1  and  C_2 
REMARK    2  A    between atoms: C_1  and  C_4 
REMARK    3  A    between atoms: N_3  and  C_4 
ROOT
HETATM    1  C   UNL     1      71.982  23.399  13.998  1.00  0.00     0.003 C 
HETATM    2  C   UNL     1      72.696  22.641  15.146  1.00  0.00     0.021 C 
HETATM    3  C   UNL     1      72.981  24.478  13.508  1.00  0.00     0.021 C 
ENDROOT
BRANCH   1   4
HETATM    4  C   UNL     1      70.653  24.036  14.469  1.00  0.00    -0.049 A 
HETATM    5  C   UNL     1      69.410  23.580  13.991  1.00  0.00     0.008 A 
HETATM    6  C   UNL     1      68.208  24.161  14.409  1.00  0.00     0.001 A 
HETATM    7  C   UNL     1      68.217  25.224  15.304  1.00  0.00     0.000 A 
HETATM    8  C   UNL     1      69.432  25.711  15.775  1.00  0.00     0.001 A 
HETATM    9  C   UNL     1      70.633  25.130  15.355  1.00  0.00     0.008 A 
ENDBRANCH   1   4
BRANCH   1  10
HETATM   10  C   UNL     1      71.649  22.407  12.840  1.00  0.00     0.243 C 
BRANCH  10  11
HETATM   11  N   UNL     1      72.222  22.768  11.537  1.00  0.00    -0.078 N 
HETATM   12  H   UNL     1      72.706  23.662  11.615  1.00  0.00     0.274 HD
HETATM   13  H   UNL     1      71.474  22.844  10.848  1.00  0.00     0.274 HD
HETATM   14  H   UNL     1      72.881  22.048  11.245  1.00  0.00     0.274 HD
ENDBRANCH  10  11
ENDBRANCH   1  10
TORSDOF 3
ENDMDL
MODEL 3
REMARK VINA RESULT:      -4.6      1.480      2.508
REMARK  3 active torsions:
REMARK  status: ('A' for Active; 'I' for Inactive)
REMARK    1  A    between atoms: C_1  and  C_2 
REMARK    2  A    between atoms: C_1  and  C_4 
REMARK    3  A    between atoms: N_3  and  C_4 
ROOT
HETATM    1  C   UNL     1      63.516   7.926   4.563  1.00  0.00     0.003 C 
HETATM    2  C   UNL     1      63.795   6.651   3.727  1.00  0.00     0.021 C 
HETATM    3  C   UNL     1      62.596   7.483   5.729  1.00  0.00     0.021 C 
ENDROOT
BRANCH   1   4
HETATM    4  C   UNL     1      62.850   9.035   3.714  1.00  0.00    -0.049 A 
HETATM    5  C   UNL     1      62.611   8.861   2.337  1.00  0.00     0.008 A 
HETATM    6  C   UNL     1      62.018   9.865   1.565  1.00  0.00     0.001 A 
HETATM    7  C   UNL     1      61.662  11.077   2.146  1.00  0.00     0.000 A 
HETATM    8  C   UNL     1      61.908  11.285   3.498  1.00  0.00     0.001 A 
HETATM    9  C   UNL     1      62.502  10.281   4.268  1.00  0.00     0.008 A 
ENDBRANCH   1   4
BRANCH   1  10
HETATM   10  C   UNL     1      64.858   8.494   5.121  1.00  0.00     0.243 C 
BRANCH  10  11
HETATM   11  N   UNL     1      65.264   7.947   6.421  1.00  0.00    -0.078 N 
HETATM   12  H   UNL     1      64.864   8.515   7.168  1.00  0.00     0.274 HD
HETATM   13  H   UNL     1      66.281   7.959   6.491  1.00  0.00     0.274 HD
HETATM   14  H   UNL     1      64.928   6.988   6.506  1.00  0.00     0.274 HD
ENDBRANCH  10  11
ENDBRANCH   1  10
TORSDOF 3
ENDMDL
MODEL 4
REMARK VINA RESULT:      -4.4      1.811      3.838
REMARK  3 active torsions:
REMARK  status: ('A' for Active; 'I' for Inactive)
REMARK    1  A    between atoms: C_1  and  C_2 
REMARK    2  A    between atoms: C_1  and  C_4 
REMARK    3  A    between atoms: N_3  and  C_4 
ROOT
HETATM    1  C   UNL     1      62.007   9.052   2.880  1.00  0.00     0.003 C 
HETATM    2  C   UNL     1      60.710   8.270   3.209  1.00  0.00     0.021 C 
HETATM    3  C   UNL     1      62.120   9.069   1.334  1.00  0.00     0.021 C 
ENDROOT
BRANCH   1   4
HETATM    4  C   UNL     1      63.252   8.398   3.526  1.00  0.00    -0.049 A 
HETATM    5  C   UNL     1      63.766   7.175   3.054  1.00  0.00     0.008 A 
HETATM    6  C   UNL     1      64.885   6.577   3.642  1.00  0.00     0.001 A 
HETATM    7  C   UNL     1      65.512   7.178   4.727  1.00  0.00     0.000 A 
HETATM    8  C   UNL     1      65.012   8.374   5.229  1.00  0.00     0.001 A 
HETATM    9  C   UNL     1      63.892   8.970   4.641  1.00  0.00     0.008 A 
ENDBRANCH   1   4
BRANCH   1  10
HETATM   10  C   UNL     1      61.897  10.509   3.429  1.00  0.00     0.243 C 
BRANCH  10  11
HETATM   11  N   UNL     1      61.620  11.530   2.411  1.00  0.00    -0.078 N 
HETATM   12  H   UNL     1      62.093  12.398   2.664  1.00  0.00     0.274 HD
HETATM   13  H   UNL     1      60.615  11.692   2.358  1.00  0.00     0.274 HD
HETATM   14  H   UNL     1      61.962  11.208   1.506  1.00  0.00     0.274 HD
ENDBRANCH  10  11
ENDBRANCH   1  10
TORSDOF 3
ENDMDL
MODEL 5
REMARK VINA RESULT:      -4.3      6.935      8.526
REMARK  3 active torsions:
REMARK  status: ('A' for Active; 'I' for Inactive)
REMARK    1  A    between atoms: C_1  and  C_2 
REMARK    2  A    between atoms: C_1  and  C_4 
REMARK    3  A    between atoms: N_3  and  C_4 
ROOT
HETATM    1  C   UNL     1      68.826   4.778   8.687  1.00  0.00     0.003 C 
HETATM    2  C   UNL     1      68.012   5.942   9.306  1.00  0.00     0.021 C 
HETATM    3  C   UNL     1      70.301   5.253   8.654  1.00  0.00     0.021 C 
ENDROOT
BRANCH   1   4
HETATM    4  C   UNL     1      68.322   4.414   7.270  1.00  0.00    -0.049 A 
HETATM    5  C   UNL     1      68.479   3.116   6.746  1.00  0.00     0.008 A 
HETATM    6  C   UNL     1      68.033   2.787   5.462  1.00  0.00     0.001 A 
HETATM    7  C   UNL     1      67.431   3.751   4.661  1.00  0.00     0.000 A 
HETATM    8  C   UNL     1      67.285   5.047   5.143  1.00  0.00     0.001 A 
HETATM    9  C   UNL     1      67.733   5.375   6.427  1.00  0.00     0.008 A 
ENDBRANCH   1   4
BRANCH   1  10
HETATM   10  C   UNL     1      68.689   3.506   9.582  1.00  0.00     0.243 C 
BRANCH  10  11
HETATM   11  N   UNL     1      69.743   3.348  10.590  1.00  0.00    -0.078 N 
HETATM   12  H   UNL     1      70.654   3.335  10.131  1.00  0.00     0.274 HD
HETATM   13  H   UNL     1      69.603   2.471  11.092  1.00  0.00     0.274 HD
HETATM   14  H   UNL     1      69.704   4.126  11.248  1.00  0.00     0.274 HD
ENDBRANCH  10  11
ENDBRANCH   1  10
TORSDOF 3
ENDMDL
MODEL 6
REMARK VINA RESULT:      -4.1      5.347      7.710
REMARK  3 active torsions:
REMARK  status: ('A' for Active; 'I' for Inactive)
REMARK    1  A    between atoms: C_1  and  C_2 
REMARK    2  A    between atoms: C_1  and  C_4 
REMARK    3  A    between atoms: N_3  and  C_4 
ROOT
HETATM    1  C   UNL     1      66.804   6.216   5.984  1.00  0.00     0.003 C 
HETATM    2  C   UNL     1      65.288   6.203   6.305  1.00  0.00     0.021 C 
HETATM    3  C   UNL     1      66.950   5.592   4.573  1.00  0.00     0.021 C 
ENDROOT
BRANCH   1   4
HETATM    4  C   UNL     1      67.620   5.425   7.034  1.00  0.00    -0.049 A 
HETATM    5  C   UNL     1      67.856   5.944   8.322  1.00  0.00     0.008 A 
HETATM    6  C   UNL     1      68.602   5.236   9.270  1.00  0.00     0.001 A 
HETATM    7  C   UNL     1      69.144   3.996   8.951  1.00  0.00     0.000 A 
HETATM    8  C   UNL     1      68.947   3.470   7.680  1.00  0.00     0.001 A 
HETATM    9  C   UNL     1      68.203   4.180   6.732  1.00  0.00     0.008 A 
ENDBRANCH   1   4
BRANCH   1  10
HETATM   10  C   UNL     1      67.329   7.685   5.981  1.00  0.00     0.243 C 
BRANCH  10  11
HETATM   11  N   UNL     1      68.588   7.887   5.255  1.00  0.00    -0.078 N 
HETATM   12  H   UNL     1      68.399   7.935   4.254  1.00  0.00     0.274 HD
HETATM   13  H   UNL     1      69.218   7.108   5.446  1.00  0.00     0.274 HD
HETATM   14  H   UNL     1      69.021   8.758   5.561  1.00  0.00     0.274 HD
ENDBRANCH  10  11
ENDBRANCH   1  10
TORSDOF 3
ENDMDL
MODEL 7
REMARK VINA RESULT:      -4.1      2.452      4.186
REMARK  3 active torsions:
REMARK  status: ('A' for Active; 'I' for Inactive)
REMARK    1  A    between atoms: C_1  and  C_2 
REMARK    2  A    between atoms: C_1  and  C_4 
REMARK    3  A    between atoms: N_3  and  C_4 
ROOT
HETATM    1  C   UNL     1      61.905   8.819   1.778  1.00  0.00     0.003 C 
HETATM    2  C   UNL     1      62.336   8.463   0.333  1.00  0.00     0.021 C 
HETATM    3  C   UNL     1      61.821  10.366   1.833  1.00  0.00     0.021 C 
ENDROOT
BRANCH   1   4
HETATM    4  C   UNL     1      62.904   8.275   2.827  1.00  0.00    -0.049 A 
HETATM    5  C   UNL     1      63.221   9.006   3.988  1.00  0.00     0.008 A 
HETATM    6  C   UNL     1      64.131   8.520   4.932  1.00  0.00     0.001 A 
HETATM    7  C   UNL     1      64.760   7.297   4.735  1.00  0.00     0.000 A 
HETATM    8  C   UNL     1      64.485   6.564   3.586  1.00  0.00     0.001 A 
HETATM    9  C   UNL     1      63.576   7.051   2.641  1.00  0.00     0.008 A 
ENDBRANCH   1   4
BRANCH   1  10
HETATM   10  C   UNL     1      60.509   8.192   2.081  1.00  0.00     0.243 C 
BRANCH  10  11
HETATM   11  N   UNL     1      59.470   8.496   1.090  1.00  0.00    -0.078 N 
HETATM   12  H   UNL     1      59.815   9.205   0.442  1.00  0.00     0.274 HD
HETATM   13  H   UNL     1      58.639   8.846   1.566  1.00  0.00     0.274 HD
HETATM   14  H   UNL     1      59.235   7.649   0.574  1.00  0.00     0.274 HD
ENDBRANCH  10  11
ENDBRANCH   1  10
TORSDOF 3
ENDMDL
MODEL 8
REMARK VINA RESULT:      -4.1      4.748      7.422
REMARK  3 active torsions:
REMARK  status: ('A' for Active; 'I' for Inactive)
REMARK    1  A    between atoms: C_1  and  C_2 
REMARK    2  A    between atoms: C_1  and  C_4 
REMARK    3  A    between atoms: N_3  and  C_4 
ROOT
HETATM    1  C   UNL     1      66.943   6.625   5.696  1.00  0.00     0.003 C 
HETATM    2  C   UNL     1      66.888   5.628   4.511  1.00  0.00     0.021 C 
HETATM    3  C   UNL     1      67.800   7.823   5.211  1.00  0.00     0.021 C 
ENDROOT
BRANCH   1   4
HETATM    4  C   UNL     1      67.550   5.978   6.964  1.00  0.00    -0.049 A 
HETATM    5  C   UNL     1      68.264   4.766   6.899  1.00  0.00     0.008 A 
HETATM    6  C   UNL     1      68.806   4.174   8.044  1.00  0.00     0.001 A 
HETATM    7  C   UNL     1      68.636   4.770   9.288  1.00  0.00     0.000 A 
HETATM    8  C   UNL     1      67.915   5.955   9.386  1.00  0.00     0.001 A 
HETATM    9  C   UNL     1      67.373   6.545   8.240  1.00  0.00     0.008 A 
ENDBRANCH   1   4
BRANCH   1  10
HETATM   10  C   UNL     1      65.500   7.102   6.050  1.00  0.00     0.243 C 
BRANCH  10  11
HETATM   11  N   UNL     1      65.302   8.556   5.996  1.00  0.00    -0.078 N 
HETATM   12  H   UNL     1      66.054   9.020   6.507  1.00  0.00     0.274 HD
HETATM   13  H   UNL     1      64.406   8.792   6.421  1.00  0.00     0.274 HD
HETATM   14  H   UNL     1      65.310   8.863   5.024  1.00  0.00     0.274 HD
ENDBRANCH  10  11
ENDBRANCH   1  10
TORSDOF 3
ENDMDL
MODEL 9
REMARK VINA RESULT:      -3.9      6.221      8.624
REMARK  3 active torsions:
REMARK  status: ('A' for Active; 'I' for Inactive)
REMARK    1  A    between atoms: C_1  and  C_2 
REMARK    2  A    between atoms: C_1  and  C_4 
REMARK    3  A    between atoms: N_3  and  C_4 
ROOT
HETATM    1  C   UNL     1      66.945   5.572   7.030  1.00  0.00     0.003 C 
HETATM    2  C   UNL     1      66.823   7.070   7.408  1.00  0.00     0.021 C 
HETATM    3  C   UNL     1      65.513   4.987   7.125  1.00  0.00     0.021 C 
ENDROOT
BRANCH   1   4
HETATM    4  C   UNL     1      67.921   4.821   7.967  1.00  0.00    -0.049 A 
HETATM    5  C   UNL     1      67.545   3.629   8.615  1.00  0.00     0.008 A 
HETATM    6  C   UNL     1      68.423   2.953   9.469  1.00  0.00     0.001 A 
HETATM    7  C   UNL     1      69.695   3.459   9.710  1.00  0.00     0.000 A 
HETATM    8  C   UNL     1      70.085   4.647   9.102  1.00  0.00     0.001 A 
HETATM    9  C   UNL     1      69.206   5.322   8.249  1.00  0.00     0.008 A 
ENDBRANCH   1   4
BRANCH   1  10
HETATM   10  C   UNL     1      67.486   5.440   5.573  1.00  0.00     0.243 C 
BRANCH  10  11
HETATM   11  N   UNL     1      67.857   6.709   4.936  1.00  0.00    -0.078 N 
HETATM   12  H   UNL     1      68.688   6.570   4.360  1.00  0.00     0.274 HD
HETATM   13  H   UNL     1      68.054   7.404   5.656  1.00  0.00     0.274 HD
HETATM   14  H   UNL     1      67.088   7.033   4.351  1.00  0.00     0.274 HD
ENDBRANCH  10  11
ENDBRANCH   1  10
TORSDOF 3
ENDMDL
