MODEL 1
REMARK VINA RESULT:      -5.0      0.000      0.000
REMARK  1 active torsions:
REMARK  status: ('A' for Active; 'I' for Inactive)
REMARK    1  A    between atoms: C_6  and  N_7 
ROOT
HETATM    1  C   UNL     1      71.417  23.422  13.902  1.00  0.00    -0.024 A 
HETATM    2  O   UNL     1      73.203  22.247  12.980  1.00  0.00    -0.382 OA
HETATM    3  C   UNL     1      72.556  24.178  14.112  1.00  0.00    -0.026 A 
HETATM    4  C   UNL     1      70.177  23.847  14.357  1.00  0.00     0.038 A 
HETATM    5  C   UNL     1      72.496  25.382  14.789  1.00  0.00     0.012 A 
HETATM    6  C   UNL     1      70.079  25.083  15.004  1.00  0.00     0.026 A 
HETATM    7  C   UNL     1      71.774  22.171  13.192  1.00  0.00     0.207 A 
HETATM    8  C   UNL     1      71.251  25.819  15.254  1.00  0.00     0.029 A 
HETATM    9  C   UNL     1      73.730  23.468  13.550  1.00  0.00     0.207 A 
ENDROOT
BRANCH   6  10
HETATM   10  N   UNL     1      68.870  25.464  15.604  1.00  0.00    -0.399 N 
HETATM   11  H   UNL     1      68.735  25.328  16.569  1.00  0.00     0.156 HD
HETATM   12  H   UNL     1      68.157  25.867  15.058  1.00  0.00     0.156 HD
ENDBRANCH   6  10
TORSDOF 1
ENDMDL
MODEL 2
REMARK VINA RESULT:      -4.8     19.652     21.300
REMARK  1 active torsions:
REMARK  status: ('A' for Active; 'I' for Inactive)
REMARK    1  A    between atoms: C_6  and  N_7 
ROOT
HETATM    1  C   UNL     1      62.347   9.670   3.367  1.00  0.00    -0.024 A 
HETATM    2  O   UNL     1      61.896  11.946   3.557  1.00  0.00    -0.382 OA
HETATM    3  C   UNL     1      62.060  10.138   2.098  1.00  0.00    -0.026 A 
HETATM    4  C   UNL     1      62.642   8.333   3.593  1.00  0.00     0.038 A 
HETATM    5  C   UNL     1      62.051   9.283   1.011  1.00  0.00     0.012 A 
HETATM    6  C   UNL     1      62.686   7.455   2.506  1.00  0.00     0.026 A 
HETATM    7  C   UNL     1      62.246  10.782   4.341  1.00  0.00     0.207 A 
HETATM    8  C   UNL     1      62.346   7.932   1.227  1.00  0.00     0.029 A 
HETATM    9  C   UNL     1      61.755  11.587   2.163  1.00  0.00     0.207 A 
ENDROOT
BRANCH   6  10
HETATM   10  N   UNL     1      62.832   6.078   2.724  1.00  0.00    -0.399 N 
HETATM   11  H   UNL     1      63.166   5.749   3.589  1.00  0.00     0.156 HD
HETATM   12  H   UNL     1      62.602   5.440   2.010  1.00  0.00     0.156 HD
ENDBRANCH   6  10
TORSDOF 1
ENDMDL
MODEL 3
REMARK VINA RESULT:      -4.7     19.739     21.370
REMARK  1 active torsions:
REMARK  status: ('A' for Active; 'I' for Inactive)
REMARK    1  A    between atoms: C_6  and  N_7 
ROOT
HETATM    1  C   UNL     1      62.059  10.124   2.123  1.00  0.00    -0.024 A 
HETATM    2  O   UNL     1      61.892  11.925   3.590  1.00  0.00    -0.382 OA
HETATM    3  C   UNL     1      62.359   9.652   3.387  1.00  0.00    -0.026 A 
HETATM    4  C   UNL     1      62.090   9.290   1.015  1.00  0.00     0.038 A 
HETATM    5  C   UNL     1      62.708   8.329   3.587  1.00  0.00     0.012 A 
HETATM    6  C   UNL     1      62.394   7.936   1.195  1.00  0.00     0.026 A 
HETATM    7  C   UNL     1      61.763  11.575   2.192  1.00  0.00     0.207 A 
HETATM    8  C   UNL     1      62.744   7.478   2.477  1.00  0.00     0.029 A 
HETATM    9  C   UNL     1      62.277  10.765   4.363  1.00  0.00     0.207 A 
ENDROOT
BRANCH   6  10
HETATM   10  N   UNL     1      62.579   7.107   0.079  1.00  0.00    -0.399 N 
HETATM   11  H   UNL     1      62.263   7.396  -0.807  1.00  0.00     0.156 HD
HETATM   12  H   UNL     1      63.025   6.235   0.183  1.00  0.00     0.156 HD
ENDBRANCH   6  10
TORSDOF 1
ENDMDL
MODEL 4
REMARK VINA RESULT:      -4.7     18.631     20.056
REMARK  1 active torsions:
REMARK  status: ('A' for Active; 'I' for Inactive)
REMARK    1  A    between atoms: C_6  and  N_7 
ROOT
HETATM    1  C   UNL     1      63.333   8.712   3.973  1.00  0.00    -0.024 A 
HETATM    2  O   UNL     1      63.179   7.149   2.253  1.00  0.00    -0.382 OA
HETATM    3  C   UNL     1      62.474   9.232   3.022  1.00  0.00    -0.026 A 
HETATM    4  C   UNL     1      63.650   9.419   5.123  1.00  0.00     0.038 A 
HETATM    5  C   UNL     1      61.906  10.482   3.186  1.00  0.00     0.012 A 
HETATM    6  C   UNL     1      63.054  10.666   5.337  1.00  0.00     0.026 A 
HETATM    7  C   UNL     1      63.823   7.386   3.527  1.00  0.00     0.207 A 
HETATM    8  C   UNL     1      62.220  11.206   4.342  1.00  0.00     0.029 A 
HETATM    9  C   UNL     1      62.347   8.277   1.895  1.00  0.00     0.207 A 
ENDROOT
BRANCH   6  10
HETATM   10  N   UNL     1      63.470  11.465   6.412  1.00  0.00    -0.399 N 
HETATM   11  H   UNL     1      62.874  11.603   7.183  1.00  0.00     0.156 HD
HETATM   12  H   UNL     1      64.358  11.890   6.394  1.00  0.00     0.156 HD
ENDBRANCH   6  10
TORSDOF 1
ENDMDL
MODEL 5
REMARK VINA RESULT:      -4.6      2.679      3.623
REMARK  1 active torsions:
REMARK  status: ('A' for Active; 'I' for Inactive)
REMARK    1  A    between atoms: C_6  and  N_7 
ROOT
HETATM    1  C   UNL     1      70.543  23.953  14.175  1.00  0.00    -0.024 A 
HETATM    2  O   UNL     1      70.261  25.753  15.625  1.00  0.00    -0.382 OA
HETATM    3  C   UNL     1      71.786  24.529  14.359  1.00  0.00    -0.026 A 
HETATM    4  C   UNL     1      70.372  22.858  13.341  1.00  0.00     0.038 A 
HETATM    5  C   UNL     1      72.902  24.035  13.709  1.00  0.00     0.012 A 
HETATM    6  C   UNL     1      71.491  22.308  12.707  1.00  0.00     0.026 A 
HETATM    7  C   UNL     1      69.528  24.702  14.953  1.00  0.00     0.207 A 
HETATM    8  C   UNL     1      72.741  22.931  12.863  1.00  0.00     0.029 A 
HETATM    9  C   UNL     1      71.662  25.692  15.271  1.00  0.00     0.207 A 
ENDROOT
BRANCH   6  10
HETATM   10  N   UNL     1      71.325  21.301  11.745  1.00  0.00    -0.399 N 
HETATM   11  H   UNL     1      70.539  20.709  11.783  1.00  0.00     0.156 HD
HETATM   12  H   UNL     1      71.995  21.185  11.034  1.00  0.00     0.156 HD
ENDBRANCH   6  10
TORSDOF 1
ENDMDL
MODEL 6
REMARK VINA RESULT:      -4.5     18.924     20.505
REMARK  1 active torsions:
REMARK  status: ('A' for Active; 'I' for Inactive)
REMARK    1  A    between atoms: C_6  and  N_7 
ROOT
HETATM    1  C   UNL     1      62.823   9.215   3.873  1.00  0.00    -0.024 A 
HETATM    2  O   UNL     1      63.171  10.000   6.037  1.00  0.00    -0.382 OA
HETATM    3  C   UNL     1      62.404  10.533   3.903  1.00  0.00    -0.026 A 
HETATM    4  C   UNL     1      62.726   8.454   2.717  1.00  0.00     0.038 A 
HETATM    5  C   UNL     1      61.868  11.133   2.779  1.00  0.00     0.012 A 
HETATM    6  C   UNL     1      62.231   9.050   1.553  1.00  0.00     0.026 A 
HETATM    7  C   UNL     1      63.312   8.818   5.215  1.00  0.00     0.207 A 
HETATM    8  C   UNL     1      61.764  10.375   1.607  1.00  0.00     0.029 A 
HETATM    9  C   UNL     1      62.596  11.081   5.267  1.00  0.00     0.207 A 
ENDROOT
BRANCH   6  10
HETATM   10  N   UNL     1      61.983   8.266   0.417  1.00  0.00    -0.399 N 
HETATM   11  H   UNL     1      61.385   8.598  -0.290  1.00  0.00     0.156 HD
HETATM   12  H   UNL     1      62.407   7.381   0.328  1.00  0.00     0.156 HD
ENDBRANCH   6  10
TORSDOF 1
ENDMDL
MODEL 7
REMARK VINA RESULT:      -4.2     19.048     20.535
REMARK  1 active torsions:
REMARK  status: ('A' for Active; 'I' for Inactive)
REMARK    1  A    between atoms: C_6  and  N_7 
ROOT
HETATM    1  C   UNL     1      62.212   9.519   2.921  1.00  0.00    -0.024 A 
HETATM    2  O   UNL     1      61.721   8.193   1.070  1.00  0.00    -0.382 OA
HETATM    3  C   UNL     1      62.941   8.351   3.049  1.00  0.00    -0.026 A 
HETATM    4  C   UNL     1      62.272  10.516   3.883  1.00  0.00     0.038 A 
HETATM    5  C   UNL     1      63.751   8.136   4.148  1.00  0.00     0.012 A 
HETATM    6  C   UNL     1      63.119  10.346   4.983  1.00  0.00     0.026 A 
HETATM    7  C   UNL     1      61.404   9.467   1.679  1.00  0.00     0.207 A 
HETATM    8  C   UNL     1      63.819   9.134   5.127  1.00  0.00     0.029 A 
HETATM    9  C   UNL     1      62.657   7.462   1.896  1.00  0.00     0.207 A 
ENDROOT
BRANCH   6  10
HETATM   10  N   UNL     1      63.086  11.265   6.041  1.00  0.00    -0.399 N 
HETATM   11  H   UNL     1      63.686  11.151   6.812  1.00  0.00     0.156 HD
HETATM   12  H   UNL     1      62.459  12.024   6.012  1.00  0.00     0.156 HD
ENDBRANCH   6  10
TORSDOF 1
ENDMDL
MODEL 8
REMARK VINA RESULT:      -4.2     19.126     20.156
REMARK  1 active torsions:
REMARK  status: ('A' for Active; 'I' for Inactive)
REMARK    1  A    between atoms: C_6  and  N_7 
ROOT
HETATM    1  C   UNL     1      62.864   8.725   3.445  1.00  0.00    -0.024 A 
HETATM    2  O   UNL     1      63.787   6.870   4.508  1.00  0.00    -0.382 OA
HETATM    3  C   UNL     1      63.131   9.092   4.752  1.00  0.00    -0.026 A 
HETATM    4  C   UNL     1      62.287   9.614   2.550  1.00  0.00     0.038 A 
HETATM    5  C   UNL     1      62.823  10.360   5.210  1.00  0.00     0.012 A 
HETATM    6  C   UNL     1      62.008  10.918   2.974  1.00  0.00     0.026 A 
HETATM    7  C   UNL     1      63.254   7.311   3.237  1.00  0.00     0.207 A 
HETATM    8  C   UNL     1      62.239  11.265   4.317  1.00  0.00     0.029 A 
HETATM    9  C   UNL     1      63.713   7.939   5.480  1.00  0.00     0.207 A 
ENDROOT
BRANCH   6  10
HETATM   10  N   UNL     1      61.290  11.786   2.139  1.00  0.00    -0.399 N 
HETATM   11  H   UNL     1      61.360  12.759   2.265  1.00  0.00     0.156 HD
HETATM   12  H   UNL     1      60.715  11.421   1.428  1.00  0.00     0.156 HD
ENDBRANCH   6  10
TORSDOF 1
ENDMDL
MODEL 9
REMARK VINA RESULT:      -4.2     19.314     20.713
REMARK  1 active torsions:
REMARK  status: ('A' for Active; 'I' for Inactive)
REMARK    1  A    between atoms: C_6  and  N_7 
ROOT
HETATM    1  C   UNL     1      67.820   5.650   8.313  1.00  0.00    -0.024 A 
HETATM    2  O   UNL     1      66.563   6.838   6.754  1.00  0.00    -0.382 OA
HETATM    3  C   UNL     1      67.871   4.946   7.124  1.00  0.00    -0.026 A 
HETATM    4  C   UNL     1      68.460   5.187   9.453  1.00  0.00     0.038 A 
HETATM    5  C   UNL     1      68.559   3.750   7.035  1.00  0.00     0.012 A 
HETATM    6  C   UNL     1      69.203   4.004   9.380  1.00  0.00     0.026 A 
HETATM    7  C   UNL     1      66.987   6.863   8.137  1.00  0.00     0.207 A 
HETATM    8  C   UNL     1      69.209   3.272   8.179  1.00  0.00     0.029 A 
HETATM    9  C   UNL     1      67.075   5.657   6.094  1.00  0.00     0.207 A 
ENDROOT
BRANCH   6  10
HETATM   10  N   UNL     1      69.733   3.438  10.548  1.00  0.00    -0.399 N 
HETATM   11  H   UNL     1      69.845   2.462  10.615  1.00  0.00     0.156 HD
HETATM   12  H   UNL     1      69.991   4.016  11.302  1.00  0.00     0.156 HD
ENDBRANCH   6  10
TORSDOF 1
ENDMDL
