MODEL 1
REMARK VINA RESULT:      -4.4      0.000      0.000
REMARK  1 active torsions:
REMARK  status: ('A' for Active; 'I' for Inactive)
REMARK    1  A    between atoms: C_1  and  C_6 
ROOT
HETATM    1  C   UNL     1      74.119  22.591  14.908  1.00  0.00     0.074 A 
HETATM    2  N   UNL     1      73.063  23.825  13.295  1.00  0.00    -0.309 N 
ATOM      3  HN  UNL     1      72.819  24.264  12.408  1.00  0.00     0.186 HD
HETATM    4  C   UNL     1      73.032  23.228  15.479  1.00  0.00     0.129 A 
HETATM    5  N   UNL     1      72.431  23.932  14.478  1.00  0.00    -0.307 N 
HETATM    6  C   UNL     1      74.086  23.008  13.560  1.00  0.00     0.127 A 
HETATM    7  C   UNL     1      71.221  24.713  14.567  1.00  0.00     0.177 C 
ENDROOT
BRANCH   1   8
HETATM    8  C   UNL     1      75.063  21.701  15.532  1.00  0.00     0.212 C 
HETATM    9  O   UNL     1      76.251  21.625  15.257  1.00  0.00    -0.644 OA
HETATM   10  O   UNL     1      74.536  20.903  16.488  1.00  0.00    -0.644 OA
ENDBRANCH   1   8
TORSDOF 1
ENDMDL
MODEL 2
REMARK VINA RESULT:      -4.4     13.447     14.227
REMARK  1 active torsions:
REMARK  status: ('A' for Active; 'I' for Inactive)
REMARK    1  A    between atoms: C_1  and  C_6 
ROOT
HETATM    1  C   UNL     1      78.185  10.070  18.870  1.00  0.00     0.074 A 
HETATM    2  N   UNL     1      79.811  10.985  20.194  1.00  0.00    -0.309 N 
ATOM      3  HN  UNL     1      80.701  11.174  20.654  1.00  0.00     0.186 HD
HETATM    4  C   UNL     1      77.631  11.106  19.599  1.00  0.00     0.129 A 
HETATM    5  N   UNL     1      78.640  11.626  20.354  1.00  0.00    -0.307 N 
HETATM    6  C   UNL     1      79.532  10.042  19.290  1.00  0.00     0.127 A 
HETATM    7  C   UNL     1      78.570  12.764  21.238  1.00  0.00     0.177 C 
ENDROOT
BRANCH   1   8
HETATM    8  C   UNL     1      77.547   9.218  17.900  1.00  0.00     0.212 C 
HETATM    9  O   UNL     1      77.512   9.421  16.695  1.00  0.00    -0.644 OA
HETATM   10  O   UNL     1      76.946   8.125  18.421  1.00  0.00    -0.644 OA
ENDBRANCH   1   8
TORSDOF 1
ENDMDL
MODEL 3
REMARK VINA RESULT:      -4.3     12.778     13.699
REMARK  1 active torsions:
REMARK  status: ('A' for Active; 'I' for Inactive)
REMARK    1  A    between atoms: C_1  and  C_6 
ROOT
HETATM    1  C   UNL     1      78.235  12.017  20.389  1.00  0.00     0.074 A 
HETATM    2  N   UNL     1      80.255  11.094  20.943  1.00  0.00    -0.309 N 
ATOM      3  HN  UNL     1      81.092  10.513  20.945  1.00  0.00     0.186 HD
HETATM    4  C   UNL     1      78.710  12.642  21.528  1.00  0.00     0.129 A 
HETATM    5  N   UNL     1      79.917  12.071  21.803  1.00  0.00    -0.307 N 
HETATM    6  C   UNL     1      79.232  11.065  20.083  1.00  0.00     0.127 A 
HETATM    7  C   UNL     1      80.829  12.428  22.863  1.00  0.00     0.177 C 
ENDROOT
BRANCH   1   8
HETATM    8  C   UNL     1      77.014  12.275  19.672  1.00  0.00     0.212 C 
HETATM    9  O   UNL     1      75.969  12.666  20.171  1.00  0.00    -0.644 OA
HETATM   10  O   UNL     1      77.084  12.042  18.342  1.00  0.00    -0.644 OA
ENDBRANCH   1   8
TORSDOF 1
ENDMDL
MODEL 4
REMARK VINA RESULT:      -4.3     18.225     19.218
REMARK  1 active torsions:
REMARK  status: ('A' for Active; 'I' for Inactive)
REMARK    1  A    between atoms: C_1  and  C_6 
ROOT
HETATM    1  C   UNL     1      76.374   4.650  17.441  1.00  0.00     0.074 A 
HETATM    2  N   UNL     1      76.341   2.732  18.689  1.00  0.00    -0.309 N 
ATOM      3  HN  UNL     1      76.539   2.028  19.399  1.00  0.00     0.186 HD
HETATM    4  C   UNL     1      75.461   3.775  16.883  1.00  0.00     0.129 A 
HETATM    5  N   UNL     1      75.467   2.661  17.669  1.00  0.00    -0.307 N 
HETATM    6  C   UNL     1      76.889   3.943  18.549  1.00  0.00     0.127 A 
HETATM    7  C   UNL     1      74.637   1.489  17.527  1.00  0.00     0.177 C 
ENDROOT
BRANCH   1   8
HETATM    8  C   UNL     1      76.720   5.979  17.007  1.00  0.00     0.212 C 
HETATM    9  O   UNL     1      76.868   6.327  15.845  1.00  0.00    -0.644 OA
HETATM   10  O   UNL     1      76.889   6.871  18.009  1.00  0.00    -0.644 OA
ENDBRANCH   1   8
TORSDOF 1
ENDMDL
MODEL 5
REMARK VINA RESULT:      -4.3     18.993     19.956
REMARK  1 active torsions:
REMARK  status: ('A' for Active; 'I' for Inactive)
REMARK    1  A    between atoms: C_1  and  C_6 
ROOT
HETATM    1  C   UNL     1      75.566   2.948  17.470  1.00  0.00     0.074 A 
HETATM    2  N   UNL     1      77.290   4.310  18.111  1.00  0.00    -0.309 N 
ATOM      3  HN  UNL     1      78.128   4.673  18.563  1.00  0.00     0.186 HD
HETATM    4  C   UNL     1      75.430   4.166  16.829  1.00  0.00     0.129 A 
HETATM    5  N   UNL     1      76.486   4.930  17.229  1.00  0.00    -0.307 N 
HETATM    6  C   UNL     1      76.730   3.105  18.252  1.00  0.00     0.127 A 
HETATM    7  C   UNL     1      76.813   6.264  16.787  1.00  0.00     0.177 C 
ENDROOT
BRANCH   1   8
HETATM    8  C   UNL     1      74.727   1.783  17.363  1.00  0.00     0.212 C 
HETATM    9  O   UNL     1      74.282   1.326  16.321  1.00  0.00    -0.644 OA
HETATM   10  O   UNL     1      74.435   1.191  18.543  1.00  0.00    -0.644 OA
ENDBRANCH   1   8
TORSDOF 1
ENDMDL
MODEL 6
REMARK VINA RESULT:      -4.2     19.933     20.893
REMARK  1 active torsions:
REMARK  status: ('A' for Active; 'I' for Inactive)
REMARK    1  A    between atoms: C_1  and  C_6 
ROOT
HETATM    1  C   UNL     1      76.513   2.782  17.950  1.00  0.00     0.074 A 
HETATM    2  N   UNL     1      76.536   0.705  16.989  1.00  0.00    -0.309 N 
ATOM      3  HN  UNL     1      76.806  -0.239  16.715  1.00  0.00     0.186 HD
HETATM    4  C   UNL     1      75.391   2.651  17.154  1.00  0.00     0.129 A 
HETATM    5  N   UNL     1      75.443   1.397  16.621  1.00  0.00    -0.307 N 
HETATM    6  C   UNL     1      77.183   1.549  17.799  1.00  0.00     0.127 A 
HETATM    7  C   UNL     1      74.462   0.771  15.768  1.00  0.00     0.177 C 
ENDROOT
BRANCH   1   8
HETATM    8  C   UNL     1      76.911   3.907  18.757  1.00  0.00     0.212 C 
HETATM    9  O   UNL     1      76.957   5.067  18.378  1.00  0.00    -0.644 OA
HETATM   10  O   UNL     1      77.258   3.593  20.026  1.00  0.00    -0.644 OA
ENDBRANCH   1   8
TORSDOF 1
ENDMDL
MODEL 7
REMARK VINA RESULT:      -4.1     20.198     20.571
REMARK  1 active torsions:
REMARK  status: ('A' for Active; 'I' for Inactive)
REMARK    1  A    between atoms: C_1  and  C_6 
ROOT
HETATM    1  C   UNL     1      62.474  10.174   4.081  1.00  0.00     0.074 A 
HETATM    2  N   UNL     1      61.595  10.888   2.093  1.00  0.00    -0.309 N 
ATOM      3  HN  UNL     1      61.161  11.460   1.368  1.00  0.00     0.186 HD
HETATM    4  C   UNL     1      62.536   9.135   3.170  1.00  0.00     0.129 A 
HETATM    5  N   UNL     1      62.019   9.615   2.004  1.00  0.00    -0.307 N 
HETATM    6  C   UNL     1      61.875  11.225   3.355  1.00  0.00     0.127 A 
HETATM    7  C   UNL     1      61.923   8.922   0.742  1.00  0.00     0.177 C 
ENDROOT
BRANCH   1   8
HETATM    8  C   UNL     1      62.922  10.191   5.449  1.00  0.00     0.212 C 
HETATM    9  O   UNL     1      63.172  11.196   6.098  1.00  0.00    -0.644 OA
HETATM   10  O   UNL     1      63.068   8.969   6.008  1.00  0.00    -0.644 OA
ENDBRANCH   1   8
TORSDOF 1
ENDMDL
MODEL 8
REMARK VINA RESULT:      -4.0     19.984     21.078
REMARK  1 active torsions:
REMARK  status: ('A' for Active; 'I' for Inactive)
REMARK    1  A    between atoms: C_1  and  C_6 
ROOT
HETATM    1  C   UNL     1      76.359   2.797  17.928  1.00  0.00     0.074 A 
HETATM    2  N   UNL     1      77.906   3.032  19.598  1.00  0.00    -0.309 N 
ATOM      3  HN  UNL     1      78.479   3.416  20.349  1.00  0.00     0.186 HD
HETATM    4  C   UNL     1      77.048   1.606  18.063  1.00  0.00     0.129 A 
HETATM    5  N   UNL     1      77.940   1.792  19.077  1.00  0.00    -0.307 N 
HETATM    6  C   UNL     1      76.942   3.639  18.900  1.00  0.00     0.127 A 
HETATM    7  C   UNL     1      78.847   0.816  19.630  1.00  0.00     0.177 C 
ENDROOT
BRANCH   1   8
HETATM    8  C   UNL     1      75.288   3.113  17.018  1.00  0.00     0.212 C 
HETATM    9  O   UNL     1      74.449   2.322  16.614  1.00  0.00    -0.644 OA
HETATM   10  O   UNL     1      75.264   4.400  16.604  1.00  0.00    -0.644 OA
ENDBRANCH   1   8
TORSDOF 1
ENDMDL
MODEL 9
REMARK VINA RESULT:      -3.9     20.540     20.900
REMARK  1 active torsions:
REMARK  status: ('A' for Active; 'I' for Inactive)
REMARK    1  A    between atoms: C_1  and  C_6 
ROOT
HETATM    1  C   UNL     1      62.074   9.981   3.834  1.00  0.00     0.074 A 
HETATM    2  N   UNL     1      61.738   7.739   4.145  1.00  0.00    -0.309 N 
ATOM      3  HN  UNL     1      61.402   6.781   4.049  1.00  0.00     0.186 HD
HETATM    4  C   UNL     1      62.832   9.565   4.913  1.00  0.00     0.129 A 
HETATM    5  N   UNL     1      62.611   8.227   5.045  1.00  0.00    -0.307 N 
HETATM    6  C   UNL     1      61.416   8.806   3.410  1.00  0.00     0.127 A 
HETATM    7  C   UNL     1      63.225   7.331   5.995  1.00  0.00     0.177 C 
ENDROOT
BRANCH   1   8
HETATM    8  C   UNL     1      61.978  11.299   3.262  1.00  0.00     0.212 C 
HETATM    9  O   UNL     1      61.980  11.553   2.067  1.00  0.00    -0.644 OA
HETATM   10  O   UNL     1      61.890  12.299   4.168  1.00  0.00    -0.644 OA
ENDBRANCH   1   8
TORSDOF 1
ENDMDL
