MODEL 1
REMARK VINA RESULT:      -4.5      0.000      0.000
REMARK  4 active torsions:
REMARK  status: ('A' for Active; 'I' for Inactive)
REMARK    1  A    between atoms: N_1  and  C_5 
REMARK    2  A    between atoms: N_4  and  C_11 
REMARK    3  A    between atoms: C_5  and  C_10 
REMARK    4  A    between atoms: C_10  and  C_11 
ROOT
HETATM    1  C   UNL     1      73.435  23.810  13.817  1.00  0.00     0.140 C 
ENDROOT
BRANCH   1   2
HETATM    2  N   UNL     1      72.271  23.211  13.191  1.00  0.00    -0.366 N 
HETATM    3  C   UNL     1      72.271  22.552  11.992  1.00  0.00     0.090 A 
HETATM    4  C   UNL     1      70.985  22.117  11.747  1.00  0.00     0.019 A 
HETATM    5  C   UNL     1      70.177  22.583  12.810  1.00  0.00     0.019 A 
HETATM    6  C   UNL     1      70.992  23.276  13.677  1.00  0.00     0.090 A 
ENDBRANCH   1   2
BRANCH   1   7
HETATM    7  C   UNL     1      73.540  23.504  15.312  1.00  0.00     0.124 C 
BRANCH   7   8
HETATM    8  C   UNL     1      74.296  22.194  15.464  1.00  0.00    -0.076 C 
BRANCH   8   9
HETATM    9  N   UNL     1      74.923  21.107  15.590  1.00  0.00    -0.370 N 
ATOM     10  HN2 UNL     1      74.429  21.990  15.463  1.00  0.00     0.165 HD
ATOM     11  HN1 UNL     1      75.430  20.228  15.692  1.00  0.00     0.165 HD
ENDBRANCH   8   9
ENDBRANCH   7   8
ENDBRANCH   1   7
TORSDOF 4
ENDMDL
MODEL 2
REMARK VINA RESULT:      -4.5     15.037     16.464
REMARK  4 active torsions:
REMARK  status: ('A' for Active; 'I' for Inactive)
REMARK    1  A    between atoms: N_1  and  C_5 
REMARK    2  A    between atoms: N_4  and  C_11 
REMARK    3  A    between atoms: C_5  and  C_10 
REMARK    4  A    between atoms: C_10  and  C_11 
ROOT
HETATM    1  C   UNL     1      76.989   7.260  17.097  1.00  0.00     0.140 C 
ENDROOT
BRANCH   1   2
HETATM    2  N   UNL     1      77.337   8.162  16.016  1.00  0.00    -0.366 N 
HETATM    3  C   UNL     1      77.750   9.457  16.170  1.00  0.00     0.090 A 
HETATM    4  C   UNL     1      77.997   9.977  14.916  1.00  0.00     0.019 A 
HETATM    5  C   UNL     1      77.666   8.973  13.976  1.00  0.00     0.019 A 
HETATM    6  C   UNL     1      77.238   7.870  14.681  1.00  0.00     0.090 A 
ENDBRANCH   1   2
BRANCH   1   7
HETATM    7  C   UNL     1      76.587   5.866  16.613  1.00  0.00     0.124 C 
BRANCH   7   8
HETATM    8  C   UNL     1      76.805   4.896  17.761  1.00  0.00    -0.076 C 
BRANCH   8   9
HETATM    9  N   UNL     1      76.987   4.090  18.715  1.00  0.00    -0.370 N 
ATOM     10  HN2 UNL     1      76.868   4.740  17.937  1.00  0.00     0.165 HD
ATOM     11  HN1 UNL     1      77.133   3.439  19.486  1.00  0.00     0.165 HD
ENDBRANCH   8   9
ENDBRANCH   7   8
ENDBRANCH   1   7
TORSDOF 4
ENDMDL
MODEL 3
REMARK VINA RESULT:      -4.3      2.022      4.144
REMARK  4 active torsions:
REMARK  status: ('A' for Active; 'I' for Inactive)
REMARK    1  A    between atoms: N_1  and  C_5 
REMARK    2  A    between atoms: N_4  and  C_11 
REMARK    3  A    between atoms: C_5  and  C_10 
REMARK    4  A    between atoms: C_10  and  C_11 
ROOT
HETATM    1  C   UNL     1      71.685  22.104  12.943  1.00  0.00     0.140 C 
ENDROOT
BRANCH   1   2
HETATM    2  N   UNL     1      71.719  23.328  13.721  1.00  0.00    -0.366 N 
HETATM    3  C   UNL     1      70.662  23.851  14.415  1.00  0.00     0.090 A 
HETATM    4  C   UNL     1      71.092  25.007  15.035  1.00  0.00     0.019 A 
HETATM    5  C   UNL     1      72.438  25.211  14.650  1.00  0.00     0.019 A 
HETATM    6  C   UNL     1      72.793  24.172  13.819  1.00  0.00     0.090 A 
ENDBRANCH   1   2
BRANCH   1   7
HETATM    7  C   UNL     1      71.691  22.350  11.433  1.00  0.00     0.124 C 
BRANCH   7   8
HETATM    8  C   UNL     1      71.300  21.051  10.750  1.00  0.00    -0.076 C 
BRANCH   8   9
HETATM    9  N   UNL     1      70.974  19.973  10.182  1.00  0.00    -0.370 N 
ATOM     10  HN2 UNL     1      71.264  20.842  10.630  1.00  0.00     0.165 HD
ATOM     11  HN1 UNL     1      70.710  19.101   9.723  1.00  0.00     0.165 HD
ENDBRANCH   8   9
ENDBRANCH   7   8
ENDBRANCH   1   7
TORSDOF 4
ENDMDL
MODEL 4
REMARK VINA RESULT:      -3.8     18.191     19.927
REMARK  4 active torsions:
REMARK  status: ('A' for Active; 'I' for Inactive)
REMARK    1  A    between atoms: N_1  and  C_5 
REMARK    2  A    between atoms: N_4  and  C_11 
REMARK    3  A    between atoms: C_5  and  C_10 
REMARK    4  A    between atoms: C_10  and  C_11 
ROOT
HETATM    1  C   UNL     1      62.165   9.202   4.070  1.00  0.00     0.140 C 
ENDROOT
BRANCH   1   2
HETATM    2  N   UNL     1      62.241   8.738   2.698  1.00  0.00    -0.366 N 
HETATM    3  C   UNL     1      62.647   7.491   2.307  1.00  0.00     0.090 A 
HETATM    4  C   UNL     1      62.569   7.432   0.931  1.00  0.00     0.019 A 
HETATM    5  C   UNL     1      62.156   8.707   0.480  1.00  0.00     0.019 A 
HETATM    6  C   UNL     1      61.984   9.503   1.591  1.00  0.00     0.090 A 
ENDBRANCH   1   2
BRANCH   1   7
HETATM    7  C   UNL     1      62.114  10.726   4.190  1.00  0.00     0.124 C 
BRANCH   7   8
HETATM    8  C   UNL     1      62.938  11.124   5.402  1.00  0.00    -0.076 C 
BRANCH   8   9
HETATM    9  N   UNL     1      63.623  11.453   6.409  1.00  0.00    -0.370 N 
ATOM     10  HN2 UNL     1      63.070  11.159   5.604  1.00  0.00     0.165 HD
ATOM     11  HN1 UNL     1      64.176  11.720   7.224  1.00  0.00     0.165 HD
ENDBRANCH   8   9
ENDBRANCH   7   8
ENDBRANCH   1   7
TORSDOF 4
ENDMDL
MODEL 5
REMARK VINA RESULT:      -3.7     18.159     19.140
REMARK  4 active torsions:
REMARK  status: ('A' for Active; 'I' for Inactive)
REMARK    1  A    between atoms: N_1  and  C_5 
REMARK    2  A    between atoms: N_4  and  C_11 
REMARK    3  A    between atoms: C_5  and  C_10 
REMARK    4  A    between atoms: C_10  and  C_11 
ROOT
HETATM    1  C   UNL     1      62.857   8.673   4.770  1.00  0.00     0.140 C 
ENDROOT
BRANCH   1   2
HETATM    2  N   UNL     1      62.441   9.527   3.674  1.00  0.00    -0.366 N 
HETATM    3  C   UNL     1      62.082  10.842   3.790  1.00  0.00     0.090 A 
HETATM    4  C   UNL     1      61.767  11.309   2.531  1.00  0.00     0.019 A 
HETATM    5  C   UNL     1      61.888  10.218   1.638  1.00  0.00     0.019 A 
HETATM    6  C   UNL     1      62.283   9.123   2.374  1.00  0.00     0.090 A 
ENDBRANCH   1   2
BRANCH   1   7
HETATM    7  C   UNL     1      64.109   7.854   4.454  1.00  0.00     0.124 C 
BRANCH   7   8
HETATM    8  C   UNL     1      65.158   8.189   5.501  1.00  0.00    -0.076 C 
BRANCH   8   9
HETATM    9  N   UNL     1      66.029   8.466   6.370  1.00  0.00    -0.370 N 
ATOM     10  HN2 UNL     1      65.344   8.249   5.647  1.00  0.00     0.165 HD
ATOM     11  HN1 UNL     1      66.734   8.690   7.074  1.00  0.00     0.165 HD
ENDBRANCH   8   9
ENDBRANCH   7   8
ENDBRANCH   1   7
TORSDOF 4
ENDMDL
MODEL 6
REMARK VINA RESULT:      -3.6     17.747     18.567
REMARK  4 active torsions:
REMARK  status: ('A' for Active; 'I' for Inactive)
REMARK    1  A    between atoms: N_1  and  C_5 
REMARK    2  A    between atoms: N_4  and  C_11 
REMARK    3  A    between atoms: C_5  and  C_10 
REMARK    4  A    between atoms: C_10  and  C_11 
ROOT
HETATM    1  C   UNL     1      67.949   5.012   8.049  1.00  0.00     0.140 C 
ENDROOT
BRANCH   1   2
HETATM    2  N   UNL     1      67.537   6.125   7.216  1.00  0.00    -0.366 N 
HETATM    3  C   UNL     1      66.757   7.172   7.627  1.00  0.00     0.090 A 
HETATM    4  C   UNL     1      66.600   8.029   6.557  1.00  0.00     0.019 A 
HETATM    5  C   UNL     1      67.263   7.445   5.452  1.00  0.00     0.019 A 
HETATM    6  C   UNL     1      67.813   6.257   5.881  1.00  0.00     0.090 A 
ENDBRANCH   1   2
BRANCH   1   7
HETATM    7  C   UNL     1      69.368   5.163   8.600  1.00  0.00     0.124 C 
BRANCH   7   8
HETATM    8  C   UNL     1      69.558   4.116   9.684  1.00  0.00    -0.076 C 
BRANCH   8   9
HETATM    9  N   UNL     1      69.716   3.246  10.584  1.00  0.00    -0.370 N 
ATOM     10  HN2 UNL     1      69.563   3.957   9.868  1.00  0.00     0.165 HD
ATOM     11  HN1 UNL     1      69.845   2.542  11.311  1.00  0.00     0.165 HD
ENDBRANCH   8   9
ENDBRANCH   7   8
ENDBRANCH   1   7
TORSDOF 4
ENDMDL
MODEL 7
REMARK VINA RESULT:      -3.6     18.734     20.068
REMARK  4 active torsions:
REMARK  status: ('A' for Active; 'I' for Inactive)
REMARK    1  A    between atoms: N_1  and  C_5 
REMARK    2  A    between atoms: N_4  and  C_11 
REMARK    3  A    between atoms: C_5  and  C_10 
REMARK    4  A    between atoms: C_10  and  C_11 
ROOT
HETATM    1  C   UNL     1      61.766   8.634   2.902  1.00  0.00     0.140 C 
ENDROOT
BRANCH   1   2
HETATM    2  N   UNL     1      62.982   8.385   3.652  1.00  0.00    -0.366 N 
HETATM    3  C   UNL     1      63.822   7.322   3.464  1.00  0.00     0.090 A 
HETATM    4  C   UNL     1      64.868   7.445   4.355  1.00  0.00     0.019 A 
HETATM    5  C   UNL     1      64.614   8.593   5.141  1.00  0.00     0.019 A 
HETATM    6  C   UNL     1      63.430   9.142   4.702  1.00  0.00     0.090 A 
ENDBRANCH   1   2
BRANCH   1   7
HETATM    7  C   UNL     1      62.018   9.305   1.551  1.00  0.00     0.124 C 
BRANCH   7   8
HETATM    8  C   UNL     1      61.909  10.808   1.752  1.00  0.00    -0.076 C 
BRANCH   8   9
HETATM    9  N   UNL     1      61.819  12.054   1.919  1.00  0.00    -0.370 N 
ATOM     10  HN2 UNL     1      61.919  11.050   1.776  1.00  0.00     0.165 HD
ATOM     11  HN1 UNL     1      61.746  13.063   2.055  1.00  0.00     0.165 HD
ENDBRANCH   8   9
ENDBRANCH   7   8
ENDBRANCH   1   7
TORSDOF 4
ENDMDL
MODEL 8
REMARK VINA RESULT:      -3.6     18.565     20.530
REMARK  4 active torsions:
REMARK  status: ('A' for Active; 'I' for Inactive)
REMARK    1  A    between atoms: N_1  and  C_5 
REMARK    2  A    between atoms: N_4  and  C_11 
REMARK    3  A    between atoms: C_5  and  C_10 
REMARK    4  A    between atoms: C_10  and  C_11 
ROOT
HETATM    1  C   UNL     1      62.525   8.439   2.402  1.00  0.00     0.140 C 
ENDROOT
BRANCH   1   2
HETATM    2  N   UNL     1      62.564   9.457   3.434  1.00  0.00    -0.366 N 
HETATM    3  C   UNL     1      63.152   9.314   4.661  1.00  0.00     0.090 A 
HETATM    4  C   UNL     1      62.991  10.500   5.350  1.00  0.00     0.019 A 
HETATM    5  C   UNL     1      62.230  11.361   4.525  1.00  0.00     0.019 A 
HETATM    6  C   UNL     1      61.959  10.684   3.357  1.00  0.00     0.090 A 
ENDBRANCH   1   2
BRANCH   1   7
HETATM    7  C   UNL     1      62.083   8.979   1.040  1.00  0.00     0.124 C 
BRANCH   7   8
HETATM    8  C   UNL     1      60.694   8.434   0.754  1.00  0.00    -0.076 C 
BRANCH   8   9
HETATM    9  N   UNL     1      59.541   7.981   0.516  1.00  0.00    -0.370 N 
ATOM     10  HN2 UNL     1      60.477   8.327   0.729  1.00  0.00     0.165 HD
ATOM     11  HN1 UNL     1      58.608   7.615   0.323  1.00  0.00     0.165 HD
ENDBRANCH   8   9
ENDBRANCH   7   8
ENDBRANCH   1   7
TORSDOF 4
ENDMDL
MODEL 9
REMARK VINA RESULT:      -3.5     17.711     18.597
REMARK  4 active torsions:
REMARK  status: ('A' for Active; 'I' for Inactive)
REMARK    1  A    between atoms: N_1  and  C_5 
REMARK    2  A    between atoms: N_4  and  C_11 
REMARK    3  A    between atoms: C_5  and  C_10 
REMARK    4  A    between atoms: C_10  and  C_11 
ROOT
HETATM    1  C   UNL     1      66.106   6.305   6.235  1.00  0.00     0.140 C 
ENDROOT
BRANCH   1   2
HETATM    2  N   UNL     1      67.035   5.966   7.296  1.00  0.00    -0.366 N 
HETATM    3  C   UNL     1      68.050   5.054   7.195  1.00  0.00     0.090 A 
HETATM    4  C   UNL     1      68.715   5.024   8.404  1.00  0.00     0.019 A 
HETATM    5  C   UNL     1      68.038   5.909   9.275  1.00  0.00     0.019 A 
HETATM    6  C   UNL     1      66.989   6.460   8.573  1.00  0.00     0.090 A 
ENDBRANCH   1   2
BRANCH   1   7
HETATM    7  C   UNL     1      66.255   7.745   5.741  1.00  0.00     0.124 C 
BRANCH   7   8
HETATM    8  C   UNL     1      67.702   7.946   5.325  1.00  0.00    -0.076 C 
BRANCH   8   9
HETATM    9  N   UNL     1      68.904   8.113   4.980  1.00  0.00    -0.370 N 
ATOM     10  HN2 UNL     1      67.941   7.956   5.276  1.00  0.00     0.165 HD
ATOM     11  HN1 UNL     1      69.876   8.249   4.700  1.00  0.00     0.165 HD
ENDBRANCH   8   9
ENDBRANCH   7   8
ENDBRANCH   1   7
TORSDOF 4
ENDMDL
