MODEL 1
REMARK VINA RESULT:      -5.6      0.000      0.000
REMARK  1 active torsions:
REMARK  status: ('A' for Active; 'I' for Inactive)
REMARK    1  A    between atoms: N_1  and  C_2 
ROOT
HETATM    1  C   UNL     1      77.290   9.923  17.850  1.00  0.00     0.038 A 
HETATM    2  C   UNL     1      77.580  10.022  16.479  1.00  0.00     0.033 A 
HETATM    3  C   UNL     1      76.972   8.663  18.387  1.00  0.00     0.033 A 
HETATM    4  C   UNL     1      77.230   7.653  16.215  1.00  0.00     0.116 A 
HETATM    5  C   UNL     1      76.940   7.531  17.567  1.00  0.00     0.044 A 
HETATM    6  C   UNL     1      77.550   8.885  15.664  1.00  0.00     0.044 A 
HETATM    7  F   UNL     1      77.200   6.566  15.431  1.00  0.00    -0.206 F 
ENDROOT
BRANCH   1   8
HETATM    8  N   UNL     1      77.317  11.084  18.686  1.00  0.00    -0.333 N 
HETATM    9  C   UNL     1      78.132  11.292  19.786  1.00  0.00     0.096 A 
HETATM   10  C   UNL     1      77.866  12.530  20.329  1.00  0.00     0.019 A 
HETATM   11  C   UNL     1      76.850  13.115  19.550  1.00  0.00     0.019 A 
HETATM   12  C   UNL     1      76.534  12.217  18.553  1.00  0.00     0.096 A 
ENDBRANCH   1   8
TORSDOF 1
ENDMDL
MODEL 2
REMARK VINA RESULT:      -5.5      3.442      5.970
REMARK  1 active torsions:
REMARK  status: ('A' for Active; 'I' for Inactive)
REMARK    1  A    between atoms: N_1  and  C_2 
ROOT
HETATM    1  C   UNL     1      76.667   6.299  16.656  1.00  0.00     0.038 A 
HETATM    2  C   UNL     1      76.848   6.682  15.317  1.00  0.00     0.033 A 
HETATM    3  C   UNL     1      76.891   7.247  17.669  1.00  0.00     0.033 A 
HETATM    4  C   UNL     1      77.465   8.903  16.017  1.00  0.00     0.116 A 
HETATM    5  C   UNL     1      77.292   8.547  17.347  1.00  0.00     0.044 A 
HETATM    6  C   UNL     1      77.246   7.985  15.000  1.00  0.00     0.044 A 
HETATM    7  F   UNL     1      77.849  10.150  15.710  1.00  0.00    -0.206 F 
ENDROOT
BRANCH   1   8
HETATM    8  N   UNL     1      76.262   4.966  16.984  1.00  0.00    -0.333 N 
HETATM    9  C   UNL     1      76.947   4.066  17.783  1.00  0.00     0.096 A 
HETATM   10  C   UNL     1      76.238   2.888  17.861  1.00  0.00     0.019 A 
HETATM   11  C   UNL     1      75.076   3.049  17.084  1.00  0.00     0.019 A 
HETATM   12  C   UNL     1      75.110   4.324  16.562  1.00  0.00     0.096 A 
ENDBRANCH   1   8
TORSDOF 1
ENDMDL
MODEL 3
REMARK VINA RESULT:      -5.4      2.829      5.219
REMARK  1 active torsions:
REMARK  status: ('A' for Active; 'I' for Inactive)
REMARK    1  A    between atoms: N_1  and  C_2 
ROOT
HETATM    1  C   UNL     1      77.263  10.864  18.547  1.00  0.00     0.038 A 
HETATM    2  C   UNL     1      78.010  10.840  19.737  1.00  0.00     0.033 A 
HETATM    3  C   UNL     1      76.480  11.996  18.261  1.00  0.00     0.033 A 
HETATM    4  C   UNL     1      77.188  13.029  20.318  1.00  0.00     0.116 A 
HETATM    5  C   UNL     1      76.443  13.075  19.149  1.00  0.00     0.044 A 
HETATM    6  C   UNL     1      77.972  11.925  20.619  1.00  0.00     0.044 A 
HETATM    7  F   UNL     1      77.152  14.065  21.167  1.00  0.00    -0.206 F 
ENDROOT
BRANCH   1   8
HETATM    8  N   UNL     1      77.299   9.755  17.643  1.00  0.00    -0.333 N 
HETATM    9  C   UNL     1      76.990   8.438  17.937  1.00  0.00     0.096 A 
HETATM   10  C   UNL     1      77.143   7.666  16.807  1.00  0.00     0.019 A 
HETATM   11  C   UNL     1      77.564   8.522  15.772  1.00  0.00     0.019 A 
HETATM   12  C   UNL     1      77.649   9.791  16.304  1.00  0.00     0.096 A 
ENDBRANCH   1   8
TORSDOF 1
ENDMDL
MODEL 4
REMARK VINA RESULT:      -5.1      2.656      5.008
REMARK  1 active torsions:
REMARK  status: ('A' for Active; 'I' for Inactive)
REMARK    1  A    between atoms: N_1  and  C_2 
ROOT
HETATM    1  C   UNL     1      77.726   9.993  17.379  1.00  0.00     0.038 A 
HETATM    2  C   UNL     1      76.806  11.001  17.713  1.00  0.00     0.033 A 
HETATM    3  C   UNL     1      78.759   9.692  18.282  1.00  0.00     0.033 A 
HETATM    4  C   UNL     1      77.951  11.380  19.799  1.00  0.00     0.116 A 
HETATM    5  C   UNL     1      78.871  10.388  19.489  1.00  0.00     0.044 A 
HETATM    6  C   UNL     1      76.920  11.692  18.924  1.00  0.00     0.044 A 
HETATM    7  F   UNL     1      78.060  12.045  20.957  1.00  0.00    -0.206 F 
ENDROOT
BRANCH   1   8
HETATM    8  N   UNL     1      77.612   9.286  16.140  1.00  0.00    -0.333 N 
HETATM    9  C   UNL     1      77.918   9.772  14.880  1.00  0.00     0.096 A 
HETATM   10  C   UNL     1      77.679   8.794  13.939  1.00  0.00     0.019 A 
HETATM   11  C   UNL     1      77.204   7.663  14.627  1.00  0.00     0.019 A 
HETATM   12  C   UNL     1      77.175   7.985  15.967  1.00  0.00     0.096 A 
ENDBRANCH   1   8
TORSDOF 1
ENDMDL
MODEL 5
REMARK VINA RESULT:      -5.1      4.463      6.582
REMARK  1 active torsions:
REMARK  status: ('A' for Active; 'I' for Inactive)
REMARK    1  A    between atoms: N_1  and  C_2 
ROOT
HETATM    1  C   UNL     1      79.018  12.459  21.787  1.00  0.00     0.038 A 
HETATM    2  C   UNL     1      80.328  12.960  21.694  1.00  0.00     0.033 A 
HETATM    3  C   UNL     1      78.560  11.986  23.028  1.00  0.00     0.033 A 
HETATM    4  C   UNL     1      80.686  12.508  24.033  1.00  0.00     0.116 A 
HETATM    5  C   UNL     1      79.396  12.010  24.148  1.00  0.00     0.044 A 
HETATM    6  C   UNL     1      81.159  12.985  22.819  1.00  0.00     0.044 A 
HETATM    7  F   UNL     1      81.485  12.531  25.109  1.00  0.00    -0.206 F 
ENDROOT
BRANCH   1   8
HETATM    8  N   UNL     1      78.167  12.431  20.637  1.00  0.00    -0.333 N 
HETATM    9  C   UNL     1      77.463  13.498  20.102  1.00  0.00     0.096 A 
HETATM   10  C   UNL     1      76.758  13.076  18.997  1.00  0.00     0.019 A 
HETATM   11  C   UNL     1      77.021  11.704  18.834  1.00  0.00     0.019 A 
HETATM   12  C   UNL     1      77.885  11.333  19.843  1.00  0.00     0.096 A 
ENDBRANCH   1   8
TORSDOF 1
ENDMDL
MODEL 6
REMARK VINA RESULT:      -5.0     19.435     20.742
REMARK  1 active torsions:
REMARK  status: ('A' for Active; 'I' for Inactive)
REMARK    1  A    between atoms: N_1  and  C_2 
ROOT
HETATM    1  C   UNL     1      62.429   9.244   3.964  1.00  0.00     0.038 A 
HETATM    2  C   UNL     1      62.256   9.061   2.582  1.00  0.00     0.033 A 
HETATM    3  C   UNL     1      62.276  10.534   4.502  1.00  0.00     0.033 A 
HETATM    4  C   UNL     1      61.795  11.410   2.310  1.00  0.00     0.116 A 
HETATM    5  C   UNL     1      61.961  11.614   3.673  1.00  0.00     0.044 A 
HETATM    6  C   UNL     1      61.937  10.146   1.758  1.00  0.00     0.044 A 
HETATM    7  F   UNL     1      61.492  12.448   1.518  1.00  0.00    -0.206 F 
ENDROOT
BRANCH   1   8
HETATM    8  N   UNL     1      62.757   8.137   4.809  1.00  0.00    -0.333 N 
HETATM    9  C   UNL     1      63.965   7.914   5.449  1.00  0.00     0.096 A 
HETATM   10  C   UNL     1      63.894   6.744   6.172  1.00  0.00     0.019 A 
HETATM   11  C   UNL     1      62.606   6.212   5.977  1.00  0.00     0.019 A 
HETATM   12  C   UNL     1      61.930   7.080   5.146  1.00  0.00     0.096 A 
ENDBRANCH   1   8
TORSDOF 1
ENDMDL
MODEL 7
REMARK VINA RESULT:      -4.8     18.244     19.562
REMARK  1 active torsions:
REMARK  status: ('A' for Active; 'I' for Inactive)
REMARK    1  A    between atoms: N_1  and  C_2 
ROOT
HETATM    1  C   UNL     1      63.376   9.030   4.691  1.00  0.00     0.038 A 
HETATM    2  C   UNL     1      62.982   8.702   3.383  1.00  0.00     0.033 A 
HETATM    3  C   UNL     1      63.031  10.291   5.207  1.00  0.00     0.033 A 
HETATM    4  C   UNL     1      61.935  10.858   3.139  1.00  0.00     0.116 A 
HETATM    5  C   UNL     1      62.313  11.203   4.428  1.00  0.00     0.044 A 
HETATM    6  C   UNL     1      62.261   9.618   2.610  1.00  0.00     0.044 A 
HETATM    7  F   UNL     1      61.247  11.734   2.394  1.00  0.00    -0.206 F 
ENDROOT
BRANCH   1   8
HETATM    8  N   UNL     1      64.115   8.095   5.484  1.00  0.00    -0.333 N 
HETATM    9  C   UNL     1      65.484   8.087   5.690  1.00  0.00     0.096 A 
HETATM   10  C   UNL     1      65.820   7.035   6.512  1.00  0.00     0.019 A 
HETATM   11  C   UNL     1      64.628   6.357   6.829  1.00  0.00     0.019 A 
HETATM   12  C   UNL     1      63.602   7.024   6.194  1.00  0.00     0.096 A 
ENDBRANCH   1   8
TORSDOF 1
ENDMDL
MODEL 8
REMARK VINA RESULT:      -4.6     19.961     21.517
REMARK  1 active torsions:
REMARK  status: ('A' for Active; 'I' for Inactive)
REMARK    1  A    between atoms: N_1  and  C_2 
ROOT
HETATM    1  C   UNL     1      62.675   9.045   2.962  1.00  0.00     0.038 A 
HETATM    2  C   UNL     1      61.998  10.276   2.992  1.00  0.00     0.033 A 
HETATM    3  C   UNL     1      63.429   8.658   4.083  1.00  0.00     0.033 A 
HETATM    4  C   UNL     1      62.830  10.698   5.213  1.00  0.00     0.116 A 
HETATM    5  C   UNL     1      63.506   9.487   5.206  1.00  0.00     0.044 A 
HETATM    6  C   UNL     1      62.077  11.100   4.120  1.00  0.00     0.044 A 
HETATM    7  F   UNL     1      62.905  11.491   6.291  1.00  0.00    -0.206 F 
ENDROOT
BRANCH   1   8
HETATM    8  N   UNL     1      62.599   8.200   1.809  1.00  0.00    -0.333 N 
HETATM    9  C   UNL     1      62.172   8.566   0.543  1.00  0.00     0.096 A 
HETATM   10  C   UNL     1      62.242   7.478  -0.298  1.00  0.00     0.019 A 
HETATM   11  C   UNL     1      62.723   6.395   0.461  1.00  0.00     0.019 A 
HETATM   12  C   UNL     1      62.936   6.860   1.741  1.00  0.00     0.096 A 
ENDBRANCH   1   8
TORSDOF 1
ENDMDL
MODEL 9
REMARK VINA RESULT:      -4.6     13.363     14.885
REMARK  1 active torsions:
REMARK  status: ('A' for Active; 'I' for Inactive)
REMARK    1  A    between atoms: N_1  and  C_2 
ROOT
HETATM    1  C   UNL     1      68.194   5.207   7.565  1.00  0.00     0.038 A 
HETATM    2  C   UNL     1      68.335   3.948   6.957  1.00  0.00     0.033 A 
HETATM    3  C   UNL     1      68.631   5.373   8.890  1.00  0.00     0.033 A 
HETATM    4  C   UNL     1      69.321   3.066   8.970  1.00  0.00     0.116 A 
HETATM    5  C   UNL     1      69.192   4.300   9.591  1.00  0.00     0.044 A 
HETATM    6  C   UNL     1      68.900   2.880   7.662  1.00  0.00     0.044 A 
HETATM    7  F   UNL     1      69.860   2.040   9.644  1.00  0.00    -0.206 F 
ENDROOT
BRANCH   1   8
HETATM    8  N   UNL     1      67.614   6.301   6.847  1.00  0.00    -0.333 N 
HETATM    9  C   UNL     1      67.813   6.613   5.513  1.00  0.00     0.096 A 
HETATM   10  C   UNL     1      67.084   7.736   5.189  1.00  0.00     0.019 A 
HETATM   11  C   UNL     1      66.411   8.145   6.355  1.00  0.00     0.019 A 
HETATM   12  C   UNL     1      66.747   7.254   7.352  1.00  0.00     0.096 A 
ENDBRANCH   1   8
TORSDOF 1
ENDMDL
