MODEL 1
REMARK VINA RESULT:      -6.0      0.000      0.000
REMARK  3 active torsions:
REMARK  status: ('A' for Active; 'I' for Inactive)
REMARK    1  A    between atoms: C_1  and  C_4 
REMARK    2  A    between atoms: N_2  and  C_3 
REMARK    3  A    between atoms: C_4  and  O_10 
ROOT
HETATM    1  C   UNL     1      71.817  22.950  14.162  1.00  0.00     0.066 A 
HETATM    2  C   UNL     1      70.948  22.600  13.107  1.00  0.00     0.054 A 
HETATM    3  C   UNL     1      71.385  23.889  15.125  1.00  0.00     0.020 A 
HETATM    4  C   UNL     1      69.668  23.196  13.061  1.00  0.00     0.031 A 
HETATM    5  C   UNL     1      70.116  24.462  15.062  1.00  0.00     0.001 A 
HETATM    6  C   UNL     1      69.257  24.113  14.030  1.00  0.00     0.002 A 
ENDROOT
BRANCH   2   7
HETATM    7  N   UNL     1      71.274  21.666  12.075  1.00  0.00    -0.332 N 
HETATM    8  C   UNL     1      72.052  21.875  10.954  1.00  0.00     0.096 A 
HETATM    9  C   UNL     1      72.065  20.730  10.187  1.00  0.00     0.019 A 
HETATM   10  C   UNL     1      71.341  19.749  10.888  1.00  0.00     0.019 A 
HETATM   11  C   UNL     1      70.901  20.332  12.056  1.00  0.00     0.096 A 
ENDBRANCH   2   7
BRANCH   1  12
HETATM   12  C   UNL     1      73.245  22.525  14.268  1.00  0.00     0.295 C 
HETATM   13  O   UNL     1      74.059  22.586  13.363  1.00  0.00    -0.259 OA
BRANCH  12  14
HETATM   14  O   UNL     1      73.475  22.080  15.531  1.00  0.00    -0.322 OA
HETATM   15  C   UNL     1      74.819  21.673  15.803  1.00  0.00     0.213 C 
ENDBRANCH  12  14
ENDBRANCH   1  12
TORSDOF 3
ENDMDL
MODEL 2
REMARK VINA RESULT:      -5.8     12.510     14.834
REMARK  3 active torsions:
REMARK  status: ('A' for Active; 'I' for Inactive)
REMARK    1  A    between atoms: C_1  and  C_4 
REMARK    2  A    between atoms: N_2  and  C_3 
REMARK    3  A    between atoms: C_4  and  O_10 
ROOT
HETATM    1  C   UNL     1      77.749  11.563  19.504  1.00  0.00     0.066 A 
HETATM    2  C   UNL     1      77.865  12.479  20.571  1.00  0.00     0.054 A 
HETATM    3  C   UNL     1      76.738  11.759  18.538  1.00  0.00     0.020 A 
HETATM    4  C   UNL     1      76.967  13.568  20.625  1.00  0.00     0.031 A 
HETATM    5  C   UNL     1      75.866  12.843  18.609  1.00  0.00     0.001 A 
HETATM    6  C   UNL     1      75.983  13.749  19.652  1.00  0.00     0.002 A 
ENDROOT
BRANCH   2   7
HETATM    7  N   UNL     1      78.844  12.384  21.607  1.00  0.00    -0.332 N 
HETATM    8  C   UNL     1      80.174  12.751  21.558  1.00  0.00     0.096 A 
HETATM    9  C   UNL     1      80.780  12.437  22.755  1.00  0.00     0.019 A 
HETATM   10  C   UNL     1      79.783  11.933  23.609  1.00  0.00     0.019 A 
HETATM   11  C   UNL     1      78.602  11.947  22.900  1.00  0.00     0.096 A 
ENDBRANCH   2   7
BRANCH   1  12
HETATM   12  C   UNL     1      78.519  10.288  19.387  1.00  0.00     0.295 C 
HETATM   13  O   UNL     1      79.735  10.204  19.390  1.00  0.00    -0.259 OA
BRANCH  12  14
HETATM   14  O   UNL     1      77.640   9.256  19.292  1.00  0.00    -0.322 OA
HETATM   15  C   UNL     1      77.622   8.579  18.032  1.00  0.00     0.213 C 
ENDBRANCH  12  14
ENDBRANCH   1  12
TORSDOF 3
ENDMDL
MODEL 3
REMARK VINA RESULT:      -5.4     19.947     21.419
REMARK  3 active torsions:
REMARK  status: ('A' for Active; 'I' for Inactive)
REMARK    1  A    between atoms: C_1  and  C_4 
REMARK    2  A    between atoms: N_2  and  C_3 
REMARK    3  A    between atoms: C_4  and  O_10 
ROOT
HETATM    1  C   UNL     1      76.451   2.645  17.859  1.00  0.00     0.066 A 
HETATM    2  C   UNL     1      75.195   2.362  17.282  1.00  0.00     0.054 A 
HETATM    3  C   UNL     1      76.943   3.969  17.818  1.00  0.00     0.020 A 
HETATM    4  C   UNL     1      74.469   3.421  16.693  1.00  0.00     0.031 A 
HETATM    5  C   UNL     1      76.208   4.999  17.235  1.00  0.00     0.001 A 
HETATM    6  C   UNL     1      74.969   4.724  16.674  1.00  0.00     0.002 A 
ENDROOT
BRANCH   2   7
HETATM    7  N   UNL     1      74.597   1.064  17.260  1.00  0.00    -0.332 N 
HETATM    8  C   UNL     1      74.204   0.291  18.334  1.00  0.00     0.096 A 
HETATM    9  C   UNL     1      73.727  -0.919  17.875  1.00  0.00     0.019 A 
HETATM   10  C   UNL     1      73.746  -0.870  16.470  1.00  0.00     0.019 A 
HETATM   11  C   UNL     1      74.243   0.365  16.117  1.00  0.00     0.096 A 
ENDBRANCH   2   7
BRANCH   1  12
HETATM   12  C   UNL     1      77.401   1.618  18.384  1.00  0.00     0.295 C 
HETATM   13  O   UNL     1      77.704   0.589  17.805  1.00  0.00    -0.259 OA
BRANCH  12  14
HETATM   14  O   UNL     1      77.867   2.032  19.591  1.00  0.00    -0.322 OA
HETATM   15  C   UNL     1      78.694   1.093  20.284  1.00  0.00     0.213 C 
ENDBRANCH  12  14
ENDBRANCH   1  12
TORSDOF 3
ENDMDL
MODEL 4
REMARK VINA RESULT:      -5.3     20.735     22.643
REMARK  3 active torsions:
REMARK  status: ('A' for Active; 'I' for Inactive)
REMARK    1  A    between atoms: C_1  and  C_4 
REMARK    2  A    between atoms: N_2  and  C_3 
REMARK    3  A    between atoms: C_4  and  O_10 
ROOT
HETATM    1  C   UNL     1      75.408   0.863  16.461  1.00  0.00     0.066 A 
HETATM    2  C   UNL     1      76.719   0.378  16.654  1.00  0.00     0.054 A 
HETATM    3  C   UNL     1      74.792   0.695  15.202  1.00  0.00     0.020 A 
HETATM    4  C   UNL     1      77.362  -0.272  15.578  1.00  0.00     0.031 A 
HETATM    5  C   UNL     1      75.444   0.046  14.155  1.00  0.00     0.001 A 
HETATM    6  C   UNL     1      76.729  -0.439  14.345  1.00  0.00     0.002 A 
ENDROOT
BRANCH   2   7
HETATM    7  N   UNL     1      77.444   0.493  17.880  1.00  0.00    -0.332 N 
HETATM    8  C   UNL     1      77.860   1.644  18.518  1.00  0.00     0.096 A 
HETATM    9  C   UNL     1      78.580   1.309  19.644  1.00  0.00     0.019 A 
HETATM   10  C   UNL     1      78.546  -0.092  19.759  1.00  0.00     0.019 A 
HETATM   11  C   UNL     1      77.814  -0.567  18.694  1.00  0.00     0.096 A 
ENDBRANCH   2   7
BRANCH   1  12
HETATM   12  C   UNL     1      74.654   1.699  17.444  1.00  0.00     0.295 C 
HETATM   13  O   UNL     1      74.394   1.366  18.587  1.00  0.00    -0.259 OA
BRANCH  12  14
HETATM   14  O   UNL     1      74.327   2.877  16.854  1.00  0.00    -0.322 OA
HETATM   15  C   UNL     1      75.333   3.892  16.910  1.00  0.00     0.213 C 
ENDBRANCH  12  14
ENDBRANCH   1  12
TORSDOF 3
ENDMDL
MODEL 5
REMARK VINA RESULT:      -5.3     17.466     19.215
REMARK  3 active torsions:
REMARK  status: ('A' for Active; 'I' for Inactive)
REMARK    1  A    between atoms: C_1  and  C_4 
REMARK    2  A    between atoms: N_2  and  C_3 
REMARK    3  A    between atoms: C_4  and  O_10 
ROOT
HETATM    1  C   UNL     1      62.698   9.326   4.179  1.00  0.00     0.066 A 
HETATM    2  C   UNL     1      62.599   8.512   3.030  1.00  0.00     0.054 A 
HETATM    3  C   UNL     1      62.341  10.689   4.086  1.00  0.00     0.020 A 
HETATM    4  C   UNL     1      62.133   9.092   1.830  1.00  0.00     0.031 A 
HETATM    5  C   UNL     1      61.879  11.240   2.892  1.00  0.00     0.001 A 
HETATM    6  C   UNL     1      61.774  10.439   1.765  1.00  0.00     0.002 A 
ENDROOT
BRANCH   2   7
HETATM    7  N   UNL     1      62.934   7.123   3.001  1.00  0.00    -0.332 N 
HETATM    8  C   UNL     1      64.157   6.549   2.717  1.00  0.00     0.096 A 
HETATM    9  C   UNL     1      64.034   5.176   2.740  1.00  0.00     0.019 A 
HETATM   10  C   UNL     1      62.715   4.881   3.129  1.00  0.00     0.019 A 
HETATM   11  C   UNL     1      62.074   6.085   3.322  1.00  0.00     0.096 A 
ENDBRANCH   2   7
BRANCH   1  12
HETATM   12  C   UNL     1      63.310   8.904   5.474  1.00  0.00     0.295 C 
HETATM   13  O   UNL     1      62.742   8.251   6.333  1.00  0.00    -0.259 OA
BRANCH  12  14
HETATM   14  O   UNL     1      64.590   9.354   5.519  1.00  0.00    -0.322 OA
HETATM   15  C   UNL     1      65.596   8.341   5.591  1.00  0.00     0.213 C 
ENDBRANCH  12  14
ENDBRANCH   1  12
TORSDOF 3
ENDMDL
MODEL 6
REMARK VINA RESULT:      -5.2     20.232     21.824
REMARK  3 active torsions:
REMARK  status: ('A' for Active; 'I' for Inactive)
REMARK    1  A    between atoms: C_1  and  C_4 
REMARK    2  A    between atoms: N_2  and  C_3 
REMARK    3  A    between atoms: C_4  and  O_10 
ROOT
HETATM    1  C   UNL     1      75.232   2.314  17.397  1.00  0.00     0.066 A 
HETATM    2  C   UNL     1      76.529   2.556  17.898  1.00  0.00     0.054 A 
HETATM    3  C   UNL     1      74.492   3.389  16.859  1.00  0.00     0.020 A 
HETATM    4  C   UNL     1      77.043   3.870  17.831  1.00  0.00     0.031 A 
HETATM    5  C   UNL     1      75.020   4.677  16.800  1.00  0.00     0.001 A 
HETATM    6  C   UNL     1      76.298   4.916  17.285  1.00  0.00     0.002 A 
ENDROOT
BRANCH   2   7
HETATM    7  N   UNL     1      77.370   1.551  18.467  1.00  0.00    -0.332 N 
HETATM    8  C   UNL     1      78.205   1.660  19.561  1.00  0.00     0.096 A 
HETATM    9  C   UNL     1      78.882   0.472  19.739  1.00  0.00     0.019 A 
HETATM   10  C   UNL     1      78.397  -0.434  18.779  1.00  0.00     0.019 A 
HETATM   11  C   UNL     1      77.446   0.235  18.039  1.00  0.00     0.096 A 
ENDBRANCH   2   7
BRANCH   1  12
HETATM   12  C   UNL     1      74.494   1.022  17.529  1.00  0.00     0.295 C 
HETATM   13  O   UNL     1      74.087   0.352  16.596  1.00  0.00    -0.259 OA
BRANCH  12  14
HETATM   14  O   UNL     1      74.370   0.724  18.849  1.00  0.00    -0.322 OA
HETATM   15  C   UNL     1      74.006  -0.627  19.142  1.00  0.00     0.213 C 
ENDBRANCH  12  14
ENDBRANCH   1  12
TORSDOF 3
ENDMDL
MODEL 7
REMARK VINA RESULT:      -5.1     11.561     13.876
REMARK  3 active torsions:
REMARK  status: ('A' for Active; 'I' for Inactive)
REMARK    1  A    between atoms: C_1  and  C_4 
REMARK    2  A    between atoms: N_2  and  C_3 
REMARK    3  A    between atoms: C_4  and  O_10 
ROOT
HETATM    1  C   UNL     1      77.464  12.502  19.481  1.00  0.00     0.066 A 
HETATM    2  C   UNL     1      78.088  11.237  19.490  1.00  0.00     0.054 A 
HETATM    3  C   UNL     1      77.806  13.444  20.475  1.00  0.00     0.020 A 
HETATM    4  C   UNL     1      79.045  10.964  20.493  1.00  0.00     0.031 A 
HETATM    5  C   UNL     1      78.757  13.155  21.453  1.00  0.00     0.001 A 
HETATM    6  C   UNL     1      79.377  11.915  21.460  1.00  0.00     0.002 A 
ENDROOT
BRANCH   2   7
HETATM    7  N   UNL     1      77.822  10.203  18.540  1.00  0.00    -0.332 N 
HETATM    8  C   UNL     1      78.146  10.178  17.198  1.00  0.00     0.096 A 
HETATM    9  C   UNL     1      77.654   9.021  16.631  1.00  0.00     0.019 A 
HETATM   10  C   UNL     1      77.076   8.262  17.664  1.00  0.00     0.019 A 
HETATM   11  C   UNL     1      77.225   8.986  18.827  1.00  0.00     0.096 A 
ENDBRANCH   2   7
BRANCH   1  12
HETATM   12  C   UNL     1      76.332  12.889  18.585  1.00  0.00     0.295 C 
HETATM   13  O   UNL     1      75.171  12.554  18.745  1.00  0.00    -0.259 OA
BRANCH  12  14
HETATM   14  O   UNL     1      76.814  13.675  17.588  1.00  0.00    -0.322 OA
HETATM   15  C   UNL     1      76.523  13.231  16.261  1.00  0.00     0.213 C 
ENDBRANCH  12  14
ENDBRANCH   1  12
TORSDOF 3
ENDMDL
MODEL 8
REMARK VINA RESULT:      -5.0     17.454     19.004
REMARK  3 active torsions:
REMARK  status: ('A' for Active; 'I' for Inactive)
REMARK    1  A    between atoms: C_1  and  C_4 
REMARK    2  A    between atoms: N_2  and  C_3 
REMARK    3  A    between atoms: C_4  and  O_10 
ROOT
HETATM    1  C   UNL     1      63.351   7.672   5.167  1.00  0.00     0.066 A 
HETATM    2  C   UNL     1      62.201   7.926   4.389  1.00  0.00     0.054 A 
HETATM    3  C   UNL     1      63.321   6.625   6.115  1.00  0.00     0.020 A 
HETATM    4  C   UNL     1      61.063   7.113   4.582  1.00  0.00     0.031 A 
HETATM    5  C   UNL     1      62.187   5.832   6.285  1.00  0.00     0.001 A 
HETATM    6  C   UNL     1      61.059   6.076   5.517  1.00  0.00     0.002 A 
ENDROOT
BRANCH   2   7
HETATM    7  N   UNL     1      62.112   8.957   3.403  1.00  0.00    -0.332 N 
HETATM    8  C   UNL     1      62.261   8.841   2.036  1.00  0.00     0.096 A 
HETATM    9  C   UNL     1      62.156  10.088   1.458  1.00  0.00     0.019 A 
HETATM   10  C   UNL     1      61.851  11.001   2.483  1.00  0.00     0.019 A 
HETATM   11  C   UNL     1      61.790  10.281   3.656  1.00  0.00     0.096 A 
ENDBRANCH   2   7
BRANCH   1  12
HETATM   12  C   UNL     1      64.574   8.530   5.188  1.00  0.00     0.295 C 
HETATM   13  O   UNL     1      64.631   9.649   5.667  1.00  0.00    -0.259 OA
BRANCH  12  14
HETATM   14  O   UNL     1      65.594   7.850   4.603  1.00  0.00    -0.322 OA
HETATM   15  C   UNL     1      66.838   7.886   5.306  1.00  0.00     0.213 C 
ENDBRANCH  12  14
ENDBRANCH   1  12
TORSDOF 3
ENDMDL
MODEL 9
REMARK VINA RESULT:      -5.0     18.439     19.915
REMARK  3 active torsions:
REMARK  status: ('A' for Active; 'I' for Inactive)
REMARK    1  A    between atoms: C_1  and  C_4 
REMARK    2  A    between atoms: N_2  and  C_3 
REMARK    3  A    between atoms: C_4  and  O_10 
ROOT
HETATM    1  C   UNL     1      62.334   8.864   2.374  1.00  0.00     0.066 A 
HETATM    2  C   UNL     1      62.432   9.128   3.757  1.00  0.00     0.054 A 
HETATM    3  C   UNL     1      62.012   9.921   1.494  1.00  0.00     0.020 A 
HETATM    4  C   UNL     1      62.215  10.449   4.208  1.00  0.00     0.031 A 
HETATM    5  C   UNL     1      61.806  11.218   1.962  1.00  0.00     0.001 A 
HETATM    6  C   UNL     1      61.909  11.481   3.319  1.00  0.00     0.002 A 
ENDROOT
BRANCH   2   7
HETATM    7  N   UNL     1      62.748   8.142   4.741  1.00  0.00    -0.332 N 
HETATM    8  C   UNL     1      61.914   7.184   5.284  1.00  0.00     0.096 A 
HETATM    9  C   UNL     1      62.601   6.471   6.244  1.00  0.00     0.019 A 
HETATM   10  C   UNL     1      63.926   6.942   6.246  1.00  0.00     0.019 A 
HETATM   11  C   UNL     1      64.002   7.934   5.293  1.00  0.00     0.096 A 
ENDBRANCH   2   7
BRANCH   1  12
HETATM   12  C   UNL     1      62.388   7.504   1.759  1.00  0.00     0.295 C 
HETATM   13  O   UNL     1      63.380   6.798   1.714  1.00  0.00    -0.259 OA
BRANCH  12  14
HETATM   14  O   UNL     1      61.155   7.193   1.281  1.00  0.00    -0.322 OA
HETATM   15  C   UNL     1      60.487   6.124   1.955  1.00  0.00     0.213 C 
ENDBRANCH  12  14
ENDBRANCH   1  12
TORSDOF 3
ENDMDL
