MODEL 1
REMARK VINA RESULT:      -5.4      0.000      0.000
REMARK  1 active torsions:
REMARK  status: ('A' for Active; 'I' for Inactive)
REMARK    1  A    between atoms: N_1  and  C_2 
ROOT
HETATM    1  C   UNL     1      63.016   9.012   3.957  1.00  0.00     0.059 A 
HETATM    2  N   UNL     1      63.218  11.465   6.581  1.00  0.00    -0.191 NA
HETATM    3  C   UNL     1      62.974  10.938   5.575  1.00  0.00     0.102 C 
HETATM    4  C   UNL     1      62.645  10.322   4.320  1.00  0.00     0.071 A 
HETATM    5  C   UNL     1      62.727   8.555   2.655  1.00  0.00     0.031 A 
HETATM    6  C   UNL     1      61.987  11.136   3.380  1.00  0.00     0.025 A 
HETATM    7  C   UNL     1      62.064   9.376   1.739  1.00  0.00     0.002 A 
HETATM    8  C   UNL     1      61.695  10.665   2.100  1.00  0.00     0.002 A 
ENDROOT
BRANCH   1   9
HETATM    9  N   UNL     1      63.682   8.117   4.851  1.00  0.00    -0.331 N 
HETATM   10  C   UNL     1      63.105   7.214   5.721  1.00  0.00     0.096 A 
HETATM   11  C   UNL     1      64.097   6.567   6.430  1.00  0.00     0.019 A 
HETATM   12  C   UNL     1      65.329   7.054   5.960  1.00  0.00     0.019 A 
HETATM   13  C   UNL     1      65.054   7.979   4.977  1.00  0.00     0.096 A 
ENDBRANCH   1   9
TORSDOF 1
ENDMDL
MODEL 2
REMARK VINA RESULT:      -5.0     17.831     19.346
REMARK  1 active torsions:
REMARK  status: ('A' for Active; 'I' for Inactive)
REMARK    1  A    between atoms: N_1  and  C_2 
ROOT
HETATM    1  C   UNL     1      75.310   2.696  17.183  1.00  0.00     0.059 A 
HETATM    2  N   UNL     1      78.106   1.181  18.865  1.00  0.00    -0.191 NA
HETATM    3  C   UNL     1      77.388   1.965  18.398  1.00  0.00     0.102 C 
HETATM    4  C   UNL     1      76.527   2.969  17.838  1.00  0.00     0.071 A 
HETATM    5  C   UNL     1      74.604   3.757  16.582  1.00  0.00     0.031 A 
HETATM    6  C   UNL     1      77.001   4.294  17.886  1.00  0.00     0.025 A 
HETATM    7  C   UNL     1      75.086   5.067  16.648  1.00  0.00     0.002 A 
HETATM    8  C   UNL     1      76.283   5.335  17.299  1.00  0.00     0.002 A 
ENDROOT
BRANCH   1   9
HETATM    9  N   UNL     1      74.754   1.382  17.094  1.00  0.00    -0.331 N 
HETATM   10  C   UNL     1      74.339   0.572  18.131  1.00  0.00     0.096 A 
HETATM   11  C   UNL     1      73.896  -0.631  17.620  1.00  0.00     0.019 A 
HETATM   12  C   UNL     1      74.001  -0.553  16.221  1.00  0.00     0.019 A 
HETATM   13  C   UNL     1      74.501   0.694  15.919  1.00  0.00     0.096 A 
ENDBRANCH   1   9
TORSDOF 1
ENDMDL
MODEL 3
REMARK VINA RESULT:      -5.0      1.275      2.736
REMARK  1 active torsions:
REMARK  status: ('A' for Active; 'I' for Inactive)
REMARK    1  A    between atoms: N_1  and  C_2 
ROOT
HETATM    1  C   UNL     1      63.394   9.029   4.646  1.00  0.00     0.059 A 
HETATM    2  N   UNL     1      63.318   6.456   2.133  1.00  0.00    -0.191 NA
HETATM    3  C   UNL     1      63.163   7.463   2.692  1.00  0.00     0.102 C 
HETATM    4  C   UNL     1      62.954   8.726   3.343  1.00  0.00     0.071 A 
HETATM    5  C   UNL     1      63.036  10.267   5.218  1.00  0.00     0.031 A 
HETATM    6  C   UNL     1      62.180   9.668   2.641  1.00  0.00     0.025 A 
HETATM    7  C   UNL     1      62.274  11.193   4.502  1.00  0.00     0.002 A 
HETATM    8  C   UNL     1      61.846  10.895   3.215  1.00  0.00     0.002 A 
ENDROOT
BRANCH   1   9
HETATM    9  N   UNL     1      64.189   8.133   5.427  1.00  0.00    -0.331 N 
HETATM   10  C   UNL     1      63.748   7.105   6.236  1.00  0.00     0.096 A 
HETATM   11  C   UNL     1      64.834   6.504   6.840  1.00  0.00     0.019 A 
HETATM   12  C   UNL     1      65.987   7.152   6.364  1.00  0.00     0.019 A 
HETATM   13  C   UNL     1      65.572   8.124   5.481  1.00  0.00     0.096 A 
ENDBRANCH   1   9
TORSDOF 1
ENDMDL
MODEL 4
REMARK VINA RESULT:      -4.7      3.126      6.932
REMARK  1 active torsions:
REMARK  status: ('A' for Active; 'I' for Inactive)
REMARK    1  A    between atoms: N_1  and  C_2 
ROOT
HETATM    1  C   UNL     1      66.703   6.341   7.199  1.00  0.00     0.059 A 
HETATM    2  N   UNL     1      67.314   4.499   4.170  1.00  0.00    -0.191 NA
HETATM    3  C   UNL     1      67.361   4.864   5.272  1.00  0.00     0.102 C 
HETATM    4  C   UNL     1      67.446   5.281   6.644  1.00  0.00     0.071 A 
HETATM    5  C   UNL     1      66.951   6.725   8.532  1.00  0.00     0.031 A 
HETATM    6  C   UNL     1      68.407   4.625   7.435  1.00  0.00     0.025 A 
HETATM    7  C   UNL     1      67.903   6.055   9.305  1.00  0.00     0.002 A 
HETATM    8  C   UNL     1      68.630   5.007   8.758  1.00  0.00     0.002 A 
ENDROOT
BRANCH   1   9
HETATM    9  N   UNL     1      65.705   7.057   6.468  1.00  0.00    -0.331 N 
HETATM   10  C   UNL     1      65.884   8.158   5.656  1.00  0.00     0.096 A 
HETATM   11  C   UNL     1      64.661   8.567   5.165  1.00  0.00     0.019 A 
HETATM   12  C   UNL     1      63.695   7.671   5.655  1.00  0.00     0.019 A 
HETATM   13  C   UNL     1      64.357   6.740   6.425  1.00  0.00     0.096 A 
ENDBRANCH   1   9
TORSDOF 1
ENDMDL
MODEL 5
REMARK VINA RESULT:      -4.6      1.953      2.890
REMARK  1 active torsions:
REMARK  status: ('A' for Active; 'I' for Inactive)
REMARK    1  A    between atoms: N_1  and  C_2 
ROOT
HETATM    1  C   UNL     1      62.417   8.568   2.894  1.00  0.00     0.059 A 
HETATM    2  N   UNL     1      63.154   8.039   6.375  1.00  0.00    -0.191 NA
HETATM    3  C   UNL     1      62.851   8.539   5.372  1.00  0.00     0.102 C 
HETATM    4  C   UNL     1      62.463   9.196   4.154  1.00  0.00     0.071 A 
HETATM    5  C   UNL     1      62.123   9.344   1.754  1.00  0.00     0.031 A 
HETATM    6  C   UNL     1      62.205  10.576   4.246  1.00  0.00     0.025 A 
HETATM    7  C   UNL     1      61.861  10.711   1.867  1.00  0.00     0.002 A 
HETATM    8  C   UNL     1      61.902  11.328   3.111  1.00  0.00     0.002 A 
ENDROOT
BRANCH   1   9
HETATM    9  N   UNL     1      62.659   7.171   2.712  1.00  0.00    -0.331 N 
HETATM   10  C   UNL     1      63.879   6.540   2.573  1.00  0.00     0.096 A 
HETATM   11  C   UNL     1      63.674   5.189   2.383  1.00  0.00     0.019 A 
HETATM   12  C   UNL     1      62.288   4.965   2.445  1.00  0.00     0.019 A 
HETATM   13  C   UNL     1      61.689   6.184   2.675  1.00  0.00     0.096 A 
ENDBRANCH   1   9
TORSDOF 1
ENDMDL
MODEL 6
REMARK VINA RESULT:      -4.5      4.912      8.120
REMARK  1 active torsions:
REMARK  status: ('A' for Active; 'I' for Inactive)
REMARK    1  A    between atoms: N_1  and  C_2 
ROOT
HETATM    1  C   UNL     1      68.059   5.187   7.831  1.00  0.00     0.059 A 
HETATM    2  N   UNL     1      65.168   3.327   6.771  1.00  0.00    -0.191 NA
HETATM    3  C   UNL     1      66.153   3.632   7.306  1.00  0.00     0.102 C 
HETATM    4  C   UNL     1      67.368   3.971   7.993  1.00  0.00     0.071 A 
HETATM    5  C   UNL     1      69.298   5.362   8.480  1.00  0.00     0.031 A 
HETATM    6  C   UNL     1      67.925   2.966   8.806  1.00  0.00     0.025 A 
HETATM    7  C   UNL     1      69.830   4.356   9.290  1.00  0.00     0.002 A 
HETATM    8  C   UNL     1      69.145   3.159   9.453  1.00  0.00     0.002 A 
ENDROOT
BRANCH   1   9
HETATM    9  N   UNL     1      67.563   6.262   7.030  1.00  0.00    -0.331 N 
HETATM   10  C   UNL     1      66.751   7.304   7.430  1.00  0.00     0.096 A 
HETATM   11  C   UNL     1      66.473   8.108   6.343  1.00  0.00     0.019 A 
HETATM   12  C   UNL     1      67.163   7.573   5.242  1.00  0.00     0.019 A 
HETATM   13  C   UNL     1      67.844   6.462   5.689  1.00  0.00     0.096 A 
ENDBRANCH   1   9
TORSDOF 1
ENDMDL
MODEL 7
REMARK VINA RESULT:      -4.5      1.896      4.318
REMARK  1 active torsions:
REMARK  status: ('A' for Active; 'I' for Inactive)
REMARK    1  A    between atoms: N_1  and  C_2 
ROOT
HETATM    1  C   UNL     1      63.059   7.943   3.227  1.00  0.00     0.059 A 
HETATM    2  N   UNL     1      61.738  11.141   4.209  1.00  0.00    -0.191 NA
HETATM    3  C   UNL     1      62.408  10.195   4.138  1.00  0.00     0.102 C 
HETATM    4  C   UNL     1      63.266   9.045   4.079  1.00  0.00     0.071 A 
HETATM    5  C   UNL     1      63.912   6.825   3.335  1.00  0.00     0.031 A 
HETATM    6  C   UNL     1      64.323   9.009   5.007  1.00  0.00     0.025 A 
HETATM    7  C   UNL     1      64.961   6.812   4.257  1.00  0.00     0.002 A 
HETATM    8  C   UNL     1      65.167   7.902   5.093  1.00  0.00     0.002 A 
ENDROOT
BRANCH   1   9
HETATM    9  N   UNL     1      62.014   7.899   2.252  1.00  0.00    -0.331 N 
HETATM   10  C   UNL     1      62.071   8.322   0.940  1.00  0.00     0.096 A 
HETATM   11  C   UNL     1      60.838   8.137   0.348  1.00  0.00     0.019 A 
HETATM   12  C   UNL     1      59.999   7.546   1.309  1.00  0.00     0.019 A 
HETATM   13  C   UNL     1      60.745   7.384   2.456  1.00  0.00     0.096 A 
ENDBRANCH   1   9
TORSDOF 1
ENDMDL
MODEL 8
REMARK VINA RESULT:      -4.4      3.313      5.229
REMARK  1 active torsions:
REMARK  status: ('A' for Active; 'I' for Inactive)
REMARK    1  A    between atoms: N_1  and  C_2 
ROOT
HETATM    1  C   UNL     1      65.778   6.749   6.533  1.00  0.00     0.059 A 
HETATM    2  N   UNL     1      64.172   3.623   7.301  1.00  0.00    -0.191 NA
HETATM    3  C   UNL     1      64.407   4.662   6.839  1.00  0.00     0.102 C 
HETATM    4  C   UNL     1      64.662   5.941   6.237  1.00  0.00     0.071 A 
HETATM    5  C   UNL     1      65.864   8.032   5.957  1.00  0.00     0.031 A 
HETATM    6  C   UNL     1      63.669   6.430   5.368  1.00  0.00     0.025 A 
HETATM    7  C   UNL     1      64.873   8.496   5.089  1.00  0.00     0.002 A 
HETATM    8  C   UNL     1      63.776   7.697   4.795  1.00  0.00     0.002 A 
ENDROOT
BRANCH   1   9
HETATM    9  N   UNL     1      66.834   6.328   7.400  1.00  0.00    -0.331 N 
HETATM   10  C   UNL     1      67.994   5.668   7.052  1.00  0.00     0.096 A 
HETATM   11  C   UNL     1      68.733   5.415   8.190  1.00  0.00     0.019 A 
HETATM   12  C   UNL     1      68.031   5.968   9.274  1.00  0.00     0.019 A 
HETATM   13  C   UNL     1      66.888   6.546   8.766  1.00  0.00     0.096 A 
ENDBRANCH   1   9
TORSDOF 1
ENDMDL
MODEL 9
REMARK VINA RESULT:      -4.3      4.527      6.307
REMARK  1 active torsions:
REMARK  status: ('A' for Active; 'I' for Inactive)
REMARK    1  A    between atoms: N_1  and  C_2 
ROOT
HETATM    1  C   UNL     1      67.239   5.796   6.528  1.00  0.00     0.059 A 
HETATM    2  N   UNL     1      64.503   3.661   7.473  1.00  0.00    -0.191 NA
HETATM    3  C   UNL     1      65.148   4.457   6.925  1.00  0.00     0.102 C 
HETATM    4  C   UNL     1      65.911   5.446   6.217  1.00  0.00     0.071 A 
HETATM    5  C   UNL     1      67.848   6.858   5.828  1.00  0.00     0.031 A 
HETATM    6  C   UNL     1      65.230   6.155   5.210  1.00  0.00     0.025 A 
HETATM    7  C   UNL     1      67.159   7.543   4.826  1.00  0.00     0.002 A 
HETATM    8  C   UNL     1      65.851   7.193   4.516  1.00  0.00     0.002 A 
ENDROOT
BRANCH   1   9
HETATM    9  N   UNL     1      68.005   5.125   7.531  1.00  0.00    -0.331 N 
HETATM   10  C   UNL     1      68.188   5.506   8.845  1.00  0.00     0.096 A 
HETATM   11  C   UNL     1      69.025   4.604   9.469  1.00  0.00     0.019 A 
HETATM   12  C   UNL     1      69.342   3.610   8.527  1.00  0.00     0.019 A 
HETATM   13  C   UNL     1      68.687   3.932   7.359  1.00  0.00     0.096 A 
ENDBRANCH   1   9
TORSDOF 1
ENDMDL
