MODEL 1
REMARK VINA RESULT:      -5.3      0.000      0.000
REMARK  2 active torsions:
REMARK  status: ('A' for Active; 'I' for Inactive)
REMARK    1  A    between atoms: N_1  and  C_8 
REMARK    2  A    between atoms: C_8  and  C_9 
ROOT
HETATM    1  N   UNL     1      77.744  11.146  20.439  1.00  0.00    -0.368 N 
ATOM      2  HN  UNL     1      78.095  10.219  20.679  1.00  0.00     0.165 HD
HETATM    3  C   UNL     1      77.771  12.165  21.337  1.00  0.00     0.027 A 
HETATM    4  C   UNL     1      77.233  11.407  19.215  1.00  0.00     0.088 A 
HETATM    5  C   UNL     1      77.321  13.446  21.020  1.00  0.00     0.027 A 
HETATM    6  C   UNL     1      76.760  12.648  18.826  1.00  0.00     0.017 A 
HETATM    7  C   UNL     1      76.813  13.687  19.746  1.00  0.00     0.003 A 
ENDROOT
BRANCH   3   8
HETATM    8  C   UNL     1      78.288  11.854  22.719  1.00  0.00     0.184 C 
BRANCH   8   9
HETATM    9  N   UNL     1      79.586  12.478  22.944  1.00  0.00    -0.361 N 
HETATM   10  C   UNL     1      79.960  13.132  24.089  1.00  0.00     0.091 A 
HETATM   11  C   UNL     1      81.251  13.582  23.924  1.00  0.00     0.019 A 
HETATM   12  C   UNL     1      81.680  13.164  22.641  1.00  0.00     0.019 A 
HETATM   13  C   UNL     1      80.641  12.468  22.064  1.00  0.00     0.091 A 
ENDBRANCH   8   9
ENDBRANCH   3   8
TORSDOF 2
ENDMDL
MODEL 2
REMARK VINA RESULT:      -4.6      3.186      5.850
REMARK  2 active torsions:
REMARK  status: ('A' for Active; 'I' for Inactive)
REMARK    1  A    between atoms: N_1  and  C_8 
REMARK    2  A    between atoms: C_8  and  C_9 
ROOT
HETATM    1  N   UNL     1      76.614  11.495  18.336  1.00  0.00    -0.368 N 
ATOM      2  HN  UNL     1      76.234  10.933  17.574  1.00  0.00     0.165 HD
HETATM    3  C   UNL     1      77.622  11.030  19.119  1.00  0.00     0.027 A 
HETATM    4  C   UNL     1      76.133  12.729  18.605  1.00  0.00     0.088 A 
HETATM    5  C   UNL     1      78.174  11.793  20.149  1.00  0.00     0.027 A 
HETATM    6  C   UNL     1      76.621  13.543  19.611  1.00  0.00     0.017 A 
HETATM    7  C   UNL     1      77.666  13.066  20.391  1.00  0.00     0.003 A 
ENDROOT
BRANCH   3   8
HETATM    8  C   UNL     1      78.116   9.631  18.854  1.00  0.00     0.184 C 
BRANCH   8   9
HETATM    9  N   UNL     1      77.888   9.250  17.465  1.00  0.00    -0.361 N 
HETATM   10  C   UNL     1      77.210   8.133  17.053  1.00  0.00     0.091 A 
HETATM   11  C   UNL     1      77.204   8.118  15.676  1.00  0.00     0.019 A 
HETATM   12  C   UNL     1      77.883   9.281  15.241  1.00  0.00     0.019 A 
HETATM   13  C   UNL     1      78.279   9.974  16.364  1.00  0.00     0.091 A 
ENDBRANCH   8   9
ENDBRANCH   3   8
TORSDOF 2
ENDMDL
MODEL 3
REMARK VINA RESULT:      -4.6      2.084      5.308
REMARK  2 active torsions:
REMARK  status: ('A' for Active; 'I' for Inactive)
REMARK    1  A    between atoms: N_1  and  C_8 
REMARK    2  A    between atoms: C_8  and  C_9 
ROOT
HETATM    1  N   UNL     1      79.112  11.151  19.984  1.00  0.00    -0.368 N 
ATOM      2  HN  UNL     1      79.301  10.503  19.218  1.00  0.00     0.165 HD
HETATM    3  C   UNL     1      77.953  11.855  20.041  1.00  0.00     0.027 A 
HETATM    4  C   UNL     1      80.007  11.339  20.980  1.00  0.00     0.088 A 
HETATM    5  C   UNL     1      77.663  12.724  21.094  1.00  0.00     0.027 A 
HETATM    6  C   UNL     1      79.798  12.187  22.053  1.00  0.00     0.017 A 
HETATM    7  C   UNL     1      78.599  12.886  22.111  1.00  0.00     0.003 A 
ENDROOT
BRANCH   3   8
HETATM    8  C   UNL     1      76.983  11.686  18.899  1.00  0.00     0.184 C 
BRANCH   8   9
HETATM    9  N   UNL     1      77.204  10.421  18.209  1.00  0.00    -0.361 N 
HETATM   10  C   UNL     1      77.097   9.180  18.783  1.00  0.00     0.091 A 
HETATM   11  C   UNL     1      77.378   8.237  17.818  1.00  0.00     0.019 A 
HETATM   12  C   UNL     1      77.640   8.933  16.615  1.00  0.00     0.019 A 
HETATM   13  C   UNL     1      77.508  10.279  16.877  1.00  0.00     0.091 A 
ENDBRANCH   8   9
ENDBRANCH   3   8
TORSDOF 2
ENDMDL
MODEL 4
REMARK VINA RESULT:      -4.5     18.181     19.861
REMARK  2 active torsions:
REMARK  status: ('A' for Active; 'I' for Inactive)
REMARK    1  A    between atoms: N_1  and  C_8 
REMARK    2  A    between atoms: C_8  and  C_9 
ROOT
HETATM    1  N   UNL     1      66.856   4.069   8.641  1.00  0.00    -0.368 N 
ATOM      2  HN  UNL     1      65.850   3.904   8.649  1.00  0.00     0.165 HD
HETATM    3  C   UNL     1      67.365   5.322   8.772  1.00  0.00     0.027 A 
HETATM    4  C   UNL     1      67.734   3.051   8.501  1.00  0.00     0.088 A 
HETATM    5  C   UNL     1      68.738   5.567   8.793  1.00  0.00     0.027 A 
HETATM    6  C   UNL     1      69.108   3.213   8.504  1.00  0.00     0.017 A 
HETATM    7  C   UNL     1      69.616   4.496   8.660  1.00  0.00     0.003 A 
ENDROOT
BRANCH   3   8
HETATM    8  C   UNL     1      66.382   6.461   8.869  1.00  0.00     0.184 C 
BRANCH   8   9
HETATM    9  N   UNL     1      65.991   6.929   7.545  1.00  0.00    -0.361 N 
HETATM   10  C   UNL     1      64.857   6.547   6.876  1.00  0.00     0.091 A 
HETATM   11  C   UNL     1      64.835   7.198   5.662  1.00  0.00     0.019 A 
HETATM   12  C   UNL     1      65.986   8.020   5.607  1.00  0.00     0.019 A 
HETATM   13  C   UNL     1      66.673   7.851   6.789  1.00  0.00     0.091 A 
ENDBRANCH   8   9
ENDBRANCH   3   8
TORSDOF 2
ENDMDL
MODEL 5
REMARK VINA RESULT:      -4.5      1.473      4.814
REMARK  2 active torsions:
REMARK  status: ('A' for Active; 'I' for Inactive)
REMARK    1  A    between atoms: N_1  and  C_8 
REMARK    2  A    between atoms: C_8  and  C_9 
ROOT
HETATM    1  N   UNL     1      77.767  11.726  22.529  1.00  0.00    -0.368 N 
ATOM      2  HN  UNL     1      76.827  11.389  22.321  1.00  0.00     0.165 HD
HETATM    3  C   UNL     1      78.474  12.449  21.621  1.00  0.00     0.027 A 
HETATM    4  C   UNL     1      78.357  11.470  23.718  1.00  0.00     0.088 A 
HETATM    5  C   UNL     1      79.749  12.943  21.897  1.00  0.00     0.027 A 
HETATM    6  C   UNL     1      79.619  11.918  24.064  1.00  0.00     0.017 A 
HETATM    7  C   UNL     1      80.324  12.674  23.136  1.00  0.00     0.003 A 
ENDROOT
BRANCH   3   8
HETATM    8  C   UNL     1      77.837  12.682  20.275  1.00  0.00     0.184 C 
BRANCH   8   9
HETATM    9  N   UNL     1      77.902  11.481  19.451  1.00  0.00    -0.361 N 
HETATM   10  C   UNL     1      76.942  11.085  18.556  1.00  0.00     0.091 A 
HETATM   11  C   UNL     1      77.360   9.908  17.973  1.00  0.00     0.019 A 
HETATM   12  C   UNL     1      78.627   9.596  18.519  1.00  0.00     0.019 A 
HETATM   13  C   UNL     1      78.949  10.592  19.415  1.00  0.00     0.091 A 
ENDBRANCH   8   9
ENDBRANCH   3   8
TORSDOF 2
ENDMDL
MODEL 6
REMARK VINA RESULT:      -4.5      3.991      7.066
REMARK  2 active torsions:
REMARK  status: ('A' for Active; 'I' for Inactive)
REMARK    1  A    between atoms: N_1  and  C_8 
REMARK    2  A    between atoms: C_8  and  C_9 
ROOT
HETATM    1  N   UNL     1      76.874  10.859  17.778  1.00  0.00    -0.368 N 
ATOM      2  HN  UNL     1      76.092  11.014  17.142  1.00  0.00     0.165 HD
HETATM    3  C   UNL     1      77.818   9.918  17.519  1.00  0.00     0.027 A 
HETATM    4  C   UNL     1      77.010  11.584  18.911  1.00  0.00     0.088 A 
HETATM    5  C   UNL     1      78.911   9.710  18.361  1.00  0.00     0.027 A 
HETATM    6  C   UNL     1      78.059  11.433  19.800  1.00  0.00     0.017 A 
HETATM    7  C   UNL     1      79.030  10.482  19.514  1.00  0.00     0.003 A 
ENDROOT
BRANCH   3   8
HETATM    8  C   UNL     1      77.631   9.072  16.285  1.00  0.00     0.184 C 
BRANCH   8   9
HETATM    9  N   UNL     1      77.108   7.755  16.628  1.00  0.00    -0.361 N 
HETATM   10  C   UNL     1      76.697   7.370  17.878  1.00  0.00     0.091 A 
HETATM   11  C   UNL     1      76.270   6.062  17.804  1.00  0.00     0.019 A 
HETATM   12  C   UNL     1      76.406   5.652  16.456  1.00  0.00     0.019 A 
HETATM   13  C   UNL     1      76.907   6.720  15.746  1.00  0.00     0.091 A 
ENDBRANCH   8   9
ENDBRANCH   3   8
TORSDOF 2
ENDMDL
MODEL 7
REMARK VINA RESULT:      -4.4     20.048     22.711
REMARK  2 active torsions:
REMARK  status: ('A' for Active; 'I' for Inactive)
REMARK    1  A    between atoms: N_1  and  C_8 
REMARK    2  A    between atoms: C_8  and  C_9 
ROOT
HETATM    1  N   UNL     1      65.426   7.751   6.722  1.00  0.00    -0.368 N 
ATOM      2  HN  UNL     1      64.936   7.992   7.584  1.00  0.00     0.165 HD
HETATM    3  C   UNL     1      64.752   7.573   5.555  1.00  0.00     0.027 A 
HETATM    4  C   UNL     1      66.768   7.596   6.696  1.00  0.00     0.088 A 
HETATM    5  C   UNL     1      65.405   7.271   4.360  1.00  0.00     0.027 A 
HETATM    6  C   UNL     1      67.487   7.289   5.555  1.00  0.00     0.017 A 
HETATM    7  C   UNL     1      66.790   7.131   4.364  1.00  0.00     0.003 A 
ENDROOT
BRANCH   3   8
HETATM    8  C   UNL     1      63.250   7.689   5.599  1.00  0.00     0.184 C 
BRANCH   8   9
HETATM    9  N   UNL     1      62.801   8.919   4.957  1.00  0.00    -0.361 N 
HETATM   10  C   UNL     1      63.026  10.185   5.431  1.00  0.00     0.091 A 
HETATM   11  C   UNL     1      62.452  11.079   4.554  1.00  0.00     0.019 A 
HETATM   12  C   UNL     1      61.882  10.326   3.501  1.00  0.00     0.019 A 
HETATM   13  C   UNL     1      62.127   8.996   3.762  1.00  0.00     0.091 A 
ENDBRANCH   8   9
ENDBRANCH   3   8
TORSDOF 2
ENDMDL
MODEL 8
REMARK VINA RESULT:      -4.3     20.832     22.863
REMARK  2 active torsions:
REMARK  status: ('A' for Active; 'I' for Inactive)
REMARK    1  A    between atoms: N_1  and  C_8 
REMARK    2  A    between atoms: C_8  and  C_9 
ROOT
HETATM    1  N   UNL     1      62.715   8.616   3.398  1.00  0.00    -0.368 N 
ATOM      2  HN  UNL     1      62.853   7.697   2.976  1.00  0.00     0.165 HD
HETATM    3  C   UNL     1      63.104   8.872   4.674  1.00  0.00     0.027 A 
HETATM    4  C   UNL     1      62.140   9.626   2.707  1.00  0.00     0.088 A 
HETATM    5  C   UNL     1      62.951  10.129   5.259  1.00  0.00     0.027 A 
HETATM    6  C   UNL     1      61.946  10.896   3.218  1.00  0.00     0.017 A 
HETATM    7  C   UNL     1      62.367  11.151   4.517  1.00  0.00     0.003 A 
ENDROOT
BRANCH   3   8
HETATM    8  C   UNL     1      63.692   7.728   5.460  1.00  0.00     0.184 C 
BRANCH   8   9
HETATM    9  N   UNL     1      65.116   7.580   5.183  1.00  0.00    -0.361 N 
HETATM   10  C   UNL     1      66.126   8.139   5.923  1.00  0.00     0.091 A 
HETATM   11  C   UNL     1      67.326   7.776   5.352  1.00  0.00     0.019 A 
HETATM   12  C   UNL     1      67.030   6.950   4.242  1.00  0.00     0.019 A 
HETATM   13  C   UNL     1      65.660   6.828   4.170  1.00  0.00     0.091 A 
ENDBRANCH   8   9
ENDBRANCH   3   8
TORSDOF 2
ENDMDL
MODEL 9
REMARK VINA RESULT:      -4.3     18.019     19.899
REMARK  2 active torsions:
REMARK  status: ('A' for Active; 'I' for Inactive)
REMARK    1  A    between atoms: N_1  and  C_8 
REMARK    2  A    between atoms: C_8  and  C_9 
ROOT
HETATM    1  N   UNL     1      64.652   6.910   7.012  1.00  0.00    -0.368 N 
ATOM      2  HN  UNL     1      63.993   6.503   7.676  1.00  0.00     0.165 HD
HETATM    3  C   UNL     1      65.984   6.953   7.277  1.00  0.00     0.027 A 
HETATM    4  C   UNL     1      64.233   7.427   5.835  1.00  0.00     0.088 A 
HETATM    5  C   UNL     1      66.904   7.479   6.370  1.00  0.00     0.027 A 
HETATM    6  C   UNL     1      65.081   7.973   4.888  1.00  0.00     0.017 A 
HETATM    7  C   UNL     1      66.443   7.992   5.161  1.00  0.00     0.003 A 
ENDROOT
BRANCH   3   8
HETATM    8  C   UNL     1      66.440   6.428   8.614  1.00  0.00     0.184 C 
BRANCH   8   9
HETATM    9  N   UNL     1      67.474   5.413   8.453  1.00  0.00    -0.361 N 
HETATM   10  C   UNL     1      67.293   4.187   7.867  1.00  0.00     0.091 A 
HETATM   11  C   UNL     1      68.495   3.515   7.900  1.00  0.00     0.019 A 
HETATM   12  C   UNL     1      69.440   4.375   8.507  1.00  0.00     0.019 A 
HETATM   13  C   UNL     1      68.791   5.548   8.822  1.00  0.00     0.091 A 
ENDBRANCH   8   9
ENDBRANCH   3   8
TORSDOF 2
ENDMDL
