MODEL 1
REMARK VINA RESULT:      -5.8      0.000      0.000
REMARK  4 active torsions:
REMARK  status: ('A' for Active; 'I' for Inactive)
REMARK    1  A    between atoms: C_1  and  C_5 
REMARK    2  A    between atoms: S_3  and  C_5 
REMARK    3  A    between atoms: S_3  and  C_7 
REMARK    4  A    between atoms: C_6  and  C_7 
ROOT
HETATM    1  C   UNL     1      77.740  11.208  19.389  1.00  0.00    -0.049 A 
HETATM    2  C   UNL     1      78.216  11.830  20.553  1.00  0.00     0.008 A 
HETATM    3  C   UNL     1      76.672  11.801  18.698  1.00  0.00     0.008 A 
HETATM    4  C   UNL     1      76.095  12.985  19.162  1.00  0.00     0.001 A 
HETATM    5  C   UNL     1      77.634  13.011  21.018  1.00  0.00     0.001 A 
HETATM    6  C   UNL     1      76.576  13.589  20.322  1.00  0.00     0.000 A 
ENDROOT
BRANCH   1   7
HETATM    7  C   UNL     1      78.397   9.963  18.847  1.00  0.00     0.112 C 
BRANCH   7   8
HETATM    8  S   UNL     1      77.608   9.270  17.357  1.00  0.00    -0.154 SA
BRANCH   8   9
HETATM    9  C   UNL     1      76.692   7.872  18.077  1.00  0.00     0.187 C 
BRANCH   9  10
HETATM   10  C   UNL     1      76.864   6.575  17.320  1.00  0.00     0.182 C 
HETATM   11  O   UNL     1      76.903   6.386  16.116  1.00  0.00    -0.647 OA
HETATM   12  O   UNL     1      76.984   5.521  18.159  1.00  0.00    -0.647 OA
ENDBRANCH   9  10
ENDBRANCH   8   9
ENDBRANCH   7   8
ENDBRANCH   1   7
TORSDOF 4
ENDMDL
MODEL 2
REMARK VINA RESULT:      -5.6      1.829      2.073
REMARK  4 active torsions:
REMARK  status: ('A' for Active; 'I' for Inactive)
REMARK    1  A    between atoms: C_1  and  C_5 
REMARK    2  A    between atoms: S_3  and  C_5 
REMARK    3  A    between atoms: S_3  and  C_7 
REMARK    4  A    between atoms: C_6  and  C_7 
ROOT
HETATM    1  C   UNL     1      77.699  11.057  19.183  1.00  0.00    -0.049 A 
HETATM    2  C   UNL     1      78.171  11.593  20.391  1.00  0.00     0.008 A 
HETATM    3  C   UNL     1      76.620  11.687  18.544  1.00  0.00     0.008 A 
HETATM    4  C   UNL     1      76.029  12.823  19.101  1.00  0.00     0.001 A 
HETATM    5  C   UNL     1      77.575  12.725  20.949  1.00  0.00     0.001 A 
HETATM    6  C   UNL     1      76.506  13.340  20.303  1.00  0.00     0.000 A 
ENDROOT
BRANCH   1   7
HETATM    7  C   UNL     1      78.372   9.868  18.543  1.00  0.00     0.112 C 
BRANCH   7   8
HETATM    8  S   UNL     1      77.327   8.938  17.374  1.00  0.00    -0.154 SA
BRANCH   8   9
HETATM    9  C   UNL     1      77.932   9.590  15.786  1.00  0.00     0.187 C 
BRANCH   9  10
HETATM   10  C   UNL     1      77.587   8.721  14.598  1.00  0.00     0.182 C 
HETATM   11  O   UNL     1      77.588   9.003  13.412  1.00  0.00    -0.647 OA
HETATM   12  O   UNL     1      77.235   7.472  14.981  1.00  0.00    -0.647 OA
ENDBRANCH   9  10
ENDBRANCH   8   9
ENDBRANCH   7   8
ENDBRANCH   1   7
TORSDOF 4
ENDMDL
MODEL 3
REMARK VINA RESULT:      -5.0      5.492      6.835
REMARK  4 active torsions:
REMARK  status: ('A' for Active; 'I' for Inactive)
REMARK    1  A    between atoms: C_1  and  C_5 
REMARK    2  A    between atoms: S_3  and  C_5 
REMARK    3  A    between atoms: S_3  and  C_7 
REMARK    4  A    between atoms: C_6  and  C_7 
ROOT
HETATM    1  C   UNL     1      78.318  12.207  20.641  1.00  0.00    -0.049 A 
HETATM    2  C   UNL     1      77.459  13.303  20.815  1.00  0.00     0.008 A 
HETATM    3  C   UNL     1      78.053  11.304  19.600  1.00  0.00     0.008 A 
HETATM    4  C   UNL     1      76.956  11.493  18.757  1.00  0.00     0.001 A 
HETATM    5  C   UNL     1      76.359  13.487  19.975  1.00  0.00     0.001 A 
HETATM    6  C   UNL     1      76.110  12.583  18.945  1.00  0.00     0.000 A 
ENDROOT
BRANCH   1   7
HETATM    7  C   UNL     1      79.540  12.031  21.508  1.00  0.00     0.112 C 
BRANCH   7   8
HETATM    8  S   UNL     1      79.221  12.118  23.301  1.00  0.00    -0.154 SA
BRANCH   8   9
HETATM    9  C   UNL     1      80.802  12.799  23.893  1.00  0.00     0.187 C 
BRANCH   9  10
HETATM   10  C   UNL     1      80.902  12.889  25.399  1.00  0.00     0.182 C 
HETATM   11  O   UNL     1      80.703  13.847  26.127  1.00  0.00    -0.647 OA
HETATM   12  O   UNL     1      81.269  11.708  25.945  1.00  0.00    -0.647 OA
ENDBRANCH   9  10
ENDBRANCH   8   9
ENDBRANCH   7   8
ENDBRANCH   1   7
TORSDOF 4
ENDMDL
MODEL 4
REMARK VINA RESULT:      -4.9     18.947     20.279
REMARK  4 active torsions:
REMARK  status: ('A' for Active; 'I' for Inactive)
REMARK    1  A    between atoms: C_1  and  C_5 
REMARK    2  A    between atoms: S_3  and  C_5 
REMARK    3  A    between atoms: S_3  and  C_7 
REMARK    4  A    between atoms: C_6  and  C_7 
ROOT
HETATM    1  C   UNL     1      62.514   9.344   3.942  1.00  0.00    -0.049 A 
HETATM    2  C   UNL     1      62.270  10.693   4.240  1.00  0.00     0.008 A 
HETATM    3  C   UNL     1      62.397   8.918   2.611  1.00  0.00     0.008 A 
HETATM    4  C   UNL     1      62.044   9.819   1.604  1.00  0.00     0.001 A 
HETATM    5  C   UNL     1      61.912  11.592   3.234  1.00  0.00     0.001 A 
HETATM    6  C   UNL     1      61.801  11.155   1.916  1.00  0.00     0.000 A 
ENDROOT
BRANCH   1   7
HETATM    7  C   UNL     1      62.956   8.378   5.013  1.00  0.00     0.112 C 
BRANCH   7   8
HETATM    8  S   UNL     1      63.755   6.862   4.390  1.00  0.00    -0.154 SA
BRANCH   8   9
HETATM    9  C   UNL     1      65.477   7.149   4.907  1.00  0.00     0.187 C 
BRANCH   9  10
HETATM   10  C   UNL     1      65.614   7.627   6.335  1.00  0.00     0.182 C 
HETATM   11  O   UNL     1      65.296   7.063   7.368  1.00  0.00    -0.647 OA
HETATM   12  O   UNL     1      66.173   8.857   6.396  1.00  0.00    -0.647 OA
ENDBRANCH   9  10
ENDBRANCH   8   9
ENDBRANCH   7   8
ENDBRANCH   1   7
TORSDOF 4
ENDMDL
MODEL 5
REMARK VINA RESULT:      -4.9     19.134     20.532
REMARK  4 active torsions:
REMARK  status: ('A' for Active; 'I' for Inactive)
REMARK    1  A    between atoms: C_1  and  C_5 
REMARK    2  A    between atoms: S_3  and  C_5 
REMARK    3  A    between atoms: S_3  and  C_7 
REMARK    4  A    between atoms: C_6  and  C_7 
ROOT
HETATM    1  C   UNL     1      62.357   8.910   3.585  1.00  0.00    -0.049 A 
HETATM    2  C   UNL     1      62.268   8.817   2.187  1.00  0.00     0.008 A 
HETATM    3  C   UNL     1      62.182  10.165   4.187  1.00  0.00     0.008 A 
HETATM    4  C   UNL     1      61.927  11.297   3.411  1.00  0.00     0.001 A 
HETATM    5  C   UNL     1      62.018   9.951   1.412  1.00  0.00     0.001 A 
HETATM    6  C   UNL     1      61.846  11.190   2.025  1.00  0.00     0.000 A 
ENDROOT
BRANCH   1   7
HETATM    7  C   UNL     1      62.570   7.681   4.434  1.00  0.00     0.112 C 
BRANCH   7   8
HETATM    8  S   UNL     1      64.109   6.770   4.083  1.00  0.00    -0.154 SA
BRANCH   8   9
HETATM    9  C   UNL     1      65.021   7.033   5.636  1.00  0.00     0.187 C 
BRANCH   9  10
HETATM   10  C   UNL     1      65.932   8.240   5.611  1.00  0.00     0.182 C 
HETATM   11  O   UNL     1      67.124   8.299   5.363  1.00  0.00    -0.647 OA
HETATM   12  O   UNL     1      65.262   9.374   5.920  1.00  0.00    -0.647 OA
ENDBRANCH   9  10
ENDBRANCH   8   9
ENDBRANCH   7   8
ENDBRANCH   1   7
TORSDOF 4
ENDMDL
MODEL 6
REMARK VINA RESULT:      -4.8     19.233     20.560
REMARK  4 active torsions:
REMARK  status: ('A' for Active; 'I' for Inactive)
REMARK    1  A    between atoms: C_1  and  C_5 
REMARK    2  A    between atoms: S_3  and  C_5 
REMARK    3  A    between atoms: S_3  and  C_7 
REMARK    4  A    between atoms: C_6  and  C_7 
ROOT
HETATM    1  C   UNL     1      62.527   8.744   3.071  1.00  0.00    -0.049 A 
HETATM    2  C   UNL     1      62.529   9.492   4.259  1.00  0.00     0.008 A 
HETATM    3  C   UNL     1      62.201   9.392   1.870  1.00  0.00     0.008 A 
HETATM    4  C   UNL     1      61.883  10.752   1.859  1.00  0.00     0.001 A 
HETATM    5  C   UNL     1      62.205  10.850   4.246  1.00  0.00     0.001 A 
HETATM    6  C   UNL     1      61.885  11.479   3.046  1.00  0.00     0.000 A 
ENDROOT
BRANCH   1   7
HETATM    7  C   UNL     1      62.930   7.291   3.067  1.00  0.00     0.112 C 
BRANCH   7   8
HETATM    8  S   UNL     1      64.570   6.951   3.788  1.00  0.00    -0.154 SA
BRANCH   8   9
HETATM    9  C   UNL     1      64.096   6.046   5.295  1.00  0.00     0.187 C 
BRANCH   9  10
HETATM   10  C   UNL     1      64.153   6.883   6.552  1.00  0.00     0.182 C 
HETATM   11  O   UNL     1      65.106   7.127   7.271  1.00  0.00    -0.647 OA
HETATM   12  O   UNL     1      62.941   7.397   6.862  1.00  0.00    -0.647 OA
ENDBRANCH   9  10
ENDBRANCH   8   9
ENDBRANCH   7   8
ENDBRANCH   1   7
TORSDOF 4
ENDMDL
MODEL 7
REMARK VINA RESULT:      -4.5     22.406     23.780
REMARK  4 active torsions:
REMARK  status: ('A' for Active; 'I' for Inactive)
REMARK    1  A    between atoms: C_1  and  C_5 
REMARK    2  A    between atoms: S_3  and  C_5 
REMARK    3  A    between atoms: S_3  and  C_7 
REMARK    4  A    between atoms: C_6  and  C_7 
ROOT
HETATM    1  C   UNL     1      58.059  18.908  26.837  1.00  0.00    -0.049 A 
HETATM    2  C   UNL     1      57.856  18.400  25.545  1.00  0.00     0.008 A 
HETATM    3  C   UNL     1      59.324  18.763  27.425  1.00  0.00     0.008 A 
HETATM    4  C   UNL     1      60.359  18.124  26.739  1.00  0.00     0.001 A 
HETATM    5  C   UNL     1      58.890  17.755  24.863  1.00  0.00     0.001 A 
HETATM    6  C   UNL     1      60.141  17.620  25.459  1.00  0.00     0.000 A 
ENDROOT
BRANCH   1   7
HETATM    7  C   UNL     1      56.965  19.655  27.560  1.00  0.00     0.112 C 
BRANCH   7   8
HETATM    8  S   UNL     1      55.938  20.721  26.496  1.00  0.00    -0.154 SA
BRANCH   8   9
HETATM    9  C   UNL     1      54.275  20.104  26.902  1.00  0.00     0.187 C 
BRANCH   9  10
HETATM   10  C   UNL     1      53.850  18.908  26.080  1.00  0.00     0.182 C 
HETATM   11  O   UNL     1      53.139  17.970  26.397  1.00  0.00    -0.647 OA
HETATM   12  O   UNL     1      54.371  18.952  24.832  1.00  0.00    -0.647 OA
ENDBRANCH   9  10
ENDBRANCH   8   9
ENDBRANCH   7   8
ENDBRANCH   1   7
TORSDOF 4
ENDMDL
MODEL 8
REMARK VINA RESULT:      -4.4     13.666     14.980
REMARK  4 active torsions:
REMARK  status: ('A' for Active; 'I' for Inactive)
REMARK    1  A    between atoms: C_1  and  C_5 
REMARK    2  A    between atoms: S_3  and  C_5 
REMARK    3  A    between atoms: S_3  and  C_7 
REMARK    4  A    between atoms: C_6  and  C_7 
ROOT
HETATM    1  C   UNL     1      71.249  21.925  12.191  1.00  0.00    -0.049 A 
HETATM    2  C   UNL     1      70.531  20.721  12.110  1.00  0.00     0.008 A 
HETATM    3  C   UNL     1      72.266  22.165  11.255  1.00  0.00     0.008 A 
HETATM    4  C   UNL     1      72.558  21.225  10.265  1.00  0.00     0.001 A 
HETATM    5  C   UNL     1      70.829  19.780  11.123  1.00  0.00     0.001 A 
HETATM    6  C   UNL     1      71.840  20.033  10.200  1.00  0.00     0.000 A 
ENDROOT
BRANCH   1   7
HETATM    7  C   UNL     1      70.898  22.972  13.219  1.00  0.00     0.112 C 
BRANCH   7   8
HETATM    8  S   UNL     1      72.319  23.914  13.863  1.00  0.00    -0.154 SA
BRANCH   8   9
HETATM    9  C   UNL     1      72.938  22.767  15.134  1.00  0.00     0.187 C 
BRANCH   9  10
HETATM   10  C   UNL     1      74.384  22.369  14.945  1.00  0.00     0.182 C 
HETATM   11  O   UNL     1      75.204  22.032  15.781  1.00  0.00    -0.647 OA
HETATM   12  O   UNL     1      74.747  22.418  13.643  1.00  0.00    -0.647 OA
ENDBRANCH   9  10
ENDBRANCH   8   9
ENDBRANCH   7   8
ENDBRANCH   1   7
TORSDOF 4
ENDMDL
MODEL 9
REMARK VINA RESULT:      -4.4     15.220     16.992
REMARK  4 active torsions:
REMARK  status: ('A' for Active; 'I' for Inactive)
REMARK    1  A    between atoms: C_1  and  C_5 
REMARK    2  A    between atoms: S_3  and  C_5 
REMARK    3  A    between atoms: S_3  and  C_7 
REMARK    4  A    between atoms: C_6  and  C_7 
ROOT
HETATM    1  C   UNL     1      67.628   5.964   7.776  1.00  0.00    -0.049 A 
HETATM    2  C   UNL     1      68.184   5.758   9.049  1.00  0.00     0.008 A 
HETATM    3  C   UNL     1      67.827   4.986   6.790  1.00  0.00     0.008 A 
HETATM    4  C   UNL     1      68.564   3.834   7.069  1.00  0.00     0.001 A 
HETATM    5  C   UNL     1      68.926   4.608   9.324  1.00  0.00     0.001 A 
HETATM    6  C   UNL     1      69.113   3.645   8.335  1.00  0.00     0.000 A 
ENDROOT
BRANCH   1   7
HETATM    7  C   UNL     1      66.779   7.176   7.486  1.00  0.00     0.112 C 
BRANCH   7   8
HETATM    8  S   UNL     1      66.807   7.728   5.748  1.00  0.00    -0.154 SA
BRANCH   8   9
HETATM    9  C   UNL     1      65.067   7.468   5.281  1.00  0.00     0.187 C 
BRANCH   9  10
HETATM   10  C   UNL     1      64.337   8.740   4.916  1.00  0.00     0.182 C 
HETATM   11  O   UNL     1      63.544   8.940   4.012  1.00  0.00    -0.647 OA
HETATM   12  O   UNL     1      64.658   9.755   5.751  1.00  0.00    -0.647 OA
ENDBRANCH   9  10
ENDBRANCH   8   9
ENDBRANCH   7   8
ENDBRANCH   1   7
TORSDOF 4
ENDMDL
