MODEL 1
REMARK VINA RESULT:      -3.9      0.000      0.000
REMARK  2 active torsions:
REMARK  status: ('A' for Active; 'I' for Inactive)
REMARK    1  A    between atoms: C_1  and  N_6 
REMARK    2  A    between atoms: C_3  and  S_7 
ROOT
HETATM    1  C   UNL     1      62.623   9.233   4.292  1.00  0.00     0.044 A 
HETATM    2  C   UNL     1      62.288  10.503   3.798  1.00  0.00     0.054 A 
HETATM    3  C   UNL     1      62.750   8.158   3.385  1.00  0.00     0.026 A 
HETATM    4  C   UNL     1      62.449   8.354   2.028  1.00  0.00     0.022 A 
HETATM    5  C   UNL     1      61.980  10.678   2.452  1.00  0.00     0.036 A 
HETATM    6  C   UNL     1      62.059   9.610   1.561  1.00  0.00     0.025 A 
HETATM    7 CL   UNL     1      61.482  12.225   1.883  1.00  0.00    -0.084 Cl
ENDROOT
BRANCH   1   8
HETATM    8  N   UNL     1      63.009   9.111   5.642  1.00  0.00    -0.398 N 
HETATM    9  H   UNL     1      63.093   8.220   6.051  1.00  0.00     0.156 HD
HETATM   10  H   UNL     1      63.193   9.917   6.176  1.00  0.00     0.156 HD
ENDBRANCH   1   8
BRANCH   3  11
HETATM   11  S   UNL     1      63.112   6.481   3.920  1.00  0.00    -0.132 SA
HETATM   12  C   UNL     1      64.916   6.446   3.735  1.00  0.00     0.095 C 
ENDBRANCH   3  11
TORSDOF 2
ENDMDL
MODEL 2
REMARK VINA RESULT:      -3.8      1.736      2.379
REMARK  2 active torsions:
REMARK  status: ('A' for Active; 'I' for Inactive)
REMARK    1  A    between atoms: C_1  and  N_6 
REMARK    2  A    between atoms: C_3  and  S_7 
ROOT
HETATM    1  C   UNL     1      62.549   8.392   2.323  1.00  0.00     0.044 A 
HETATM    2  C   UNL     1      62.110   9.601   1.762  1.00  0.00     0.054 A 
HETATM    3  C   UNL     1      62.729   8.312   3.722  1.00  0.00     0.026 A 
HETATM    4  C   UNL     1      62.559   9.461   4.510  1.00  0.00     0.022 A 
HETATM    5  C   UNL     1      61.959  10.734   2.556  1.00  0.00     0.036 A 
HETATM    6  C   UNL     1      62.181  10.673   3.929  1.00  0.00     0.025 A 
HETATM    7 CL   UNL     1      61.510  12.231   1.833  1.00  0.00    -0.084 Cl
ENDROOT
BRANCH   1   8
HETATM    8  N   UNL     1      62.609   7.247   1.504  1.00  0.00    -0.398 N 
HETATM    9  H   UNL     1      61.779   6.829   1.179  1.00  0.00     0.156 HD
HETATM   10  H   UNL     1      63.482   6.863   1.257  1.00  0.00     0.156 HD
ENDBRANCH   1   8
BRANCH   3  11
HETATM   11  S   UNL     1      63.347   6.833   4.533  1.00  0.00    -0.132 SA
HETATM   12  C   UNL     1      62.704   7.071   6.212  1.00  0.00     0.095 C 
ENDBRANCH   3  11
TORSDOF 2
ENDMDL
MODEL 3
REMARK VINA RESULT:      -3.7      7.262      8.786
REMARK  2 active torsions:
REMARK  status: ('A' for Active; 'I' for Inactive)
REMARK    1  A    between atoms: C_1  and  N_6 
REMARK    2  A    between atoms: C_3  and  S_7 
ROOT
HETATM    1  C   UNL     1      67.727   6.107   8.142  1.00  0.00     0.044 A 
HETATM    2  C   UNL     1      68.373   5.315   9.104  1.00  0.00     0.054 A 
HETATM    3  C   UNL     1      67.490   5.567   6.858  1.00  0.00     0.026 A 
HETATM    4  C   UNL     1      67.986   4.294   6.539  1.00  0.00     0.022 A 
HETATM    5  C   UNL     1      68.869   4.059   8.767  1.00  0.00     0.036 A 
HETATM    6  C   UNL     1      68.680   3.541   7.488  1.00  0.00     0.025 A 
HETATM    7 CL   UNL     1      69.740   3.142   9.935  1.00  0.00    -0.084 Cl
ENDROOT
BRANCH   1   8
HETATM    8  N   UNL     1      67.165   7.336   8.542  1.00  0.00    -0.398 N 
HETATM    9  H   UNL     1      66.193   7.476   8.478  1.00  0.00     0.156 HD
HETATM   10  H   UNL     1      67.745   8.054   8.884  1.00  0.00     0.156 HD
ENDBRANCH   1   8
BRANCH   3  11
HETATM   11  S   UNL     1      66.729   6.517   5.536  1.00  0.00    -0.132 SA
HETATM   12  C   UNL     1      68.044   7.713   5.176  1.00  0.00     0.095 C 
ENDBRANCH   3  11
TORSDOF 2
ENDMDL
MODEL 4
REMARK VINA RESULT:      -3.7      6.498      8.393
REMARK  2 active torsions:
REMARK  status: ('A' for Active; 'I' for Inactive)
REMARK    1  A    between atoms: C_1  and  N_6 
REMARK    2  A    between atoms: C_3  and  S_7 
ROOT
HETATM    1  C   UNL     1      67.528   5.327   6.622  1.00  0.00     0.044 A 
HETATM    2  C   UNL     1      68.383   4.602   7.466  1.00  0.00     0.054 A 
HETATM    3  C   UNL     1      66.878   6.475   7.129  1.00  0.00     0.026 A 
HETATM    4  C   UNL     1      67.022   6.813   8.483  1.00  0.00     0.022 A 
HETATM    5  C   UNL     1      68.505   4.943   8.810  1.00  0.00     0.036 A 
HETATM    6  C   UNL     1      67.829   6.046   9.326  1.00  0.00     0.025 A 
HETATM    7 CL   UNL     1      69.487   3.985   9.850  1.00  0.00    -0.084 Cl
ENDROOT
BRANCH   1   8
HETATM    8  N   UNL     1      67.495   5.004   5.251  1.00  0.00    -0.398 N 
HETATM    9  H   UNL     1      66.819   5.414   4.665  1.00  0.00     0.156 HD
HETATM   10  H   UNL     1      68.148   4.367   4.879  1.00  0.00     0.156 HD
ENDBRANCH   1   8
BRANCH   3  11
HETATM   11  S   UNL     1      65.716   7.437   6.152  1.00  0.00    -0.132 SA
HETATM   12  C   UNL     1      64.177   6.528   6.462  1.00  0.00     0.095 C 
ENDBRANCH   3  11
TORSDOF 2
ENDMDL
MODEL 5
REMARK VINA RESULT:      -3.5      7.687      9.807
REMARK  2 active torsions:
REMARK  status: ('A' for Active; 'I' for Inactive)
REMARK    1  A    between atoms: C_1  and  N_6 
REMARK    2  A    between atoms: C_3  and  S_7 
ROOT
HETATM    1  C   UNL     1      68.137   3.902   7.001  1.00  0.00     0.044 A 
HETATM    2  C   UNL     1      68.736   2.863   7.731  1.00  0.00     0.054 A 
HETATM    3  C   UNL     1      68.120   5.203   7.553  1.00  0.00     0.026 A 
HETATM    4  C   UNL     1      68.613   5.414   8.849  1.00  0.00     0.022 A 
HETATM    5  C   UNL     1      69.208   3.086   9.021  1.00  0.00     0.036 A 
HETATM    6  C   UNL     1      69.150   4.357   9.587  1.00  0.00     0.025 A 
HETATM    7 CL   UNL     1      69.855   1.778   9.933  1.00  0.00    -0.084 Cl
ENDROOT
BRANCH   1   8
HETATM    8  N   UNL     1      67.748   3.658   5.669  1.00  0.00    -0.398 N 
HETATM    9  H   UNL     1      67.166   4.300   5.202  1.00  0.00     0.156 HD
HETATM   10  H   UNL     1      68.056   2.846   5.207  1.00  0.00     0.156 HD
ENDBRANCH   1   8
BRANCH   3  11
HETATM   11  S   UNL     1      67.324   6.589   6.731  1.00  0.00    -0.132 SA
HETATM   12  C   UNL     1      65.687   6.551   7.510  1.00  0.00     0.095 C 
ENDBRANCH   3  11
TORSDOF 2
ENDMDL
MODEL 6
REMARK VINA RESULT:      -3.4      6.703      7.689
REMARK  2 active torsions:
REMARK  status: ('A' for Active; 'I' for Inactive)
REMARK    1  A    between atoms: C_1  and  N_6 
REMARK    2  A    between atoms: C_3  and  S_7 
ROOT
HETATM    1  C   UNL     1      67.715   5.812   7.670  1.00  0.00     0.044 A 
HETATM    2  C   UNL     1      67.469   6.492   6.467  1.00  0.00     0.054 A 
HETATM    3  C   UNL     1      67.934   4.417   7.635  1.00  0.00     0.026 A 
HETATM    4  C   UNL     1      67.808   3.725   6.421  1.00  0.00     0.022 A 
HETATM    5  C   UNL     1      67.335   5.789   5.273  1.00  0.00     0.036 A 
HETATM    6  C   UNL     1      67.503   4.407   5.241  1.00  0.00     0.025 A 
HETATM    7 CL   UNL     1      66.941   6.631   3.824  1.00  0.00    -0.084 Cl
ENDROOT
BRANCH   1   8
HETATM    8  N   UNL     1      67.927   6.565   8.842  1.00  0.00    -0.398 N 
HETATM    9  H   UNL     1      67.482   6.304   9.681  1.00  0.00     0.156 HD
HETATM   10  H   UNL     1      68.518   7.352   8.822  1.00  0.00     0.156 HD
ENDBRANCH   1   8
BRANCH   3  11
HETATM   11  S   UNL     1      68.194   3.443   9.122  1.00  0.00    -0.132 SA
HETATM   12  C   UNL     1      69.951   3.762   9.435  1.00  0.00     0.095 C 
ENDBRANCH   3  11
TORSDOF 2
ENDMDL
MODEL 7
REMARK VINA RESULT:      -3.3     24.629     25.476
REMARK  2 active torsions:
REMARK  status: ('A' for Active; 'I' for Inactive)
REMARK    1  A    between atoms: C_1  and  N_6 
REMARK    2  A    between atoms: C_3  and  S_7 
ROOT
HETATM    1  C   UNL     1      58.674  18.253  25.506  1.00  0.00     0.044 A 
HETATM    2  C   UNL     1      57.407  18.724  25.129  1.00  0.00     0.054 A 
HETATM    3  C   UNL     1      59.083  18.393  26.852  1.00  0.00     0.026 A 
HETATM    4  C   UNL     1      58.263  19.080  27.758  1.00  0.00     0.022 A 
HETATM    5  C   UNL     1      56.611  19.416  26.037  1.00  0.00     0.036 A 
HETATM    6  C   UNL     1      57.031  19.598  27.353  1.00  0.00     0.025 A 
HETATM    7 CL   UNL     1      55.101  20.067  25.529  1.00  0.00    -0.084 Cl
ENDROOT
BRANCH   1   8
HETATM    8  N   UNL     1      59.415  17.486  24.585  1.00  0.00    -0.398 N 
HETATM    9  H   UNL     1      59.507  17.791  23.654  1.00  0.00     0.156 HD
HETATM   10  H   UNL     1      59.839  16.645  24.872  1.00  0.00     0.156 HD
ENDBRANCH   1   8
BRANCH   3  11
HETATM   11  S   UNL     1      60.707  17.881  27.425  1.00  0.00    -0.132 SA
HETATM   12  C   UNL     1      60.417  16.119  27.743  1.00  0.00     0.095 C 
ENDBRANCH   3  11
TORSDOF 2
ENDMDL
MODEL 8
REMARK VINA RESULT:      -3.3      9.816     11.239
REMARK  2 active torsions:
REMARK  status: ('A' for Active; 'I' for Inactive)
REMARK    1  A    between atoms: C_1  and  N_6 
REMARK    2  A    between atoms: C_3  and  S_7 
ROOT
HETATM    1  C   UNL     1      69.552   2.595   9.462  1.00  0.00     0.044 A 
HETATM    2  C   UNL     1      69.452   1.218   9.211  1.00  0.00     0.054 A 
HETATM    3  C   UNL     1      69.233   3.504   8.428  1.00  0.00     0.026 A 
HETATM    4  C   UNL     1      68.917   3.019   7.150  1.00  0.00     0.022 A 
HETATM    5  C   UNL     1      69.149   0.753   7.935  1.00  0.00     0.036 A 
HETATM    6  C   UNL     1      68.880   1.645   6.900  1.00  0.00     0.025 A 
HETATM    7 CL   UNL     1      69.122  -0.940   7.626  1.00  0.00    -0.084 Cl
ENDROOT
BRANCH   1   8
HETATM    8  N   UNL     1      69.778   3.029  10.783  1.00  0.00    -0.398 N 
HETATM    9  H   UNL     1      69.364   3.861  11.106  1.00  0.00     0.156 HD
HETATM   10  H   UNL     1      70.352   2.500  11.384  1.00  0.00     0.156 HD
ENDBRANCH   1   8
BRANCH   3  11
HETATM   11  S   UNL     1      69.389   5.284   8.625  1.00  0.00    -0.132 SA
HETATM   12  C   UNL     1      67.686   5.729   9.060  1.00  0.00     0.095 C 
ENDBRANCH   3  11
TORSDOF 2
ENDMDL
MODEL 9
REMARK VINA RESULT:      -3.3     18.397     18.782
REMARK  2 active torsions:
REMARK  status: ('A' for Active; 'I' for Inactive)
REMARK    1  A    between atoms: C_1  and  N_6 
REMARK    2  A    between atoms: C_3  and  S_7 
ROOT
HETATM    1  C   UNL     1      79.025   0.764   7.630  1.00  0.00     0.044 A 
HETATM    2  C   UNL     1      78.599   1.772   8.509  1.00  0.00     0.054 A 
HETATM    3  C   UNL     1      79.864   1.111   6.547  1.00  0.00     0.026 A 
HETATM    4  C   UNL     1      80.176   2.459   6.315  1.00  0.00     0.022 A 
HETATM    5  C   UNL     1      78.907   3.105   8.257  1.00  0.00     0.036 A 
HETATM    6  C   UNL     1      79.694   3.457   7.164  1.00  0.00     0.025 A 
HETATM    7 CL   UNL     1      78.296   4.335   9.296  1.00  0.00    -0.084 Cl
ENDROOT
BRANCH   1   8
HETATM    8  N   UNL     1      78.765  -0.580   7.962  1.00  0.00    -0.398 N 
HETATM    9  H   UNL     1      77.870  -0.960   7.812  1.00  0.00     0.156 HD
HETATM   10  H   UNL     1      79.479  -1.140   8.346  1.00  0.00     0.156 HD
ENDBRANCH   1   8
BRANCH   3  11
HETATM   11  S   UNL     1      80.414  -0.090   5.329  1.00  0.00    -0.132 SA
HETATM   12  C   UNL     1      79.037  -0.036   4.151  1.00  0.00     0.095 C 
ENDBRANCH   3  11
TORSDOF 2
ENDMDL
