MODEL 1
REMARK VINA RESULT:      -4.5      0.000      0.000
REMARK  0 active torsions:
REMARK  status: ('A' for Active; 'I' for Inactive)
ROOT
HETATM    1  N   UNL     1      78.832  11.310  20.668  1.00  0.00    -0.303 N 
ATOM      2  HN  UNL     1      79.529  10.594  20.876  1.00  0.00     0.186 HD
HETATM    3  N   UNL     1      77.907  11.301  19.690  1.00  0.00    -0.301 N 
HETATM    4  C   UNL     1      77.112  12.420  19.685  1.00  0.00     0.026 A 
HETATM    5  C   UNL     1      77.577  13.202  20.722  1.00  0.00     0.052 A 
HETATM    6  C   UNL     1      78.632  12.468  21.304  1.00  0.00     0.024 A 
HETATM    7  C   UNL     1      77.856  10.160  18.807  1.00  0.00     0.177 C 
HETATM    8  C   UNL     1      76.004  12.648  18.729  1.00  0.00     0.070 C 
HETATM    9  C   UNL     1      79.465  12.830  22.474  1.00  0.00     0.070 C 
ENDROOT
TORSDOF 0
ENDMDL
MODEL 2
REMARK VINA RESULT:      -4.3      0.915      2.964
REMARK  0 active torsions:
REMARK  status: ('A' for Active; 'I' for Inactive)
ROOT
HETATM    1  N   UNL     1      78.649  10.781  19.955  1.00  0.00    -0.303 N 
ATOM      2  HN  UNL     1      79.417  10.195  20.282  1.00  0.00     0.186 HD
HETATM    3  N   UNL     1      78.260  11.978  20.436  1.00  0.00    -0.301 N 
HETATM    4  C   UNL     1      77.189  12.511  19.764  1.00  0.00     0.026 A 
HETATM    5  C   UNL     1      76.863  11.579  18.800  1.00  0.00     0.052 A 
HETATM    6  C   UNL     1      77.800  10.535  18.952  1.00  0.00     0.024 A 
HETATM    7  C   UNL     1      78.991  12.538  21.547  1.00  0.00     0.177 C 
HETATM    8  C   UNL     1      76.581  13.825  20.076  1.00  0.00     0.070 C 
HETATM    9  C   UNL     1      77.928   9.294  18.154  1.00  0.00     0.070 C 
ENDROOT
TORSDOF 0
ENDMDL
MODEL 3
REMARK VINA RESULT:      -4.3      6.961      8.766
REMARK  0 active torsions:
REMARK  status: ('A' for Active; 'I' for Inactive)
ROOT
HETATM    1  N   UNL     1      77.270   4.547  18.050  1.00  0.00    -0.303 N 
ATOM      2  HN  UNL     1      78.116   4.713  18.596  1.00  0.00     0.186 HD
HETATM    3  N   UNL     1      76.668   3.369  17.797  1.00  0.00    -0.301 N 
HETATM    4  C   UNL     1      75.536   3.492  17.031  1.00  0.00     0.026 A 
HETATM    5  C   UNL     1      75.420   4.841  16.764  1.00  0.00     0.052 A 
HETATM    6  C   UNL     1      76.508   5.450  17.425  1.00  0.00     0.024 A 
HETATM    7  C   UNL     1      77.255   2.170  18.345  1.00  0.00     0.177 C 
HETATM    8  C   UNL     1      74.676   2.355  16.630  1.00  0.00     0.070 C 
HETATM    9  C   UNL     1      76.850   6.890  17.494  1.00  0.00     0.070 C 
ENDROOT
TORSDOF 0
ENDMDL
MODEL 4
REMARK VINA RESULT:      -4.2     14.357     14.863
REMARK  0 active torsions:
REMARK  status: ('A' for Active; 'I' for Inactive)
ROOT
HETATM    1  N   UNL     1      72.604  22.447  12.082  1.00  0.00    -0.303 N 
ATOM      2  HN  UNL     1      73.506  22.287  11.633  1.00  0.00     0.186 HD
HETATM    3  N   UNL     1      72.334  23.245  13.132  1.00  0.00    -0.301 N 
HETATM    4  C   UNL     1      71.009  23.241  13.491  1.00  0.00     0.026 A 
HETATM    5  C   UNL     1      70.398  22.365  12.618  1.00  0.00     0.052 A 
HETATM    6  C   UNL     1      71.423  21.910  11.761  1.00  0.00     0.024 A 
HETATM    7  C   UNL     1      73.422  23.986  13.725  1.00  0.00     0.177 C 
HETATM    8  C   UNL     1      70.445  24.049  14.596  1.00  0.00     0.070 C 
HETATM    9  C   UNL     1      71.315  20.973  10.618  1.00  0.00     0.070 C 
ENDROOT
TORSDOF 0
ENDMDL
MODEL 5
REMARK VINA RESULT:      -4.0      3.682      5.468
REMARK  0 active torsions:
REMARK  status: ('A' for Active; 'I' for Inactive)
ROOT
HETATM    1  N   UNL     1      77.722   9.673  16.387  1.00  0.00    -0.303 N 
ATOM      2  HN  UNL     1      78.026  10.583  16.040  1.00  0.00     0.186 HD
HETATM    3  N   UNL     1      77.449   8.565  15.671  1.00  0.00    -0.301 N 
HETATM    4  C   UNL     1      77.069   7.498  16.446  1.00  0.00     0.026 A 
HETATM    5  C   UNL     1      77.086   7.966  17.744  1.00  0.00     0.052 A 
HETATM    6  C   UNL     1      77.506   9.310  17.655  1.00  0.00     0.024 A 
HETATM    7  C   UNL     1      77.590   8.627  14.236  1.00  0.00     0.177 C 
HETATM    8  C   UNL     1      76.737   6.158  15.910  1.00  0.00     0.070 C 
HETATM    9  C   UNL     1      77.726  10.277  18.755  1.00  0.00     0.070 C 
ENDROOT
TORSDOF 0
ENDMDL
MODEL 6
REMARK VINA RESULT:      -3.7     14.872     16.039
REMARK  0 active torsions:
REMARK  status: ('A' for Active; 'I' for Inactive)
ROOT
HETATM    1  N   UNL     1      70.150  25.650  15.428  1.00  0.00    -0.303 N 
ATOM      2  HN  UNL     1      70.306  26.489  15.988  1.00  0.00     0.186 HD
HETATM    3  N   UNL     1      71.066  24.911  14.773  1.00  0.00    -0.301 N 
HETATM    4  C   UNL     1      70.527  23.834  14.116  1.00  0.00     0.026 A 
HETATM    5  C   UNL     1      69.170  23.903  14.356  1.00  0.00     0.052 A 
HETATM    6  C   UNL     1      68.989  25.035  15.180  1.00  0.00     0.024 A 
HETATM    7  C   UNL     1      72.449  25.318  14.845  1.00  0.00     0.177 C 
HETATM    8  C   UNL     1      71.318  22.851  13.341  1.00  0.00     0.070 C 
HETATM    9  C   UNL     1      67.730  25.555  15.760  1.00  0.00     0.070 C 
ENDROOT
TORSDOF 0
ENDMDL
MODEL 7
REMARK VINA RESULT:      -3.6     21.119     22.850
REMARK  0 active torsions:
REMARK  status: ('A' for Active; 'I' for Inactive)
ROOT
HETATM    1  N   UNL     1      63.014   8.520   3.060  1.00  0.00    -0.303 N 
ATOM      2  HN  UNL     1      63.367   7.632   2.701  1.00  0.00     0.186 HD
HETATM    3  N   UNL     1      63.298   9.105   4.240  1.00  0.00    -0.301 N 
HETATM    4  C   UNL     1      62.660  10.307   4.416  1.00  0.00     0.026 A 
HETATM    5  C   UNL     1      61.904  10.490   3.276  1.00  0.00     0.052 A 
HETATM    6  C   UNL     1      62.166   9.365   2.466  1.00  0.00     0.024 A 
HETATM    7  C   UNL     1      64.207   8.431   5.135  1.00  0.00     0.177 C 
HETATM    8  C   UNL     1      62.818  11.164   5.614  1.00  0.00     0.070 C 
HETATM    9  C   UNL     1      61.638   9.065   1.115  1.00  0.00     0.070 C 
ENDROOT
TORSDOF 0
ENDMDL
MODEL 8
REMARK VINA RESULT:      -3.5     21.984     23.381
REMARK  0 active torsions:
REMARK  status: ('A' for Active; 'I' for Inactive)
ROOT
HETATM    1  N   UNL     1      62.526   8.446   3.123  1.00  0.00    -0.303 N 
ATOM      2  HN  UNL     1      62.714   7.458   2.952  1.00  0.00     0.186 HD
HETATM    3  N   UNL     1      62.226   9.398   2.219  1.00  0.00    -0.301 N 
HETATM    4  C   UNL     1      62.023  10.634   2.779  1.00  0.00     0.026 A 
HETATM    5  C   UNL     1      62.227  10.459   4.132  1.00  0.00     0.052 A 
HETATM    6  C   UNL     1      62.524   9.089   4.294  1.00  0.00     0.024 A 
HETATM    7  C   UNL     1      62.146   9.019   0.828  1.00  0.00     0.177 C 
HETATM    8  C   UNL     1      61.657  11.846   2.010  1.00  0.00     0.070 C 
HETATM    9  C   UNL     1      62.800   8.353   5.550  1.00  0.00     0.070 C 
ENDROOT
TORSDOF 0
ENDMDL
MODEL 9
REMARK VINA RESULT:      -3.5      8.817     10.589
REMARK  0 active torsions:
REMARK  status: ('A' for Active; 'I' for Inactive)
ROOT
HETATM    1  N   UNL     1      75.724   1.645  18.374  1.00  0.00    -0.303 N 
ATOM      2  HN  UNL     1      76.151   1.035  19.072  1.00  0.00     0.186 HD
HETATM    3  N   UNL     1      76.049   2.919  18.083  1.00  0.00    -0.301 N 
HETATM    4  C   UNL     1      75.280   3.460  17.082  1.00  0.00     0.026 A 
HETATM    5  C   UNL     1      74.393   2.464  16.725  1.00  0.00     0.052 A 
HETATM    6  C   UNL     1      74.716   1.361  17.544  1.00  0.00     0.024 A 
HETATM    7  C   UNL     1      77.126   3.536  18.819  1.00  0.00     0.177 C 
HETATM    8  C   UNL     1      75.447   4.834  16.555  1.00  0.00     0.070 C 
HETATM    9  C   UNL     1      74.095   0.016  17.557  1.00  0.00     0.070 C 
ENDROOT
TORSDOF 0
ENDMDL
