MODEL 1
REMARK VINA RESULT:      -4.3      0.000      0.000
REMARK  2 active torsions:
REMARK  status: ('A' for Active; 'I' for Inactive)
REMARK    1  A    between atoms: C_2  and  N_7 
REMARK    2  A    between atoms: C_3  and  N_6 
ROOT
HETATM    1  C   UNL     1      63.168   8.164   3.610  1.00  0.00     0.097 A 
HETATM    2  C   UNL     1      63.716   8.590   4.866  1.00  0.00     0.052 A 
HETATM    3  C   UNL     1      62.220   8.947   2.876  1.00  0.00     0.052 A 
HETATM    4  C   UNL     1      63.714   6.985   2.989  1.00  0.00     0.104 C 
HETATM    5  N   UNL     1      64.124   6.013   2.497  1.00  0.00    -0.191 NA
HETATM    6  C   UNL     1      63.337   9.869   5.312  1.00  0.00     0.031 A 
HETATM    7  C   UNL     1      61.906  10.212   3.405  1.00  0.00     0.031 A 
HETATM    8  C   UNL     1      62.460  10.676   4.592  1.00  0.00     0.005 A 
ENDROOT
BRANCH   2   9
HETATM    9  N   UNL     1      64.604   7.842   5.643  1.00  0.00    -0.388 N 
HETATM   10  C   UNL     1      64.172   6.800   6.571  1.00  0.00     0.149 C 
HETATM   11  C   UNL     1      66.027   8.169   5.679  1.00  0.00     0.149 C 
ENDBRANCH   2   9
BRANCH   3  12
HETATM   12  N   UNL     1      61.617   8.553   1.678  1.00  0.00    -0.388 N 
HETATM   13  C   UNL     1      60.290   7.945   1.613  1.00  0.00     0.149 C 
HETATM   14  C   UNL     1      62.245   8.842   0.394  1.00  0.00     0.149 C 
ENDBRANCH   3  12
TORSDOF 2
ENDMDL
MODEL 2
REMARK VINA RESULT:      -4.2      0.342      4.257
REMARK  2 active torsions:
REMARK  status: ('A' for Active; 'I' for Inactive)
REMARK    1  A    between atoms: C_2  and  N_7 
REMARK    2  A    between atoms: C_3  and  N_6 
ROOT
HETATM    1  C   UNL     1      63.102   8.233   3.421  1.00  0.00     0.097 A 
HETATM    2  C   UNL     1      62.228   9.078   2.661  1.00  0.00     0.052 A 
HETATM    3  C   UNL     1      63.670   8.635   4.674  1.00  0.00     0.052 A 
HETATM    4  C   UNL     1      63.286   6.871   2.988  1.00  0.00     0.104 C 
HETATM    5  N   UNL     1      63.469   5.780   2.627  1.00  0.00    -0.191 NA
HETATM    6  C   UNL     1      61.880  10.308   3.248  1.00  0.00     0.031 A 
HETATM    7  C   UNL     1      63.259   9.882   5.177  1.00  0.00     0.031 A 
HETATM    8  C   UNL     1      62.372  10.702   4.490  1.00  0.00     0.005 A 
ENDROOT
BRANCH   2   9
HETATM    9  N   UNL     1      61.690   8.753   1.414  1.00  0.00    -0.388 N 
HETATM   10  C   UNL     1      60.330   8.250   1.236  1.00  0.00     0.149 C 
HETATM   11  C   UNL     1      62.523   8.755   0.214  1.00  0.00     0.149 C 
ENDBRANCH   2   9
BRANCH   3  12
HETATM   12  N   UNL     1      64.568   7.871   5.424  1.00  0.00    -0.388 N 
HETATM   13  C   UNL     1      66.019   8.012   5.320  1.00  0.00     0.149 C 
HETATM   14  C   UNL     1      64.092   6.958   6.457  1.00  0.00     0.149 C 
ENDBRANCH   3  12
TORSDOF 2
ENDMDL
MODEL 3
REMARK VINA RESULT:      -4.2      5.982      9.065
REMARK  2 active torsions:
REMARK  status: ('A' for Active; 'I' for Inactive)
REMARK    1  A    between atoms: C_2  and  N_7 
REMARK    2  A    between atoms: C_3  and  N_6 
ROOT
HETATM    1  C   UNL     1      67.748   3.770   8.084  1.00  0.00     0.097 A 
HETATM    2  C   UNL     1      68.212   5.103   7.831  1.00  0.00     0.052 A 
HETATM    3  C   UNL     1      68.511   2.814   8.830  1.00  0.00     0.052 A 
HETATM    4  C   UNL     1      66.397   3.432   7.714  1.00  0.00     0.104 C 
HETATM    5  N   UNL     1      65.319   3.140   7.387  1.00  0.00    -0.191 NA
HETATM    6  C   UNL     1      69.434   5.464   8.427  1.00  0.00     0.031 A 
HETATM    7  C   UNL     1      69.720   3.272   9.386  1.00  0.00     0.031 A 
HETATM    8  C   UNL     1      70.172   4.573   9.203  1.00  0.00     0.005 A 
ENDROOT
BRANCH   2   9
HETATM    9  N   UNL     1      67.529   6.054   7.069  1.00  0.00    -0.388 N 
HETATM   10  C   UNL     1      67.664   6.164   5.619  1.00  0.00     0.149 C 
HETATM   11  C   UNL     1      66.742   7.104   7.711  1.00  0.00     0.149 C 
ENDBRANCH   2   9
BRANCH   3  12
HETATM   12  N   UNL     1      68.128   1.489   9.057  1.00  0.00    -0.388 N 
HETATM   13  C   UNL     1      68.394   0.407   8.112  1.00  0.00     0.149 C 
HETATM   14  C   UNL     1      67.537   1.089  10.328  1.00  0.00     0.149 C 
ENDBRANCH   3  12
TORSDOF 2
ENDMDL
MODEL 4
REMARK VINA RESULT:      -4.2      5.264      8.191
REMARK  2 active torsions:
REMARK  status: ('A' for Active; 'I' for Inactive)
REMARK    1  A    between atoms: C_2  and  N_7 
REMARK    2  A    between atoms: C_3  and  N_6 
ROOT
HETATM    1  C   UNL     1      67.973   4.671   7.272  1.00  0.00     0.097 A 
HETATM    2  C   UNL     1      66.850   5.343   6.685  1.00  0.00     0.052 A 
HETATM    3  C   UNL     1      68.535   5.061   8.531  1.00  0.00     0.052 A 
HETATM    4  C   UNL     1      68.449   3.462   6.651  1.00  0.00     0.104 C 
HETATM    5  N   UNL     1      68.864   2.504   6.137  1.00  0.00    -0.191 NA
HETATM    6  C   UNL     1      66.262   6.366   7.451  1.00  0.00     0.031 A 
HETATM    7  C   UNL     1      67.874   6.094   9.220  1.00  0.00     0.031 A 
HETATM    8  C   UNL     1      66.752   6.730   8.702  1.00  0.00     0.005 A 
ENDROOT
BRANCH   2   9
HETATM    9  N   UNL     1      66.298   5.033   5.440  1.00  0.00    -0.388 N 
HETATM   10  C   UNL     1      65.186   4.102   5.267  1.00  0.00     0.149 C 
HETATM   11  C   UNL     1      66.911   5.519   4.206  1.00  0.00     0.149 C 
ENDBRANCH   2   9
BRANCH   3  12
HETATM   12  N   UNL     1      69.660   4.475   9.118  1.00  0.00    -0.388 N 
HETATM   13  C   UNL     1      71.015   4.988   8.936  1.00  0.00     0.149 C 
HETATM   14  C   UNL     1      69.522   3.368  10.057  1.00  0.00     0.149 C 
ENDBRANCH   3  12
TORSDOF 2
ENDMDL
MODEL 5
REMARK VINA RESULT:      -4.1      6.059      8.623
REMARK  2 active torsions:
REMARK  status: ('A' for Active; 'I' for Inactive)
REMARK    1  A    between atoms: C_2  and  N_7 
REMARK    2  A    between atoms: C_3  and  N_6 
ROOT
HETATM    1  C   UNL     1      67.717   3.602   8.240  1.00  0.00     0.097 A 
HETATM    2  C   UNL     1      68.503   2.688   9.018  1.00  0.00     0.052 A 
HETATM    3  C   UNL     1      68.111   4.960   8.012  1.00  0.00     0.052 A 
HETATM    4  C   UNL     1      66.575   3.089   7.528  1.00  0.00     0.104 C 
HETATM    5  N   UNL     1      65.629   2.691   6.978  1.00  0.00    -0.191 NA
HETATM    6  C   UNL     1      69.739   3.169   9.487  1.00  0.00     0.031 A 
HETATM    7  C   UNL     1      69.364   5.344   8.522  1.00  0.00     0.031 A 
HETATM    8  C   UNL     1      70.173   4.468   9.235  1.00  0.00     0.005 A 
ENDROOT
BRANCH   2   9
HETATM    9  N   UNL     1      68.139   1.372   9.309  1.00  0.00    -0.388 N 
HETATM   10  C   UNL     1      67.364   0.999  10.489  1.00  0.00     0.149 C 
HETATM   11  C   UNL     1      68.650   0.259   8.512  1.00  0.00     0.149 C 
ENDBRANCH   2   9
BRANCH   3  12
HETATM   12  N   UNL     1      67.355   5.903   7.309  1.00  0.00    -0.388 N 
HETATM   13  C   UNL     1      66.310   6.714   7.929  1.00  0.00     0.149 C 
HETATM   14  C   UNL     1      67.658   6.216   5.917  1.00  0.00     0.149 C 
ENDBRANCH   3  12
TORSDOF 2
ENDMDL
MODEL 6
REMARK VINA RESULT:      -4.1      4.402      7.104
REMARK  2 active torsions:
REMARK  status: ('A' for Active; 'I' for Inactive)
REMARK    1  A    between atoms: C_2  and  N_7 
REMARK    2  A    between atoms: C_3  and  N_6 
ROOT
HETATM    1  C   UNL     1      67.276   5.413   7.566  1.00  0.00     0.097 A 
HETATM    2  C   UNL     1      68.176   4.297   7.623  1.00  0.00     0.052 A 
HETATM    3  C   UNL     1      66.549   5.759   6.381  1.00  0.00     0.052 A 
HETATM    4  C   UNL     1      66.972   6.111   8.788  1.00  0.00     0.104 C 
HETATM    5  N   UNL     1      66.747   6.703   9.765  1.00  0.00    -0.191 NA
HETATM    6  C   UNL     1      68.251   3.495   6.470  1.00  0.00     0.031 A 
HETATM    7  C   UNL     1      66.691   4.894   5.281  1.00  0.00     0.031 A 
HETATM    8  C   UNL     1      67.514   3.775   5.322  1.00  0.00     0.005 A 
ENDROOT
BRANCH   2   9
HETATM    9  N   UNL     1      68.944   3.949   8.736  1.00  0.00    -0.388 N 
HETATM   10  C   UNL     1      70.263   4.514   9.006  1.00  0.00     0.149 C 
HETATM   11  C   UNL     1      68.526   2.869   9.627  1.00  0.00     0.149 C 
ENDBRANCH   2   9
BRANCH   3  12
HETATM   12  N   UNL     1      65.704   6.866   6.259  1.00  0.00    -0.388 N 
HETATM   13  C   UNL     1      66.180   8.198   5.893  1.00  0.00     0.149 C 
HETATM   14  C   UNL     1      64.258   6.720   6.378  1.00  0.00     0.149 C 
ENDBRANCH   3  12
TORSDOF 2
ENDMDL
MODEL 7
REMARK VINA RESULT:      -3.9      5.569      8.436
REMARK  2 active torsions:
REMARK  status: ('A' for Active; 'I' for Inactive)
REMARK    1  A    between atoms: C_2  and  N_7 
REMARK    2  A    between atoms: C_3  and  N_6 
ROOT
HETATM    1  C   UNL     1      67.884   3.940   6.926  1.00  0.00     0.097 A 
HETATM    2  C   UNL     1      68.028   5.301   7.355  1.00  0.00     0.052 A 
HETATM    3  C   UNL     1      68.600   2.859   7.535  1.00  0.00     0.052 A 
HETATM    4  C   UNL     1      66.864   3.631   5.957  1.00  0.00     0.104 C 
HETATM    5  N   UNL     1      66.066   3.377   5.149  1.00  0.00    -0.191 NA
HETATM    6  C   UNL     1      68.853   5.522   8.472  1.00  0.00     0.031 A 
HETATM    7  C   UNL     1      69.399   3.182   8.646  1.00  0.00     0.031 A 
HETATM    8  C   UNL     1      69.518   4.483   9.119  1.00  0.00     0.005 A 
ENDROOT
BRANCH   2   9
HETATM    9  N   UNL     1      67.391   6.395   6.763  1.00  0.00    -0.388 N 
HETATM   10  C   UNL     1      67.912   7.081   5.583  1.00  0.00     0.149 C 
HETATM   11  C   UNL     1      66.228   7.016   7.392  1.00  0.00     0.149 C 
ENDBRANCH   2   9
BRANCH   3  12
HETATM   12  N   UNL     1      68.536   1.526   7.118  1.00  0.00    -0.388 N 
HETATM   13  C   UNL     1      69.344   0.990   6.025  1.00  0.00     0.149 C 
HETATM   14  C   UNL     1      67.731   0.553   7.846  1.00  0.00     0.149 C 
ENDBRANCH   3  12
TORSDOF 2
ENDMDL
MODEL 8
REMARK VINA RESULT:      -3.9      1.651      3.207
REMARK  2 active torsions:
REMARK  status: ('A' for Active; 'I' for Inactive)
REMARK    1  A    between atoms: C_2  and  N_7 
REMARK    2  A    between atoms: C_3  and  N_6 
ROOT
HETATM    1  C   UNL     1      64.098   7.898   4.003  1.00  0.00     0.097 A 
HETATM    2  C   UNL     1      65.251   7.084   4.256  1.00  0.00     0.052 A 
HETATM    3  C   UNL     1      63.152   7.598   2.970  1.00  0.00     0.052 A 
HETATM    4  C   UNL     1      63.796   8.964   4.924  1.00  0.00     0.104 C 
HETATM    5  N   UNL     1      63.564   9.849   5.643  1.00  0.00    -0.191 NA
HETATM    6  C   UNL     1      65.370   5.912   3.487  1.00  0.00     0.031 A 
HETATM    7  C   UNL     1      63.358   6.403   2.257  1.00  0.00     0.031 A 
HETATM    8  C   UNL     1      64.436   5.565   2.514  1.00  0.00     0.005 A 
ENDROOT
BRANCH   2   9
HETATM    9  N   UNL     1      66.227   7.360   5.216  1.00  0.00    -0.388 N 
HETATM   10  C   UNL     1      67.539   7.914   4.886  1.00  0.00     0.149 C 
HETATM   11  C   UNL     1      66.042   6.965   6.609  1.00  0.00     0.149 C 
ENDBRANCH   2   9
BRANCH   3  12
HETATM   12  N   UNL     1      62.044   8.389   2.649  1.00  0.00    -0.388 N 
HETATM   13  C   UNL     1      60.750   8.261   3.315  1.00  0.00     0.149 C 
HETATM   14  C   UNL     1      62.161   9.486   1.696  1.00  0.00     0.149 C 
ENDBRANCH   3  12
TORSDOF 2
ENDMDL
MODEL 9
REMARK VINA RESULT:      -3.8      5.291      7.869
REMARK  2 active torsions:
REMARK  status: ('A' for Active; 'I' for Inactive)
REMARK    1  A    between atoms: C_2  and  N_7 
REMARK    2  A    between atoms: C_3  and  N_6 
ROOT
HETATM    1  C   UNL     1      67.921   4.136   6.616  1.00  0.00     0.097 A 
HETATM    2  C   UNL     1      68.538   3.014   7.263  1.00  0.00     0.052 A 
HETATM    3  C   UNL     1      67.975   5.463   7.153  1.00  0.00     0.052 A 
HETATM    4  C   UNL     1      67.367   3.949   5.300  1.00  0.00     0.104 C 
HETATM    5  N   UNL     1      66.885   3.799   4.251  1.00  0.00    -0.191 NA
HETATM    6  C   UNL     1      69.282   3.292   8.424  1.00  0.00     0.031 A 
HETATM    7  C   UNL     1      68.745   5.639   8.318  1.00  0.00     0.031 A 
HETATM    8  C   UNL     1      69.398   4.581   8.939  1.00  0.00     0.005 A 
ENDROOT
BRANCH   2   9
HETATM    9  N   UNL     1      68.472   1.696   6.806  1.00  0.00    -0.388 N 
HETATM   10  C   UNL     1      69.410   1.137   5.836  1.00  0.00     0.149 C 
HETATM   11  C   UNL     1      67.351   0.833   7.169  1.00  0.00     0.149 C 
ENDBRANCH   2   9
BRANCH   3  12
HETATM   12  N   UNL     1      67.345   6.577   6.591  1.00  0.00    -0.388 N 
HETATM   13  C   UNL     1      67.935   7.371   5.515  1.00  0.00     0.149 C 
HETATM   14  C   UNL     1      65.986   6.941   6.975  1.00  0.00     0.149 C 
ENDBRANCH   3  12
TORSDOF 2
ENDMDL
