MODEL 1
REMARK VINA RESULT:      -3.4      0.000      0.000
REMARK  1 active torsions:
REMARK  status: ('A' for Active; 'I' for Inactive)
REMARK    1  A    between atoms: N_3  and  C_5 
ROOT
HETATM    1  N   UNL     1      64.744   6.963   7.297  1.00  0.00    -0.196 NA
HETATM    2  C   UNL     1      65.872   6.989   7.018  1.00  0.00     0.086 C 
HETATM    3  C   UNL     1      67.299   7.012   6.622  1.00  0.00     0.357 C 
ENDROOT
BRANCH   3   4
HETATM    4  N   UNL     1      68.137   5.959   7.251  1.00  0.00    -0.058 N 
HETATM    5  C   UNL     1      67.832   4.656   6.618  1.00  0.00     0.246 C 
HETATM    6  C   UNL     1      68.696   3.490   7.116  1.00  0.00     0.101 C 
HETATM    7  S   UNL     1      68.469   3.186   8.892  1.00  0.00    -0.166 SA
HETATM    8  C   UNL     1      68.790   4.885   9.449  1.00  0.00     0.101 C 
HETATM    9  C   UNL     1      67.907   5.904   8.715  1.00  0.00     0.246 C 
HETATM   10  H   UNL     1      69.121   6.181   7.107  1.00  0.00     0.281 HD
ENDBRANCH   3   4
TORSDOF 1
ENDMDL
MODEL 2
REMARK VINA RESULT:      -3.3      8.983      9.861
REMARK  1 active torsions:
REMARK  status: ('A' for Active; 'I' for Inactive)
REMARK    1  A    between atoms: N_3  and  C_5 
ROOT
HETATM    1  N   UNL     1      61.924  11.945   3.929  1.00  0.00    -0.196 NA
HETATM    2  C   UNL     1      61.945  10.843   3.562  1.00  0.00     0.086 C 
HETATM    3  C   UNL     1      61.998   9.450   3.063  1.00  0.00     0.357 C 
ENDROOT
BRANCH   3   4
HETATM    4  N   UNL     1      60.710   8.929   2.534  1.00  0.00    -0.058 N 
HETATM    5  C   UNL     1      60.275   7.784   3.365  1.00  0.00     0.246 C 
HETATM    6  C   UNL     1      58.906   7.204   2.982  1.00  0.00     0.101 C 
HETATM    7  S   UNL     1      58.896   6.553   1.286  1.00  0.00    -0.166 SA
HETATM    8  C   UNL     1      59.535   8.047   0.473  1.00  0.00     0.101 C 
HETATM    9  C   UNL     1      60.843   8.532   1.112  1.00  0.00     0.246 C 
HETATM   10  H   UNL     1      60.006   9.665   2.579  1.00  0.00     0.281 HD
ENDBRANCH   3   4
TORSDOF 1
ENDMDL
MODEL 3
REMARK VINA RESULT:      -3.3      2.360      4.152
REMARK  1 active torsions:
REMARK  status: ('A' for Active; 'I' for Inactive)
REMARK    1  A    between atoms: N_3  and  C_5 
ROOT
HETATM    1  N   UNL     1      68.776   2.557  10.068  1.00  0.00    -0.196 NA
HETATM    2  C   UNL     1      69.230   3.466   9.504  1.00  0.00     0.086 C 
HETATM    3  C   UNL     1      69.822   4.640   8.822  1.00  0.00     0.357 C 
ENDROOT
BRANCH   3   4
HETATM    4  N   UNL     1      68.838   5.546   8.176  1.00  0.00    -0.058 N 
HETATM    5  C   UNL     1      67.876   6.022   9.196  1.00  0.00     0.246 C 
HETATM    6  C   UNL     1      66.852   7.042   8.680  1.00  0.00     0.101 C 
HETATM    7  S   UNL     1      65.804   6.346   7.370  1.00  0.00    -0.166 SA
HETATM    8  C   UNL     1      67.149   5.755   6.302  1.00  0.00     0.101 C 
HETATM    9  C   UNL     1      68.136   4.861   7.065  1.00  0.00     0.246 C 
HETATM   10  H   UNL     1      69.328   6.346   7.777  1.00  0.00     0.281 HD
ENDBRANCH   3   4
TORSDOF 1
ENDMDL
MODEL 4
REMARK VINA RESULT:      -3.2      3.150      4.756
REMARK  1 active torsions:
REMARK  status: ('A' for Active; 'I' for Inactive)
REMARK    1  A    between atoms: N_3  and  C_5 
ROOT
HETATM    1  N   UNL     1      67.273   1.212  11.103  1.00  0.00    -0.196 NA
HETATM    2  C   UNL     1      68.262   1.487  10.560  1.00  0.00     0.086 C 
HETATM    3  C   UNL     1      69.540   1.851   9.905  1.00  0.00     0.357 C 
ENDROOT
BRANCH   3   4
HETATM    4  N   UNL     1      69.437   2.946   8.907  1.00  0.00    -0.058 N 
HETATM    5  C   UNL     1      69.031   4.191   9.596  1.00  0.00     0.246 C 
HETATM    6  C   UNL     1      68.973   5.430   8.691  1.00  0.00     0.101 C 
HETATM    7  S   UNL     1      67.754   5.240   7.358  1.00  0.00    -0.166 SA
HETATM    8  C   UNL     1      68.366   3.652   6.724  1.00  0.00     0.101 C 
HETATM    9  C   UNL     1      68.477   2.596   7.833  1.00  0.00     0.246 C 
HETATM   10  H   UNL     1      70.346   3.087   8.466  1.00  0.00     0.281 HD
ENDBRANCH   3   4
TORSDOF 1
ENDMDL
MODEL 5
REMARK VINA RESULT:      -3.2      2.685      4.199
REMARK  1 active torsions:
REMARK  status: ('A' for Active; 'I' for Inactive)
REMARK    1  A    between atoms: N_3  and  C_5 
ROOT
HETATM    1  N   UNL     1      69.941   1.950  10.267  1.00  0.00    -0.196 NA
HETATM    2  C   UNL     1      69.749   2.955   9.715  1.00  0.00     0.086 C 
HETATM    3  C   UNL     1      69.524   4.256   9.045  1.00  0.00     0.357 C 
ENDROOT
BRANCH   3   4
HETATM    4  N   UNL     1      68.095   4.623   8.865  1.00  0.00    -0.058 N 
HETATM    5  C   UNL     1      67.696   4.341   7.468  1.00  0.00     0.246 C 
HETATM    6  C   UNL     1      66.212   4.593   7.168  1.00  0.00     0.101 C 
HETATM    7  S   UNL     1      65.754   6.332   7.419  1.00  0.00    -0.166 SA
HETATM    8  C   UNL     1      66.401   6.488   9.109  1.00  0.00     0.101 C 
HETATM    9  C   UNL     1      67.868   6.048   9.204  1.00  0.00     0.246 C 
HETATM   10  H   UNL     1      67.522   4.066   9.498  1.00  0.00     0.281 HD
ENDBRANCH   3   4
TORSDOF 1
ENDMDL
MODEL 6
REMARK VINA RESULT:      -3.1      5.234      6.795
REMARK  1 active torsions:
REMARK  status: ('A' for Active; 'I' for Inactive)
REMARK    1  A    between atoms: N_3  and  C_5 
ROOT
HETATM    1  N   UNL     1      61.845  11.706   3.381  1.00  0.00    -0.196 NA
HETATM    2  C   UNL     1      62.285  11.125   4.286  1.00  0.00     0.086 C 
HETATM    3  C   UNL     1      62.882  10.409   5.437  1.00  0.00     0.357 C 
ENDROOT
BRANCH   3   4
HETATM    4  N   UNL     1      63.105   8.956   5.217  1.00  0.00    -0.058 N 
HETATM    5  C   UNL     1      64.538   8.725   4.924  1.00  0.00     0.246 C 
HETATM    6  C   UNL     1      64.925   7.249   4.764  1.00  0.00     0.101 C 
HETATM    7  S   UNL     1      64.055   6.467   3.374  1.00  0.00    -0.166 SA
HETATM    8  C   UNL     1      62.373   6.939   3.873  1.00  0.00     0.101 C 
HETATM    9  C   UNL     1      62.251   8.450   4.116  1.00  0.00     0.246 C 
HETATM   10  H   UNL     1      62.847   8.444   6.060  1.00  0.00     0.281 HD
ENDBRANCH   3   4
TORSDOF 1
ENDMDL
MODEL 7
REMARK VINA RESULT:      -3.0      2.496      4.053
REMARK  1 active torsions:
REMARK  status: ('A' for Active; 'I' for Inactive)
REMARK    1  A    between atoms: N_3  and  C_5 
ROOT
HETATM    1  N   UNL     1      69.960   4.241   9.052  1.00  0.00    -0.196 NA
HETATM    2  C   UNL     1      69.047   4.959   9.008  1.00  0.00     0.086 C 
HETATM    3  C   UNL     1      67.867   5.853   8.983  1.00  0.00     0.357 C 
ENDROOT
BRANCH   3   4
HETATM    4  N   UNL     1      67.055   5.778   7.741  1.00  0.00    -0.058 N 
HETATM    5  C   UNL     1      67.897   6.172   6.589  1.00  0.00     0.246 C 
HETATM    6  C   UNL     1      67.204   6.053   5.225  1.00  0.00     0.101 C 
HETATM    7  S   UNL     1      65.750   7.134   5.105  1.00  0.00    -0.166 SA
HETATM    8  C   UNL     1      64.926   6.564   6.619  1.00  0.00     0.101 C 
HETATM    9  C   UNL     1      65.854   6.640   7.840  1.00  0.00     0.246 C 
HETATM   10  H   UNL     1      66.730   4.820   7.608  1.00  0.00     0.281 HD
ENDBRANCH   3   4
TORSDOF 1
ENDMDL
MODEL 8
REMARK VINA RESULT:      -2.9      1.960      2.596
REMARK  1 active torsions:
REMARK  status: ('A' for Active; 'I' for Inactive)
REMARK    1  A    between atoms: N_3  and  C_5 
ROOT
HETATM    1  N   UNL     1      66.084   7.080   7.733  1.00  0.00    -0.196 NA
HETATM    2  C   UNL     1      66.222   5.932   7.625  1.00  0.00     0.086 C 
HETATM    3  C   UNL     1      66.356   4.463   7.491  1.00  0.00     0.357 C 
ENDROOT
BRANCH   3   4
HETATM    4  N   UNL     1      67.093   3.802   8.600  1.00  0.00    -0.058 N 
HETATM    5  C   UNL     1      68.426   4.430   8.736  1.00  0.00     0.246 C 
HETATM    6  C   UNL     1      69.263   3.899   9.909  1.00  0.00     0.101 C 
HETATM    7  S   UNL     1      69.620   2.127   9.740  1.00  0.00    -0.166 SA
HETATM    8  C   UNL     1      67.906   1.578   9.496  1.00  0.00     0.101 C 
HETATM    9  C   UNL     1      67.215   2.344   8.359  1.00  0.00     0.246 C 
HETATM   10  H   UNL     1      66.573   3.923   9.469  1.00  0.00     0.281 HD
ENDBRANCH   3   4
TORSDOF 1
ENDMDL
MODEL 9
REMARK VINA RESULT:      -2.9      2.881      3.816
REMARK  1 active torsions:
REMARK  status: ('A' for Active; 'I' for Inactive)
REMARK    1  A    between atoms: N_3  and  C_5 
ROOT
HETATM    1  N   UNL     1      62.938   7.467   3.580  1.00  0.00    -0.196 NA
HETATM    2  C   UNL     1      63.569   8.105   4.318  1.00  0.00     0.086 C 
HETATM    3  C   UNL     1      64.389   8.940   5.226  1.00  0.00     0.357 C 
ENDROOT
BRANCH   3   4
HETATM    4  N   UNL     1      65.431   8.198   5.982  1.00  0.00    -0.058 N 
HETATM    5  C   UNL     1      66.513   7.803   5.054  1.00  0.00     0.246 C 
HETATM    6  C   UNL     1      67.703   7.102   5.725  1.00  0.00     0.101 C 
HETATM    7  S   UNL     1      67.212   5.548   6.525  1.00  0.00    -0.166 SA
HETATM    8  C   UNL     1      65.853   6.230   7.518  1.00  0.00     0.101 C 
HETATM    9  C   UNL     1      64.851   7.012   6.657  1.00  0.00     0.246 C 
HETATM   10  H   UNL     1      65.814   8.803   6.709  1.00  0.00     0.281 HD
ENDBRANCH   3   4
TORSDOF 1
ENDMDL
