MODEL 1
REMARK VINA RESULT:      -3.9      0.000      0.000
REMARK  1 active torsions:
REMARK  status: ('A' for Active; 'I' for Inactive)
REMARK    1  A    between atoms: C_3  and  C_7 
ROOT
HETATM    1  N   UNL     1      68.040   6.555   6.649  1.00  0.00    -0.357 N 
ATOM      2  HN  UNL     1      68.326   7.358   7.210  1.00  0.00     0.166 HD
HETATM    3  C   UNL     1      68.012   5.243   7.102  1.00  0.00     0.024 A 
HETATM    4  C   UNL     1      67.649   6.622   5.395  1.00  0.00     0.047 A 
HETATM    5  S   UNL     1      67.226   5.122   4.676  1.00  0.00    -0.087 SA
HETATM    6  C   UNL     1      67.592   4.330   6.148  1.00  0.00     0.077 A 
HETATM    7  C   UNL     1      67.556   7.880   4.608  1.00  0.00     0.076 C 
ENDROOT
BRANCH   3   8
HETATM    8  C   UNL     1      68.416   4.937   8.537  1.00  0.00    -0.008 C 
HETATM    9  C   UNL     1      69.950   4.946   8.705  1.00  0.00     0.021 C 
HETATM   10  C   UNL     1      67.826   5.997   9.489  1.00  0.00     0.021 C 
HETATM   11  C   UNL     1      67.900   3.546   8.955  1.00  0.00     0.021 C 
ENDBRANCH   3   8
TORSDOF 1
ENDMDL
MODEL 2
REMARK VINA RESULT:      -3.9      1.966      4.385
REMARK  1 active torsions:
REMARK  status: ('A' for Active; 'I' for Inactive)
REMARK    1  A    between atoms: C_3  and  C_7 
ROOT
HETATM    1  N   UNL     1      68.150   6.177   6.996  1.00  0.00    -0.357 N 
ATOM      2  HN  UNL     1      68.992   6.106   6.424  1.00  0.00     0.166 HD
HETATM    3  C   UNL     1      66.943   6.712   6.564  1.00  0.00     0.024 A 
HETATM    4  C   UNL     1      68.059   5.774   8.244  1.00  0.00     0.047 A 
HETATM    5  S   UNL     1      66.529   6.011   8.984  1.00  0.00    -0.087 SA
HETATM    6  C   UNL     1      65.948   6.700   7.529  1.00  0.00     0.077 A 
HETATM    7  C   UNL     1      69.169   5.146   9.009  1.00  0.00     0.076 C 
ENDROOT
BRANCH   3   8
HETATM    8  C   UNL     1      66.821   7.231   5.139  1.00  0.00    -0.008 C 
HETATM    9  C   UNL     1      66.705   6.073   4.125  1.00  0.00     0.021 C 
HETATM   10  C   UNL     1      65.561   8.110   5.004  1.00  0.00     0.021 C 
HETATM   11  C   UNL     1      68.060   8.068   4.765  1.00  0.00     0.021 C 
ENDBRANCH   3   8
TORSDOF 1
ENDMDL
MODEL 3
REMARK VINA RESULT:      -3.7      3.333      5.469
REMARK  1 active torsions:
REMARK  status: ('A' for Active; 'I' for Inactive)
REMARK    1  A    between atoms: C_3  and  C_7 
ROOT
HETATM    1  N   UNL     1      64.949   7.143   7.115  1.00  0.00    -0.357 N 
ATOM      2  HN  UNL     1      64.117   7.202   7.702  1.00  0.00     0.166 HD
HETATM    3  C   UNL     1      64.984   7.442   5.759  1.00  0.00     0.024 A 
HETATM    4  C   UNL     1      66.137   6.772   7.539  1.00  0.00     0.047 A 
HETATM    5  S   UNL     1      67.371   6.753   6.347  1.00  0.00    -0.087 SA
HETATM    6  C   UNL     1      66.233   7.280   5.182  1.00  0.00     0.077 A 
HETATM    7  C   UNL     1      66.449   6.389   8.942  1.00  0.00     0.076 C 
ENDROOT
BRANCH   3   8
HETATM    8  C   UNL     1      63.714   7.907   5.062  1.00  0.00    -0.008 C 
HETATM    9  C   UNL     1      63.689   7.466   3.584  1.00  0.00     0.021 C 
HETATM   10  C   UNL     1      62.478   7.305   5.761  1.00  0.00     0.021 C 
HETATM   11  C   UNL     1      63.613   9.445   5.101  1.00  0.00     0.021 C 
ENDBRANCH   3   8
TORSDOF 1
ENDMDL
MODEL 4
REMARK VINA RESULT:      -3.7      5.148      6.465
REMARK  1 active torsions:
REMARK  status: ('A' for Active; 'I' for Inactive)
REMARK    1  A    between atoms: C_3  and  C_7 
ROOT
HETATM    1  N   UNL     1      63.155   8.250   3.006  1.00  0.00    -0.357 N 
ATOM      2  HN  UNL     1      63.460   7.458   2.440  1.00  0.00     0.166 HD
HETATM    3  C   UNL     1      63.547   8.480   4.319  1.00  0.00     0.024 A 
HETATM    4  C   UNL     1      62.337   9.193   2.594  1.00  0.00     0.047 A 
HETATM    5  S   UNL     1      61.980  10.413   3.746  1.00  0.00    -0.087 SA
HETATM    6  C   UNL     1      62.994   9.622   4.876  1.00  0.00     0.077 A 
HETATM    7  C   UNL     1      61.737   9.251   1.234  1.00  0.00     0.076 C 
ENDROOT
BRANCH   3   8
HETATM    8  C   UNL     1      64.508   7.513   4.995  1.00  0.00    -0.008 C 
HETATM    9  C   UNL     1      65.710   8.255   5.616  1.00  0.00     0.021 C 
HETATM   10  C   UNL     1      63.783   6.750   6.122  1.00  0.00     0.021 C 
HETATM   11  C   UNL     1      65.054   6.497   3.972  1.00  0.00     0.021 C 
ENDBRANCH   3   8
TORSDOF 1
ENDMDL
MODEL 5
REMARK VINA RESULT:      -3.6      5.045      7.527
REMARK  1 active torsions:
REMARK  status: ('A' for Active; 'I' for Inactive)
REMARK    1  A    between atoms: C_3  and  C_7 
ROOT
HETATM    1  N   UNL     1      63.812   7.336   3.161  1.00  0.00    -0.357 N 
ATOM      2  HN  UNL     1      63.438   6.864   2.337  1.00  0.00     0.166 HD
HETATM    3  C   UNL     1      63.292   8.502   3.708  1.00  0.00     0.024 A 
HETATM    4  C   UNL     1      64.854   6.924   3.850  1.00  0.00     0.047 A 
HETATM    5  S   UNL     1      65.282   7.903   5.192  1.00  0.00    -0.087 SA
HETATM    6  C   UNL     1      63.979   8.951   4.825  1.00  0.00     0.077 A 
HETATM    7  C   UNL     1      65.640   5.702   3.536  1.00  0.00     0.076 C 
ENDROOT
BRANCH   3   8
HETATM    8  C   UNL     1      62.070   9.148   3.073  1.00  0.00    -0.008 C 
HETATM    9  C   UNL     1      62.177   9.164   1.534  1.00  0.00     0.021 C 
HETATM   10  C   UNL     1      60.799   8.362   3.454  1.00  0.00     0.021 C 
HETATM   11  C   UNL     1      61.922  10.605   3.554  1.00  0.00     0.021 C 
ENDBRANCH   3   8
TORSDOF 1
ENDMDL
MODEL 6
REMARK VINA RESULT:      -3.6     17.399     18.358
REMARK  1 active torsions:
REMARK  status: ('A' for Active; 'I' for Inactive)
REMARK    1  A    between atoms: C_3  and  C_7 
ROOT
HETATM    1  N   UNL     1      73.000  22.259  11.724  1.00  0.00    -0.357 N 
ATOM      2  HN  UNL     1      73.903  22.721  11.828  1.00  0.00     0.166 HD
HETATM    3  C   UNL     1      71.940  22.383  12.614  1.00  0.00     0.024 A 
HETATM    4  C   UNL     1      72.679  21.461  10.729  1.00  0.00     0.047 A 
HETATM    5  S   UNL     1      71.094  20.807  10.792  1.00  0.00    -0.087 SA
HETATM    6  C   UNL     1      70.819  21.652  12.255  1.00  0.00     0.077 A 
HETATM    7  C   UNL     1      73.584  21.120   9.599  1.00  0.00     0.076 C 
ENDROOT
BRANCH   3   8
HETATM    8  C   UNL     1      72.091  23.274  13.839  1.00  0.00    -0.008 C 
HETATM    9  C   UNL     1      70.724  23.796  14.327  1.00  0.00     0.021 C 
HETATM   10  C   UNL     1      72.738  22.480  14.992  1.00  0.00     0.021 C 
HETATM   11  C   UNL     1      72.976  24.492  13.510  1.00  0.00     0.021 C 
ENDBRANCH   3   8
TORSDOF 1
ENDMDL
MODEL 7
REMARK VINA RESULT:      -3.6      8.230     10.047
REMARK  1 active torsions:
REMARK  status: ('A' for Active; 'I' for Inactive)
REMARK    1  A    between atoms: C_3  and  C_7 
ROOT
HETATM    1  N   UNL     1      59.874   8.192   3.149  1.00  0.00    -0.357 N 
ATOM      2  HN  UNL     1      60.327   8.521   4.002  1.00  0.00     0.166 HD
HETATM    3  C   UNL     1      60.439   8.250   1.881  1.00  0.00     0.024 A 
HETATM    4  C   UNL     1      58.675   7.654   3.098  1.00  0.00     0.047 A 
HETATM    5  S   UNL     1      58.144   7.187   1.535  1.00  0.00    -0.087 SA
HETATM    6  C   UNL     1      59.625   7.743   0.881  1.00  0.00     0.077 A 
HETATM    7  C   UNL     1      57.800   7.438   4.281  1.00  0.00     0.076 C 
ENDROOT
BRANCH   3   8
HETATM    8  C   UNL     1      61.837   8.827   1.709  1.00  0.00    -0.008 C 
HETATM    9  C   UNL     1      61.840  10.359   1.893  1.00  0.00     0.021 C 
HETATM   10  C   UNL     1      62.791   8.219   2.757  1.00  0.00     0.021 C 
HETATM   11  C   UNL     1      62.376   8.516   0.299  1.00  0.00     0.021 C 
ENDBRANCH   3   8
TORSDOF 1
ENDMDL
MODEL 8
REMARK VINA RESULT:      -3.6      7.330      9.069
REMARK  1 active torsions:
REMARK  status: ('A' for Active; 'I' for Inactive)
REMARK    1  A    between atoms: C_3  and  C_7 
ROOT
HETATM    1  N   UNL     1      59.696   8.258   3.304  1.00  0.00    -0.357 N 
ATOM      2  HN  UNL     1      59.409   9.013   2.680  1.00  0.00     0.166 HD
HETATM    3  C   UNL     1      61.002   8.020   3.710  1.00  0.00     0.024 A 
HETATM    4  C   UNL     1      58.877   7.375   3.834  1.00  0.00     0.047 A 
HETATM    5  S   UNL     1      59.615   6.203   4.847  1.00  0.00    -0.087 SA
HETATM    6  C   UNL     1      61.137   6.931   4.556  1.00  0.00     0.077 A 
HETATM    7  C   UNL     1      57.407   7.349   3.609  1.00  0.00     0.076 C 
ENDROOT
BRANCH   3   8
HETATM    8  C   UNL     1      62.116   8.936   3.223  1.00  0.00    -0.008 C 
HETATM    9  C   UNL     1      61.922  10.380   3.729  1.00  0.00     0.021 C 
HETATM   10  C   UNL     1      63.479   8.429   3.738  1.00  0.00     0.021 C 
HETATM   11  C   UNL     1      62.146   8.972   1.682  1.00  0.00     0.021 C 
ENDBRANCH   3   8
TORSDOF 1
ENDMDL
MODEL 9
REMARK VINA RESULT:      -3.5      2.638      4.594
REMARK  1 active torsions:
REMARK  status: ('A' for Active; 'I' for Inactive)
REMARK    1  A    between atoms: C_3  and  C_7 
ROOT
HETATM    1  N   UNL     1      67.247   3.371   8.879  1.00  0.00    -0.357 N 
ATOM      2  HN  UNL     1      66.323   2.983   8.688  1.00  0.00     0.166 HD
HETATM    3  C   UNL     1      67.718   4.576   8.375  1.00  0.00     0.024 A 
HETATM    4  C   UNL     1      68.156   2.798   9.637  1.00  0.00     0.047 A 
HETATM    5  S   UNL     1      69.632   3.659   9.794  1.00  0.00    -0.087 SA
HETATM    6  C   UNL     1      69.008   4.885   8.776  1.00  0.00     0.077 A 
HETATM    7  C   UNL     1      67.970   1.499  10.338  1.00  0.00     0.076 C 
ENDROOT
BRANCH   3   8
HETATM    8  C   UNL     1      66.820   5.416   7.478  1.00  0.00    -0.008 C 
HETATM    9  C   UNL     1      65.681   4.571   6.871  1.00  0.00     0.021 C 
HETATM   10  C   UNL     1      66.183   6.560   8.293  1.00  0.00     0.021 C 
HETATM   11  C   UNL     1      67.634   6.020   6.317  1.00  0.00     0.021 C 
ENDBRANCH   3   8
TORSDOF 1
ENDMDL
