MODEL 1
REMARK VINA RESULT:      -6.2      0.000      0.000
REMARK  2 active torsions:
REMARK  status: ('A' for Active; 'I' for Inactive)
REMARK    1  A    between atoms: C_1  and  C_2 
REMARK    2  A    between atoms: C_1  and  C_5 
ROOT
HETATM    1  C   UNL     1      63.557   7.828   5.744  1.00  0.00     0.163 C 
HETATM    2  O   UNL     1      63.034   7.682   6.841  1.00  0.00    -0.292 OA
ENDROOT
BRANCH   1   3
HETATM    3  C   UNL     1      63.013   8.909   4.856  1.00  0.00     0.010 A 
HETATM    4  C   UNL     1      62.832  10.236   5.297  1.00  0.00     0.018 A 
HETATM    5  C   UNL     1      62.323  11.214   4.432  1.00  0.00     0.043 A 
HETATM    6  C   UNL     1      61.976  10.886   3.121  1.00  0.00     0.116 A 
HETATM    7  C   UNL     1      62.126   9.574   2.673  1.00  0.00     0.043 A 
HETATM    8  F   UNL     1      61.484  11.835   2.286  1.00  0.00    -0.206 F 
HETATM    9  C   UNL     1      62.641   8.595   3.528  1.00  0.00     0.018 A 
ENDBRANCH   1   3
BRANCH   1  10
HETATM   10  C   UNL     1      64.787   6.987   5.391  1.00  0.00     0.064 C 
HETATM   11  C   UNL     1      65.163   5.900   6.432  1.00  0.00     0.040 C 
HETATM   12  C   UNL     1      65.813   6.490   7.694  1.00  0.00     0.233 C 
HETATM   13  N   UNL     1      66.984   7.303   7.345  1.00  0.00    -0.075 N 
HETATM   14  C   UNL     1      66.604   8.413   6.464  1.00  0.00     0.233 C 
HETATM   15  H   UNL     1      67.668   6.716   6.867  1.00  0.00     0.277 HD
HETATM   16  H   UNL     1      67.382   7.688   8.201  1.00  0.00     0.277 HD
HETATM   17  C   UNL     1      66.045   7.855   5.143  1.00  0.00     0.040 C 
ENDBRANCH   1  10
TORSDOF 2
ENDMDL
MODEL 2
REMARK VINA RESULT:      -6.1      0.273      1.277
REMARK  2 active torsions:
REMARK  status: ('A' for Active; 'I' for Inactive)
REMARK    1  A    between atoms: C_1  and  C_2 
REMARK    2  A    between atoms: C_1  and  C_5 
ROOT
HETATM    1  C   UNL     1      63.298   7.852   5.681  1.00  0.00     0.163 C 
HETATM    2  O   UNL     1      62.802   7.824   6.800  1.00  0.00    -0.292 OA
ENDROOT
BRANCH   1   3
HETATM    3  C   UNL     1      62.817   8.914   4.735  1.00  0.00     0.010 A 
HETATM    4  C   UNL     1      62.471   8.638   3.397  1.00  0.00     0.018 A 
HETATM    5  C   UNL     1      62.023   9.661   2.549  1.00  0.00     0.043 A 
HETATM    6  C   UNL     1      61.925  10.972   3.014  1.00  0.00     0.116 A 
HETATM    7  C   UNL     1      62.285  11.268   4.328  1.00  0.00     0.043 A 
HETATM    8  F   UNL     1      61.492  11.959   2.192  1.00  0.00    -0.206 F 
HETATM    9  C   UNL     1      62.724  10.252   5.182  1.00  0.00     0.018 A 
ENDBRANCH   1   3
BRANCH   1  10
HETATM   10  C   UNL     1      64.442   6.887   5.354  1.00  0.00     0.064 C 
HETATM   11  C   UNL     1      64.812   5.895   6.487  1.00  0.00     0.040 C 
HETATM   12  C   UNL     1      65.584   6.568   7.634  1.00  0.00     0.233 C 
HETATM   13  N   UNL     1      66.781   7.248   7.127  1.00  0.00    -0.075 N 
HETATM   14  C   UNL     1      66.420   8.281   6.150  1.00  0.00     0.233 C 
HETATM   15  H   UNL     1      67.391   6.563   6.679  1.00  0.00     0.277 HD
HETATM   16  H   UNL     1      67.261   7.693   7.909  1.00  0.00     0.277 HD
HETATM   17  C   UNL     1      65.737   7.627   4.936  1.00  0.00     0.040 C 
ENDBRANCH   1  10
TORSDOF 2
ENDMDL
MODEL 3
REMARK VINA RESULT:      -5.4      1.052      2.182
REMARK  2 active torsions:
REMARK  status: ('A' for Active; 'I' for Inactive)
REMARK    1  A    between atoms: C_1  and  C_2 
REMARK    2  A    between atoms: C_1  and  C_5 
ROOT
HETATM    1  C   UNL     1      63.973   8.056   5.885  1.00  0.00     0.163 C 
HETATM    2  O   UNL     1      63.271   7.447   6.682  1.00  0.00    -0.292 OA
ENDROOT
BRANCH   1   3
HETATM    3  C   UNL     1      63.286   8.979   4.921  1.00  0.00     0.010 A 
HETATM    4  C   UNL     1      62.940   8.589   3.611  1.00  0.00     0.018 A 
HETATM    5  C   UNL     1      62.297   9.484   2.745  1.00  0.00     0.043 A 
HETATM    6  C   UNL     1      62.000  10.781   3.163  1.00  0.00     0.116 A 
HETATM    7  C   UNL     1      62.355  11.193   4.446  1.00  0.00     0.043 A 
HETATM    8  F   UNL     1      61.377  11.645   2.322  1.00  0.00    -0.206 F 
HETATM    9  C   UNL     1      62.989  10.303   5.319  1.00  0.00     0.018 A 
ENDBRANCH   1   3
BRANCH   1  10
HETATM   10  C   UNL     1      65.496   7.927   5.989  1.00  0.00     0.064 C 
HETATM   11  C   UNL     1      66.239   7.786   4.635  1.00  0.00     0.040 C 
HETATM   12  C   UNL     1      66.069   6.390   4.011  1.00  0.00     0.233 C 
HETATM   13  N   UNL     1      66.495   5.345   4.949  1.00  0.00    -0.075 N 
HETATM   14  C   UNL     1      65.700   5.396   6.181  1.00  0.00     0.233 C 
HETATM   15  H   UNL     1      67.479   5.484   5.181  1.00  0.00     0.277 HD
HETATM   16  H   UNL     1      66.359   4.435   4.510  1.00  0.00     0.277 HD
HETATM   17  C   UNL     1      65.928   6.743   6.888  1.00  0.00     0.040 C 
ENDBRANCH   1  10
TORSDOF 2
ENDMDL
MODEL 4
REMARK VINA RESULT:      -5.4      4.032      6.537
REMARK  2 active torsions:
REMARK  status: ('A' for Active; 'I' for Inactive)
REMARK    1  A    between atoms: C_1  and  C_2 
REMARK    2  A    between atoms: C_1  and  C_5 
ROOT
HETATM    1  C   UNL     1      66.088   7.806   6.159  1.00  0.00     0.163 C 
HETATM    2  O   UNL     1      66.069   9.011   6.374  1.00  0.00    -0.292 OA
ENDROOT
BRANCH   1   3
HETATM    3  C   UNL     1      66.853   6.942   7.119  1.00  0.00     0.010 A 
HETATM    4  C   UNL     1      67.837   6.025   6.698  1.00  0.00     0.018 A 
HETATM    5  C   UNL     1      68.529   5.240   7.629  1.00  0.00     0.043 A 
HETATM    6  C   UNL     1      68.246   5.346   8.991  1.00  0.00     0.116 A 
HETATM    7  C   UNL     1      67.261   6.232   9.426  1.00  0.00     0.043 A 
HETATM    8  F   UNL     1      68.918   4.585   9.891  1.00  0.00    -0.206 F 
HETATM    9  C   UNL     1      66.572   7.024   8.502  1.00  0.00     0.018 A 
ENDBRANCH   1   3
BRANCH   1  10
HETATM   10  C   UNL     1      65.251   7.246   5.005  1.00  0.00     0.064 C 
HETATM   11  C   UNL     1      64.221   8.234   4.397  1.00  0.00     0.040 C 
HETATM   12  C   UNL     1      62.998   8.445   5.306  1.00  0.00     0.233 C 
HETATM   13  N   UNL     1      62.361   7.163   5.627  1.00  0.00    -0.075 N 
HETATM   14  C   UNL     1      63.299   6.275   6.322  1.00  0.00     0.233 C 
HETATM   15  H   UNL     1      62.055   6.715   4.763  1.00  0.00     0.277 HD
HETATM   16  H   UNL     1      61.563   7.337   6.238  1.00  0.00     0.277 HD
HETATM   17  C   UNL     1      64.489   5.957   5.399  1.00  0.00     0.040 C 
ENDBRANCH   1  10
TORSDOF 2
ENDMDL
MODEL 5
REMARK VINA RESULT:      -5.2      4.979      6.602
REMARK  2 active torsions:
REMARK  status: ('A' for Active; 'I' for Inactive)
REMARK    1  A    between atoms: C_1  and  C_2 
REMARK    2  A    between atoms: C_1  and  C_5 
ROOT
HETATM    1  C   UNL     1      67.322   3.227   7.831  1.00  0.00     0.163 C 
HETATM    2  O   UNL     1      66.328   2.542   8.032  1.00  0.00    -0.292 OA
ENDROOT
BRANCH   1   3
HETATM    3  C   UNL     1      67.112   4.684   7.538  1.00  0.00     0.010 A 
HETATM    4  C   UNL     1      66.553   5.575   8.476  1.00  0.00     0.018 A 
HETATM    5  C   UNL     1      66.378   6.929   8.161  1.00  0.00     0.043 A 
HETATM    6  C   UNL     1      66.744   7.415   6.905  1.00  0.00     0.116 A 
HETATM    7  C   UNL     1      67.278   6.544   5.955  1.00  0.00     0.043 A 
HETATM    8  F   UNL     1      66.574   8.726   6.603  1.00  0.00    -0.206 F 
HETATM    9  C   UNL     1      67.463   5.194   6.267  1.00  0.00     0.018 A 
ENDBRANCH   1   3
BRANCH   1  10
HETATM   10  C   UNL     1      68.706   2.591   7.998  1.00  0.00     0.064 C 
HETATM   11  C   UNL     1      68.743   1.316   8.879  1.00  0.00     0.040 C 
HETATM   12  C   UNL     1      68.603   1.629  10.379  1.00  0.00     0.233 C 
HETATM   13  N   UNL     1      69.628   2.588  10.808  1.00  0.00    -0.075 N 
HETATM   14  C   UNL     1      69.507   3.847  10.065  1.00  0.00     0.233 C 
HETATM   15  H   UNL     1      70.551   2.188  10.641  1.00  0.00     0.277 HD
HETATM   16  H   UNL     1      69.499   2.782  11.801  1.00  0.00     0.277 HD
HETATM   17  C   UNL     1      69.748   3.586   8.567  1.00  0.00     0.040 C 
ENDBRANCH   1  10
TORSDOF 2
ENDMDL
MODEL 6
REMARK VINA RESULT:      -5.1      4.729      7.367
REMARK  2 active torsions:
REMARK  status: ('A' for Active; 'I' for Inactive)
REMARK    1  A    between atoms: C_1  and  C_2 
REMARK    2  A    between atoms: C_1  and  C_5 
ROOT
HETATM    1  C   UNL     1      67.551   6.101   5.857  1.00  0.00     0.163 C 
HETATM    2  O   UNL     1      68.240   7.055   5.520  1.00  0.00    -0.292 OA
ENDROOT
BRANCH   1   3
HETATM    3  C   UNL     1      68.018   5.288   7.029  1.00  0.00     0.010 A 
HETATM    4  C   UNL     1      68.156   5.830   8.323  1.00  0.00     0.018 A 
HETATM    5  C   UNL     1      68.593   5.034   9.390  1.00  0.00     0.043 A 
HETATM    6  C   UNL     1      68.910   3.691   9.185  1.00  0.00     0.116 A 
HETATM    7  C   UNL     1      68.802   3.141   7.908  1.00  0.00     0.043 A 
HETATM    8  F   UNL     1      69.332   2.922  10.219  1.00  0.00    -0.206 F 
HETATM    9  C   UNL     1      68.359   3.929   6.840  1.00  0.00     0.018 A 
ENDBRANCH   1   3
BRANCH   1  10
HETATM   10  C   UNL     1      66.217   5.861   5.143  1.00  0.00     0.064 C 
HETATM   11  C   UNL     1      65.715   7.042   4.271  1.00  0.00     0.040 C 
HETATM   12  C   UNL     1      65.163   8.205   5.113  1.00  0.00     0.233 C 
HETATM   13  N   UNL     1      64.105   7.738   6.015  1.00  0.00    -0.075 N 
HETATM   14  C   UNL     1      64.616   6.712   6.932  1.00  0.00     0.233 C 
HETATM   15  H   UNL     1      63.344   7.343   5.463  1.00  0.00     0.277 HD
HETATM   16  H   UNL     1      63.771   8.529   6.565  1.00  0.00     0.277 HD
HETATM   17  C   UNL     1      65.081   5.487   6.126  1.00  0.00     0.040 C 
ENDBRANCH   1  10
TORSDOF 2
ENDMDL
MODEL 7
REMARK VINA RESULT:      -5.0      4.117      6.518
REMARK  2 active torsions:
REMARK  status: ('A' for Active; 'I' for Inactive)
REMARK    1  A    between atoms: C_1  and  C_2 
REMARK    2  A    between atoms: C_1  and  C_5 
ROOT
HETATM    1  C   UNL     1      65.266   7.090   6.785  1.00  0.00     0.163 C 
HETATM    2  O   UNL     1      64.093   7.079   7.133  1.00  0.00    -0.292 OA
ENDROOT
BRANCH   1   3
HETATM    3  C   UNL     1      66.229   6.241   7.564  1.00  0.00     0.010 A 
HETATM    4  C   UNL     1      67.143   6.784   8.489  1.00  0.00     0.018 A 
HETATM    5  C   UNL     1      68.023   5.954   9.197  1.00  0.00     0.043 A 
HETATM    6  C   UNL     1      68.015   4.574   8.986  1.00  0.00     0.116 A 
HETATM    7  C   UNL     1      67.134   4.021   8.058  1.00  0.00     0.043 A 
HETATM    8  F   UNL     1      68.867   3.773   9.673  1.00  0.00    -0.206 F 
HETATM    9  C   UNL     1      66.248   4.843   7.355  1.00  0.00     0.018 A 
ENDBRANCH   1   3
BRANCH   1  10
HETATM   10  C   UNL     1      65.658   7.869   5.526  1.00  0.00     0.064 C 
HETATM   11  C   UNL     1      64.475   8.508   4.752  1.00  0.00     0.040 C 
HETATM   12  C   UNL     1      63.653   7.472   3.968  1.00  0.00     0.233 C 
HETATM   13  N   UNL     1      64.513   6.704   3.061  1.00  0.00    -0.075 N 
HETATM   14  C   UNL     1      65.554   5.991   3.809  1.00  0.00     0.233 C 
HETATM   15  H   UNL     1      64.955   7.341   2.398  1.00  0.00     0.277 HD
HETATM   16  H   UNL     1      63.940   6.019   2.567  1.00  0.00     0.277 HD
HETATM   17  C   UNL     1      66.463   7.006   4.524  1.00  0.00     0.040 C 
ENDBRANCH   1  10
TORSDOF 2
ENDMDL
MODEL 8
REMARK VINA RESULT:      -4.9      4.492      7.149
REMARK  2 active torsions:
REMARK  status: ('A' for Active; 'I' for Inactive)
REMARK    1  A    between atoms: C_1  and  C_2 
REMARK    2  A    between atoms: C_1  and  C_5 
ROOT
HETATM    1  C   UNL     1      65.803   4.997   6.529  1.00  0.00     0.163 C 
HETATM    2  O   UNL     1      64.796   4.411   6.905  1.00  0.00    -0.292 OA
ENDROOT
BRANCH   1   3
HETATM    3  C   UNL     1      67.063   4.786   7.317  1.00  0.00     0.010 A 
HETATM    4  C   UNL     1      68.045   3.846   6.943  1.00  0.00     0.018 A 
HETATM    5  C   UNL     1      69.208   3.683   7.707  1.00  0.00     0.043 A 
HETATM    6  C   UNL     1      69.408   4.443   8.859  1.00  0.00     0.116 A 
HETATM    7  C   UNL     1      68.438   5.362   9.259  1.00  0.00     0.043 A 
HETATM    8  F   UNL     1      70.535   4.285   9.597  1.00  0.00    -0.206 F 
HETATM    9  C   UNL     1      67.278   5.535   8.497  1.00  0.00     0.018 A 
ENDBRANCH   1   3
BRANCH   1  10
HETATM   10  C   UNL     1      65.746   5.811   5.233  1.00  0.00     0.064 C 
HETATM   11  C   UNL     1      66.732   7.006   5.162  1.00  0.00     0.040 C 
HETATM   12  C   UNL     1      66.287   8.191   6.036  1.00  0.00     0.233 C 
HETATM   13  N   UNL     1      64.928   8.617   5.683  1.00  0.00    -0.075 N 
HETATM   14  C   UNL     1      63.972   7.521   5.878  1.00  0.00     0.233 C 
HETATM   15  H   UNL     1      64.910   8.906   4.705  1.00  0.00     0.277 HD
HETATM   16  H   UNL     1      64.660   9.393   6.288  1.00  0.00     0.277 HD
HETATM   17  C   UNL     1      64.326   6.354   4.938  1.00  0.00     0.040 C 
ENDBRANCH   1  10
TORSDOF 2
ENDMDL
MODEL 9
REMARK VINA RESULT:      -4.9     18.173     20.697
REMARK  2 active torsions:
REMARK  status: ('A' for Active; 'I' for Inactive)
REMARK    1  A    between atoms: C_1  and  C_2 
REMARK    2  A    between atoms: C_1  and  C_5 
ROOT
HETATM    1  C   UNL     1      76.760   0.432  16.747  1.00  0.00     0.163 C 
HETATM    2  O   UNL     1      77.326   0.054  15.731  1.00  0.00    -0.292 OA
ENDROOT
BRANCH   1   3
HETATM    3  C   UNL     1      77.543   0.403  18.028  1.00  0.00     0.010 A 
HETATM    4  C   UNL     1      77.990  -0.797  18.618  1.00  0.00     0.018 A 
HETATM    5  C   UNL     1      78.720  -0.777  19.814  1.00  0.00     0.043 A 
HETATM    6  C   UNL     1      79.006   0.433  20.447  1.00  0.00     0.116 A 
HETATM    7  C   UNL     1      78.552   1.628  19.892  1.00  0.00     0.043 A 
HETATM    8  F   UNL     1      79.713   0.448  21.604  1.00  0.00    -0.206 F 
HETATM    9  C   UNL     1      77.830   1.617  18.694  1.00  0.00     0.018 A 
ENDBRANCH   1   3
BRANCH   1  10
HETATM   10  C   UNL     1      75.345   1.010  16.638  1.00  0.00     0.064 C 
HETATM   11  C   UNL     1      74.522   0.989  17.952  1.00  0.00     0.040 C 
HETATM   12  C   UNL     1      74.020  -0.419  18.313  1.00  0.00     0.233 C 
HETATM   13  N   UNL     1      73.248  -0.996  17.206  1.00  0.00    -0.075 N 
HETATM   14  C   UNL     1      74.070  -1.100  15.995  1.00  0.00     0.233 C 
HETATM   15  H   UNL     1      72.443  -0.400  17.013  1.00  0.00     0.277 HD
HETATM   16  H   UNL     1      72.942  -1.932  17.473  1.00  0.00     0.277 HD
HETATM   17  C   UNL     1      74.504   0.307  15.544  1.00  0.00     0.040 C 
ENDBRANCH   1  10
TORSDOF 2
ENDMDL
