MODEL 1
REMARK VINA RESULT:      -4.1      0.000      0.000
REMARK  1 active torsions:
REMARK  status: ('A' for Active; 'I' for Inactive)
REMARK    1  A    between atoms: C_1  and  C_7 
ROOT
HETATM    1  C   UNL     1      66.065   7.567   6.122  1.00  0.00     0.074 A 
HETATM    2  N   UNL     1      68.134   6.744   6.848  1.00  0.00    -0.357 N 
ATOM      3  HN  UNL     1      69.142   6.586   6.831  1.00  0.00     0.166 HD
HETATM    4  C   UNL     1      67.435   7.485   5.903  1.00  0.00     0.026 A 
HETATM    5  S   UNL     1      65.672   6.684   7.545  1.00  0.00    -0.072 SA
HETATM    6  C   UNL     1      67.320   6.275   7.763  1.00  0.00     0.048 A 
HETATM    7  C   UNL     1      68.244   8.084   4.806  1.00  0.00     0.070 C 
HETATM    8  C   UNL     1      67.763   5.449   8.919  1.00  0.00     0.076 C 
ENDROOT
BRANCH   1   9
HETATM    9  C   UNL     1      65.053   8.264   5.337  1.00  0.00     0.164 C 
HETATM   10  O   UNL     1      64.744   9.440   5.538  1.00  0.00    -0.292 OA
HETATM   11  C   UNL     1      64.343   7.522   4.225  1.00  0.00     0.097 C 
ENDBRANCH   1   9
TORSDOF 1
ENDMDL
MODEL 2
REMARK VINA RESULT:      -4.1      4.218      6.192
REMARK  1 active torsions:
REMARK  status: ('A' for Active; 'I' for Inactive)
REMARK    1  A    between atoms: C_1  and  C_7 
ROOT
HETATM    1  C   UNL     1      63.228   8.921   4.210  1.00  0.00     0.074 A 
HETATM    2  N   UNL     1      61.687  10.121   2.918  1.00  0.00    -0.357 N 
ATOM      3  HN  UNL     1      61.078  10.898   2.660  1.00  0.00     0.166 HD
HETATM    4  C   UNL     1      62.479  10.081   4.059  1.00  0.00     0.026 A 
HETATM    5  S   UNL     1      62.912   7.873   2.883  1.00  0.00    -0.072 SA
HETATM    6  C   UNL     1      61.831   9.021   2.217  1.00  0.00     0.048 A 
HETATM    7  C   UNL     1      62.415  11.276   4.945  1.00  0.00     0.070 C 
HETATM    8  C   UNL     1      61.125   8.761   0.933  1.00  0.00     0.076 C 
ENDROOT
BRANCH   1   9
HETATM    9  C   UNL     1      64.157   8.564   5.277  1.00  0.00     0.164 C 
HETATM   10  O   UNL     1      65.110   9.275   5.599  1.00  0.00    -0.292 OA
HETATM   11  C   UNL     1      63.952   7.267   6.028  1.00  0.00     0.097 C 
ENDBRANCH   1   9
TORSDOF 1
ENDMDL
MODEL 3
REMARK VINA RESULT:      -3.9      2.186      2.813
REMARK  1 active torsions:
REMARK  status: ('A' for Active; 'I' for Inactive)
REMARK    1  A    between atoms: C_1  and  C_7 
ROOT
HETATM    1  C   UNL     1      67.138   6.015   7.568  1.00  0.00     0.074 A 
HETATM    2  N   UNL     1      68.610   4.199   7.423  1.00  0.00    -0.357 N 
ATOM      3  HN  UNL     1      69.094   3.413   6.988  1.00  0.00     0.166 HD
HETATM    4  C   UNL     1      67.672   5.001   6.782  1.00  0.00     0.026 A 
HETATM    5  S   UNL     1      67.837   5.935   9.138  1.00  0.00    -0.072 SA
HETATM    6  C   UNL     1      68.785   4.592   8.662  1.00  0.00     0.048 A 
HETATM    7  C   UNL     1      67.382   4.668   5.361  1.00  0.00     0.070 C 
HETATM    8  C   UNL     1      69.733   3.942   9.608  1.00  0.00     0.076 C 
ENDROOT
BRANCH   1   9
HETATM    9  C   UNL     1      66.149   7.026   7.210  1.00  0.00     0.164 C 
HETATM   10  O   UNL     1      64.973   6.968   7.573  1.00  0.00    -0.292 OA
HETATM   11  C   UNL     1      66.572   8.200   6.355  1.00  0.00     0.097 C 
ENDBRANCH   1   9
TORSDOF 1
ENDMDL
MODEL 4
REMARK VINA RESULT:      -3.6      2.035      2.747
REMARK  1 active torsions:
REMARK  status: ('A' for Active; 'I' for Inactive)
REMARK    1  A    between atoms: C_1  and  C_7 
ROOT
HETATM    1  C   UNL     1      66.851   6.562   6.742  1.00  0.00     0.074 A 
HETATM    2  N   UNL     1      67.633   4.766   8.026  1.00  0.00    -0.357 N 
ATOM      3  HN  UNL     1      67.843   4.235   8.871  1.00  0.00     0.166 HD
HETATM    4  C   UNL     1      67.044   6.024   8.009  1.00  0.00     0.026 A 
HETATM    5  S   UNL     1      67.434   5.449   5.567  1.00  0.00    -0.072 SA
HETATM    6  C   UNL     1      67.881   4.355   6.805  1.00  0.00     0.048 A 
HETATM    7  C   UNL     1      66.702   6.609   9.335  1.00  0.00     0.070 C 
HETATM    8  C   UNL     1      68.501   3.039   6.486  1.00  0.00     0.076 C 
ENDROOT
BRANCH   1   9
HETATM    9  C   UNL     1      66.261   7.843   6.371  1.00  0.00     0.164 C 
HETATM   10  O   UNL     1      66.660   8.917   6.823  1.00  0.00    -0.292 OA
HETATM   11  C   UNL     1      65.108   7.867   5.392  1.00  0.00     0.097 C 
ENDBRANCH   1   9
TORSDOF 1
ENDMDL
MODEL 5
REMARK VINA RESULT:      -3.6      3.330      5.180
REMARK  1 active torsions:
REMARK  status: ('A' for Active; 'I' for Inactive)
REMARK    1  A    between atoms: C_1  and  C_7 
ROOT
HETATM    1  C   UNL     1      67.835   4.477   8.289  1.00  0.00     0.074 A 
HETATM    2  N   UNL     1      67.396   5.545   6.251  1.00  0.00    -0.357 N 
ATOM      3  HN  UNL     1      67.311   5.643   5.240  1.00  0.00     0.166 HD
HETATM    4  C   UNL     1      67.788   4.382   6.903  1.00  0.00     0.026 A 
HETATM    5  S   UNL     1      67.380   6.068   8.757  1.00  0.00    -0.072 SA
HETATM    6  C   UNL     1      67.150   6.500   7.117  1.00  0.00     0.048 A 
HETATM    7  C   UNL     1      68.093   3.212   6.034  1.00  0.00     0.070 C 
HETATM    8  C   UNL     1      66.699   7.866   6.735  1.00  0.00     0.076 C 
ENDROOT
BRANCH   1   9
HETATM    9  C   UNL     1      68.195   3.454   9.264  1.00  0.00     0.164 C 
HETATM   10  O   UNL     1      67.450   2.516   9.554  1.00  0.00    -0.292 OA
HETATM   11  C   UNL     1      69.537   3.536   9.957  1.00  0.00     0.097 C 
ENDBRANCH   1   9
TORSDOF 1
ENDMDL
MODEL 6
REMARK VINA RESULT:      -3.5      5.173      6.519
REMARK  1 active torsions:
REMARK  status: ('A' for Active; 'I' for Inactive)
REMARK    1  A    between atoms: C_1  and  C_7 
ROOT
HETATM    1  C   UNL     1      62.488   9.167   4.158  1.00  0.00     0.074 A 
HETATM    2  N   UNL     1      61.144   7.503   3.203  1.00  0.00    -0.357 N 
ATOM      3  HN  UNL     1      60.659   6.608   3.137  1.00  0.00     0.166 HD
HETATM    4  C   UNL     1      61.919   7.905   4.284  1.00  0.00     0.026 A 
HETATM    5  S   UNL     1      62.032   9.838   2.642  1.00  0.00    -0.072 SA
HETATM    6  C   UNL     1      61.123   8.434   2.278  1.00  0.00     0.048 A 
HETATM    7  C   UNL     1      62.023   6.940   5.414  1.00  0.00     0.070 C 
HETATM    8  C   UNL     1      60.371   8.311   0.999  1.00  0.00     0.076 C 
ENDROOT
BRANCH   1   9
HETATM    9  C   UNL     1      63.340   9.885   5.100  1.00  0.00     0.164 C 
HETATM   10  O   UNL     1      64.441   9.464   5.458  1.00  0.00    -0.292 OA
HETATM   11  C   UNL     1      62.862  11.202   5.669  1.00  0.00     0.097 C 
ENDBRANCH   1   9
TORSDOF 1
ENDMDL
MODEL 7
REMARK VINA RESULT:      -3.5      4.440      5.879
REMARK  1 active torsions:
REMARK  status: ('A' for Active; 'I' for Inactive)
REMARK    1  A    between atoms: C_1  and  C_7 
ROOT
HETATM    1  C   UNL     1      68.698   3.778   8.337  1.00  0.00     0.074 A 
HETATM    2  N   UNL     1      67.509   5.228   6.933  1.00  0.00    -0.357 N 
ATOM      3  HN  UNL     1      67.001   6.071   6.665  1.00  0.00     0.166 HD
HETATM    4  C   UNL     1      68.046   4.997   8.195  1.00  0.00     0.026 A 
HETATM    5  S   UNL     1      68.617   2.922   6.848  1.00  0.00    -0.072 SA
HETATM    6  C   UNL     1      67.748   4.213   6.137  1.00  0.00     0.048 A 
HETATM    7  C   UNL     1      67.852   6.078   9.200  1.00  0.00     0.070 C 
HETATM    8  C   UNL     1      67.311   4.159   4.715  1.00  0.00     0.076 C 
ENDROOT
BRANCH   1   9
HETATM    9  C   UNL     1      69.370   3.232   9.511  1.00  0.00     0.164 C 
HETATM   10  O   UNL     1      70.395   3.725   9.983  1.00  0.00    -0.292 OA
HETATM   11  C   UNL     1      68.793   2.007  10.186  1.00  0.00     0.097 C 
ENDBRANCH   1   9
TORSDOF 1
ENDMDL
MODEL 8
REMARK VINA RESULT:      -3.4      2.377      4.061
REMARK  1 active torsions:
REMARK  status: ('A' for Active; 'I' for Inactive)
REMARK    1  A    between atoms: C_1  and  C_7 
ROOT
HETATM    1  C   UNL     1      65.544   6.523   6.766  1.00  0.00     0.074 A 
HETATM    2  N   UNL     1      65.741   7.788   4.804  1.00  0.00    -0.357 N 
ATOM      3  HN  UNL     1      66.212   8.259   4.032  1.00  0.00     0.166 HD
HETATM    4  C   UNL     1      66.387   7.086   5.815  1.00  0.00     0.026 A 
HETATM    5  S   UNL     1      63.915   6.901   6.364  1.00  0.00    -0.072 SA
HETATM    6  C   UNL     1      64.441   7.759   4.980  1.00  0.00     0.048 A 
HETATM    7  C   UNL     1      67.873   7.033   5.733  1.00  0.00     0.070 C 
HETATM    8  C   UNL     1      63.468   8.410   4.060  1.00  0.00     0.076 C 
ENDROOT
BRANCH   1   9
HETATM    9  C   UNL     1      65.890   5.728   7.939  1.00  0.00     0.164 C 
HETATM   10  O   UNL     1      65.695   4.513   8.003  1.00  0.00    -0.292 OA
HETATM   11  C   UNL     1      66.515   6.412   9.134  1.00  0.00     0.097 C 
ENDBRANCH   1   9
TORSDOF 1
ENDMDL
MODEL 9
REMARK VINA RESULT:      -3.4      3.527      4.059
REMARK  1 active torsions:
REMARK  status: ('A' for Active; 'I' for Inactive)
REMARK    1  A    between atoms: C_1  and  C_7 
ROOT
HETATM    1  C   UNL     1      67.398   4.441   7.646  1.00  0.00     0.074 A 
HETATM    2  N   UNL     1      68.834   6.031   8.591  1.00  0.00    -0.357 N 
ATOM      3  HN  UNL     1      69.123   6.940   8.954  1.00  0.00     0.166 HD
HETATM    4  C   UNL     1      67.570   5.747   8.088  1.00  0.00     0.026 A 
HETATM    5  S   UNL     1      68.867   3.575   7.871  1.00  0.00    -0.072 SA
HETATM    6  C   UNL     1      69.604   4.970   8.534  1.00  0.00     0.048 A 
HETATM    7  C   UNL     1      66.590   6.868   8.100  1.00  0.00     0.070 C 
HETATM    8  C   UNL     1      71.015   4.947   9.007  1.00  0.00     0.076 C 
ENDROOT
BRANCH   1   9
HETATM    9  C   UNL     1      66.209   3.817   7.075  1.00  0.00     0.164 C 
HETATM   10  O   UNL     1      65.290   3.375   7.767  1.00  0.00    -0.292 OA
HETATM   11  C   UNL     1      66.087   3.702   5.572  1.00  0.00     0.097 C 
ENDBRANCH   1   9
TORSDOF 1
ENDMDL
