MODEL 1
REMARK VINA RESULT:      -5.3      0.000      0.000
REMARK  4 active torsions:
REMARK  status: ('A' for Active; 'I' for Inactive)
REMARK    1  A    between atoms: C_3  and  C_6 
REMARK    2  A    between atoms: C_6  and  C_8 
REMARK    3  A    between atoms: C_8  and  O_10 
REMARK    4  A    between atoms: O_10  and  C_12 
ROOT
HETATM    1  N   UNL     1      80.060  11.167  20.965  1.00  0.00    -0.357 N 
ATOM      2  HN  UNL     1      80.906  10.601  21.034  1.00  0.00     0.166 HD
HETATM    3  C   UNL     1      79.083  11.020  19.988  1.00  0.00     0.025 A 
HETATM    4  C   UNL     1      79.738  12.143  21.788  1.00  0.00     0.047 A 
HETATM    5  S   UNL     1      78.264  12.951  21.435  1.00  0.00    -0.087 SA
HETATM    6  C   UNL     1      78.041  11.924  20.084  1.00  0.00     0.077 A 
HETATM    7  C   UNL     1      80.553  12.564  22.958  1.00  0.00     0.076 C 
ENDROOT
BRANCH   3   8
HETATM    8  C   UNL     1      79.268   9.963  18.948  1.00  0.00     0.168 C 
BRANCH   8   9
HETATM    9  C   UNL     1      77.958   9.473  18.376  1.00  0.00     0.264 C 
HETATM   10  O   UNL     1      77.218   8.646  18.895  1.00  0.00    -0.265 OA
BRANCH   9  11
HETATM   11  O   UNL     1      77.670  10.151  17.226  1.00  0.00    -0.322 OA
BRANCH  11  12
HETATM   12  C   UNL     1      77.640   9.360  16.027  1.00  0.00     0.174 C 
HETATM   13  C   UNL     1      77.851  10.233  14.804  1.00  0.00     0.034 C 
ENDBRANCH  11  12
ENDBRANCH   9  11
ENDBRANCH   8   9
ENDBRANCH   3   8
TORSDOF 4
ENDMDL
MODEL 2
REMARK VINA RESULT:      -5.2      3.292      6.256
REMARK  4 active torsions:
REMARK  status: ('A' for Active; 'I' for Inactive)
REMARK    1  A    between atoms: C_3  and  C_6 
REMARK    2  A    between atoms: C_6  and  C_8 
REMARK    3  A    between atoms: C_8  and  O_10 
REMARK    4  A    between atoms: O_10  and  C_12 
ROOT
HETATM    1  N   UNL     1      78.946  11.379  20.922  1.00  0.00    -0.357 N 
ATOM      2  HN  UNL     1      79.636  10.710  21.265  1.00  0.00     0.166 HD
HETATM    3  C   UNL     1      78.579  12.549  21.576  1.00  0.00     0.025 A 
HETATM    4  C   UNL     1      78.273  11.256  19.797  1.00  0.00     0.047 A 
HETATM    5  S   UNL     1      77.155  12.517  19.464  1.00  0.00    -0.087 SA
HETATM    6  C   UNL     1      77.600  13.281  20.929  1.00  0.00     0.077 A 
HETATM    7  C   UNL     1      78.426  10.128  18.841  1.00  0.00     0.076 C 
ENDROOT
BRANCH   3   8
HETATM    8  C   UNL     1      79.229  12.869  22.883  1.00  0.00     0.168 C 
BRANCH   8   9
HETATM    9  C   UNL     1      80.736  12.790  22.820  1.00  0.00     0.264 C 
HETATM   10  O   UNL     1      81.435  13.209  21.905  1.00  0.00    -0.265 OA
BRANCH   9  11
HETATM   11  O   UNL     1      81.224  12.255  23.979  1.00  0.00    -0.322 OA
BRANCH  11  12
HETATM   12  C   UNL     1      80.466  12.542  25.165  1.00  0.00     0.174 C 
HETATM   13  C   UNL     1      81.098  13.682  25.942  1.00  0.00     0.034 C 
ENDBRANCH  11  12
ENDBRANCH   9  11
ENDBRANCH   8   9
ENDBRANCH   3   8
TORSDOF 4
ENDMDL
MODEL 3
REMARK VINA RESULT:      -5.1      1.822      2.418
REMARK  4 active torsions:
REMARK  status: ('A' for Active; 'I' for Inactive)
REMARK    1  A    between atoms: C_3  and  C_6 
REMARK    2  A    between atoms: C_6  and  C_8 
REMARK    3  A    between atoms: C_8  and  O_10 
REMARK    4  A    between atoms: O_10  and  C_12 
ROOT
HETATM    1  N   UNL     1      78.548  11.025  20.246  1.00  0.00    -0.357 N 
ATOM      2  HN  UNL     1      79.274  10.413  20.619  1.00  0.00     0.166 HD
HETATM    3  C   UNL     1      77.744  10.728  19.152  1.00  0.00     0.025 A 
HETATM    4  C   UNL     1      78.239  12.209  20.730  1.00  0.00     0.047 A 
HETATM    5  S   UNL     1      76.988  13.043  19.900  1.00  0.00    -0.087 SA
HETATM    6  C   UNL     1      76.850  11.727  18.814  1.00  0.00     0.077 A 
HETATM    7  C   UNL     1      78.893  12.836  21.909  1.00  0.00     0.076 C 
ENDROOT
BRANCH   3   8
HETATM    8  C   UNL     1      77.944   9.423  18.453  1.00  0.00     0.168 C 
BRANCH   8   9
HETATM    9  C   UNL     1      77.633   9.498  16.976  1.00  0.00     0.264 C 
HETATM   10  O   UNL     1      77.777  10.486  16.267  1.00  0.00    -0.265 OA
BRANCH   9  11
HETATM   11  O   UNL     1      77.243   8.271  16.519  1.00  0.00    -0.322 OA
BRANCH  11  12
HETATM   12  C   UNL     1      76.946   7.295  17.530  1.00  0.00     0.174 C 
HETATM   13  C   UNL     1      76.932   5.898  16.938  1.00  0.00     0.034 C 
ENDBRANCH  11  12
ENDBRANCH   9  11
ENDBRANCH   8   9
ENDBRANCH   3   8
TORSDOF 4
ENDMDL
MODEL 4
REMARK VINA RESULT:      -4.6      8.524     10.127
REMARK  4 active torsions:
REMARK  status: ('A' for Active; 'I' for Inactive)
REMARK    1  A    between atoms: C_3  and  C_6 
REMARK    2  A    between atoms: C_6  and  C_8 
REMARK    3  A    between atoms: C_8  and  O_10 
REMARK    4  A    between atoms: O_10  and  C_12 
ROOT
HETATM    1  N   UNL     1      74.589   1.367  18.274  1.00  0.00    -0.357 N 
ATOM      2  HN  UNL     1      74.699   1.842  19.170  1.00  0.00     0.166 HD
HETATM    3  C   UNL     1      74.824   1.947  17.033  1.00  0.00     0.025 A 
HETATM    4  C   UNL     1      74.205   0.117  18.126  1.00  0.00     0.047 A 
HETATM    5  S   UNL     1      74.084  -0.433  16.504  1.00  0.00    -0.087 SA
HETATM    6  C   UNL     1      74.579   1.112  15.958  1.00  0.00     0.077 A 
HETATM    7  C   UNL     1      73.882  -0.805  19.248  1.00  0.00     0.076 C 
ENDROOT
BRANCH   3   8
HETATM    8  C   UNL     1      75.265   3.374  16.984  1.00  0.00     0.168 C 
BRANCH   8   9
HETATM    9  C   UNL     1      76.475   3.640  17.848  1.00  0.00     0.264 C 
HETATM   10  O   UNL     1      76.804   2.991  18.834  1.00  0.00    -0.265 OA
BRANCH   9  11
HETATM   11  O   UNL     1      77.207   4.666  17.322  1.00  0.00    -0.322 OA
BRANCH  11  12
HETATM   12  C   UNL     1      76.452   5.798  16.861  1.00  0.00     0.174 C 
HETATM   13  C   UNL     1      76.866   7.056  17.601  1.00  0.00     0.034 C 
ENDBRANCH  11  12
ENDBRANCH   9  11
ENDBRANCH   8   9
ENDBRANCH   3   8
TORSDOF 4
ENDMDL
MODEL 5
REMARK VINA RESULT:      -4.5     17.534     19.778
REMARK  4 active torsions:
REMARK  status: ('A' for Active; 'I' for Inactive)
REMARK    1  A    between atoms: C_3  and  C_6 
REMARK    2  A    between atoms: C_6  and  C_8 
REMARK    3  A    between atoms: C_8  and  O_10 
REMARK    4  A    between atoms: O_10  and  C_12 
ROOT
HETATM    1  N   UNL     1      65.292   7.220   6.996  1.00  0.00    -0.357 N 
ATOM      2  HN  UNL     1      64.474   7.623   7.453  1.00  0.00     0.166 HD
HETATM    3  C   UNL     1      65.509   7.204   5.624  1.00  0.00     0.025 A 
HETATM    4  C   UNL     1      66.295   6.640   7.622  1.00  0.00     0.047 A 
HETATM    5  S   UNL     1      67.541   6.027   6.612  1.00  0.00    -0.087 SA
HETATM    6  C   UNL     1      66.678   6.574   5.238  1.00  0.00     0.077 A 
HETATM    7  C   UNL     1      66.397   6.494   9.098  1.00  0.00     0.076 C 
ENDROOT
BRANCH   3   8
HETATM    8  C   UNL     1      64.476   7.812   4.731  1.00  0.00     0.168 C 
BRANCH   8   9
HETATM    9  C   UNL     1      64.006   9.162   5.219  1.00  0.00     0.264 C 
HETATM   10  O   UNL     1      64.690   9.981   5.819  1.00  0.00    -0.265 OA
BRANCH   9  11
HETATM   11  O   UNL     1      62.718   9.380   4.818  1.00  0.00    -0.322 OA
BRANCH  11  12
HETATM   12  C   UNL     1      62.369  10.749   4.558  1.00  0.00     0.174 C 
HETATM   13  C   UNL     1      61.945  10.928   3.112  1.00  0.00     0.034 C 
ENDBRANCH  11  12
ENDBRANCH   9  11
ENDBRANCH   8   9
ENDBRANCH   3   8
TORSDOF 4
ENDMDL
MODEL 6
REMARK VINA RESULT:      -4.4     16.174     18.368
REMARK  4 active torsions:
REMARK  status: ('A' for Active; 'I' for Inactive)
REMARK    1  A    between atoms: C_3  and  C_6 
REMARK    2  A    between atoms: C_6  and  C_8 
REMARK    3  A    between atoms: C_8  and  O_10 
REMARK    4  A    between atoms: O_10  and  C_12 
ROOT
HETATM    1  N   UNL     1      68.104   6.254   7.196  1.00  0.00    -0.357 N 
ATOM      2  HN  UNL     1      68.223   7.159   7.652  1.00  0.00     0.166 HD
HETATM    3  C   UNL     1      67.475   6.057   5.973  1.00  0.00     0.025 A 
HETATM    4  C   UNL     1      68.525   5.105   7.682  1.00  0.00     0.047 A 
HETATM    5  S   UNL     1      68.178   3.725   6.720  1.00  0.00    -0.087 SA
HETATM    6  C   UNL     1      67.410   4.735   5.572  1.00  0.00     0.077 A 
HETATM    7  C   UNL     1      69.252   4.948   8.969  1.00  0.00     0.076 C 
ENDROOT
BRANCH   3   8
HETATM    8  C   UNL     1      66.919   7.245   5.257  1.00  0.00     0.168 C 
BRANCH   8   9
HETATM    9  C   UNL     1      66.181   8.188   6.179  1.00  0.00     0.264 C 
HETATM   10  O   UNL     1      66.701   9.017   6.916  1.00  0.00    -0.265 OA
BRANCH   9  11
HETATM   11  O   UNL     1      64.833   8.044   6.011  1.00  0.00    -0.322 OA
BRANCH  11  12
HETATM   12  C   UNL     1      64.304   8.530   4.767  1.00  0.00     0.174 C 
HETATM   13  C   UNL     1      63.214   9.556   5.013  1.00  0.00     0.034 C 
ENDBRANCH  11  12
ENDBRANCH   9  11
ENDBRANCH   8   9
ENDBRANCH   3   8
TORSDOF 4
ENDMDL
MODEL 7
REMARK VINA RESULT:      -4.4     15.353     17.144
REMARK  4 active torsions:
REMARK  status: ('A' for Active; 'I' for Inactive)
REMARK    1  A    between atoms: C_3  and  C_6 
REMARK    2  A    between atoms: C_6  and  C_8 
REMARK    3  A    between atoms: C_8  and  O_10 
REMARK    4  A    between atoms: O_10  and  C_12 
ROOT
HETATM    1  N   UNL     1      68.683   6.129   8.440  1.00  0.00    -0.357 N 
ATOM      2  HN  UNL     1      69.021   7.088   8.517  1.00  0.00     0.166 HD
HETATM    3  C   UNL     1      67.373   5.769   8.146  1.00  0.00     0.025 A 
HETATM    4  C   UNL     1      69.425   5.053   8.603  1.00  0.00     0.047 A 
HETATM    5  S   UNL     1      68.601   3.555   8.436  1.00  0.00    -0.087 SA
HETATM    6  C   UNL     1      67.148   4.404   8.123  1.00  0.00     0.077 A 
HETATM    7  C   UNL     1      70.878   5.070   8.915  1.00  0.00     0.076 C 
ENDROOT
BRANCH   3   8
HETATM    8  C   UNL     1      66.367   6.852   7.930  1.00  0.00     0.168 C 
BRANCH   8   9
HETATM    9  C   UNL     1      66.700   7.729   6.745  1.00  0.00     0.264 C 
HETATM   10  O   UNL     1      66.259   8.854   6.545  1.00  0.00    -0.265 OA
BRANCH   9  11
HETATM   11  O   UNL     1      67.637   7.118   5.962  1.00  0.00    -0.322 OA
BRANCH  11  12
HETATM   12  C   UNL     1      67.245   6.863   4.604  1.00  0.00     0.174 C 
HETATM   13  C   UNL     1      67.150   5.371   4.344  1.00  0.00     0.034 C 
ENDBRANCH  11  12
ENDBRANCH   9  11
ENDBRANCH   8   9
ENDBRANCH   3   8
TORSDOF 4
ENDMDL
MODEL 8
REMARK VINA RESULT:      -4.4     15.737     17.673
REMARK  4 active torsions:
REMARK  status: ('A' for Active; 'I' for Inactive)
REMARK    1  A    between atoms: C_3  and  C_6 
REMARK    2  A    between atoms: C_6  and  C_8 
REMARK    3  A    between atoms: C_8  and  O_10 
REMARK    4  A    between atoms: O_10  and  C_12 
ROOT
HETATM    1  N   UNL     1      68.523   6.190   8.000  1.00  0.00    -0.357 N 
ATOM      2  HN  UNL     1      69.128   7.002   7.880  1.00  0.00     0.166 HD
HETATM    3  C   UNL     1      67.168   6.156   7.697  1.00  0.00     0.025 A 
HETATM    4  C   UNL     1      68.914   5.022   8.466  1.00  0.00     0.047 A 
HETATM    5  S   UNL     1      67.687   3.826   8.586  1.00  0.00    -0.087 SA
HETATM    6  C   UNL     1      66.551   4.949   7.973  1.00  0.00     0.077 A 
HETATM    7  C   UNL     1      70.306   4.701   8.878  1.00  0.00     0.076 C 
ENDROOT
BRANCH   3   8
HETATM    8  C   UNL     1      66.527   7.394   7.158  1.00  0.00     0.168 C 
BRANCH   8   9
HETATM    9  C   UNL     1      67.115   7.827   5.835  1.00  0.00     0.264 C 
HETATM   10  O   UNL     1      68.208   7.489   5.396  1.00  0.00    -0.265 OA
BRANCH   9  11
HETATM   11  O   UNL     1      66.211   8.589   5.150  1.00  0.00    -0.322 OA
BRANCH  11  12
HETATM   12  C   UNL     1      64.888   8.040   5.043  1.00  0.00     0.174 C 
HETATM   13  C   UNL     1      63.849   9.146   5.032  1.00  0.00     0.034 C 
ENDBRANCH  11  12
ENDBRANCH   9  11
ENDBRANCH   8   9
ENDBRANCH   3   8
TORSDOF 4
ENDMDL
MODEL 9
REMARK VINA RESULT:      -4.4     22.028     24.393
REMARK  4 active torsions:
REMARK  status: ('A' for Active; 'I' for Inactive)
REMARK    1  A    between atoms: C_3  and  C_6 
REMARK    2  A    between atoms: C_6  and  C_8 
REMARK    3  A    between atoms: C_8  and  O_10 
REMARK    4  A    between atoms: O_10  and  C_12 
ROOT
HETATM    1  N   UNL     1      60.365   8.921   1.879  1.00  0.00    -0.357 N 
ATOM      2  HN  UNL     1      59.685   9.341   2.513  1.00  0.00     0.166 HD
HETATM    3  C   UNL     1      61.570   9.503   1.506  1.00  0.00     0.025 A 
HETATM    4  C   UNL     1      60.226   7.748   1.296  1.00  0.00     0.047 A 
HETATM    5  S   UNL     1      61.513   7.283   0.257  1.00  0.00    -0.087 SA
HETATM    6  C   UNL     1      62.312   8.755   0.611  1.00  0.00     0.077 A 
HETATM    7  C   UNL     1      59.059   6.846   1.482  1.00  0.00     0.076 C 
ENDROOT
BRANCH   3   8
HETATM    8  C   UNL     1      61.913  10.848   2.059  1.00  0.00     0.168 C 
BRANCH   8   9
HETATM    9  C   UNL     1      62.000  10.854   3.568  1.00  0.00     0.264 C 
HETATM   10  O   UNL     1      61.916  11.845   4.283  1.00  0.00    -0.265 OA
BRANCH   9  11
HETATM   11  O   UNL     1      62.102   9.574   4.033  1.00  0.00    -0.322 OA
BRANCH  11  12
HETATM   12  C   UNL     1      62.946   9.394   5.181  1.00  0.00     0.174 C 
HETATM   13  C   UNL     1      64.243   8.709   4.791  1.00  0.00     0.034 C 
ENDBRANCH  11  12
ENDBRANCH   9  11
ENDBRANCH   8   9
ENDBRANCH   3   8
TORSDOF 4
ENDMDL
