MODEL 1
REMARK VINA RESULT:      -6.1      0.000      0.000
REMARK  2 active torsions:
REMARK  status: ('A' for Active; 'I' for Inactive)
REMARK    1  A    between atoms: C_1  and  C_2 
REMARK    2  A    between atoms: C_1  and  C_5 
ROOT
HETATM    1  C   UNL     1      63.635   7.599   5.802  1.00  0.00     0.163 C 
HETATM    2  O   UNL     1      63.045   7.477   6.864  1.00  0.00    -0.292 OA
ENDROOT
BRANCH   1   3
HETATM    3  C   UNL     1      63.116   8.632   4.836  1.00  0.00     0.010 A 
HETATM    4  C   UNL     1      62.909   9.953   5.296  1.00  0.00     0.017 A 
HETATM    5  C   UNL     1      62.437  10.951   4.439  1.00  0.00     0.025 A 
HETATM    6  C   UNL     1      62.154  10.653   3.106  1.00  0.00     0.034 A 
HETATM    7  C   UNL     1      62.344   9.355   2.631  1.00  0.00     0.025 A 
HETATM    8 CL   UNL     1      61.560  11.906   2.031  1.00  0.00    -0.084 Cl
HETATM    9  C   UNL     1      62.822   8.352   3.483  1.00  0.00     0.017 A 
ENDBRANCH   1   3
BRANCH   1  10
HETATM   10  C   UNL     1      64.873   6.725   5.542  1.00  0.00     0.064 C 
HETATM   11  C   UNL     1      65.250   5.808   6.727  1.00  0.00     0.040 C 
HETATM   12  C   UNL     1      65.816   6.609   7.908  1.00  0.00     0.233 C 
HETATM   13  N   UNL     1      66.999   7.373   7.480  1.00  0.00    -0.075 N 
HETATM   14  C   UNL     1      66.676   8.319   6.401  1.00  0.00     0.233 C 
HETATM   15  H   UNL     1      67.710   6.721   7.145  1.00  0.00     0.277 HD
HETATM   16  H   UNL     1      67.339   7.907   8.279  1.00  0.00     0.277 HD
HETATM   17  C   UNL     1      66.111   7.570   5.179  1.00  0.00     0.040 C 
ENDBRANCH   1  10
TORSDOF 2
ENDMDL
MODEL 2
REMARK VINA RESULT:      -5.8     16.928     18.048
REMARK  2 active torsions:
REMARK  status: ('A' for Active; 'I' for Inactive)
REMARK    1  A    between atoms: C_1  and  C_2 
REMARK    2  A    between atoms: C_1  and  C_5 
ROOT
HETATM    1  C   UNL     1      74.582   1.146  17.576  1.00  0.00     0.163 C 
HETATM    2  O   UNL     1      74.366   0.760  18.714  1.00  0.00    -0.292 OA
ENDROOT
BRANCH   1   3
HETATM    3  C   UNL     1      75.117   2.544  17.407  1.00  0.00     0.010 A 
HETATM    4  C   UNL     1      76.387   2.858  17.945  1.00  0.00     0.017 A 
HETATM    5  C   UNL     1      76.933   4.137  17.809  1.00  0.00     0.025 A 
HETATM    6  C   UNL     1      76.222   5.135  17.142  1.00  0.00     0.034 A 
HETATM    7  C   UNL     1      74.964   4.851  16.609  1.00  0.00     0.025 A 
HETATM    8 CL   UNL     1      76.908   6.741  16.975  1.00  0.00    -0.084 Cl
HETATM    9  C   UNL     1      74.414   3.569  16.737  1.00  0.00     0.017 A 
ENDBRANCH   1   3
BRANCH   1  10
HETATM   10  C   UNL     1      74.329   0.177  16.409  1.00  0.00     0.064 C 
HETATM   11  C   UNL     1      74.325  -1.311  16.823  1.00  0.00     0.040 C 
HETATM   12  C   UNL     1      75.733  -1.804  17.189  1.00  0.00     0.233 C 
HETATM   13  N   UNL     1      76.647  -1.610  16.052  1.00  0.00    -0.075 N 
HETATM   14  C   UNL     1      76.746  -0.195  15.665  1.00  0.00     0.233 C 
HETATM   15  H   UNL     1      76.301  -2.146  15.255  1.00  0.00     0.277 HD
HETATM   16  H   UNL     1      77.574  -1.928  16.332  1.00  0.00     0.277 HD
HETATM   17  C   UNL     1      75.360   0.354  15.276  1.00  0.00     0.040 C 
ENDBRANCH   1  10
TORSDOF 2
ENDMDL
MODEL 3
REMARK VINA RESULT:      -5.4      4.124      6.421
REMARK  2 active torsions:
REMARK  status: ('A' for Active; 'I' for Inactive)
REMARK    1  A    between atoms: C_1  and  C_2 
REMARK    2  A    between atoms: C_1  and  C_5 
ROOT
HETATM    1  C   UNL     1      66.040   7.769   6.120  1.00  0.00     0.163 C 
HETATM    2  O   UNL     1      66.071   8.963   6.374  1.00  0.00    -0.292 OA
ENDROOT
BRANCH   1   3
HETATM    3  C   UNL     1      66.844   6.851   7.004  1.00  0.00     0.010 A 
HETATM    4  C   UNL     1      66.744   6.997   8.407  1.00  0.00     0.017 A 
HETATM    5  C   UNL     1      67.462   6.165   9.272  1.00  0.00     0.025 A 
HETATM    6  C   UNL     1      68.302   5.177   8.757  1.00  0.00     0.034 A 
HETATM    7  C   UNL     1      68.420   5.020   7.375  1.00  0.00     0.025 A 
HETATM    8 CL   UNL     1      69.204   4.136   9.844  1.00  0.00    -0.084 Cl
HETATM    9  C   UNL     1      67.699   5.845   6.505  1.00  0.00     0.017 A 
ENDBRANCH   1   3
BRANCH   1  10
HETATM   10  C   UNL     1      65.164   7.287   4.951  1.00  0.00     0.064 C 
HETATM   11  C   UNL     1      64.149   8.341   4.455  1.00  0.00     0.040 C 
HETATM   12  C   UNL     1      63.019   8.564   5.471  1.00  0.00     0.233 C 
HETATM   13  N   UNL     1      62.323   7.296   5.740  1.00  0.00    -0.075 N 
HETATM   14  C   UNL     1      63.232   6.279   6.288  1.00  0.00     0.233 C 
HETATM   15  H   UNL     1      61.924   6.946   4.867  1.00  0.00     0.277 HD
HETATM   16  H   UNL     1      61.593   7.474   6.430  1.00  0.00     0.277 HD
HETATM   17  C   UNL     1      64.386   6.003   5.304  1.00  0.00     0.040 C 
ENDBRANCH   1  10
TORSDOF 2
ENDMDL
MODEL 4
REMARK VINA RESULT:      -5.3      1.514      2.207
REMARK  2 active torsions:
REMARK  status: ('A' for Active; 'I' for Inactive)
REMARK    1  A    between atoms: C_1  and  C_2 
REMARK    2  A    between atoms: C_1  and  C_5 
ROOT
HETATM    1  C   UNL     1      64.732   7.600   6.085  1.00  0.00     0.163 C 
HETATM    2  O   UNL     1      64.108   7.082   6.998  1.00  0.00    -0.292 OA
ENDROOT
BRANCH   1   3
HETATM    3  C   UNL     1      63.971   7.937   4.829  1.00  0.00     0.010 A 
HETATM    4  C   UNL     1      63.323   9.190   4.740  1.00  0.00     0.017 A 
HETATM    5  C   UNL     1      62.611   9.555   3.593  1.00  0.00     0.025 A 
HETATM    6  C   UNL     1      62.522   8.675   2.515  1.00  0.00     0.034 A 
HETATM    7  C   UNL     1      63.147   7.430   2.583  1.00  0.00     0.025 A 
HETATM    8 CL   UNL     1      61.625   9.134   1.078  1.00  0.00    -0.084 Cl
HETATM    9  C   UNL     1      63.867   7.061   3.726  1.00  0.00     0.017 A 
ENDBRANCH   1   3
BRANCH   1  10
HETATM   10  C   UNL     1      66.226   7.901   6.291  1.00  0.00     0.064 C 
HETATM   11  C   UNL     1      67.104   7.576   5.063  1.00  0.00     0.040 C 
HETATM   12  C   UNL     1      67.236   6.061   4.843  1.00  0.00     0.233 C 
HETATM   13  N   UNL     1      67.806   5.424   6.041  1.00  0.00    -0.075 N 
HETATM   14  C   UNL     1      66.965   5.641   7.227  1.00  0.00     0.233 C 
HETATM   15  H   UNL     1      68.731   5.819   6.216  1.00  0.00     0.277 HD
HETATM   16  H   UNL     1      67.862   4.421   5.870  1.00  0.00     0.277 HD
HETATM   17  C   UNL     1      66.805   7.148   7.506  1.00  0.00     0.040 C 
ENDBRANCH   1  10
TORSDOF 2
ENDMDL
MODEL 5
REMARK VINA RESULT:      -5.2      4.207      6.539
REMARK  2 active torsions:
REMARK  status: ('A' for Active; 'I' for Inactive)
REMARK    1  A    between atoms: C_1  and  C_2 
REMARK    2  A    between atoms: C_1  and  C_5 
ROOT
HETATM    1  C   UNL     1      65.353   7.063   6.804  1.00  0.00     0.163 C 
HETATM    2  O   UNL     1      64.197   7.079   7.198  1.00  0.00    -0.292 OA
ENDROOT
BRANCH   1   3
HETATM    3  C   UNL     1      66.323   6.173   7.537  1.00  0.00     0.010 A 
HETATM    4  C   UNL     1      67.138   6.737   8.545  1.00  0.00     0.017 A 
HETATM    5  C   UNL     1      68.049   5.954   9.260  1.00  0.00     0.025 A 
HETATM    6  C   UNL     1      68.172   4.593   8.981  1.00  0.00     0.034 A 
HETATM    7  C   UNL     1      67.383   4.015   7.986  1.00  0.00     0.025 A 
HETATM    8 CL   UNL     1      69.317   3.611   9.878  1.00  0.00    -0.084 Cl
HETATM    9  C   UNL     1      66.465   4.794   7.270  1.00  0.00     0.017 A 
ENDBRANCH   1   3
BRANCH   1  10
HETATM   10  C   UNL     1      65.725   7.915   5.579  1.00  0.00     0.064 C 
HETATM   11  C   UNL     1      64.513   8.570   4.882  1.00  0.00     0.040 C 
HETATM   12  C   UNL     1      63.651   7.532   4.147  1.00  0.00     0.233 C 
HETATM   13  N   UNL     1      64.464   6.813   3.153  1.00  0.00    -0.075 N 
HETATM   14  C   UNL     1      65.592   6.107   3.778  1.00  0.00     0.233 C 
HETATM   15  H   UNL     1      64.829   7.485   2.476  1.00  0.00     0.277 HD
HETATM   16  H   UNL     1      63.870   6.121   2.697  1.00  0.00     0.277 HD
HETATM   17  C   UNL     1      66.502   7.102   4.524  1.00  0.00     0.040 C 
ENDBRANCH   1  10
TORSDOF 2
ENDMDL
MODEL 6
REMARK VINA RESULT:      -5.0     22.227     24.447
REMARK  2 active torsions:
REMARK  status: ('A' for Active; 'I' for Inactive)
REMARK    1  A    between atoms: C_1  and  C_2 
REMARK    2  A    between atoms: C_1  and  C_5 
ROOT
HETATM    1  C   UNL     1      80.365  12.553  23.517  1.00  0.00     0.163 C 
HETATM    2  O   UNL     1      81.577  12.412  23.488  1.00  0.00    -0.292 OA
ENDROOT
BRANCH   1   3
HETATM    3  C   UNL     1      79.596  12.203  22.269  1.00  0.00     0.010 A 
HETATM    4  C   UNL     1      78.269  12.670  22.133  1.00  0.00     0.017 A 
HETATM    5  C   UNL     1      77.514  12.381  20.992  1.00  0.00     0.025 A 
HETATM    6  C   UNL     1      78.064  11.612  19.966  1.00  0.00     0.034 A 
HETATM    7  C   UNL     1      79.370  11.135  20.082  1.00  0.00     0.025 A 
HETATM    8 CL   UNL     1      77.115  11.247  18.536  1.00  0.00    -0.084 Cl
HETATM    9  C   UNL     1      80.132  11.427  21.219  1.00  0.00     0.017 A 
ENDBRANCH   1   3
BRANCH   1  10
HETATM   10  C   UNL     1      79.711  13.039  24.821  1.00  0.00     0.064 C 
HETATM   11  C   UNL     1      80.302  14.360  25.362  1.00  0.00     0.040 C 
HETATM   12  C   UNL     1      81.722  14.164  25.913  1.00  0.00     0.233 C 
HETATM   13  N   UNL     1      81.715  13.152  26.981  1.00  0.00    -0.075 N 
HETATM   14  C   UNL     1      81.232  11.851  26.498  1.00  0.00     0.233 C 
HETATM   15  H   UNL     1      81.105  13.472  27.735  1.00  0.00     0.277 HD
HETATM   16  H   UNL     1      82.673  13.032  27.311  1.00  0.00     0.277 HD
HETATM   17  C   UNL     1      79.801  11.982  25.941  1.00  0.00     0.040 C 
ENDBRANCH   1  10
TORSDOF 2
ENDMDL
MODEL 7
REMARK VINA RESULT:      -4.9      5.149      7.815
REMARK  2 active torsions:
REMARK  status: ('A' for Active; 'I' for Inactive)
REMARK    1  A    between atoms: C_1  and  C_2 
REMARK    2  A    between atoms: C_1  and  C_5 
ROOT
HETATM    1  C   UNL     1      67.513   6.391   7.545  1.00  0.00     0.163 C 
HETATM    2  O   UNL     1      66.846   7.150   8.231  1.00  0.00    -0.292 OA
ENDROOT
BRANCH   1   3
HETATM    3  C   UNL     1      68.067   5.159   8.212  1.00  0.00     0.010 A 
HETATM    4  C   UNL     1      69.409   5.168   8.654  1.00  0.00     0.017 A 
HETATM    5  C   UNL     1      69.970   4.054   9.286  1.00  0.00     0.025 A 
HETATM    6  C   UNL     1      69.206   2.904   9.483  1.00  0.00     0.034 A 
HETATM    7  C   UNL     1      67.880   2.870   9.050  1.00  0.00     0.025 A 
HETATM    8 CL   UNL     1      69.912   1.505  10.274  1.00  0.00    -0.084 Cl
HETATM    9  C   UNL     1      67.312   3.984   8.422  1.00  0.00     0.017 A 
ENDBRANCH   1   3
BRANCH   1  10
HETATM   10  C   UNL     1      67.708   6.725   6.057  1.00  0.00     0.064 C 
HETATM   11  C   UNL     1      66.855   7.915   5.565  1.00  0.00     0.040 C 
HETATM   12  C   UNL     1      65.364   7.554   5.494  1.00  0.00     0.233 C 
HETATM   13  N   UNL     1      65.165   6.402   4.600  1.00  0.00    -0.075 N 
HETATM   14  C   UNL     1      65.898   5.216   5.067  1.00  0.00     0.233 C 
HETATM   15  H   UNL     1      65.496   6.647   3.666  1.00  0.00     0.277 HD
HETATM   16  H   UNL     1      64.171   6.176   4.589  1.00  0.00     0.277 HD
HETATM   17  C   UNL     1      67.408   5.514   5.149  1.00  0.00     0.040 C 
ENDBRANCH   1  10
TORSDOF 2
ENDMDL
MODEL 8
REMARK VINA RESULT:      -4.8      1.434      2.187
REMARK  2 active torsions:
REMARK  status: ('A' for Active; 'I' for Inactive)
REMARK    1  A    between atoms: C_1  and  C_2 
REMARK    2  A    between atoms: C_1  and  C_5 
ROOT
HETATM    1  C   UNL     1      64.727   6.099   5.336  1.00  0.00     0.163 C 
HETATM    2  O   UNL     1      64.045   5.443   6.107  1.00  0.00    -0.292 OA
ENDROOT
BRANCH   1   3
HETATM    3  C   UNL     1      64.007   6.981   4.350  1.00  0.00     0.010 A 
HETATM    4  C   UNL     1      63.823   6.518   3.027  1.00  0.00     0.017 A 
HETATM    5  C   UNL     1      63.154   7.294   2.076  1.00  0.00     0.025 A 
HETATM    6  C   UNL     1      62.662   8.553   2.421  1.00  0.00     0.034 A 
HETATM    7  C   UNL     1      62.837   9.034   3.718  1.00  0.00     0.025 A 
HETATM    8 CL   UNL     1      61.824   9.527   1.225  1.00  0.00    -0.084 Cl
HETATM    9  C   UNL     1      63.501   8.258   4.677  1.00  0.00     0.017 A 
ENDBRANCH   1   3
BRANCH   1  10
HETATM   10  C   UNL     1      66.259   6.006   5.447  1.00  0.00     0.064 C 
HETATM   11  C   UNL     1      66.752   5.376   6.768  1.00  0.00     0.040 C 
HETATM   12  C   UNL     1      66.522   6.311   7.964  1.00  0.00     0.233 C 
HETATM   13  N   UNL     1      67.209   7.594   7.742  1.00  0.00    -0.075 N 
HETATM   14  C   UNL     1      66.719   8.273   6.533  1.00  0.00     0.233 C 
HETATM   15  H   UNL     1      68.210   7.420   7.641  1.00  0.00     0.277 HD
HETATM   16  H   UNL     1      67.021   8.197   8.543  1.00  0.00     0.277 HD
HETATM   17  C   UNL     1      66.934   7.384   5.293  1.00  0.00     0.040 C 
ENDBRANCH   1  10
TORSDOF 2
ENDMDL
MODEL 9
REMARK VINA RESULT:      -4.8      4.318      6.052
REMARK  2 active torsions:
REMARK  status: ('A' for Active; 'I' for Inactive)
REMARK    1  A    between atoms: C_1  and  C_2 
REMARK    2  A    between atoms: C_1  and  C_5 
ROOT
HETATM    1  C   UNL     1      67.513   3.136   7.414  1.00  0.00     0.163 C 
HETATM    2  O   UNL     1      66.683   2.281   7.676  1.00  0.00    -0.292 OA
ENDROOT
BRANCH   1   3
HETATM    3  C   UNL     1      67.014   4.434   6.835  1.00  0.00     0.010 A 
HETATM    4  C   UNL     1      66.115   5.218   7.593  1.00  0.00     0.017 A 
HETATM    5  C   UNL     1      65.628   6.435   7.105  1.00  0.00     0.025 A 
HETATM    6  C   UNL     1      66.019   6.891   5.847  1.00  0.00     0.034 A 
HETATM    7  C   UNL     1      66.900   6.131   5.077  1.00  0.00     0.025 A 
HETATM    8 CL   UNL     1      65.405   8.417   5.235  1.00  0.00    -0.084 Cl
HETATM    9  C   UNL     1      67.396   4.915   5.563  1.00  0.00     0.017 A 
ENDBRANCH   1   3
BRANCH   1  10
HETATM   10  C   UNL     1      68.992   2.847   7.724  1.00  0.00     0.064 C 
HETATM   11  C   UNL     1      69.206   1.662   8.693  1.00  0.00     0.040 C 
HETATM   12  C   UNL     1      68.768   2.011  10.123  1.00  0.00     0.233 C 
HETATM   13  N   UNL     1      69.510   3.185  10.607  1.00  0.00    -0.075 N 
HETATM   14  C   UNL     1      69.279   4.365   9.761  1.00  0.00     0.233 C 
HETATM   15  H   UNL     1      70.508   2.969  10.606  1.00  0.00     0.277 HD
HETATM   16  H   UNL     1      69.183   3.401  11.549  1.00  0.00     0.277 HD
HETATM   17  C   UNL     1      69.712   4.079   8.310  1.00  0.00     0.040 C 
ENDBRANCH   1  10
TORSDOF 2
ENDMDL
