MODEL 1
REMARK VINA RESULT:      -5.5      0.000      0.000
REMARK  1 active torsions:
REMARK  status: ('A' for Active; 'I' for Inactive)
REMARK    1  A    between atoms: N_3  and  O_4 
ROOT
HETATM    1  C   UNL     1      78.265  10.817  19.565  1.00  0.00     0.097 C 
HETATM    2  N   UNL     1      78.027  11.410  20.793  1.00  0.00    -0.378 N 
HETATM    3  N   UNL     1      79.438  10.306  19.314  1.00  0.00    -0.257 N 
HETATM    4  C   UNL     1      77.104  10.832  18.577  1.00  0.00     0.078 C 
HETATM    5  C   UNL     1      78.127  12.866  20.826  1.00  0.00     0.121 C 
HETATM    6  C   UNL     1      76.780  13.529  20.541  1.00  0.00     0.020 C 
HETATM    7  C   UNL     1      76.654  12.264  18.271  1.00  0.00     0.007 C 
HETATM    8  C   UNL     1      75.907  12.914  19.439  1.00  0.00     0.002 C 
HETATM    9  H   UNL     1      77.804  10.883  21.594  1.00  0.00     0.160 HD
HETATM   10  H   UNL     1      80.189  10.325  19.950  1.00  0.00     0.195 HD
ENDROOT
BRANCH   3  11
HETATM   11  O   UNL     1      79.512   9.730  18.044  1.00  0.00    -0.288 OA
HETATM   12  H   UNL     1      78.958  10.041  17.355  1.00  0.00     0.244 HD
ENDBRANCH   3  11
TORSDOF 1
ENDMDL
MODEL 2
REMARK VINA RESULT:      -4.7     21.474     22.381
REMARK  1 active torsions:
REMARK  status: ('A' for Active; 'I' for Inactive)
REMARK    1  A    between atoms: N_3  and  O_4 
ROOT
HETATM    1  C   UNL     1      62.209  10.521   4.339  1.00  0.00     0.097 C 
HETATM    2  N   UNL     1      61.356  10.659   3.258  1.00  0.00    -0.378 N 
HETATM    3  N   UNL     1      62.598  11.582   4.991  1.00  0.00    -0.257 N 
HETATM    4  C   UNL     1      62.649   9.099   4.669  1.00  0.00     0.078 C 
HETATM    5  C   UNL     1      61.987  10.638   1.943  1.00  0.00     0.121 C 
HETATM    6  C   UNL     1      62.054   9.222   1.372  1.00  0.00     0.020 C 
HETATM    7  C   UNL     1      63.368   8.451   3.481  1.00  0.00     0.007 C 
HETATM    8  C   UNL     1      62.416   8.087   2.339  1.00  0.00     0.002 C 
HETATM    9  H   UNL     1      60.383  10.764   3.369  1.00  0.00     0.160 HD
HETATM   10  H   UNL     1      62.328  12.498   4.754  1.00  0.00     0.195 HD
ENDROOT
BRANCH   3  11
HETATM   11  O   UNL     1      63.438  11.275   6.063  1.00  0.00    -0.288 OA
HETATM   12  H   UNL     1      63.573  11.901   6.748  1.00  0.00     0.244 HD
ENDBRANCH   3  11
TORSDOF 1
ENDMDL
MODEL 3
REMARK VINA RESULT:      -4.5      9.213     10.531
REMARK  1 active torsions:
REMARK  status: ('A' for Active; 'I' for Inactive)
REMARK    1  A    between atoms: N_3  and  O_4 
ROOT
HETATM    1  C   UNL     1      76.881   2.314  18.020  1.00  0.00     0.097 C 
HETATM    2  N   UNL     1      77.244   1.128  17.406  1.00  0.00    -0.378 N 
HETATM    3  N   UNL     1      77.431   2.645  19.156  1.00  0.00    -0.257 N 
HETATM    4  C   UNL     1      75.824   3.146  17.302  1.00  0.00     0.078 C 
HETATM    5  C   UNL     1      76.339   0.002  17.614  1.00  0.00     0.121 C 
HETATM    6  C   UNL     1      75.269  -0.068  16.525  1.00  0.00     0.020 C 
HETATM    7  C   UNL     1      74.525   2.352  17.120  1.00  0.00     0.007 C 
HETATM    8  C   UNL     1      74.644   1.254  16.061  1.00  0.00     0.002 C 
HETATM    9  H   UNL     1      78.061   1.048  16.863  1.00  0.00     0.160 HD
HETATM   10  H   UNL     1      78.095   2.089  19.624  1.00  0.00     0.195 HD
ENDROOT
BRANCH   3  11
HETATM   11  O   UNL     1      76.976   3.876  19.634  1.00  0.00    -0.288 OA
HETATM   12  H   UNL     1      76.059   4.068  19.634  1.00  0.00     0.244 HD
ENDBRANCH   3  11
TORSDOF 1
ENDMDL
MODEL 4
REMARK VINA RESULT:      -4.1     16.759     17.506
REMARK  1 active torsions:
REMARK  status: ('A' for Active; 'I' for Inactive)
REMARK    1  A    between atoms: N_3  and  O_4 
ROOT
HETATM    1  C   UNL     1      66.877   7.629   6.771  1.00  0.00     0.097 C 
HETATM    2  N   UNL     1      67.180   7.435   8.107  1.00  0.00    -0.378 N 
HETATM    3  N   UNL     1      65.958   8.492   6.438  1.00  0.00    -0.257 N 
HETATM    4  C   UNL     1      67.655   6.774   5.775  1.00  0.00     0.078 C 
HETATM    5  C   UNL     1      66.554   6.278   8.739  1.00  0.00     0.121 C 
HETATM    6  C   UNL     1      67.434   5.033   8.632  1.00  0.00     0.020 C 
HETATM    7  C   UNL     1      67.442   5.280   6.043  1.00  0.00     0.007 C 
HETATM    8  C   UNL     1      68.162   4.794   7.303  1.00  0.00     0.002 C 
HETATM    9  H   UNL     1      67.780   8.039   8.600  1.00  0.00     0.160 HD
HETATM   10  H   UNL     1      65.443   9.020   7.089  1.00  0.00     0.195 HD
ENDROOT
BRANCH   3  11
HETATM   11  O   UNL     1      65.784   8.585   5.055  1.00  0.00    -0.288 OA
HETATM   12  H   UNL     1      65.199   9.224   4.698  1.00  0.00     0.244 HD
ENDBRANCH   3  11
TORSDOF 1
ENDMDL
MODEL 5
REMARK VINA RESULT:      -4.0     16.078     17.066
REMARK  1 active torsions:
REMARK  status: ('A' for Active; 'I' for Inactive)
REMARK    1  A    between atoms: N_3  and  O_4 
ROOT
HETATM    1  C   UNL     1      66.799   7.065   7.483  1.00  0.00     0.097 C 
HETATM    2  N   UNL     1      66.474   6.007   6.654  1.00  0.00    -0.378 N 
HETATM    3  N   UNL     1      66.855   8.273   6.994  1.00  0.00    -0.257 N 
HETATM    4  C   UNL     1      67.091   6.713   8.938  1.00  0.00     0.078 C 
HETATM    5  C   UNL     1      67.599   5.225   6.150  1.00  0.00     0.121 C 
HETATM    6  C   UNL     1      67.929   4.055   7.075  1.00  0.00     0.020 C 
HETATM    7  C   UNL     1      68.255   5.722   9.045  1.00  0.00     0.007 C 
HETATM    8  C   UNL     1      67.878   4.311   8.587  1.00  0.00     0.002 C 
HETATM    9  H   UNL     1      65.542   5.794   6.418  1.00  0.00     0.160 HD
HETATM   10  H   UNL     1      66.690   8.487   6.047  1.00  0.00     0.195 HD
ENDROOT
BRANCH   3  11
HETATM   11  O   UNL     1      67.176   9.230   7.959  1.00  0.00    -0.288 OA
HETATM   12  H   UNL     1      67.560   8.965   8.772  1.00  0.00     0.244 HD
ENDBRANCH   3  11
TORSDOF 1
ENDMDL
MODEL 6
REMARK VINA RESULT:      -3.9      7.374      8.712
REMARK  1 active torsions:
REMARK  status: ('A' for Active; 'I' for Inactive)
REMARK    1  A    between atoms: N_3  and  O_4 
ROOT
HETATM    1  C   UNL     1      76.647   4.602  17.435  1.00  0.00     0.097 C 
HETATM    2  N   UNL     1      77.186   3.329  17.480  1.00  0.00    -0.378 N 
HETATM    3  N   UNL     1      77.175   5.551  18.157  1.00  0.00    -0.257 N 
HETATM    4  C   UNL     1      75.432   4.784  16.531  1.00  0.00     0.078 C 
HETATM    5  C   UNL     1      76.501   2.379  18.351  1.00  0.00     0.121 C 
HETATM    6  C   UNL     1      75.417   1.607  17.599  1.00  0.00     0.020 C 
HETATM    7  C   UNL     1      74.286   3.857  16.949  1.00  0.00     0.007 C 
HETATM    8  C   UNL     1      74.553   2.390  16.603  1.00  0.00     0.002 C 
HETATM    9  H   UNL     1      77.982   3.078  16.958  1.00  0.00     0.160 HD
HETATM   10  H   UNL     1      77.943   5.417  18.757  1.00  0.00     0.195 HD
ENDROOT
BRANCH   3  11
HETATM   11  O   UNL     1      76.530   6.778  17.985  1.00  0.00    -0.288 OA
HETATM   12  H   UNL     1      76.429   7.138  17.126  1.00  0.00     0.244 HD
ENDBRANCH   3  11
TORSDOF 1
ENDMDL
MODEL 7
REMARK VINA RESULT:      -3.9      8.447      9.510
REMARK  1 active torsions:
REMARK  status: ('A' for Active; 'I' for Inactive)
REMARK    1  A    between atoms: N_3  and  O_4 
ROOT
HETATM    1  C   UNL     1      75.559   3.882  17.103  1.00  0.00     0.097 C 
HETATM    2  N   UNL     1      76.892   3.967  17.464  1.00  0.00    -0.378 N 
HETATM    3  N   UNL     1      74.805   4.945  17.169  1.00  0.00    -0.257 N 
HETATM    4  C   UNL     1      75.069   2.506  16.664  1.00  0.00     0.078 C 
HETATM    5  C   UNL     1      77.215   3.515  18.813  1.00  0.00     0.121 C 
HETATM    6  C   UNL     1      77.576   2.031  18.838  1.00  0.00     0.020 C 
HETATM    7  C   UNL     1      75.272   1.467  17.772  1.00  0.00     0.007 C 
HETATM    8  C   UNL     1      76.741   1.084  17.966  1.00  0.00     0.002 C 
HETATM    9  H   UNL     1      77.580   4.311  16.849  1.00  0.00     0.160 HD
HETATM   10  H   UNL     1      75.125   5.823  17.478  1.00  0.00     0.195 HD
ENDROOT
BRANCH   3  11
HETATM   11  O   UNL     1      73.495   4.700  16.754  1.00  0.00    -0.288 OA
HETATM   12  H   UNL     1      73.333   4.324  15.910  1.00  0.00     0.244 HD
ENDBRANCH   3  11
TORSDOF 1
ENDMDL
MODEL 8
REMARK VINA RESULT:      -3.9     21.269     22.173
REMARK  1 active torsions:
REMARK  status: ('A' for Active; 'I' for Inactive)
REMARK    1  A    between atoms: N_3  and  O_4 
ROOT
HETATM    1  C   UNL     1      62.850   8.399   4.654  1.00  0.00     0.097 C 
HETATM    2  N   UNL     1      62.947   7.910   3.364  1.00  0.00    -0.378 N 
HETATM    3  N   UNL     1      62.685   7.569   5.647  1.00  0.00    -0.257 N 
HETATM    4  C   UNL     1      62.926   9.915   4.805  1.00  0.00     0.078 C 
HETATM    5  C   UNL     1      61.725   7.967   2.569  1.00  0.00     0.121 C 
HETATM    6  C   UNL     1      61.623   9.274   1.784  1.00  0.00     0.020 C 
HETATM    7  C   UNL     1      61.816  10.608   4.008  1.00  0.00     0.007 C 
HETATM    8  C   UNL     1      62.053  10.562   2.497  1.00  0.00     0.002 C 
HETATM    9  H   UNL     1      63.788   7.547   3.004  1.00  0.00     0.160 HD
HETATM   10  H   UNL     1      62.611   6.594   5.536  1.00  0.00     0.195 HD
ENDROOT
BRANCH   3  11
HETATM   11  O   UNL     1      62.625   8.215   6.884  1.00  0.00    -0.288 OA
HETATM   12  H   UNL     1      62.083   7.871   7.566  1.00  0.00     0.244 HD
ENDBRANCH   3  11
TORSDOF 1
ENDMDL
MODEL 9
REMARK VINA RESULT:      -3.8     15.989     16.956
REMARK  1 active torsions:
REMARK  status: ('A' for Active; 'I' for Inactive)
REMARK    1  A    between atoms: N_3  and  O_4 
ROOT
HETATM    1  C   UNL     1      67.818   6.276   7.597  1.00  0.00     0.097 C 
HETATM    2  N   UNL     1      68.944   5.931   8.323  1.00  0.00    -0.378 N 
HETATM    3  N   UNL     1      67.038   7.227   8.033  1.00  0.00    -0.257 N 
HETATM    4  C   UNL     1      67.570   5.477   6.323  1.00  0.00     0.078 C 
HETATM    5  C   UNL     1      68.812   4.760   9.184  1.00  0.00     0.121 C 
HETATM    6  C   UNL     1      69.211   3.477   8.455  1.00  0.00     0.020 C 
HETATM    7  C   UNL     1      67.433   3.980   6.625  1.00  0.00     0.007 C 
HETATM    8  C   UNL     1      68.765   3.325   6.995  1.00  0.00     0.002 C 
HETATM    9  H   UNL     1      69.783   6.442   8.263  1.00  0.00     0.160 HD
HETATM   10  H   UNL     1      67.193   7.720   8.870  1.00  0.00     0.195 HD
ENDROOT
BRANCH   3  11
HETATM   11  O   UNL     1      65.958   7.468   7.180  1.00  0.00    -0.288 OA
HETATM   12  H   UNL     1      65.705   8.349   6.983  1.00  0.00     0.244 HD
ENDBRANCH   3  11
TORSDOF 1
ENDMDL
