MODEL 1
REMARK VINA RESULT:      -4.2      0.000      0.000
REMARK  3 active torsions:
REMARK  status: ('A' for Active; 'I' for Inactive)
REMARK    1  A    between atoms: C_1  and  S_4 
REMARK    2  A    between atoms: C_2  and  O_5 
REMARK    3  A    between atoms: C_3  and  O_6 
ROOT
HETATM    1  C   UNL     1      78.053  11.387  19.654  1.00  0.00     0.067 A 
HETATM    2  C   UNL     1      78.500  11.933  20.885  1.00  0.00     0.087 A 
HETATM    3  C   UNL     1      77.035  12.089  18.964  1.00  0.00     0.087 A 
HETATM    4  C   UNL     1      77.009  13.837  20.658  1.00  0.00     0.006 A 
HETATM    5  C   UNL     1      77.979  13.141  21.376  1.00  0.00     0.038 A 
HETATM    6  C   UNL     1      76.537  13.304  19.466  1.00  0.00     0.038 A 
ENDROOT
BRANCH   1   7
HETATM    7  S   UNL     1      78.998  10.082  18.834  1.00  0.00    -0.129 SA
HETATM    8  C   UNL     1      77.709   8.898  18.351  1.00  0.00     0.096 C 
ENDBRANCH   1   7
BRANCH   2   9
HETATM    9  O   UNL     1      79.591  11.490  21.589  1.00  0.00    -0.354 OA
HETATM   10  C   UNL     1      80.375  12.526  22.170  1.00  0.00     0.210 C 
ENDBRANCH   2   9
BRANCH   3  11
HETATM   11  O   UNL     1      76.571  11.818  17.699  1.00  0.00    -0.354 OA
HETATM   12  C   UNL     1      76.486  12.922  16.811  1.00  0.00     0.210 C 
ENDBRANCH   3  11
TORSDOF 3
ENDMDL
MODEL 2
REMARK VINA RESULT:      -4.1     19.619     22.314
REMARK  3 active torsions:
REMARK  status: ('A' for Active; 'I' for Inactive)
REMARK    1  A    between atoms: C_1  and  S_4 
REMARK    2  A    between atoms: C_2  and  O_5 
REMARK    3  A    between atoms: C_3  and  O_6 
ROOT
HETATM    1  C   UNL     1      63.063   8.477   3.768  1.00  0.00     0.067 A 
HETATM    2  C   UNL     1      62.224   9.304   2.977  1.00  0.00     0.087 A 
HETATM    3  C   UNL     1      63.586   9.034   4.961  1.00  0.00     0.087 A 
HETATM    4  C   UNL     1      62.389  11.119   4.582  1.00  0.00     0.006 A 
HETATM    5  C   UNL     1      61.897  10.607   3.383  1.00  0.00     0.038 A 
HETATM    6  C   UNL     1      63.235  10.337   5.355  1.00  0.00     0.038 A 
ENDROOT
BRANCH   1   7
HETATM    7  S   UNL     1      63.144   6.696   3.464  1.00  0.00    -0.129 SA
HETATM    8  C   UNL     1      61.610   6.091   4.223  1.00  0.00     0.096 C 
ENDBRANCH   1   7
BRANCH   2   9
HETATM    9  O   UNL     1      61.493   8.874   1.898  1.00  0.00    -0.354 OA
HETATM   10  C   UNL     1      62.173   8.973   0.653  1.00  0.00     0.210 C 
ENDBRANCH   2   9
BRANCH   3  11
HETATM   11  O   UNL     1      64.288   8.364   5.934  1.00  0.00    -0.354 OA
HETATM   12  C   UNL     1      65.687   8.238   5.724  1.00  0.00     0.210 C 
ENDBRANCH   3  11
TORSDOF 3
ENDMDL
MODEL 3
REMARK VINA RESULT:      -4.0     18.447     20.571
REMARK  3 active torsions:
REMARK  status: ('A' for Active; 'I' for Inactive)
REMARK    1  A    between atoms: C_1  and  S_4 
REMARK    2  A    between atoms: C_2  and  O_5 
REMARK    3  A    between atoms: C_3  and  O_6 
ROOT
HETATM    1  C   UNL     1      65.413   7.925   4.979  1.00  0.00     0.067 A 
HETATM    2  C   UNL     1      65.314   6.815   4.101  1.00  0.00     0.087 A 
HETATM    3  C   UNL     1      64.402   8.913   4.892  1.00  0.00     0.087 A 
HETATM    4  C   UNL     1      63.231   7.650   3.173  1.00  0.00     0.006 A 
HETATM    5  C   UNL     1      64.237   6.686   3.211  1.00  0.00     0.038 A 
HETATM    6  C   UNL     1      63.324   8.758   4.003  1.00  0.00     0.038 A 
ENDROOT
BRANCH   1   7
HETATM    7  S   UNL     1      66.549   7.883   6.385  1.00  0.00    -0.129 SA
HETATM    8  C   UNL     1      65.737   6.722   7.521  1.00  0.00     0.096 C 
ENDBRANCH   1   7
BRANCH   2   9
HETATM    9  O   UNL     1      66.094   5.688   4.172  1.00  0.00    -0.354 OA
HETATM   10  C   UNL     1      65.377   4.497   4.472  1.00  0.00     0.210 C 
ENDBRANCH   2   9
BRANCH   3  11
HETATM   11  O   UNL     1      64.229   9.979   5.742  1.00  0.00    -0.354 OA
HETATM   12  C   UNL     1      63.058  10.757   5.543  1.00  0.00     0.210 C 
ENDBRANCH   3  11
TORSDOF 3
ENDMDL
MODEL 4
REMARK VINA RESULT:      -4.0      0.284      3.695
REMARK  3 active torsions:
REMARK  status: ('A' for Active; 'I' for Inactive)
REMARK    1  A    between atoms: C_1  and  S_4 
REMARK    2  A    between atoms: C_2  and  O_5 
REMARK    3  A    between atoms: C_3  and  O_6 
ROOT
HETATM    1  C   UNL     1      78.254  11.667  19.625  1.00  0.00     0.067 A 
HETATM    2  C   UNL     1      77.165  12.286  18.958  1.00  0.00     0.087 A 
HETATM    3  C   UNL     1      78.543  12.104  20.940  1.00  0.00     0.087 A 
HETATM    4  C   UNL     1      76.663  13.650  20.904  1.00  0.00     0.006 A 
HETATM    5  C   UNL     1      76.386  13.265  19.593  1.00  0.00     0.038 A 
HETATM    6  C   UNL     1      77.741  13.077  21.563  1.00  0.00     0.038 A 
ENDROOT
BRANCH   1   7
HETATM    7  S   UNL     1      78.980  10.144  18.974  1.00  0.00    -0.129 SA
HETATM    8  C   UNL     1      77.528   9.082  18.727  1.00  0.00     0.096 C 
ENDBRANCH   1   7
BRANCH   2   9
HETATM    9  O   UNL     1      76.636  11.865  17.764  1.00  0.00    -0.354 OA
HETATM   10  C   UNL     1      76.478  12.897  16.797  1.00  0.00     0.210 C 
ENDBRANCH   2   9
BRANCH   3  11
HETATM   11  O   UNL     1      79.448  11.540  21.807  1.00  0.00    -0.354 OA
HETATM   12  C   UNL     1      80.339  12.435  22.455  1.00  0.00     0.210 C 
ENDBRANCH   3  11
TORSDOF 3
ENDMDL
MODEL 5
REMARK VINA RESULT:      -3.9     19.763     22.146
REMARK  3 active torsions:
REMARK  status: ('A' for Active; 'I' for Inactive)
REMARK    1  A    between atoms: C_1  and  S_4 
REMARK    2  A    between atoms: C_2  and  O_5 
REMARK    3  A    between atoms: C_3  and  O_6 
ROOT
HETATM    1  C   UNL     1      62.351   8.073   4.223  1.00  0.00     0.067 A 
HETATM    2  C   UNL     1      63.102   8.722   5.236  1.00  0.00     0.087 A 
HETATM    3  C   UNL     1      61.612   8.893   3.336  1.00  0.00     0.087 A 
HETATM    4  C   UNL     1      62.437  10.911   4.419  1.00  0.00     0.006 A 
HETATM    5  C   UNL     1      63.138  10.122   5.329  1.00  0.00     0.038 A 
HETATM    6  C   UNL     1      61.673  10.294   3.438  1.00  0.00     0.038 A 
ENDROOT
BRANCH   1   7
HETATM    7  S   UNL     1      62.632   6.325   3.851  1.00  0.00    -0.129 SA
HETATM    8  C   UNL     1      63.977   6.387   2.633  1.00  0.00     0.096 C 
ENDBRANCH   1   7
BRANCH   2   9
HETATM    9  O   UNL     1      64.010   8.102   6.058  1.00  0.00    -0.354 OA
HETATM   10  C   UNL     1      65.365   8.246   5.649  1.00  0.00     0.210 C 
ENDBRANCH   2   9
BRANCH   3  11
HETATM   11  O   UNL     1      60.947   8.480   2.206  1.00  0.00    -0.354 OA
HETATM   12  C   UNL     1      61.536   8.838   0.965  1.00  0.00     0.210 C 
ENDBRANCH   3  11
TORSDOF 3
ENDMDL
MODEL 6
REMARK VINA RESULT:      -3.7     16.460     18.127
REMARK  3 active torsions:
REMARK  status: ('A' for Active; 'I' for Inactive)
REMARK    1  A    between atoms: C_1  and  S_4 
REMARK    2  A    between atoms: C_2  and  O_5 
REMARK    3  A    between atoms: C_3  and  O_6 
ROOT
HETATM    1  C   UNL     1      67.247   5.065   6.710  1.00  0.00     0.067 A 
HETATM    2  C   UNL     1      66.553   6.156   7.295  1.00  0.00     0.087 A 
HETATM    3  C   UNL     1      68.337   4.526   7.435  1.00  0.00     0.087 A 
HETATM    4  C   UNL     1      67.962   6.078   9.272  1.00  0.00     0.006 A 
HETATM    5  C   UNL     1      66.912   6.652   8.557  1.00  0.00     0.038 A 
HETATM    6  C   UNL     1      68.672   5.030   8.705  1.00  0.00     0.038 A 
ENDROOT
BRANCH   1   7
HETATM    7  S   UNL     1      66.537   4.174   5.306  1.00  0.00    -0.129 SA
HETATM    8  C   UNL     1      67.165   5.108   3.881  1.00  0.00     0.096 C 
ENDBRANCH   1   7
BRANCH   2   9
HETATM    9  O   UNL     1      65.374   6.678   6.824  1.00  0.00    -0.354 OA
HETATM   10  C   UNL     1      65.532   7.801   5.965  1.00  0.00     0.210 C 
ENDBRANCH   2   9
BRANCH   3  11
HETATM   11  O   UNL     1      69.041   3.387   7.123  1.00  0.00    -0.354 OA
HETATM   12  C   UNL     1      68.865   2.282   7.997  1.00  0.00     0.210 C 
ENDBRANCH   3  11
TORSDOF 3
ENDMDL
MODEL 7
REMARK VINA RESULT:      -3.6     16.196     17.809
REMARK  3 active torsions:
REMARK  status: ('A' for Active; 'I' for Inactive)
REMARK    1  A    between atoms: C_1  and  S_4 
REMARK    2  A    between atoms: C_2  and  O_5 
REMARK    3  A    between atoms: C_3  and  O_6 
ROOT
HETATM    1  C   UNL     1      68.265   4.183   6.967  1.00  0.00     0.067 A 
HETATM    2  C   UNL     1      68.116   5.396   7.689  1.00  0.00     0.087 A 
HETATM    3  C   UNL     1      68.901   3.106   7.631  1.00  0.00     0.087 A 
HETATM    4  C   UNL     1      69.135   4.420   9.666  1.00  0.00     0.006 A 
HETATM    5  C   UNL     1      68.550   5.507   9.019  1.00  0.00     0.038 A 
HETATM    6  C   UNL     1      69.315   3.235   8.968  1.00  0.00     0.038 A 
ENDROOT
BRANCH   1   7
HETATM    7  S   UNL     1      67.350   3.914   5.430  1.00  0.00    -0.129 SA
HETATM    8  C   UNL     1      65.745   3.304   6.021  1.00  0.00     0.096 C 
ENDBRANCH   1   7
BRANCH   2   9
HETATM    9  O   UNL     1      67.372   6.470   7.271  1.00  0.00    -0.354 OA
HETATM   10  C   UNL     1      66.127   6.618   7.945  1.00  0.00     0.210 C 
ENDBRANCH   2   9
BRANCH   3  11
HETATM   11  O   UNL     1      69.009   1.815   7.172  1.00  0.00    -0.354 OA
HETATM   12  C   UNL     1      68.229   0.841   7.850  1.00  0.00     0.210 C 
ENDBRANCH   3  11
TORSDOF 3
ENDMDL
MODEL 8
REMARK VINA RESULT:      -3.6     23.132     24.586
REMARK  3 active torsions:
REMARK  status: ('A' for Active; 'I' for Inactive)
REMARK    1  A    between atoms: C_1  and  S_4 
REMARK    2  A    between atoms: C_2  and  O_5 
REMARK    3  A    between atoms: C_3  and  O_6 
ROOT
HETATM    1  C   UNL     1      56.450   1.736  12.835  1.00  0.00     0.067 A 
HETATM    2  C   UNL     1      57.549   2.366  12.196  1.00  0.00     0.087 A 
HETATM    3  C   UNL     1      56.742   0.810  13.865  1.00  0.00     0.087 A 
HETATM    4  C   UNL     1      59.130   1.225  13.644  1.00  0.00     0.006 A 
HETATM    5  C   UNL     1      58.868   2.108  12.598  1.00  0.00     0.038 A 
HETATM    6  C   UNL     1      58.070   0.575  14.262  1.00  0.00     0.038 A 
ENDROOT
BRANCH   1   7
HETATM    7  S   UNL     1      54.771   2.368  12.606  1.00  0.00    -0.129 SA
HETATM    8  C   UNL     1      54.652   3.656  13.881  1.00  0.00     0.096 C 
ENDBRANCH   1   7
BRANCH   2   9
HETATM    9  O   UNL     1      57.448   3.412  11.313  1.00  0.00    -0.354 OA
HETATM   10  C   UNL     1      58.415   3.394  10.270  1.00  0.00     0.210 C 
ENDBRANCH   2   9
BRANCH   3  11
HETATM   11  O   UNL     1      55.833   0.209  14.703  1.00  0.00    -0.354 OA
HETATM   12  C   UNL     1      55.382  -1.082  14.318  1.00  0.00     0.210 C 
ENDBRANCH   3  11
TORSDOF 3
ENDMDL
MODEL 9
REMARK VINA RESULT:      -3.6     16.152     17.494
REMARK  3 active torsions:
REMARK  status: ('A' for Active; 'I' for Inactive)
REMARK    1  A    between atoms: C_1  and  S_4 
REMARK    2  A    between atoms: C_2  and  O_5 
REMARK    3  A    between atoms: C_3  and  O_6 
ROOT
HETATM    1  C   UNL     1      67.417   3.188   8.181  1.00  0.00     0.067 A 
HETATM    2  C   UNL     1      68.202   3.220   9.363  1.00  0.00     0.087 A 
HETATM    3  C   UNL     1      67.530   4.287   7.296  1.00  0.00     0.087 A 
HETATM    4  C   UNL     1      69.208   5.334   8.715  1.00  0.00     0.006 A 
HETATM    5  C   UNL     1      69.081   4.283   9.621  1.00  0.00     0.038 A 
HETATM    6  C   UNL     1      68.427   5.336   7.568  1.00  0.00     0.038 A 
ENDROOT
BRANCH   1   7
HETATM    7  S   UNL     1      66.615   1.654   7.656  1.00  0.00    -0.129 SA
HETATM    8  C   UNL     1      67.976   0.738   6.877  1.00  0.00     0.096 C 
ENDBRANCH   1   7
BRANCH   2   9
HETATM    9  O   UNL     1      68.353   2.170  10.232  1.00  0.00    -0.354 OA
HETATM   10  C   UNL     1      69.653   1.592  10.232  1.00  0.00     0.210 C 
ENDBRANCH   2   9
BRANCH   3  11
HETATM   11  O   UNL     1      66.979   4.384   6.041  1.00  0.00    -0.354 OA
HETATM   12  C   UNL     1      67.303   5.552   5.301  1.00  0.00     0.210 C 
ENDBRANCH   3  11
TORSDOF 3
ENDMDL
