MODEL 1
REMARK VINA RESULT:      -4.1      0.000      0.000
REMARK  1 active torsions:
REMARK  status: ('A' for Active; 'I' for Inactive)
REMARK    1  A    between atoms: C_3  and  N_7 
ROOT
HETATM    1  N   UNL     1      77.413   3.890  17.974  1.00  0.00    -0.301 N 
ATOM      2  HN  UNL     1      78.352   4.091  18.317  1.00  0.00     0.187 HD
HETATM    3  C   UNL     1      75.317   4.090  17.124  1.00  0.00     0.073 A 
HETATM    4  N   UNL     1      76.800   2.693  17.887  1.00  0.00    -0.299 N 
HETATM    5  C   UNL     1      75.527   2.757  17.377  1.00  0.00     0.052 A 
HETATM    6  C   UNL     1      76.503   4.755  17.506  1.00  0.00     0.050 A 
HETATM    7  C   UNL     1      74.644   1.582  17.181  1.00  0.00     0.072 C 
HETATM    8  C   UNL     1      77.508   1.510  18.319  1.00  0.00     0.177 C 
HETATM    9  C   UNL     1      76.806   6.204  17.439  1.00  0.00     0.072 C 
ENDROOT
BRANCH   3  10
HETATM   10  N   UNL     1      74.192   4.616  16.616  1.00  0.00    -0.396 N 
HETATM   11  H   UNL     1      73.339   4.511  17.096  1.00  0.00     0.156 HD
HETATM   12  H   UNL     1      74.220   5.107  15.763  1.00  0.00     0.156 HD
ENDBRANCH   3  10
TORSDOF 1
ENDMDL
MODEL 2
REMARK VINA RESULT:      -3.9     19.404     20.772
REMARK  1 active torsions:
REMARK  status: ('A' for Active; 'I' for Inactive)
REMARK    1  A    between atoms: C_3  and  N_7 
ROOT
HETATM    1  N   UNL     1      62.781   8.286   2.953  1.00  0.00    -0.301 N 
ATOM      2  HN  UNL     1      63.033   7.319   2.748  1.00  0.00     0.187 HD
HETATM    3  C   UNL     1      62.019  10.419   2.789  1.00  0.00     0.073 A 
HETATM    4  N   UNL     1      62.943   8.957   4.110  1.00  0.00    -0.299 N 
HETATM    5  C   UNL     1      62.496  10.255   4.066  1.00  0.00     0.052 A 
HETATM    6  C   UNL     1      62.213   9.181   2.134  1.00  0.00     0.050 A 
HETATM    7  C   UNL     1      62.560  11.201   5.206  1.00  0.00     0.072 C 
HETATM    8  C   UNL     1      63.543   8.279   5.236  1.00  0.00     0.177 C 
HETATM    9  C   UNL     1      61.871   8.816   0.740  1.00  0.00     0.072 C 
ENDROOT
BRANCH   3  10
HETATM   10  N   UNL     1      61.483  11.547   2.299  1.00  0.00    -0.396 N 
HETATM   11  H   UNL     1      61.625  11.789   1.355  1.00  0.00     0.156 HD
HETATM   12  H   UNL     1      60.947  12.131   2.883  1.00  0.00     0.156 HD
ENDBRANCH   3  10
TORSDOF 1
ENDMDL
MODEL 3
REMARK VINA RESULT:      -3.8     19.628     20.803
REMARK  1 active torsions:
REMARK  status: ('A' for Active; 'I' for Inactive)
REMARK    1  A    between atoms: C_3  and  N_7 
ROOT
HETATM    1  N   UNL     1      63.014   8.979   4.265  1.00  0.00    -0.301 N 
ATOM      2  HN  UNL     1      63.432   8.573   5.102  1.00  0.00     0.187 HD
HETATM    3  C   UNL     1      62.037  10.403   2.792  1.00  0.00     0.073 A 
HETATM    4  N   UNL     1      62.819   8.392   3.068  1.00  0.00    -0.299 N 
HETATM    5  C   UNL     1      62.230   9.212   2.137  1.00  0.00     0.052 A 
HETATM    6  C   UNL     1      62.534  10.219   4.101  1.00  0.00     0.050 A 
HETATM    7  C   UNL     1      61.910   8.807   0.747  1.00  0.00     0.072 C 
HETATM    8  C   UNL     1      63.229   7.019   2.885  1.00  0.00     0.177 C 
HETATM    9  C   UNL     1      62.568  11.193   5.217  1.00  0.00     0.072 C 
ENDROOT
BRANCH   3  10
HETATM   10  N   UNL     1      61.481  11.502   2.257  1.00  0.00    -0.396 N 
HETATM   11  H   UNL     1      61.276  12.277   2.829  1.00  0.00     0.156 HD
HETATM   12  H   UNL     1      61.280  11.533   1.294  1.00  0.00     0.156 HD
ENDBRANCH   3  10
TORSDOF 1
ENDMDL
MODEL 4
REMARK VINA RESULT:      -3.7      2.292      3.655
REMARK  1 active torsions:
REMARK  status: ('A' for Active; 'I' for Inactive)
REMARK    1  A    between atoms: C_3  and  N_7 
ROOT
HETATM    1  N   UNL     1      77.687   0.170  17.844  1.00  0.00    -0.301 N 
ATOM      2  HN  UNL     1      78.057  -0.766  17.676  1.00  0.00     0.187 HD
HETATM    3  C   UNL     1      77.287   2.229  18.711  1.00  0.00     0.073 A 
HETATM    4  N   UNL     1      76.744   0.827  17.139  1.00  0.00    -0.299 N 
HETATM    5  C   UNL     1      76.465   2.082  17.622  1.00  0.00     0.052 A 
HETATM    6  C   UNL     1      78.025   1.029  18.815  1.00  0.00     0.050 A 
HETATM    7  C   UNL     1      75.470   3.005  17.026  1.00  0.00     0.072 C 
HETATM    8  C   UNL     1      76.146   0.179  15.995  1.00  0.00     0.177 C 
HETATM    9  C   UNL     1      79.054   0.665  19.817  1.00  0.00     0.072 C 
ENDROOT
BRANCH   3  10
HETATM   10  N   UNL     1      77.347   3.315  19.497  1.00  0.00    -0.396 N 
HETATM   11  H   UNL     1      77.145   4.204  19.125  1.00  0.00     0.156 HD
HETATM   12  H   UNL     1      77.594   3.223  20.446  1.00  0.00     0.156 HD
ENDBRANCH   3  10
TORSDOF 1
ENDMDL
MODEL 5
REMARK VINA RESULT:      -3.7      1.479      2.904
REMARK  1 active torsions:
REMARK  status: ('A' for Active; 'I' for Inactive)
REMARK    1  A    between atoms: C_3  and  N_7 
ROOT
HETATM    1  N   UNL     1      75.408   3.018  17.204  1.00  0.00    -0.301 N 
ATOM      2  HN  UNL     1      74.728   3.612  16.729  1.00  0.00     0.187 HD
HETATM    3  C   UNL     1      77.201   2.273  18.381  1.00  0.00     0.073 A 
HETATM    4  N   UNL     1      75.395   1.676  17.325  1.00  0.00    -0.299 N 
HETATM    5  C   UNL     1      76.460   1.172  18.031  1.00  0.00     0.052 A 
HETATM    6  C   UNL     1      76.519   3.392  17.852  1.00  0.00     0.050 A 
HETATM    7  C   UNL     1      76.676  -0.269  18.304  1.00  0.00     0.072 C 
HETATM    8  C   UNL     1      74.312   0.928  16.729  1.00  0.00     0.177 C 
HETATM    9  C   UNL     1      76.891   4.823  17.943  1.00  0.00     0.072 C 
ENDROOT
BRANCH   3  10
HETATM   10  N   UNL     1      78.343   2.249  19.085  1.00  0.00    -0.396 N 
HETATM   11  H   UNL     1      78.398   1.724  19.916  1.00  0.00     0.156 HD
HETATM   12  H   UNL     1      79.126   2.756  18.771  1.00  0.00     0.156 HD
ENDBRANCH   3  10
TORSDOF 1
ENDMDL
MODEL 6
REMARK VINA RESULT:      -3.7     19.327     20.670
REMARK  1 active torsions:
REMARK  status: ('A' for Active; 'I' for Inactive)
REMARK    1  A    between atoms: C_3  and  N_7 
ROOT
HETATM    1  N   UNL     1      61.780   9.401   2.217  1.00  0.00    -0.301 N 
ATOM      2  HN  UNL     1      61.485   9.219   1.258  1.00  0.00     0.187 HD
HETATM    3  C   UNL     1      62.366  10.425   4.157  1.00  0.00     0.073 A 
HETATM    4  N   UNL     1      62.090   8.504   3.174  1.00  0.00    -0.299 N 
HETATM    5  C   UNL     1      62.451   9.072   4.371  1.00  0.00     0.052 A 
HETATM    6  C   UNL     1      61.949  10.587   2.817  1.00  0.00     0.050 A 
HETATM    7  C   UNL     1      62.835   8.303   5.579  1.00  0.00     0.072 C 
HETATM    8  C   UNL     1      62.015   7.094   2.864  1.00  0.00     0.177 C 
HETATM    9  C   UNL     1      61.702  11.847   2.077  1.00  0.00     0.072 C 
ENDROOT
BRANCH   3  10
HETATM   10  N   UNL     1      62.635  11.373   5.067  1.00  0.00    -0.396 N 
HETATM   11  H   UNL     1      62.036  12.148   5.163  1.00  0.00     0.156 HD
HETATM   12  H   UNL     1      63.432  11.293   5.640  1.00  0.00     0.156 HD
ENDBRANCH   3  10
TORSDOF 1
ENDMDL
MODEL 7
REMARK VINA RESULT:      -3.6     10.294     12.012
REMARK  1 active torsions:
REMARK  status: ('A' for Active; 'I' for Inactive)
REMARK    1  A    between atoms: C_3  and  N_7 
ROOT
HETATM    1  N   UNL     1      67.085   2.642   8.658  1.00  0.00    -0.301 N 
ATOM      2  HN  UNL     1      66.237   2.206   8.296  1.00  0.00     0.187 HD
HETATM    3  C   UNL     1      68.951   3.102   9.867  1.00  0.00     0.073 A 
HETATM    4  N   UNL     1      67.682   3.773   8.232  1.00  0.00    -0.299 N 
HETATM    5  C   UNL     1      68.820   4.097   8.930  1.00  0.00     0.052 A 
HETATM    6  C   UNL     1      67.862   2.224   9.666  1.00  0.00     0.050 A 
HETATM    7  C   UNL     1      69.659   5.288   8.657  1.00  0.00     0.072 C 
HETATM    8  C   UNL     1      67.097   4.504   7.131  1.00  0.00     0.177 C 
HETATM    9  C   UNL     1      67.530   0.986  10.408  1.00  0.00     0.072 C 
ENDROOT
BRANCH   3  10
HETATM   10  N   UNL     1      69.935   3.016  10.775  1.00  0.00    -0.396 N 
HETATM   11  H   UNL     1      69.878   3.531  11.612  1.00  0.00     0.156 HD
HETATM   12  H   UNL     1      70.713   2.437  10.606  1.00  0.00     0.156 HD
ENDBRANCH   3  10
TORSDOF 1
ENDMDL
MODEL 8
REMARK VINA RESULT:      -3.5     11.020     12.347
REMARK  1 active torsions:
REMARK  status: ('A' for Active; 'I' for Inactive)
REMARK    1  A    between atoms: C_3  and  N_7 
ROOT
HETATM    1  N   UNL     1      67.157   3.470   8.836  1.00  0.00    -0.301 N 
ATOM      2  HN  UNL     1      66.500   2.742   9.116  1.00  0.00     0.187 HD
HETATM    3  C   UNL     1      68.092   5.317   7.904  1.00  0.00     0.073 A 
HETATM    4  N   UNL     1      68.462   3.577   9.156  1.00  0.00    -0.299 N 
HETATM    5  C   UNL     1      69.076   4.681   8.618  1.00  0.00     0.052 A 
HETATM    6  C   UNL     1      66.924   4.539   8.063  1.00  0.00     0.050 A 
HETATM    7  C   UNL     1      70.504   5.025   8.822  1.00  0.00     0.072 C 
HETATM    8  C   UNL     1      69.062   2.568   9.998  1.00  0.00     0.177 C 
HETATM    9  C   UNL     1      65.575   4.780   7.499  1.00  0.00     0.072 C 
ENDROOT
BRANCH   3  10
HETATM   10  N   UNL     1      68.250   6.451   7.205  1.00  0.00    -0.396 N 
HETATM   11  H   UNL     1      68.269   6.425   6.221  1.00  0.00     0.156 HD
HETATM   12  H   UNL     1      68.346   7.310   7.676  1.00  0.00     0.156 HD
ENDBRANCH   3  10
TORSDOF 1
ENDMDL
MODEL 9
REMARK VINA RESULT:      -3.5     11.914     13.282
REMARK  1 active torsions:
REMARK  status: ('A' for Active; 'I' for Inactive)
REMARK    1  A    between atoms: C_3  and  N_7 
ROOT
HETATM    1  N   UNL     1      68.516   6.194   7.849  1.00  0.00    -0.301 N 
ATOM      2  HN  UNL     1      69.222   6.928   7.790  1.00  0.00     0.187 HD
HETATM    3  C   UNL     1      67.432   4.245   8.274  1.00  0.00     0.073 A 
HETATM    4  N   UNL     1      67.244   6.230   7.404  1.00  0.00    -0.299 N 
HETATM    5  C   UNL     1      66.542   5.073   7.638  1.00  0.00     0.052 A 
HETATM    6  C   UNL     1      68.638   4.973   8.385  1.00  0.00     0.050 A 
HETATM    7  C   UNL     1      65.128   4.860   7.247  1.00  0.00     0.072 C 
HETATM    8  C   UNL     1      66.762   7.427   6.754  1.00  0.00     0.177 C 
HETATM    9  C   UNL     1      69.919   4.542   8.993  1.00  0.00     0.072 C 
ENDROOT
BRANCH   3  10
HETATM   10  N   UNL     1      67.170   2.997   8.691  1.00  0.00    -0.396 N 
HETATM   11  H   UNL     1      66.611   2.852   9.488  1.00  0.00     0.156 HD
HETATM   12  H   UNL     1      67.536   2.226   8.200  1.00  0.00     0.156 HD
ENDBRANCH   3  10
TORSDOF 1
ENDMDL
