MODEL 1
REMARK VINA RESULT:      -5.6      0.000      0.000
REMARK  3 active torsions:
REMARK  status: ('A' for Active; 'I' for Inactive)
REMARK    1  A    between atoms: C_3  and  C_9 
REMARK    2  A    between atoms: C_9  and  O_11 
REMARK    3  A    between atoms: O_11  and  C_12 
ROOT
HETATM    1  N   UNL     1      70.133   3.407  10.059  1.00  0.00    -0.191 NA
HETATM    2  C   UNL     1      69.408   4.145   9.527  1.00  0.00     0.099 C 
HETATM    3  C   UNL     1      68.524   5.055   8.864  1.00  0.00     0.044 A 
HETATM    4  C   UNL     1      66.859   6.888   7.552  1.00  0.00     0.069 A 
HETATM    5  C   UNL     1      67.737   5.942   9.604  1.00  0.00     0.025 A 
HETATM    6  C   UNL     1      68.451   5.065   7.468  1.00  0.00     0.025 A 
HETATM    7  C   UNL     1      66.901   6.850   8.947  1.00  0.00     0.038 A 
HETATM    8  C   UNL     1      67.611   5.970   6.814  1.00  0.00     0.038 A 
ENDROOT
BRANCH   4   9
HETATM    9  O   UNL     1      66.057   7.857   7.012  1.00  0.00    -0.345 OA
BRANCH   9  10
HETATM   10  C   UNL     1      65.929   7.812   5.584  1.00  0.00     0.233 C 
BRANCH  10  11
HETATM   11  C   UNL     1      64.507   7.907   5.125  1.00  0.00     0.041 A 
HETATM   12  N   UNL     1      64.065   9.134   4.643  1.00  0.00    -0.355 N 
HETATM   13  C   UNL     1      62.783   9.077   4.361  1.00  0.00     0.047 A 
ATOM     14  HN  UNL     1      64.652   9.960   4.525  1.00  0.00     0.166 HD
HETATM   15  S   UNL     1      62.042   7.547   4.600  1.00  0.00    -0.087 SA
HETATM   16  C   UNL     1      61.977  10.237   3.897  1.00  0.00     0.076 C 
HETATM   17  C   UNL     1      63.536   6.923   5.159  1.00  0.00     0.078 A 
ENDBRANCH  10  11
ENDBRANCH   9  10
ENDBRANCH   4   9
TORSDOF 3
ENDMDL
MODEL 2
REMARK VINA RESULT:      -5.5     14.401     15.810
REMARK  3 active torsions:
REMARK  status: ('A' for Active; 'I' for Inactive)
REMARK    1  A    between atoms: C_3  and  C_9 
REMARK    2  A    between atoms: C_9  and  O_11 
REMARK    3  A    between atoms: O_11  and  C_12 
ROOT
HETATM    1  N   UNL     1      77.130   7.782  17.572  1.00  0.00    -0.191 NA
HETATM    2  C   UNL     1      76.783   6.674  17.538  1.00  0.00     0.099 C 
HETATM    3  C   UNL     1      76.365   5.305  17.496  1.00  0.00     0.044 A 
HETATM    4  C   UNL     1      75.608   2.610  17.356  1.00  0.00     0.069 A 
HETATM    5  C   UNL     1      75.242   4.930  16.754  1.00  0.00     0.025 A 
HETATM    6  C   UNL     1      77.089   4.333  18.195  1.00  0.00     0.025 A 
HETATM    7  C   UNL     1      74.862   3.586  16.692  1.00  0.00     0.038 A 
HETATM    8  C   UNL     1      76.703   2.992  18.135  1.00  0.00     0.038 A 
ENDROOT
BRANCH   4   9
HETATM    9  O   UNL     1      75.185   1.320  17.176  1.00  0.00    -0.345 OA
BRANCH   9  10
HETATM   10  C   UNL     1      76.234   0.355  17.015  1.00  0.00     0.233 C 
BRANCH  10  11
HETATM   11  C   UNL     1      76.479  -0.002  15.582  1.00  0.00     0.041 A 
HETATM   12  N   UNL     1      77.724  -0.525  15.251  1.00  0.00    -0.355 N 
HETATM   13  C   UNL     1      77.810  -0.707  13.953  1.00  0.00     0.047 A 
ATOM     14  HN  UNL     1      78.464  -0.737  15.920  1.00  0.00     0.166 HD
HETATM   15  S   UNL     1      76.398  -0.319  13.057  1.00  0.00    -0.087 SA
HETATM   16  C   UNL     1      79.035  -1.180  13.255  1.00  0.00     0.076 C 
HETATM   17  C   UNL     1      75.625   0.165  14.508  1.00  0.00     0.078 A 
ENDBRANCH  10  11
ENDBRANCH   9  10
ENDBRANCH   4   9
TORSDOF 3
ENDMDL
MODEL 3
REMARK VINA RESULT:      -5.1      1.967      2.795
REMARK  3 active torsions:
REMARK  status: ('A' for Active; 'I' for Inactive)
REMARK    1  A    between atoms: C_3  and  C_9 
REMARK    2  A    between atoms: C_9  and  O_11 
REMARK    3  A    between atoms: O_11  and  C_12 
ROOT
HETATM    1  N   UNL     1      69.028   4.653   8.439  1.00  0.00    -0.191 NA
HETATM    2  C   UNL     1      68.345   5.362   7.822  1.00  0.00     0.099 C 
HETATM    3  C   UNL     1      67.513   6.244   7.060  1.00  0.00     0.044 A 
HETATM    4  C   UNL     1      65.922   8.035   5.606  1.00  0.00     0.069 A 
HETATM    5  C   UNL     1      66.197   6.494   7.457  1.00  0.00     0.025 A 
HETATM    6  C   UNL     1      68.020   6.866   5.915  1.00  0.00     0.025 A 
HETATM    7  C   UNL     1      65.403   7.382   6.725  1.00  0.00     0.038 A 
HETATM    8  C   UNL     1      67.222   7.749   5.183  1.00  0.00     0.038 A 
ENDROOT
BRANCH   4   9
HETATM    9  O   UNL     1      65.080   8.930   5.002  1.00  0.00    -0.345 OA
BRANCH   9  10
HETATM   10  C   UNL     1      63.691   8.573   5.034  1.00  0.00     0.233 C 
BRANCH  10  11
HETATM   11  C   UNL     1      62.928   9.100   3.859  1.00  0.00     0.041 A 
HETATM   12  N   UNL     1      62.932   8.343   2.694  1.00  0.00    -0.355 N 
HETATM   13  C   UNL     1      62.293   8.976   1.737  1.00  0.00     0.047 A 
ATOM     14  HN  UNL     1      63.370   7.426   2.595  1.00  0.00     0.166 HD
HETATM   15  S   UNL     1      61.603  10.484   2.183  1.00  0.00    -0.087 SA
HETATM   16  C   UNL     1      62.177   8.481   0.339  1.00  0.00     0.076 C 
HETATM   17  C   UNL     1      62.238  10.294   3.762  1.00  0.00     0.078 A 
ENDBRANCH  10  11
ENDBRANCH   9  10
ENDBRANCH   4   9
TORSDOF 3
ENDMDL
MODEL 4
REMARK VINA RESULT:      -5.0     14.823     17.069
REMARK  3 active torsions:
REMARK  status: ('A' for Active; 'I' for Inactive)
REMARK    1  A    between atoms: C_3  and  C_9 
REMARK    2  A    between atoms: C_9  and  O_11 
REMARK    3  A    between atoms: O_11  and  C_12 
ROOT
HETATM    1  N   UNL     1      77.090   7.591  17.578  1.00  0.00    -0.191 NA
HETATM    2  C   UNL     1      76.753   6.480  17.521  1.00  0.00     0.099 C 
HETATM    3  C   UNL     1      76.349   5.108  17.450  1.00  0.00     0.044 A 
HETATM    4  C   UNL     1      75.618   2.410  17.252  1.00  0.00     0.069 A 
HETATM    5  C   UNL     1      75.225   4.739  16.706  1.00  0.00     0.025 A 
HETATM    6  C   UNL     1      77.086   4.128  18.122  1.00  0.00     0.025 A 
HETATM    7  C   UNL     1      74.858   3.393  16.615  1.00  0.00     0.038 A 
HETATM    8  C   UNL     1      76.713   2.784  18.034  1.00  0.00     0.038 A 
ENDROOT
BRANCH   4   9
HETATM    9  O   UNL     1      75.207   1.120  17.045  1.00  0.00    -0.345 OA
BRANCH   9  10
HETATM   10  C   UNL     1      74.369   0.578  18.076  1.00  0.00     0.233 C 
BRANCH  10  11
HETATM   11  C   UNL     1      74.908  -0.693  18.654  1.00  0.00     0.041 A 
HETATM   12  N   UNL     1      75.179  -0.719  20.017  1.00  0.00    -0.355 N 
HETATM   13  C   UNL     1      75.720  -1.868  20.351  1.00  0.00     0.047 A 
ATOM     14  HN  UNL     1      74.985   0.045  20.665  1.00  0.00     0.166 HD
HETATM   15  S   UNL     1      75.888  -3.005  19.075  1.00  0.00    -0.087 SA
HETATM   16  C   UNL     1      76.203  -2.198  21.719  1.00  0.00     0.076 C 
HETATM   17  C   UNL     1      75.223  -1.862  17.986  1.00  0.00     0.078 A 
ENDBRANCH  10  11
ENDBRANCH   9  10
ENDBRANCH   4   9
TORSDOF 3
ENDMDL
MODEL 5
REMARK VINA RESULT:      -4.9      2.747      7.315
REMARK  3 active torsions:
REMARK  status: ('A' for Active; 'I' for Inactive)
REMARK    1  A    between atoms: C_3  and  C_9 
REMARK    2  A    between atoms: C_9  and  O_11 
REMARK    3  A    between atoms: O_11  and  C_12 
ROOT
HETATM    1  N   UNL     1      60.302   7.878   2.329  1.00  0.00    -0.191 NA
HETATM    2  C   UNL     1      61.165   7.783   3.102  1.00  0.00     0.099 C 
HETATM    3  C   UNL     1      62.220   7.664   4.063  1.00  0.00     0.044 A 
HETATM    4  C   UNL     1      64.235   7.464   6.001  1.00  0.00     0.069 A 
HETATM    5  C   UNL     1      63.255   8.603   4.098  1.00  0.00     0.025 A 
HETATM    6  C   UNL     1      62.214   6.606   4.978  1.00  0.00     0.025 A 
HETATM    7  C   UNL     1      64.263   8.497   5.061  1.00  0.00     0.038 A 
HETATM    8  C   UNL     1      63.226   6.500   5.936  1.00  0.00     0.038 A 
ENDROOT
BRANCH   4   9
HETATM    9  O   UNL     1      65.234   7.492   6.937  1.00  0.00    -0.345 OA
BRANCH   9  10
HETATM   10  C   UNL     1      66.522   7.074   6.461  1.00  0.00     0.233 C 
BRANCH  10  11
HETATM   11  C   UNL     1      67.153   6.033   7.332  1.00  0.00     0.041 A 
HETATM   12  N   UNL     1      68.494   6.192   7.659  1.00  0.00    -0.355 N 
HETATM   13  C   UNL     1      68.918   5.161   8.354  1.00  0.00     0.047 A 
ATOM     14  HN  UNL     1      69.068   6.994   7.398  1.00  0.00     0.166 HD
HETATM   15  S   UNL     1      67.733   3.970   8.706  1.00  0.00    -0.087 SA
HETATM   16  C   UNL     1      70.325   4.974   8.799  1.00  0.00     0.076 C 
HETATM   17  C   UNL     1      66.575   4.881   7.832  1.00  0.00     0.078 A 
ENDBRANCH  10  11
ENDBRANCH   9  10
ENDBRANCH   4   9
TORSDOF 3
ENDMDL
MODEL 6
REMARK VINA RESULT:      -4.8      3.696      7.904
REMARK  3 active torsions:
REMARK  status: ('A' for Active; 'I' for Inactive)
REMARK    1  A    between atoms: C_3  and  C_9 
REMARK    2  A    between atoms: C_9  and  O_11 
REMARK    3  A    between atoms: O_11  and  C_12 
ROOT
HETATM    1  N   UNL     1      63.445   6.945   6.294  1.00  0.00    -0.191 NA
HETATM    2  C   UNL     1      64.481   6.598   6.691  1.00  0.00     0.099 C 
HETATM    3  C   UNL     1      65.756   6.161   7.174  1.00  0.00     0.044 A 
HETATM    4  C   UNL     1      68.222   5.229   8.127  1.00  0.00     0.069 A 
HETATM    5  C   UNL     1      66.125   6.386   8.503  1.00  0.00     0.025 A 
HETATM    6  C   UNL     1      66.638   5.500   6.314  1.00  0.00     0.025 A 
HETATM    7  C   UNL     1      67.358   5.926   8.974  1.00  0.00     0.038 A 
HETATM    8  C   UNL     1      67.873   5.046   6.786  1.00  0.00     0.038 A 
ENDROOT
BRANCH   4   9
HETATM    9  O   UNL     1      69.373   4.769   8.706  1.00  0.00    -0.345 OA
BRANCH   9  10
HETATM   10  C   UNL     1      69.182   3.953   9.871  1.00  0.00     0.233 C 
BRANCH  10  11
HETATM   11  C   UNL     1      69.379   2.494   9.597  1.00  0.00     0.041 A 
HETATM   12  N   UNL     1      70.457   1.863  10.205  1.00  0.00    -0.355 N 
HETATM   13  C   UNL     1      70.541   0.616   9.802  1.00  0.00     0.047 A 
ATOM     14  HN  UNL     1      71.093   2.305  10.869  1.00  0.00     0.166 HD
HETATM   15  S   UNL     1      69.309   0.106   8.720  1.00  0.00    -0.087 SA
HETATM   16  C   UNL     1      71.627  -0.320  10.198  1.00  0.00     0.076 C 
HETATM   17  C   UNL     1      68.635   1.680   8.762  1.00  0.00     0.078 A 
ENDBRANCH  10  11
ENDBRANCH   9  10
ENDBRANCH   4   9
TORSDOF 3
ENDMDL
MODEL 7
REMARK VINA RESULT:      -4.6     14.120     15.364
REMARK  3 active torsions:
REMARK  status: ('A' for Active; 'I' for Inactive)
REMARK    1  A    between atoms: C_3  and  C_9 
REMARK    2  A    between atoms: C_9  and  O_11 
REMARK    3  A    between atoms: O_11  and  C_12 
ROOT
HETATM    1  N   UNL     1      77.181   3.813  19.539  1.00  0.00    -0.191 NA
HETATM    2  C   UNL     1      76.849   3.058  18.720  1.00  0.00     0.099 C 
HETATM    3  C   UNL     1      76.428   2.128  17.716  1.00  0.00     0.044 A 
HETATM    4  C   UNL     1      75.553   0.272  15.806  1.00  0.00     0.069 A 
HETATM    5  C   UNL     1      77.216   1.017  17.405  1.00  0.00     0.025 A 
HETATM    6  C   UNL     1      75.217   2.327  17.045  1.00  0.00     0.025 A 
HETATM    7  C   UNL     1      76.781   0.097  16.447  1.00  0.00     0.038 A 
HETATM    8  C   UNL     1      74.788   1.408  16.084  1.00  0.00     0.038 A 
ENDROOT
BRANCH   4   9
HETATM    9  O   UNL     1      75.196  -0.720  14.934  1.00  0.00    -0.345 OA
BRANCH   9  10
HETATM   10  C   UNL     1      75.012  -0.295  13.575  1.00  0.00     0.233 C 
BRANCH  10  11
HETATM   11  C   UNL     1      76.102  -0.770  12.666  1.00  0.00     0.041 A 
HETATM   12  N   UNL     1      75.735  -1.518  11.554  1.00  0.00    -0.355 N 
HETATM   13  C   UNL     1      76.803  -1.927  10.907  1.00  0.00     0.047 A 
ATOM     14  HN  UNL     1      74.774  -1.722  11.279  1.00  0.00     0.166 HD
HETATM   15  S   UNL     1      78.303  -1.398  11.552  1.00  0.00    -0.087 SA
HETATM   16  C   UNL     1      76.770  -2.815   9.715  1.00  0.00     0.076 C 
HETATM   17  C   UNL     1      77.466  -0.594  12.812  1.00  0.00     0.078 A 
ENDBRANCH  10  11
ENDBRANCH   9  10
ENDBRANCH   4   9
TORSDOF 3
ENDMDL
MODEL 8
REMARK VINA RESULT:      -4.6     20.430     22.387
REMARK  3 active torsions:
REMARK  status: ('A' for Active; 'I' for Inactive)
REMARK    1  A    between atoms: C_3  and  C_9 
REMARK    2  A    between atoms: C_9  and  O_11 
REMARK    3  A    between atoms: O_11  and  C_12 
ROOT
HETATM    1  N   UNL     1      49.982  15.060  -2.730  1.00  0.00    -0.191 NA
HETATM    2  C   UNL     1      49.898  15.837  -1.870  1.00  0.00     0.099 C 
HETATM    3  C   UNL     1      49.791  16.785  -0.802  1.00  0.00     0.044 A 
HETATM    4  C   UNL     1      49.517  18.599   1.317  1.00  0.00     0.069 A 
HETATM    5  C   UNL     1      49.175  18.022  -1.013  1.00  0.00     0.025 A 
HETATM    6  C   UNL     1      50.300  16.472   0.462  1.00  0.00     0.025 A 
HETATM    7  C   UNL     1      49.046  18.928   0.044  1.00  0.00     0.038 A 
HETATM    8  C   UNL     1      50.174  17.382   1.515  1.00  0.00     0.038 A 
ENDROOT
BRANCH   4   9
HETATM    9  O   UNL     1      49.283  19.531   2.292  1.00  0.00    -0.345 OA
BRANCH   9  10
HETATM   10  C   UNL     1      48.406  20.601   1.910  1.00  0.00     0.233 C 
BRANCH  10  11
HETATM   11  C   UNL     1      48.417  21.737   2.885  1.00  0.00     0.041 A 
HETATM   12  N   UNL     1      48.124  21.450   4.213  1.00  0.00    -0.355 N 
HETATM   13  C   UNL     1      48.093  22.556   4.921  1.00  0.00     0.047 A 
ATOM     14  HN  UNL     1      47.957  20.515   4.585  1.00  0.00     0.166 HD
HETATM   15  S   UNL     1      48.464  23.994   4.060  1.00  0.00    -0.087 SA
HETATM   16  C   UNL     1      47.732  22.616   6.362  1.00  0.00     0.076 C 
HETATM   17  C   UNL     1      48.643  23.076   2.625  1.00  0.00     0.078 A 
ENDBRANCH  10  11
ENDBRANCH   9  10
ENDBRANCH   4   9
TORSDOF 3
ENDMDL
MODEL 9
REMARK VINA RESULT:      -4.5     15.375     18.535
REMARK  3 active torsions:
REMARK  status: ('A' for Active; 'I' for Inactive)
REMARK    1  A    between atoms: C_3  and  C_9 
REMARK    2  A    between atoms: C_9  and  O_11 
REMARK    3  A    between atoms: O_11  and  C_12 
ROOT
HETATM    1  N   UNL     1      81.061  -1.605  24.063  1.00  0.00    -0.191 NA
HETATM    2  C   UNL     1      80.324  -1.332  23.207  1.00  0.00     0.099 C 
HETATM    3  C   UNL     1      79.416  -0.984  22.156  1.00  0.00     0.044 A 
HETATM    4  C   UNL     1      77.596  -0.256  20.153  1.00  0.00     0.069 A 
HETATM    5  C   UNL     1      78.380  -1.853  21.800  1.00  0.00     0.025 A 
HETATM    6  C   UNL     1      79.559   0.234  21.485  1.00  0.00     0.025 A 
HETATM    7  C   UNL     1      77.478  -1.490  20.795  1.00  0.00     0.038 A 
HETATM    8  C   UNL     1      78.659   0.591  20.477  1.00  0.00     0.038 A 
ENDROOT
BRANCH   4   9
HETATM    9  O   UNL     1      76.623   0.024  19.231  1.00  0.00    -0.345 OA
BRANCH   9  10
HETATM   10  C   UNL     1      77.106   0.503  17.968  1.00  0.00     0.233 C 
BRANCH  10  11
HETATM   11  C   UNL     1      76.502   1.815  17.574  1.00  0.00     0.041 A 
HETATM   12  N   UNL     1      77.228   2.968  17.851  1.00  0.00    -0.355 N 
HETATM   13  C   UNL     1      76.531   4.033  17.524  1.00  0.00     0.047 A 
ATOM     14  HN  UNL     1      78.166   2.985  18.251  1.00  0.00     0.166 HD
HETATM   15  S   UNL     1      74.998   3.724  16.817  1.00  0.00    -0.087 SA
HETATM   16  C   UNL     1      76.981   5.431  17.760  1.00  0.00     0.076 C 
HETATM   17  C   UNL     1      75.267   2.042  16.997  1.00  0.00     0.078 A 
ENDBRANCH  10  11
ENDBRANCH   9  10
ENDBRANCH   4   9
TORSDOF 3
ENDMDL
