MODEL 1
REMARK VINA RESULT:      -4.6      0.000      0.000
REMARK  2 active torsions:
REMARK  status: ('A' for Active; 'I' for Inactive)
REMARK    1  A    between atoms: C_3  and  C_6 
REMARK    2  A    between atoms: C_6  and  C_8 
ROOT
HETATM    1  N   UNL     1      72.696  21.948  13.832  1.00  0.00    -0.357 N 
ATOM      2  HN  UNL     1      72.964  21.022  13.497  1.00  0.00     0.166 HD
HETATM    3  C   UNL     1      71.632  22.692  13.341  1.00  0.00     0.026 A 
HETATM    4  C   UNL     1      73.311  22.607  14.791  1.00  0.00     0.047 A 
HETATM    5  S   UNL     1      72.668  24.160  15.145  1.00  0.00    -0.087 SA
HETATM    6  C   UNL     1      71.483  23.934  13.932  1.00  0.00     0.077 A 
HETATM    7  C   UNL     1      74.480  22.094  15.552  1.00  0.00     0.076 C 
ENDROOT
BRANCH   3   8
HETATM    8  C   UNL     1      70.801  22.110  12.244  1.00  0.00     0.170 C 
BRANCH   8   9
HETATM    9  C   UNL     1      71.558  21.099  11.424  1.00  0.00     0.178 C 
HETATM   10  O   UNL     1      72.408  21.311  10.572  1.00  0.00    -0.648 OA
HETATM   11  O   UNL     1      71.271  19.828  11.777  1.00  0.00    -0.648 OA
ENDBRANCH   8   9
ENDBRANCH   3   8
TORSDOF 2
ENDMDL
MODEL 2
REMARK VINA RESULT:      -4.5     13.465     14.224
REMARK  2 active torsions:
REMARK  status: ('A' for Active; 'I' for Inactive)
REMARK    1  A    between atoms: C_3  and  C_6 
REMARK    2  A    between atoms: C_6  and  C_8 
ROOT
HETATM    1  N   UNL     1      78.820  11.190  20.342  1.00  0.00    -0.357 N 
ATOM      2  HN  UNL     1      79.675  10.769  20.703  1.00  0.00     0.166 HD
HETATM    3  C   UNL     1      78.129  10.749  19.222  1.00  0.00     0.026 A 
HETATM    4  C   UNL     1      78.211  12.230  20.873  1.00  0.00     0.047 A 
HETATM    5  S   UNL     1      76.797  12.754  20.052  1.00  0.00    -0.087 SA
HETATM    6  C   UNL     1      77.011  11.500  18.908  1.00  0.00     0.077 A 
HETATM    7  C   UNL     1      78.668  12.940  22.098  1.00  0.00     0.076 C 
ENDROOT
BRANCH   3   8
HETATM    8  C   UNL     1      78.660   9.567  18.477  1.00  0.00     0.170 C 
BRANCH   8   9
HETATM    9  C   UNL     1      77.585   8.844  17.707  1.00  0.00     0.178 C 
HETATM   10  O   UNL     1      77.369   8.883  16.506  1.00  0.00    -0.648 OA
HETATM   11  O   UNL     1      76.861   8.013  18.488  1.00  0.00    -0.648 OA
ENDBRANCH   8   9
ENDBRANCH   3   8
TORSDOF 2
ENDMDL
MODEL 3
REMARK VINA RESULT:      -4.3     12.570     13.629
REMARK  2 active torsions:
REMARK  status: ('A' for Active; 'I' for Inactive)
REMARK    1  A    between atoms: C_3  and  C_6 
REMARK    2  A    between atoms: C_6  and  C_8 
ROOT
HETATM    1  N   UNL     1      76.737  11.097  18.045  1.00  0.00    -0.357 N 
ATOM      2  HN  UNL     1      75.965  11.232  17.393  1.00  0.00     0.166 HD
HETATM    3  C   UNL     1      77.673  10.075  17.966  1.00  0.00     0.026 A 
HETATM    4  C   UNL     1      76.988  11.867  19.083  1.00  0.00     0.047 A 
HETATM    5  S   UNL     1      78.340  11.402  20.035  1.00  0.00    -0.087 SA
HETATM    6  C   UNL     1      78.610  10.079  18.983  1.00  0.00     0.077 A 
HETATM    7  C   UNL     1      76.195  13.069  19.453  1.00  0.00     0.076 C 
ENDROOT
BRANCH   3   8
HETATM    8  C   UNL     1      77.563   9.092  16.847  1.00  0.00     0.170 C 
BRANCH   8   9
HETATM    9  C   UNL     1      77.781   9.729  15.499  1.00  0.00     0.178 C 
HETATM   10  O   UNL     1      77.814  10.920  15.230  1.00  0.00    -0.648 OA
HETATM   11  O   UNL     1      78.041   8.820  14.534  1.00  0.00    -0.648 OA
ENDBRANCH   8   9
ENDBRANCH   3   8
TORSDOF 2
ENDMDL
MODEL 4
REMARK VINA RESULT:      -4.1     17.014     17.659
REMARK  2 active torsions:
REMARK  status: ('A' for Active; 'I' for Inactive)
REMARK    1  A    between atoms: C_3  and  C_6 
REMARK    2  A    between atoms: C_6  and  C_8 
ROOT
HETATM    1  N   UNL     1      64.947   8.751   5.144  1.00  0.00    -0.357 N 
ATOM      2  HN  UNL     1      65.414   9.520   4.665  1.00  0.00     0.166 HD
HETATM    3  C   UNL     1      63.572   8.572   5.206  1.00  0.00     0.026 A 
HETATM    4  C   UNL     1      65.562   7.784   5.792  1.00  0.00     0.047 A 
HETATM    5  S   UNL     1      64.535   6.622   6.531  1.00  0.00    -0.087 SA
HETATM    6  C   UNL     1      63.172   7.470   5.940  1.00  0.00     0.077 A 
HETATM    7  C   UNL     1      67.039   7.652   5.907  1.00  0.00     0.076 C 
ENDROOT
BRANCH   3   8
HETATM    8  C   UNL     1      62.692   9.568   4.523  1.00  0.00     0.170 C 
BRANCH   8   9
HETATM    9  C   UNL     1      62.713  10.913   5.202  1.00  0.00     0.178 C 
HETATM   10  O   UNL     1      63.325  11.236   6.208  1.00  0.00    -0.648 OA
HETATM   11  O   UNL     1      62.011  11.845   4.521  1.00  0.00    -0.648 OA
ENDBRANCH   8   9
ENDBRANCH   3   8
TORSDOF 2
ENDMDL
MODEL 5
REMARK VINA RESULT:      -4.0     17.366     18.077
REMARK  2 active torsions:
REMARK  status: ('A' for Active; 'I' for Inactive)
REMARK    1  A    between atoms: C_3  and  C_6 
REMARK    2  A    between atoms: C_6  and  C_8 
ROOT
HETATM    1  N   UNL     1      68.266   6.261   7.447  1.00  0.00    -0.357 N 
ATOM      2  HN  UNL     1      68.470   7.094   7.999  1.00  0.00     0.166 HD
HETATM    3  C   UNL     1      67.681   6.267   6.188  1.00  0.00     0.026 A 
HETATM    4  C   UNL     1      68.520   5.026   7.827  1.00  0.00     0.047 A 
HETATM    5  S   UNL     1      68.054   3.803   6.714  1.00  0.00    -0.087 SA
HETATM    6  C   UNL     1      67.474   5.010   5.649  1.00  0.00     0.077 A 
HETATM    7  C   UNL     1      69.166   4.655   9.114  1.00  0.00     0.076 C 
ENDROOT
BRANCH   3   8
HETATM    8  C   UNL     1      67.319   7.581   5.576  1.00  0.00     0.170 C 
BRANCH   8   9
HETATM    9  C   UNL     1      66.058   8.160   6.162  1.00  0.00     0.178 C 
HETATM   10  O   UNL     1      65.460   9.164   5.809  1.00  0.00    -0.648 OA
HETATM   11  O   UNL     1      65.540   7.386   7.140  1.00  0.00    -0.648 OA
ENDBRANCH   8   9
ENDBRANCH   3   8
TORSDOF 2
ENDMDL
MODEL 6
REMARK VINA RESULT:      -4.0     20.794     21.528
REMARK  2 active torsions:
REMARK  status: ('A' for Active; 'I' for Inactive)
REMARK    1  A    between atoms: C_3  and  C_6 
REMARK    2  A    between atoms: C_6  and  C_8 
ROOT
HETATM    1  N   UNL     1      74.793   1.321  18.367  1.00  0.00    -0.357 N 
ATOM      2  HN  UNL     1      74.957   1.715  19.293  1.00  0.00     0.166 HD
HETATM    3  C   UNL     1      75.093   1.955  17.169  1.00  0.00     0.026 A 
HETATM    4  C   UNL     1      74.265   0.137  18.137  1.00  0.00     0.047 A 
HETATM    5  S   UNL     1      74.077  -0.277  16.481  1.00  0.00    -0.087 SA
HETATM    6  C   UNL     1      74.751   1.233  16.040  1.00  0.00     0.077 A 
HETATM    7  C   UNL     1      73.847  -0.820  19.196  1.00  0.00     0.076 C 
ENDROOT
BRANCH   3   8
HETATM    8  C   UNL     1      75.708   3.315  17.217  1.00  0.00     0.170 C 
BRANCH   8   9
HETATM    9  C   UNL     1      76.719   3.450  18.326  1.00  0.00     0.178 C 
HETATM   10  O   UNL     1      77.303   2.557  18.920  1.00  0.00    -0.648 OA
HETATM   11  O   UNL     1      77.025   4.739  18.592  1.00  0.00    -0.648 OA
ENDBRANCH   8   9
ENDBRANCH   3   8
TORSDOF 2
ENDMDL
MODEL 7
REMARK VINA RESULT:      -3.9     20.579     21.417
REMARK  2 active torsions:
REMARK  status: ('A' for Active; 'I' for Inactive)
REMARK    1  A    between atoms: C_3  and  C_6 
REMARK    2  A    between atoms: C_6  and  C_8 
ROOT
HETATM    1  N   UNL     1      77.345   3.001  17.960  1.00  0.00    -0.357 N 
ATOM      2  HN  UNL     1      78.269   3.116  18.376  1.00  0.00     0.166 HD
HETATM    3  C   UNL     1      76.728   1.780  17.723  1.00  0.00     0.026 A 
HETATM    4  C   UNL     1      76.566   3.988  17.572  1.00  0.00     0.047 A 
HETATM    5  S   UNL     1      75.066   3.516  16.882  1.00  0.00    -0.087 SA
HETATM    6  C   UNL     1      75.487   1.875  17.121  1.00  0.00     0.077 A 
HETATM    7  C   UNL     1      76.905   5.431  17.701  1.00  0.00     0.076 C 
ENDROOT
BRANCH   3   8
HETATM    8  C   UNL     1      77.453   0.529  18.101  1.00  0.00     0.170 C 
BRANCH   8   9
HETATM    9  C   UNL     1      78.150   0.650  19.432  1.00  0.00     0.178 C 
HETATM   10  O   UNL     1      79.155   1.292  19.696  1.00  0.00    -0.648 OA
HETATM   11  O   UNL     1      77.489   0.009  20.420  1.00  0.00    -0.648 OA
ENDBRANCH   8   9
ENDBRANCH   3   8
TORSDOF 2
ENDMDL
MODEL 8
REMARK VINA RESULT:      -3.8     17.812     18.220
REMARK  2 active torsions:
REMARK  status: ('A' for Active; 'I' for Inactive)
REMARK    1  A    between atoms: C_3  and  C_6 
REMARK    2  A    between atoms: C_6  and  C_8 
ROOT
HETATM    1  N   UNL     1      68.221   6.477   7.161  1.00  0.00    -0.357 N 
ATOM      2  HN  UNL     1      69.222   6.505   6.968  1.00  0.00     0.166 HD
HETATM    3  C   UNL     1      67.647   5.933   8.301  1.00  0.00     0.026 A 
HETATM    4  C   UNL     1      67.288   6.952   6.362  1.00  0.00     0.047 A 
HETATM    5  S   UNL     1      65.674   6.756   6.917  1.00  0.00    -0.087 SA
HETATM    6  C   UNL     1      66.265   5.984   8.325  1.00  0.00     0.077 A 
HETATM    7  C   UNL     1      67.553   7.626   5.063  1.00  0.00     0.076 C 
ENDROOT
BRANCH   3   8
HETATM    8  C   UNL     1      68.545   5.343   9.339  1.00  0.00     0.170 C 
BRANCH   8   9
HETATM    9  C   UNL     1      69.437   4.265   8.781  1.00  0.00     0.178 C 
HETATM   10  O   UNL     1      69.363   3.721   7.691  1.00  0.00    -0.648 OA
HETATM   11  O   UNL     1      70.465   3.968   9.605  1.00  0.00    -0.648 OA
ENDBRANCH   8   9
ENDBRANCH   3   8
TORSDOF 2
ENDMDL
MODEL 9
REMARK VINA RESULT:      -3.8     17.188     18.023
REMARK  2 active torsions:
REMARK  status: ('A' for Active; 'I' for Inactive)
REMARK    1  A    between atoms: C_3  and  C_6 
REMARK    2  A    between atoms: C_6  and  C_8 
ROOT
HETATM    1  N   UNL     1      64.446   9.320   5.513  1.00  0.00    -0.357 N 
ATOM      2  HN  UNL     1      64.988   9.776   6.246  1.00  0.00     0.166 HD
HETATM    3  C   UNL     1      64.760   8.097   4.936  1.00  0.00     0.026 A 
HETATM    4  C   UNL     1      63.346   9.807   4.978  1.00  0.00     0.047 A 
HETATM    5  S   UNL     1      62.639   8.846   3.743  1.00  0.00    -0.087 SA
HETATM    6  C   UNL     1      63.891   7.696   3.938  1.00  0.00     0.077 A 
HETATM    7  C   UNL     1      62.710  11.091   5.378  1.00  0.00     0.076 C 
ENDROOT
BRANCH   3   8
HETATM    8  C   UNL     1      65.979   7.377   5.413  1.00  0.00     0.170 C 
BRANCH   8   9
HETATM    9  C   UNL     1      65.913   7.047   6.882  1.00  0.00     0.178 C 
HETATM   10  O   UNL     1      66.843   6.843   7.647  1.00  0.00    -0.648 OA
HETATM   11  O   UNL     1      64.650   7.072   7.360  1.00  0.00    -0.648 OA
ENDBRANCH   8   9
ENDBRANCH   3   8
TORSDOF 2
ENDMDL
