MODEL 1
REMARK VINA RESULT:      -4.2      0.000      0.000
REMARK  1 active torsions:
REMARK  status: ('A' for Active; 'I' for Inactive)
REMARK    1  A    between atoms: N_5  and  C_11 
ROOT
HETATM    1  C   UNL     1      68.471   5.192   8.928  1.00  0.00    -0.090 C 
HETATM    2  C   UNL     1      69.326   4.473   9.377  1.00  0.00     0.013 C 
HETATM    3  C   UNL     1      67.415   6.043   8.361  1.00  0.00     0.327 C 
ENDROOT
BRANCH   3   4
HETATM    4  N   UNL     1      67.002   5.574   7.030  1.00  0.00    -0.059 N 
HETATM    5  C   UNL     1      65.551   5.527   6.811  1.00  0.00     0.250 C 
HETATM    6  C   UNL     1      64.853   6.873   6.776  1.00  0.00     0.168 C 
HETATM    7  S   UNL     1      65.571   7.945   5.560  1.00  0.00     0.147 S 
HETATM    8  C   UNL     1      67.323   7.725   5.747  1.00  0.00     0.168 C 
HETATM    9  O   UNL     1      65.264   9.311   5.948  1.00  0.00    -0.228 OA
HETATM   10  O   UNL     1      65.195   7.454   4.247  1.00  0.00    -0.228 OA
HETATM   11  C   UNL     1      67.684   6.263   5.929  1.00  0.00     0.250 C 
HETATM   12  H   UNL     1      67.314   4.602   7.023  1.00  0.00     0.281 HD
ENDBRANCH   3   4
TORSDOF 1
ENDMDL
MODEL 2
REMARK VINA RESULT:      -4.2      1.582      2.439
REMARK  1 active torsions:
REMARK  status: ('A' for Active; 'I' for Inactive)
REMARK    1  A    between atoms: N_5  and  C_11 
ROOT
HETATM    1  C   UNL     1      68.912   5.252   8.101  1.00  0.00    -0.090 C 
HETATM    2  C   UNL     1      69.498   4.640   8.956  1.00  0.00     0.013 C 
HETATM    3  C   UNL     1      68.191   6.025   7.080  1.00  0.00     0.327 C 
ENDROOT
BRANCH   3   4
HETATM    4  N   UNL     1      67.225   6.951   7.688  1.00  0.00    -0.059 N 
HETATM    5  C   UNL     1      66.718   7.997   6.790  1.00  0.00     0.250 C 
HETATM    6  C   UNL     1      65.843   7.512   5.651  1.00  0.00     0.168 C 
HETATM    7  S   UNL     1      64.467   6.567   6.248  1.00  0.00     0.147 S 
HETATM    8  C   UNL     1      65.152   5.520   7.506  1.00  0.00     0.168 C 
HETATM    9  O   UNL     1      64.025   5.708   5.163  1.00  0.00    -0.228 OA
HETATM   10  O   UNL     1      63.534   7.481   6.884  1.00  0.00    -0.228 OA
HETATM   11  C   UNL     1      66.127   6.275   8.389  1.00  0.00     0.250 C 
HETATM   12  H   UNL     1      67.784   7.437   8.391  1.00  0.00     0.281 HD
ENDBRANCH   3   4
TORSDOF 1
ENDMDL
MODEL 3
REMARK VINA RESULT:      -4.0      3.459      4.682
REMARK  1 active torsions:
REMARK  status: ('A' for Active; 'I' for Inactive)
REMARK    1  A    between atoms: N_5  and  C_11 
ROOT
HETATM    1  C   UNL     1      65.686   7.896   5.785  1.00  0.00    -0.090 C 
HETATM    2  C   UNL     1      64.987   8.110   4.828  1.00  0.00     0.013 C 
HETATM    3  C   UNL     1      66.525   7.602   6.956  1.00  0.00     0.327 C 
ENDROOT
BRANCH   3   4
HETATM    4  N   UNL     1      65.890   6.613   7.839  1.00  0.00    -0.059 N 
HETATM    5  C   UNL     1      65.605   5.315   7.214  1.00  0.00     0.250 C 
HETATM    6  C   UNL     1      66.821   4.493   6.833  1.00  0.00     0.168 C 
HETATM    7  S   UNL     1      67.885   4.226   8.226  1.00  0.00     0.147 S 
HETATM    8  C   UNL     1      67.950   5.797   9.049  1.00  0.00     0.168 C 
HETATM    9  O   UNL     1      69.216   3.952   7.711  1.00  0.00    -0.228 OA
HETATM   10  O   UNL     1      67.235   3.281   9.116  1.00  0.00    -0.228 OA
HETATM   11  C   UNL     1      66.581   6.445   9.122  1.00  0.00     0.250 C 
HETATM   12  H   UNL     1      64.980   7.032   8.034  1.00  0.00     0.281 HD
ENDBRANCH   3   4
TORSDOF 1
ENDMDL
MODEL 4
REMARK VINA RESULT:      -4.0      5.187      7.060
REMARK  1 active torsions:
REMARK  status: ('A' for Active; 'I' for Inactive)
REMARK    1  A    between atoms: N_5  and  C_11 
ROOT
HETATM    1  C   UNL     1      62.372   8.358   0.484  1.00  0.00    -0.090 C 
HETATM    2  C   UNL     1      62.412   7.583  -0.437  1.00  0.00     0.013 C 
HETATM    3  C   UNL     1      62.322   9.277   1.630  1.00  0.00     0.327 C 
ENDROOT
BRANCH   3   4
HETATM    4  N   UNL     1      61.631   8.670   2.777  1.00  0.00    -0.059 N 
HETATM    5  C   UNL     1      62.237   7.431   3.281  1.00  0.00     0.250 C 
HETATM    6  C   UNL     1      63.601   7.586   3.925  1.00  0.00     0.168 C 
HETATM    7  S   UNL     1      63.564   8.770   5.243  1.00  0.00     0.147 S 
HETATM    8  C   UNL     1      62.592  10.114   4.613  1.00  0.00     0.168 C 
HETATM    9  O   UNL     1      64.919   9.264   5.423  1.00  0.00    -0.228 OA
HETATM   10  O   UNL     1      62.846   8.181   6.359  1.00  0.00    -0.228 OA
HETATM   11  C   UNL     1      61.368   9.615   3.868  1.00  0.00     0.250 C 
HETATM   12  H   UNL     1      60.730   8.398   2.384  1.00  0.00     0.281 HD
ENDBRANCH   3   4
TORSDOF 1
ENDMDL
MODEL 5
REMARK VINA RESULT:      -3.9     13.835     15.009
REMARK  1 active torsions:
REMARK  status: ('A' for Active; 'I' for Inactive)
REMARK    1  A    between atoms: N_5  and  C_11 
ROOT
HETATM    1  C   UNL     1      76.929   3.284  17.931  1.00  0.00    -0.090 C 
HETATM    2  C   UNL     1      76.891   4.487  17.929  1.00  0.00     0.013 C 
HETATM    3  C   UNL     1      76.942   1.814  17.926  1.00  0.00     0.327 C 
ENDROOT
BRANCH   3   4
HETATM    4  N   UNL     1      75.636   1.263  18.317  1.00  0.00    -0.059 N 
HETATM    5  C   UNL     1      74.497   1.748  17.527  1.00  0.00     0.250 C 
HETATM    6  C   UNL     1      74.475   1.310  16.075  1.00  0.00     0.168 C 
HETATM    7  S   UNL     1      74.549  -0.455  15.929  1.00  0.00     0.147 S 
HETATM    8  C   UNL     1      75.776  -0.952  17.111  1.00  0.00     0.168 C 
HETATM    9  O   UNL     1      75.072  -0.761  14.609  1.00  0.00    -0.228 OA
HETATM   10  O   UNL     1      73.271  -0.997  16.355  1.00  0.00    -0.228 OA
HETATM   11  C   UNL     1      75.626  -0.201  18.421  1.00  0.00     0.250 C 
HETATM   12  H   UNL     1      75.501   1.637  19.256  1.00  0.00     0.281 HD
ENDBRANCH   3   4
TORSDOF 1
ENDMDL
MODEL 6
REMARK VINA RESULT:      -3.9      1.500      2.462
REMARK  1 active torsions:
REMARK  status: ('A' for Active; 'I' for Inactive)
REMARK    1  A    between atoms: N_5  and  C_11 
ROOT
HETATM    1  C   UNL     1      67.992   3.650   6.519  1.00  0.00    -0.090 C 
HETATM    2  C   UNL     1      68.893   2.907   6.812  1.00  0.00     0.013 C 
HETATM    3  C   UNL     1      66.914   4.585   6.166  1.00  0.00     0.327 C 
ENDROOT
BRANCH   3   4
HETATM    4  N   UNL     1      67.115   5.900   6.791  1.00  0.00    -0.059 N 
HETATM    5  C   UNL     1      67.726   6.914   5.922  1.00  0.00     0.250 C 
HETATM    6  C   UNL     1      66.873   7.373   4.755  1.00  0.00     0.168 C 
HETATM    7  S   UNL     1      65.298   7.976   5.302  1.00  0.00     0.147 S 
HETATM    8  C   UNL     1      64.774   6.811   6.534  1.00  0.00     0.168 C 
HETATM    9  O   UNL     1      64.377   7.866   4.184  1.00  0.00    -0.228 OA
HETATM   10  O   UNL     1      65.507   9.256   5.955  1.00  0.00    -0.228 OA
HETATM   11  C   UNL     1      65.915   6.422   7.455  1.00  0.00     0.250 C 
HETATM   12  H   UNL     1      67.806   5.705   7.517  1.00  0.00     0.281 HD
ENDBRANCH   3   4
TORSDOF 1
ENDMDL
MODEL 7
REMARK VINA RESULT:      -3.8      4.475      6.288
REMARK  1 active torsions:
REMARK  status: ('A' for Active; 'I' for Inactive)
REMARK    1  A    between atoms: N_5  and  C_11 
ROOT
HETATM    1  C   UNL     1      62.381   8.317   1.598  1.00  0.00    -0.090 C 
HETATM    2  C   UNL     1      62.141   9.301   0.948  1.00  0.00     0.013 C 
HETATM    3  C   UNL     1      62.689   7.135   2.417  1.00  0.00     0.327 C 
ENDROOT
BRANCH   3   4
HETATM    4  N   UNL     1      63.858   7.366   3.278  1.00  0.00    -0.059 N 
HETATM    5  C   UNL     1      63.759   8.538   4.158  1.00  0.00     0.250 C 
HETATM    6  C   UNL     1      62.715   8.444   5.255  1.00  0.00     0.168 C 
HETATM    7  S   UNL     1      62.960   7.004   6.260  1.00  0.00     0.147 S 
HETATM    8  C   UNL     1      63.325   5.707   5.106  1.00  0.00     0.168 C 
HETATM    9  O   UNL     1      61.685   6.685   6.881  1.00  0.00    -0.228 OA
HETATM   10  O   UNL     1      64.139   7.221   7.079  1.00  0.00    -0.228 OA
HETATM   11  C   UNL     1      64.280   6.175   4.024  1.00  0.00     0.250 C 
HETATM   12  H   UNL     1      64.596   7.585   2.608  1.00  0.00     0.281 HD
ENDBRANCH   3   4
TORSDOF 1
ENDMDL
MODEL 8
REMARK VINA RESULT:      -3.7      2.367      3.549
REMARK  1 active torsions:
REMARK  status: ('A' for Active; 'I' for Inactive)
REMARK    1  A    between atoms: N_5  and  C_11 
ROOT
HETATM    1  C   UNL     1      67.414   3.927   3.497  1.00  0.00    -0.090 C 
HETATM    2  C   UNL     1      67.534   3.430   2.407  1.00  0.00     0.013 C 
HETATM    3  C   UNL     1      67.260   4.565   4.813  1.00  0.00     0.327 C 
ENDROOT
BRANCH   3   4
HETATM    4  N   UNL     1      67.590   5.996   4.759  1.00  0.00    -0.059 N 
HETATM    5  C   UNL     1      66.646   6.822   3.996  1.00  0.00     0.250 C 
HETATM    6  C   UNL     1      65.261   6.957   4.599  1.00  0.00     0.168 C 
HETATM    7  S   UNL     1      65.335   7.574   6.260  1.00  0.00     0.147 S 
HETATM    8  C   UNL     1      66.677   6.687   7.009  1.00  0.00     0.168 C 
HETATM    9  O   UNL     1      64.114   7.162   6.932  1.00  0.00    -0.228 OA
HETATM   10  O   UNL     1      65.701   8.978   6.203  1.00  0.00    -0.228 OA
HETATM   11  C   UNL     1      67.867   6.583   6.075  1.00  0.00     0.250 C 
HETATM   12  H   UNL     1      68.462   6.010   4.229  1.00  0.00     0.281 HD
ENDBRANCH   3   4
TORSDOF 1
ENDMDL
MODEL 9
REMARK VINA RESULT:      -3.5      2.740      4.552
REMARK  1 active torsions:
REMARK  status: ('A' for Active; 'I' for Inactive)
REMARK    1  A    between atoms: N_5  and  C_11 
ROOT
HETATM    1  C   UNL     1      61.418   6.178   6.506  1.00  0.00    -0.090 C 
HETATM    2  C   UNL     1      60.484   5.453   6.730  1.00  0.00     0.013 C 
HETATM    3  C   UNL     1      62.569   7.043   6.207  1.00  0.00     0.327 C 
ENDROOT
BRANCH   3   4
HETATM    4  N   UNL     1      63.662   6.287   5.580  1.00  0.00    -0.059 N 
HETATM    5  C   UNL     1      64.373   6.996   4.509  1.00  0.00     0.250 C 
HETATM    6  C   UNL     1      65.186   8.199   4.949  1.00  0.00     0.168 C 
HETATM    7  S   UNL     1      66.355   7.763   6.209  1.00  0.00     0.147 S 
HETATM    8  C   UNL     1      65.456   6.699   7.308  1.00  0.00     0.168 C 
HETATM    9  O   UNL     1      66.674   8.975   6.944  1.00  0.00    -0.228 OA
HETATM   10  O   UNL     1      67.412   6.982   5.592  1.00  0.00    -0.228 OA
HETATM   11  C   UNL     1      64.601   5.705   6.546  1.00  0.00     0.250 C 
HETATM   12  H   UNL     1      63.175   5.515   5.124  1.00  0.00     0.281 HD
ENDBRANCH   3   4
TORSDOF 1
ENDMDL
