MODEL 1
REMARK VINA RESULT:      -4.6      0.000      0.000
REMARK  2 active torsions:
REMARK  status: ('A' for Active; 'I' for Inactive)
REMARK    1  A    between atoms: C_3  and  O_10 
REMARK    2  A    between atoms: C_8  and  O_11 
ROOT
HETATM    1  C   UNL     1      63.051   9.661   4.445  1.00  0.00     0.080 A 
HETATM    2  C   UNL     1      62.224   8.972   2.286  1.00  0.00     0.065 A 
HETATM    3  C   UNL     1      62.275   9.925   3.305  1.00  0.00     0.090 A 
HETATM    4  N   UNL     1      63.222  11.329   6.428  1.00  0.00    -0.191 NA
HETATM    5  C   UNL     1      63.130  10.605   5.526  1.00  0.00     0.102 C 
HETATM    6  C   UNL     1      62.914   7.762   2.414  1.00  0.00     0.070 A 
HETATM    7  C   UNL     1      63.761   8.452   4.558  1.00  0.00     0.064 A 
HETATM    8  C   UNL     1      63.686   7.485   3.553  1.00  0.00     0.091 A 
HETATM    9 CL   UNL     1      62.770   6.615   1.126  1.00  0.00    -0.081 Cl
ENDROOT
BRANCH   3  10
HETATM   10  O   UNL     1      61.604  11.120   3.285  1.00  0.00    -0.354 OA
HETATM   11  C   UNL     1      61.682  11.903   2.099  1.00  0.00     0.210 C 
ENDBRANCH   3  10
BRANCH   8  12
HETATM   12  O   UNL     1      64.308   6.267   3.596  1.00  0.00    -0.354 OA
HETATM   13  C   UNL     1      65.727   6.242   3.670  1.00  0.00     0.210 C 
ENDBRANCH   8  12
TORSDOF 2
ENDMDL
MODEL 2
REMARK VINA RESULT:      -4.6      2.814      4.345
REMARK  2 active torsions:
REMARK  status: ('A' for Active; 'I' for Inactive)
REMARK    1  A    between atoms: C_3  and  O_10 
REMARK    2  A    between atoms: C_8  and  O_11 
ROOT
HETATM    1  C   UNL     1      62.585   7.944   3.094  1.00  0.00     0.080 A 
HETATM    2  C   UNL     1      62.038   9.566   1.394  1.00  0.00     0.065 A 
HETATM    3  C   UNL     1      62.370   8.255   1.742  1.00  0.00     0.090 A 
HETATM    4  N   UNL     1      63.229   5.556   3.886  1.00  0.00    -0.191 NA
HETATM    5  C   UNL     1      62.937   6.611   3.504  1.00  0.00     0.102 C 
HETATM    6  C   UNL     1      61.952  10.559   2.378  1.00  0.00     0.070 A 
HETATM    7  C   UNL     1      62.475   8.941   4.081  1.00  0.00     0.064 A 
HETATM    8  C   UNL     1      62.173  10.259   3.731  1.00  0.00     0.091 A 
HETATM    9 CL   UNL     1      61.575  12.168   1.864  1.00  0.00    -0.081 Cl
ENDROOT
BRANCH   3  10
HETATM   10  O   UNL     1      62.514   7.227   0.847  1.00  0.00    -0.354 OA
HETATM   11  C   UNL     1      61.376   6.857   0.075  1.00  0.00     0.210 C 
ENDBRANCH   3  10
BRANCH   8  12
HETATM   12  O   UNL     1      62.086  11.299   4.615  1.00  0.00    -0.354 OA
HETATM   13  C   UNL     1      62.931  11.278   5.758  1.00  0.00     0.210 C 
ENDBRANCH   8  12
TORSDOF 2
ENDMDL
MODEL 3
REMARK VINA RESULT:      -4.5      2.143      2.529
REMARK  2 active torsions:
REMARK  status: ('A' for Active; 'I' for Inactive)
REMARK    1  A    between atoms: C_3  and  O_10 
REMARK    2  A    between atoms: C_8  and  O_11 
ROOT
HETATM    1  C   UNL     1      62.893   9.561   4.115  1.00  0.00     0.080 A 
HETATM    2  C   UNL     1      63.210   7.322   3.273  1.00  0.00     0.065 A 
HETATM    3  C   UNL     1      62.612   8.579   3.152  1.00  0.00     0.090 A 
HETATM    4  N   UNL     1      61.839  11.933   4.030  1.00  0.00    -0.191 NA
HETATM    5  C   UNL     1      62.297  10.868   4.040  1.00  0.00     0.102 C 
HETATM    6  C   UNL     1      64.053   7.041   4.355  1.00  0.00     0.070 A 
HETATM    7  C   UNL     1      63.759   9.280   5.187  1.00  0.00     0.064 A 
HETATM    8  C   UNL     1      64.333   8.014   5.326  1.00  0.00     0.091 A 
HETATM    9 CL   UNL     1      64.724   5.449   4.457  1.00  0.00    -0.081 Cl
ENDROOT
BRANCH   3  10
HETATM   10  O   UNL     1      61.746   8.933   2.151  1.00  0.00    -0.354 OA
HETATM   11  C   UNL     1      62.227   8.885   0.812  1.00  0.00     0.210 C 
ENDBRANCH   3  10
BRANCH   8  12
HETATM   12  O   UNL     1      65.152   7.639   6.356  1.00  0.00    -0.354 OA
HETATM   13  C   UNL     1      66.495   8.105   6.347  1.00  0.00     0.210 C 
ENDBRANCH   8  12
TORSDOF 2
ENDMDL
MODEL 4
REMARK VINA RESULT:      -4.4      2.116      3.512
REMARK  2 active torsions:
REMARK  status: ('A' for Active; 'I' for Inactive)
REMARK    1  A    between atoms: C_3  and  O_10 
REMARK    2  A    between atoms: C_8  and  O_11 
ROOT
HETATM    1  C   UNL     1      63.691   9.059   4.744  1.00  0.00     0.080 A 
HETATM    2  C   UNL     1      65.186   7.215   4.317  1.00  0.00     0.065 A 
HETATM    3  C   UNL     1      64.880   8.371   5.037  1.00  0.00     0.090 A 
HETATM    4  N   UNL     1      63.001  11.234   5.984  1.00  0.00    -0.191 NA
HETATM    5  C   UNL     1      63.333  10.259   5.450  1.00  0.00     0.102 C 
HETATM    6  C   UNL     1      64.334   6.767   3.301  1.00  0.00     0.070 A 
HETATM    7  C   UNL     1      62.827   8.591   3.738  1.00  0.00     0.064 A 
HETATM    8  C   UNL     1      63.148   7.452   2.996  1.00  0.00     0.091 A 
HETATM    9 CL   UNL     1      64.803   5.348   2.428  1.00  0.00    -0.081 Cl
ENDROOT
BRANCH   3  10
HETATM   10  O   UNL     1      65.669   8.906   6.021  1.00  0.00    -0.354 OA
HETATM   11  C   UNL     1      66.675   8.073   6.588  1.00  0.00     0.210 C 
ENDBRANCH   3  10
BRANCH   8  12
HETATM   12  O   UNL     1      62.390   6.949   1.974  1.00  0.00    -0.354 OA
HETATM   13  C   UNL     1      62.335   7.683   0.758  1.00  0.00     0.210 C 
ENDBRANCH   8  12
TORSDOF 2
ENDMDL
MODEL 5
REMARK VINA RESULT:      -4.4      3.359      4.030
REMARK  2 active torsions:
REMARK  status: ('A' for Active; 'I' for Inactive)
REMARK    1  A    between atoms: C_3  and  O_10 
REMARK    2  A    between atoms: C_8  and  O_11 
ROOT
HETATM    1  C   UNL     1      63.707   7.268   3.153  1.00  0.00     0.080 A 
HETATM    2  C   UNL     1      62.446   9.247   3.714  1.00  0.00     0.065 A 
HETATM    3  C   UNL     1      62.618   8.120   2.907  1.00  0.00     0.090 A 
HETATM    4  N   UNL     1      64.167   5.151   1.720  1.00  0.00    -0.191 NA
HETATM    5  C   UNL     1      63.935   6.100   2.345  1.00  0.00     0.102 C 
HETATM    6  C   UNL     1      63.362   9.534   4.732  1.00  0.00     0.070 A 
HETATM    7  C   UNL     1      64.612   7.550   4.192  1.00  0.00     0.064 A 
HETATM    8  C   UNL     1      64.457   8.693   4.980  1.00  0.00     0.091 A 
HETATM    9 CL   UNL     1      63.102  10.969   5.664  1.00  0.00    -0.081 Cl
ENDROOT
BRANCH   3  10
HETATM   10  O   UNL     1      61.797   7.779   1.865  1.00  0.00    -0.354 OA
HETATM   11  C   UNL     1      61.709   8.682   0.768  1.00  0.00     0.210 C 
ENDBRANCH   3  10
BRANCH   8  12
HETATM   12  O   UNL     1      65.308   9.068   5.984  1.00  0.00    -0.354 OA
HETATM   13  C   UNL     1      66.380   8.194   6.314  1.00  0.00     0.210 C 
ENDBRANCH   8  12
TORSDOF 2
ENDMDL
MODEL 6
REMARK VINA RESULT:      -4.3      2.148      2.676
REMARK  2 active torsions:
REMARK  status: ('A' for Active; 'I' for Inactive)
REMARK    1  A    between atoms: C_3  and  O_10 
REMARK    2  A    between atoms: C_8  and  O_11 
ROOT
HETATM    1  C   UNL     1      63.692   7.756   4.858  1.00  0.00     0.080 A 
HETATM    2  C   UNL     1      62.555   9.346   3.445  1.00  0.00     0.065 A 
HETATM    3  C   UNL     1      63.050   8.994   4.703  1.00  0.00     0.090 A 
HETATM    4  N   UNL     1      64.642   6.958   7.141  1.00  0.00    -0.191 NA
HETATM    5  C   UNL     1      64.212   7.342   6.134  1.00  0.00     0.102 C 
HETATM    6  C   UNL     1      62.674   8.463   2.366  1.00  0.00     0.070 A 
HETATM    7  C   UNL     1      63.829   6.882   3.765  1.00  0.00     0.064 A 
HETATM    8  C   UNL     1      63.307   7.220   2.514  1.00  0.00     0.091 A 
HETATM    9 CL   UNL     1      62.000   8.954   0.849  1.00  0.00    -0.081 Cl
ENDROOT
BRANCH   3  10
HETATM   10  O   UNL     1      62.947   9.775   5.824  1.00  0.00    -0.354 OA
HETATM   11  C   UNL     1      62.917  11.187   5.647  1.00  0.00     0.210 C 
ENDBRANCH   3  10
BRANCH   8  12
HETATM   12  O   UNL     1      63.357   6.417   1.407  1.00  0.00    -0.354 OA
HETATM   13  C   UNL     1      64.066   5.189   1.502  1.00  0.00     0.210 C 
ENDBRANCH   8  12
TORSDOF 2
ENDMDL
MODEL 7
REMARK VINA RESULT:      -4.2      7.939      9.914
REMARK  2 active torsions:
REMARK  status: ('A' for Active; 'I' for Inactive)
REMARK    1  A    between atoms: C_3  and  O_10 
REMARK    2  A    between atoms: C_8  and  O_11 
ROOT
HETATM    1  C   UNL     1      69.094   2.919   9.035  1.00  0.00     0.080 A 
HETATM    2  C   UNL     1      68.356   3.313   6.772  1.00  0.00     0.065 A 
HETATM    3  C   UNL     1      68.913   2.454   7.722  1.00  0.00     0.090 A 
HETATM    4  N   UNL     1      70.137   1.443  10.901  1.00  0.00    -0.191 NA
HETATM    5  C   UNL     1      69.671   2.078  10.049  1.00  0.00     0.102 C 
HETATM    6  C   UNL     1      68.011   4.624   7.120  1.00  0.00     0.070 A 
HETATM    7  C   UNL     1      68.724   4.230   9.384  1.00  0.00     0.064 A 
HETATM    8  C   UNL     1      68.195   5.100   8.427  1.00  0.00     0.091 A 
HETATM    9 CL   UNL     1      67.363   5.640   5.877  1.00  0.00    -0.081 Cl
ENDROOT
BRANCH   3  10
HETATM   10  O   UNL     1      69.315   1.170   7.467  1.00  0.00    -0.354 OA
HETATM   11  C   UNL     1      69.332   0.739   6.110  1.00  0.00     0.210 C 
ENDBRANCH   3  10
BRANCH   8  12
HETATM   12  O   UNL     1      67.847   6.401   8.665  1.00  0.00    -0.354 OA
HETATM   13  C   UNL     1      66.601   6.655   9.300  1.00  0.00     0.210 C 
ENDBRANCH   8  12
TORSDOF 2
ENDMDL
MODEL 8
REMARK VINA RESULT:      -4.1      5.558      6.947
REMARK  2 active torsions:
REMARK  status: ('A' for Active; 'I' for Inactive)
REMARK    1  A    between atoms: C_3  and  O_10 
REMARK    2  A    between atoms: C_8  and  O_11 
ROOT
HETATM    1  C   UNL     1      65.908   6.115   7.264  1.00  0.00     0.080 A 
HETATM    2  C   UNL     1      68.318   6.004   7.295  1.00  0.00     0.065 A 
HETATM    3  C   UNL     1      67.151   6.682   6.937  1.00  0.00     0.090 A 
HETATM    4  N   UNL     1      63.656   7.249   6.641  1.00  0.00    -0.191 NA
HETATM    5  C   UNL     1      64.677   6.768   6.909  1.00  0.00     0.102 C 
HETATM    6  C   UNL     1      68.246   4.767   7.945  1.00  0.00     0.070 A 
HETATM    7  C   UNL     1      65.843   4.882   7.937  1.00  0.00     0.064 A 
HETATM    8  C   UNL     1      67.009   4.189   8.269  1.00  0.00     0.091 A 
HETATM    9 CL   UNL     1      69.736   3.970   8.322  1.00  0.00    -0.081 Cl
ENDROOT
BRANCH   3  10
HETATM   10  O   UNL     1      67.121   7.876   6.267  1.00  0.00    -0.354 OA
HETATM   11  C   UNL     1      67.653   7.909   4.947  1.00  0.00     0.210 C 
ENDBRANCH   3  10
BRANCH   8  12
HETATM   12  O   UNL     1      67.041   2.968   8.886  1.00  0.00    -0.354 OA
HETATM   13  C   UNL     1      66.891   1.807   8.080  1.00  0.00     0.210 C 
ENDBRANCH   8  12
TORSDOF 2
ENDMDL
MODEL 9
REMARK VINA RESULT:      -4.0      5.992      8.673
REMARK  2 active torsions:
REMARK  status: ('A' for Active; 'I' for Inactive)
REMARK    1  A    between atoms: C_3  and  O_10 
REMARK    2  A    between atoms: C_8  and  O_11 
ROOT
HETATM    1  C   UNL     1      68.796   4.169   7.963  1.00  0.00     0.080 A 
HETATM    2  C   UNL     1      67.867   3.569   5.819  1.00  0.00     0.065 A 
HETATM    3  C   UNL     1      68.493   3.186   7.007  1.00  0.00     0.090 A 
HETATM    4  N   UNL     1      69.979   3.608  10.207  1.00  0.00    -0.191 NA
HETATM    5  C   UNL     1      69.448   3.828   9.199  1.00  0.00     0.102 C 
HETATM    6  C   UNL     1      67.574   4.916   5.576  1.00  0.00     0.070 A 
HETATM    7  C   UNL     1      68.479   5.518   7.723  1.00  0.00     0.064 A 
HETATM    8  C   UNL     1      67.880   5.906   6.522  1.00  0.00     0.091 A 
HETATM    9 CL   UNL     1      66.834   5.316   4.064  1.00  0.00    -0.081 Cl
ENDROOT
BRANCH   3  10
HETATM   10  O   UNL     1      68.853   1.901   7.317  1.00  0.00    -0.354 OA
HETATM   11  C   UNL     1      69.153   1.020   6.239  1.00  0.00     0.210 C 
ENDBRANCH   3  10
BRANCH   8  12
HETATM   12  O   UNL     1      67.574   7.196   6.186  1.00  0.00    -0.354 OA
HETATM   13  C   UNL     1      66.398   7.771   6.740  1.00  0.00     0.210 C 
ENDBRANCH   8  12
TORSDOF 2
ENDMDL
