MODEL 1
REMARK VINA RESULT:      -7.9      0.000      0.000
REMARK  2 active torsions:
REMARK  status: ('A' for Active; 'I' for Inactive)
REMARK    1  A    between atoms: C_1  and  C_5 
REMARK    2  A    between atoms: C_8  and  N_9 
ROOT
HETATM    1  C   UNL     1      77.613   9.996  18.354  1.00  0.00     0.118 A 
HETATM    2  N   UNL     1      77.291   8.739  18.601  1.00  0.00    -0.340 N 
ATOM      3  HN  UNL     1      77.147   8.310  19.515  1.00  0.00     0.167 HD
HETATM    4  N   UNL     1      77.812  10.175  17.001  1.00  0.00    -0.340 N 
HETATM    5  C   UNL     1      77.189   8.128  17.375  1.00  0.00     0.060 A 
HETATM    6  C   UNL     1      77.491   9.015  16.351  1.00  0.00     0.060 A 
HETATM    7  C   UNL     1      76.827   6.811  17.056  1.00  0.00     0.032 A 
HETATM    8  C   UNL     1      77.443   8.675  14.998  1.00  0.00     0.032 A 
HETATM    9  C   UNL     1      77.070   7.359  14.698  1.00  0.00     0.002 A 
HETATM   10  C   UNL     1      76.770   6.440  15.707  1.00  0.00     0.002 A 
HETATM   11  H   UNL     1      78.133  11.001  16.574  1.00  0.00     0.167 HD
ENDROOT
BRANCH   1  12
HETATM   12  C   UNL     1      77.776  11.073  19.334  1.00  0.00     0.034 A 
HETATM   13  C   UNL     1      78.973  11.279  20.058  1.00  0.00     0.039 A 
HETATM   14  C   UNL     1      79.000  12.265  21.057  1.00  0.00     0.030 A 
HETATM   15  C   UNL     1      77.910  13.112  21.262  1.00  0.00     0.002 A 
HETATM   16  C   UNL     1      76.756  12.956  20.502  1.00  0.00     0.001 A 
HETATM   17  C   UNL     1      76.688  11.938  19.550  1.00  0.00     0.017 A 
BRANCH  13  18
HETATM   18  N   UNL     1      80.097  10.426  19.923  1.00  0.00    -0.398 N 
HETATM   19  H   UNL     1      80.320  10.039  19.046  1.00  0.00     0.156 HD
HETATM   20  H   UNL     1      80.655  10.219  20.707  1.00  0.00     0.156 HD
ENDBRANCH  13  18
ENDBRANCH   1  12
TORSDOF 2
ENDMDL
MODEL 2
REMARK VINA RESULT:      -7.5      0.974      5.966
REMARK  2 active torsions:
REMARK  status: ('A' for Active; 'I' for Inactive)
REMARK    1  A    between atoms: C_1  and  C_5 
REMARK    2  A    between atoms: C_8  and  N_9 
ROOT
HETATM    1  C   UNL     1      77.396  10.011  18.048  1.00  0.00     0.118 A 
HETATM    2  N   UNL     1      76.653  11.104  18.040  1.00  0.00    -0.340 N 
ATOM      3  HN  UNL     1      75.912  11.338  17.379  1.00  0.00     0.167 HD
HETATM    4  N   UNL     1      78.353  10.099  19.036  1.00  0.00    -0.340 N 
HETATM    5  C   UNL     1      77.082  11.860  19.103  1.00  0.00     0.060 A 
HETATM    6  C   UNL     1      78.137  11.240  19.760  1.00  0.00     0.060 A 
HETATM    7  C   UNL     1      76.606  13.089  19.581  1.00  0.00     0.032 A 
HETATM    8  C   UNL     1      78.755  11.767  20.894  1.00  0.00     0.032 A 
HETATM    9  C   UNL     1      78.260  12.990  21.363  1.00  0.00     0.002 A 
HETATM   10  C   UNL     1      77.207  13.644  20.719  1.00  0.00     0.002 A 
HETATM   11  H   UNL     1      79.074   9.448  19.195  1.00  0.00     0.167 HD
ENDROOT
BRANCH   1  12
HETATM   12  C   UNL     1      77.281   8.861  17.147  1.00  0.00     0.034 A 
HETATM   13  C   UNL     1      77.486   8.956  15.751  1.00  0.00     0.039 A 
HETATM   14  C   UNL     1      77.245   7.827  14.952  1.00  0.00     0.030 A 
HETATM   15  C   UNL     1      76.921   6.596  15.525  1.00  0.00     0.002 A 
HETATM   16  C   UNL     1      76.788   6.485  16.905  1.00  0.00     0.001 A 
HETATM   17  C   UNL     1      76.960   7.613  17.709  1.00  0.00     0.017 A 
BRANCH  13  18
HETATM   18  N   UNL     1      77.774  10.186  15.108  1.00  0.00    -0.398 N 
HETATM   19  H   UNL     1      78.206  10.915  15.609  1.00  0.00     0.156 HD
HETATM   20  H   UNL     1      77.542  10.312  14.160  1.00  0.00     0.156 HD
ENDBRANCH  13  18
ENDBRANCH   1  12
TORSDOF 2
ENDMDL
MODEL 3
REMARK VINA RESULT:      -6.4     16.173     18.803
REMARK  2 active torsions:
REMARK  status: ('A' for Active; 'I' for Inactive)
REMARK    1  A    between atoms: C_1  and  C_5 
REMARK    2  A    between atoms: C_8  and  N_9 
ROOT
HETATM    1  C   UNL     1      64.532   8.314   5.369  1.00  0.00     0.118 A 
HETATM    2  N   UNL     1      64.278   7.639   6.475  1.00  0.00    -0.340 N 
ATOM      3  HN  UNL     1      63.395   7.603   6.984  1.00  0.00     0.167 HD
HETATM    4  N   UNL     1      65.864   8.189   5.035  1.00  0.00    -0.340 N 
HETATM    5  C   UNL     1      65.446   6.993   6.800  1.00  0.00     0.060 A 
HETATM    6  C   UNL     1      66.454   7.306   5.897  1.00  0.00     0.060 A 
HETATM    7  C   UNL     1      65.720   6.107   7.851  1.00  0.00     0.032 A 
HETATM    8  C   UNL     1      67.741   6.772   5.964  1.00  0.00     0.032 A 
HETATM    9  C   UNL     1      67.994   5.881   7.014  1.00  0.00     0.002 A 
HETATM   10  C   UNL     1      67.004   5.555   7.945  1.00  0.00     0.002 A 
HETATM   11  H   UNL     1      66.316   8.658   4.297  1.00  0.00     0.167 HD
ENDROOT
BRANCH   1  12
HETATM   12  C   UNL     1      63.585   9.116   4.589  1.00  0.00     0.034 A 
HETATM   13  C   UNL     1      63.209  10.430   4.952  1.00  0.00     0.039 A 
HETATM   14  C   UNL     1      62.211  11.080   4.209  1.00  0.00     0.030 A 
HETATM   15  C   UNL     1      61.675  10.496   3.060  1.00  0.00     0.002 A 
HETATM   16  C   UNL     1      62.095   9.232   2.662  1.00  0.00     0.001 A 
HETATM   17  C   UNL     1      63.039   8.544   3.426  1.00  0.00     0.017 A 
BRANCH  13  18
HETATM   18  N   UNL     1      63.687  11.057   6.131  1.00  0.00    -0.398 N 
HETATM   19  H   UNL     1      63.073  11.579   6.695  1.00  0.00     0.156 HD
HETATM   20  H   UNL     1      64.634  10.970   6.385  1.00  0.00     0.156 HD
ENDBRANCH  13  18
ENDBRANCH   1  12
TORSDOF 2
ENDMDL
MODEL 4
REMARK VINA RESULT:      -6.0     16.183     18.865
REMARK  2 active torsions:
REMARK  status: ('A' for Active; 'I' for Inactive)
REMARK    1  A    between atoms: C_1  and  C_5 
REMARK    2  A    between atoms: C_8  and  N_9 
ROOT
HETATM    1  C   UNL     1      64.679   8.094   5.375  1.00  0.00     0.118 A 
HETATM    2  N   UNL     1      65.901   7.810   4.962  1.00  0.00    -0.340 N 
ATOM      3  HN  UNL     1      66.329   8.082   4.077  1.00  0.00     0.167 HD
HETATM    4  N   UNL     1      64.432   7.473   6.581  1.00  0.00    -0.340 N 
HETATM    5  C   UNL     1      66.478   7.073   5.967  1.00  0.00     0.060 A 
HETATM    6  C   UNL     1      65.582   6.866   7.008  1.00  0.00     0.060 A 
HETATM    7  C   UNL     1      67.777   6.555   6.069  1.00  0.00     0.032 A 
HETATM    8  C   UNL     1      65.904   6.172   8.175  1.00  0.00     0.032 A 
HETATM    9  C   UNL     1      67.208   5.671   8.264  1.00  0.00     0.002 A 
HETATM   10  C   UNL     1      68.130   5.854   7.229  1.00  0.00     0.002 A 
HETATM   11  H   UNL     1      63.571   7.468   7.058  1.00  0.00     0.167 HD
ENDROOT
BRANCH   1  12
HETATM   12  C   UNL     1      63.683   8.917   4.683  1.00  0.00     0.034 A 
HETATM   13  C   UNL     1      63.067   8.521   3.474  1.00  0.00     0.039 A 
HETATM   14  C   UNL     1      62.209   9.422   2.823  1.00  0.00     0.030 A 
HETATM   15  C   UNL     1      61.872  10.644   3.407  1.00  0.00     0.002 A 
HETATM   16  C   UNL     1      62.425  11.005   4.631  1.00  0.00     0.001 A 
HETATM   17  C   UNL     1      63.330  10.149   5.260  1.00  0.00     0.017 A 
BRANCH  13  18
HETATM   18  N   UNL     1      63.400   7.312   2.812  1.00  0.00    -0.398 N 
HETATM   19  H   UNL     1      63.569   6.495   3.334  1.00  0.00     0.156 HD
HETATM   20  H   UNL     1      63.465   7.290   1.830  1.00  0.00     0.156 HD
ENDBRANCH  13  18
ENDBRANCH   1  12
TORSDOF 2
ENDMDL
MODEL 5
REMARK VINA RESULT:      -5.8     16.383     19.005
REMARK  2 active torsions:
REMARK  status: ('A' for Active; 'I' for Inactive)
REMARK    1  A    between atoms: C_1  and  C_5 
REMARK    2  A    between atoms: C_8  and  N_9 
ROOT
HETATM    1  C   UNL     1      64.702   7.910   5.302  1.00  0.00     0.118 A 
HETATM    2  N   UNL     1      64.179   9.066   5.669  1.00  0.00    -0.340 N 
ATOM      3  HN  UNL     1      64.352   9.571   6.539  1.00  0.00     0.167 HD
HETATM    4  N   UNL     1      64.153   7.503   4.105  1.00  0.00    -0.340 N 
HETATM    5  C   UNL     1      63.353   9.450   4.641  1.00  0.00     0.060 A 
HETATM    6  C   UNL     1      63.336   8.494   3.634  1.00  0.00     0.060 A 
HETATM    7  C   UNL     1      62.590  10.617   4.490  1.00  0.00     0.032 A 
HETATM    8  C   UNL     1      62.604   8.631   2.454  1.00  0.00     0.032 A 
HETATM    9  C   UNL     1      61.857   9.807   2.315  1.00  0.00     0.002 A 
HETATM   10  C   UNL     1      61.845  10.783   3.315  1.00  0.00     0.002 A 
HETATM   11  H   UNL     1      64.322   6.641   3.661  1.00  0.00     0.167 HD
ENDROOT
BRANCH   1  12
HETATM   12  C   UNL     1      65.697   7.122   6.034  1.00  0.00     0.034 A 
HETATM   13  C   UNL     1      67.058   7.062   5.656  1.00  0.00     0.039 A 
HETATM   14  C   UNL     1      67.917   6.192   6.348  1.00  0.00     0.030 A 
HETATM   15  C   UNL     1      67.473   5.481   7.464  1.00  0.00     0.002 A 
HETATM   16  C   UNL     1      66.150   5.593   7.879  1.00  0.00     0.001 A 
HETATM   17  C   UNL     1      65.268   6.402   7.163  1.00  0.00     0.017 A 
BRANCH  13  18
HETATM   18  N   UNL     1      67.557   7.728   4.508  1.00  0.00    -0.398 N 
HETATM   19  H   UNL     1      67.497   7.298   3.624  1.00  0.00     0.156 HD
HETATM   20  H   UNL     1      67.964   8.620   4.594  1.00  0.00     0.156 HD
ENDBRANCH  13  18
ENDBRANCH   1  12
TORSDOF 2
ENDMDL
MODEL 6
REMARK VINA RESULT:      -5.3     15.287     17.940
REMARK  2 active torsions:
REMARK  status: ('A' for Active; 'I' for Inactive)
REMARK    1  A    between atoms: C_1  and  C_5 
REMARK    2  A    between atoms: C_8  and  N_9 
ROOT
HETATM    1  C   UNL     1      65.707   7.079   5.965  1.00  0.00     0.118 A 
HETATM    2  N   UNL     1      65.260   6.566   4.832  1.00  0.00    -0.340 N 
ATOM      3  HN  UNL     1      65.538   5.682   4.406  1.00  0.00     0.167 HD
HETATM    4  N   UNL     1      65.166   8.332   6.161  1.00  0.00    -0.340 N 
HETATM    5  C   UNL     1      64.345   7.467   4.345  1.00  0.00     0.060 A 
HETATM    6  C   UNL     1      64.251   8.577   5.175  1.00  0.00     0.060 A 
HETATM    7  C   UNL     1      63.539   7.398   3.200  1.00  0.00     0.032 A 
HETATM    8  C   UNL     1      63.379   9.641   4.942  1.00  0.00     0.032 A 
HETATM    9  C   UNL     1      62.574   9.551   3.799  1.00  0.00     0.002 A 
HETATM   10  C   UNL     1      62.653   8.452   2.939  1.00  0.00     0.002 A 
HETATM   11  H   UNL     1      65.400   8.949   6.892  1.00  0.00     0.167 HD
ENDROOT
BRANCH   1  12
HETATM   12  C   UNL     1      66.657   6.464   6.896  1.00  0.00     0.034 A 
HETATM   13  C   UNL     1      67.578   5.465   6.506  1.00  0.00     0.039 A 
HETATM   14  C   UNL     1      68.373   4.853   7.489  1.00  0.00     0.030 A 
HETATM   15  C   UNL     1      68.346   5.296   8.812  1.00  0.00     0.002 A 
HETATM   16  C   UNL     1      67.490   6.327   9.184  1.00  0.00     0.001 A 
HETATM   17  C   UNL     1      66.646   6.901   8.233  1.00  0.00     0.017 A 
BRANCH  13  18
HETATM   18  N   UNL     1      67.621   4.947   5.187  1.00  0.00    -0.398 N 
HETATM   19  H   UNL     1      68.237   4.211   4.966  1.00  0.00     0.156 HD
HETATM   20  H   UNL     1      67.035   5.322   4.491  1.00  0.00     0.156 HD
ENDBRANCH  13  18
ENDBRANCH   1  12
TORSDOF 2
ENDMDL
MODEL 7
REMARK VINA RESULT:      -5.1     15.125     17.797
REMARK  2 active torsions:
REMARK  status: ('A' for Active; 'I' for Inactive)
REMARK    1  A    between atoms: C_1  and  C_5 
REMARK    2  A    between atoms: C_8  and  N_9 
ROOT
HETATM    1  C   UNL     1      65.372   6.340   6.492  1.00  0.00     0.118 A 
HETATM    2  N   UNL     1      64.405   7.193   6.780  1.00  0.00    -0.340 N 
ATOM      3  HN  UNL     1      64.145   7.539   7.704  1.00  0.00     0.167 HD
HETATM    4  N   UNL     1      65.354   6.042   5.146  1.00  0.00    -0.340 N 
HETATM    5  C   UNL     1      63.821   7.519   5.580  1.00  0.00     0.060 A 
HETATM    6  C   UNL     1      64.414   6.825   4.534  1.00  0.00     0.060 A 
HETATM    7  C   UNL     1      62.780   8.417   5.303  1.00  0.00     0.032 A 
HETATM    8  C   UNL     1      64.041   6.979   3.198  1.00  0.00     0.032 A 
HETATM    9  C   UNL     1      63.007   7.888   2.939  1.00  0.00     0.002 A 
HETATM   10  C   UNL     1      62.383   8.593   3.971  1.00  0.00     0.002 A 
HETATM   11  H   UNL     1      65.924   5.376   4.699  1.00  0.00     0.167 HD
ENDROOT
BRANCH   1  12
HETATM   12  C   UNL     1      66.330   5.745   7.428  1.00  0.00     0.034 A 
HETATM   13  C   UNL     1      67.153   6.518   8.280  1.00  0.00     0.039 A 
HETATM   14  C   UNL     1      68.120   5.867   9.062  1.00  0.00     0.030 A 
HETATM   15  C   UNL     1      68.200   4.474   9.095  1.00  0.00     0.002 A 
HETATM   16  C   UNL     1      67.343   3.710   8.311  1.00  0.00     0.001 A 
HETATM   17  C   UNL     1      66.419   4.343   7.478  1.00  0.00     0.017 A 
BRANCH  13  18
HETATM   18  N   UNL     1      67.147   7.936   8.259  1.00  0.00    -0.398 N 
HETATM   19  H   UNL     1      66.300   8.423   8.140  1.00  0.00     0.156 HD
HETATM   20  H   UNL     1      67.990   8.433   8.362  1.00  0.00     0.156 HD
ENDBRANCH  13  18
ENDBRANCH   1  12
TORSDOF 2
ENDMDL
MODEL 8
REMARK VINA RESULT:      -5.0     33.633     35.132
REMARK  2 active torsions:
REMARK  status: ('A' for Active; 'I' for Inactive)
REMARK    1  A    between atoms: C_1  and  C_5 
REMARK    2  A    between atoms: C_8  and  N_9 
ROOT
HETATM    1  C   UNL     1      49.348  20.233   1.665  1.00  0.00     0.118 A 
HETATM    2  N   UNL     1      50.255  21.176   1.841  1.00  0.00    -0.340 N 
ATOM      3  HN  UNL     1      51.205  21.193   1.468  1.00  0.00     0.167 HD
HETATM    4  N   UNL     1      48.219  20.520   2.403  1.00  0.00    -0.340 N 
HETATM    5  C   UNL     1      49.659  22.131   2.628  1.00  0.00     0.060 A 
HETATM    6  C   UNL     1      48.370  21.752   2.978  1.00  0.00     0.060 A 
HETATM    7  C   UNL     1      50.156  23.362   3.078  1.00  0.00     0.032 A 
HETATM    8  C   UNL     1      47.518  22.542   3.751  1.00  0.00     0.032 A 
HETATM    9  C   UNL     1      48.027  23.772   4.183  1.00  0.00     0.002 A 
HETATM   10  C   UNL     1      49.325  24.177   3.857  1.00  0.00     0.002 A 
HETATM   11  H   UNL     1      47.433  19.935   2.499  1.00  0.00     0.167 HD
ENDROOT
BRANCH   1  12
HETATM   12  C   UNL     1      49.479  19.026   0.843  1.00  0.00     0.034 A 
HETATM   13  C   UNL     1      48.961  18.930  -0.469  1.00  0.00     0.039 A 
HETATM   14  C   UNL     1      49.034  17.698  -1.139  1.00  0.00     0.030 A 
HETATM   15  C   UNL     1      49.707  16.613  -0.575  1.00  0.00     0.002 A 
HETATM   16  C   UNL     1      50.278  16.727   0.687  1.00  0.00     0.001 A 
HETATM   17  C   UNL     1      50.158  17.924   1.394  1.00  0.00     0.017 A 
BRANCH  13  18
HETATM   18  N   UNL     1      48.232  19.983  -1.076  1.00  0.00    -0.398 N 
HETATM   19  H   UNL     1      48.660  20.553  -1.755  1.00  0.00     0.156 HD
HETATM   20  H   UNL     1      47.296  20.146  -0.817  1.00  0.00     0.156 HD
ENDBRANCH  13  18
ENDBRANCH   1  12
TORSDOF 2
ENDMDL
MODEL 9
REMARK VINA RESULT:      -5.0     20.724     23.045
REMARK  2 active torsions:
REMARK  status: ('A' for Active; 'I' for Inactive)
REMARK    1  A    between atoms: C_1  and  C_5 
REMARK    2  A    between atoms: C_8  and  N_9 
ROOT
HETATM    1  C   UNL     1      61.790   8.446   1.925  1.00  0.00     0.118 A 
HETATM    2  N   UNL     1      60.590   8.046   1.545  1.00  0.00    -0.340 N 
ATOM      3  HN  UNL     1      59.710   8.183   2.042  1.00  0.00     0.167 HD
HETATM    4  N   UNL     1      62.742   7.991   1.038  1.00  0.00    -0.340 N 
HETATM    5  C   UNL     1      60.769   7.407   0.342  1.00  0.00     0.060 A 
HETATM    6  C   UNL     1      62.112   7.378  -0.010  1.00  0.00     0.060 A 
HETATM    7  C   UNL     1      59.823   6.834  -0.519  1.00  0.00     0.032 A 
HETATM    8  C   UNL     1      62.585   6.816  -1.196  1.00  0.00     0.032 A 
HETATM    9  C   UNL     1      61.625   6.257  -2.049  1.00  0.00     0.002 A 
HETATM   10  C   UNL     1      60.267   6.261  -1.718  1.00  0.00     0.002 A 
HETATM   11  H   UNL     1      63.716   8.092   1.140  1.00  0.00     0.167 HD
ENDROOT
BRANCH   1  12
HETATM   12  C   UNL     1      62.121   9.231   3.117  1.00  0.00     0.034 A 
HETATM   13  C   UNL     1      61.883  10.622   3.212  1.00  0.00     0.039 A 
HETATM   14  C   UNL     1      62.334  11.312   4.348  1.00  0.00     0.030 A 
HETATM   15  C   UNL     1      62.905  10.630   5.423  1.00  0.00     0.002 A 
HETATM   16  C   UNL     1      63.076   9.252   5.361  1.00  0.00     0.001 A 
HETATM   17  C   UNL     1      62.693   8.559   4.212  1.00  0.00     0.017 A 
BRANCH  13  18
HETATM   18  N   UNL     1      61.346  11.374   2.136  1.00  0.00    -0.398 N 
HETATM   19  H   UNL     1      60.480  11.122   1.743  1.00  0.00     0.156 HD
HETATM   20  H   UNL     1      61.840  12.149   1.783  1.00  0.00     0.156 HD
ENDBRANCH  13  18
ENDBRANCH   1  12
TORSDOF 2
ENDMDL
