MODEL 1
REMARK VINA RESULT:      -4.2      0.000      0.000
REMARK  0 active torsions:
REMARK  status: ('A' for Active; 'I' for Inactive)
ROOT
HETATM    1  C   UNL     1      73.493  22.693  15.036  1.00  0.00     0.167 C 
HETATM    2  N   UNL     1      73.328  23.944  15.509  1.00  0.00    -0.367 N 
HETATM    3  N   UNL     1      72.673  22.195  14.091  1.00  0.00    -0.367 N 
HETATM    4  S   UNL     1      74.718  21.741  15.641  1.00  0.00    -0.041 SA
HETATM    5  C   UNL     1      72.658  25.030  14.833  1.00  0.00     0.122 C 
HETATM    6  C   UNL     1      71.490  22.775  13.482  1.00  0.00     0.122 C 
HETATM    7  C   UNL     1      71.140  24.911  14.816  1.00  0.00     0.021 C 
HETATM    8  C   UNL     1      70.607  23.523  14.469  1.00  0.00     0.021 C 
HETATM    9  H   UNL     1      73.700  24.136  16.400  1.00  0.00     0.161 HD
HETATM   10  H   UNL     1      72.911  21.297  13.764  1.00  0.00     0.161 HD
ENDROOT
TORSDOF 0
ENDMDL
MODEL 2
REMARK VINA RESULT:      -3.9      2.078      2.841
REMARK  0 active torsions:
REMARK  status: ('A' for Active; 'I' for Inactive)
ROOT
HETATM    1  C   UNL     1      71.461  22.302  13.145  1.00  0.00     0.167 C 
HETATM    2  N   UNL     1      70.594  23.315  13.343  1.00  0.00    -0.367 N 
HETATM    3  N   UNL     1      72.518  22.126  13.961  1.00  0.00    -0.367 N 
HETATM    4  S   UNL     1      71.234  21.264  11.863  1.00  0.00    -0.041 SA
HETATM    5  C   UNL     1      70.362  24.009  14.587  1.00  0.00     0.122 C 
HETATM    6  C   UNL     1      72.986  22.936  15.071  1.00  0.00     0.122 C 
HETATM    7  C   UNL     1      71.471  24.976  14.979  1.00  0.00     0.021 C 
HETATM    8  C   UNL     1      72.888  24.431  14.811  1.00  0.00     0.021 C 
HETATM    9  H   UNL     1      70.068  23.610  12.564  1.00  0.00     0.161 HD
HETATM   10  H   UNL     1      73.057  21.323  13.776  1.00  0.00     0.161 HD
ENDROOT
TORSDOF 0
ENDMDL
MODEL 3
REMARK VINA RESULT:      -3.7      2.484      2.951
REMARK  0 active torsions:
REMARK  status: ('A' for Active; 'I' for Inactive)
ROOT
HETATM    1  C   UNL     1      71.719  22.427  12.401  1.00  0.00     0.167 C 
HETATM    2  N   UNL     1      72.993  22.743  12.708  1.00  0.00    -0.367 N 
HETATM    3  N   UNL     1      70.690  22.932  13.109  1.00  0.00    -0.367 N 
HETATM    4  S   UNL     1      71.411  21.386  11.139  1.00  0.00    -0.041 SA
HETATM    5  C   UNL     1      73.433  23.916  13.425  1.00  0.00     0.122 C 
HETATM    6  C   UNL     1      70.696  23.769  14.295  1.00  0.00     0.122 C 
HETATM    7  C   UNL     1      73.158  23.872  14.921  1.00  0.00     0.021 C 
HETATM    8  C   UNL     1      71.764  23.379  15.305  1.00  0.00     0.021 C 
HETATM    9  H   UNL     1      73.691  22.113  12.414  1.00  0.00     0.161 HD
HETATM   10  H   UNL     1      69.796  22.696  12.770  1.00  0.00     0.161 HD
ENDROOT
TORSDOF 0
ENDMDL
MODEL 4
REMARK VINA RESULT:      -3.6     21.659     22.654
REMARK  0 active torsions:
REMARK  status: ('A' for Active; 'I' for Inactive)
ROOT
HETATM    1  C   UNL     1      77.826   1.084  18.762  1.00  0.00     0.167 C 
HETATM    2  N   UNL     1      77.150   2.242  18.908  1.00  0.00    -0.367 N 
HETATM    3  N   UNL     1      77.653   0.314  17.670  1.00  0.00    -0.367 N 
HETATM    4  S   UNL     1      78.879   0.591  19.953  1.00  0.00    -0.041 SA
HETATM    5  C   UNL     1      76.573   3.033  17.848  1.00  0.00     0.122 C 
HETATM    6  C   UNL     1      76.737   0.469  16.555  1.00  0.00     0.122 C 
HETATM    7  C   UNL     1      75.299   2.445  17.254  1.00  0.00     0.021 C 
HETATM    8  C   UNL     1      75.354   0.946  16.969  1.00  0.00     0.021 C 
HETATM    9  H   UNL     1      77.040   2.579  19.827  1.00  0.00     0.161 HD
HETATM   10  H   UNL     1      78.237  -0.477  17.623  1.00  0.00     0.161 HD
ENDROOT
TORSDOF 0
ENDMDL
MODEL 5
REMARK VINA RESULT:      -3.5     19.438     20.438
REMARK  0 active torsions:
REMARK  status: ('A' for Active; 'I' for Inactive)
ROOT
HETATM    1  C   UNL     1      67.568   5.513   8.486  1.00  0.00     0.167 C 
HETATM    2  N   UNL     1      67.013   4.309   8.733  1.00  0.00    -0.367 N 
HETATM    3  N   UNL     1      68.905   5.671   8.481  1.00  0.00    -0.367 N 
HETATM    4  S   UNL     1      66.587   6.827   8.200  1.00  0.00    -0.041 SA
HETATM    5  C   UNL     1      67.649   3.025   8.559  1.00  0.00     0.122 C 
HETATM    6  C   UNL     1      69.959   4.723   8.793  1.00  0.00     0.122 C 
HETATM    7  C   UNL     1      68.680   2.690   9.629  1.00  0.00     0.021 C 
HETATM    8  C   UNL     1      69.635   3.829   9.980  1.00  0.00     0.021 C 
HETATM    9  H   UNL     1      66.085   4.306   9.063  1.00  0.00     0.161 HD
HETATM   10  H   UNL     1      69.217   6.570   8.228  1.00  0.00     0.161 HD
ENDROOT
TORSDOF 0
ENDMDL
MODEL 6
REMARK VINA RESULT:      -3.5     18.767     19.562
REMARK  0 active torsions:
REMARK  status: ('A' for Active; 'I' for Inactive)
ROOT
HETATM    1  C   UNL     1      67.474   6.751   6.217  1.00  0.00     0.167 C 
HETATM    2  N   UNL     1      67.270   7.334   7.415  1.00  0.00    -0.367 N 
HETATM    3  N   UNL     1      67.810   5.450   6.128  1.00  0.00    -0.367 N 
HETATM    4  S   UNL     1      67.326   7.656   4.828  1.00  0.00    -0.041 SA
HETATM    5  C   UNL     1      66.916   6.660   8.643  1.00  0.00     0.122 C 
HETATM    6  C   UNL     1      68.093   4.485   7.174  1.00  0.00     0.122 C 
HETATM    7  C   UNL     1      68.065   5.897   9.288  1.00  0.00     0.021 C 
HETATM    8  C   UNL     1      68.904   5.061   8.324  1.00  0.00     0.021 C 
HETATM    9  H   UNL     1      67.371   8.312   7.458  1.00  0.00     0.161 HD
HETATM   10  H   UNL     1      67.875   5.099   5.210  1.00  0.00     0.161 HD
ENDROOT
TORSDOF 0
ENDMDL
MODEL 7
REMARK VINA RESULT:      -3.3     19.825     20.799
REMARK  0 active torsions:
REMARK  status: ('A' for Active; 'I' for Inactive)
ROOT
HETATM    1  C   UNL     1      63.367   8.914   4.083  1.00  0.00     0.167 C 
HETATM    2  N   UNL     1      63.057   8.147   3.019  1.00  0.00    -0.367 N 
HETATM    3  N   UNL     1      62.723  10.074   4.313  1.00  0.00    -0.367 N 
HETATM    4  S   UNL     1      64.576   8.429   5.120  1.00  0.00    -0.041 SA
HETATM    5  C   UNL     1      61.805   8.153   2.299  1.00  0.00     0.122 C 
HETATM    6  C   UNL     1      61.718  10.756   3.519  1.00  0.00     0.122 C 
HETATM    7  C   UNL     1      61.612   9.363   1.395  1.00  0.00     0.021 C 
HETATM    8  C   UNL     1      61.989  10.703   2.024  1.00  0.00     0.021 C 
HETATM    9  H   UNL     1      63.749   7.523   2.703  1.00  0.00     0.161 HD
HETATM   10  H   UNL     1      62.975  10.531   5.148  1.00  0.00     0.161 HD
ENDROOT
TORSDOF 0
ENDMDL
MODEL 8
REMARK VINA RESULT:      -3.2     20.789     21.333
REMARK  0 active torsions:
REMARK  status: ('A' for Active; 'I' for Inactive)
ROOT
HETATM    1  C   UNL     1      67.866   2.260   9.535  1.00  0.00     0.167 C 
HETATM    2  N   UNL     1      67.228   3.081   8.678  1.00  0.00    -0.367 N 
HETATM    3  N   UNL     1      68.966   2.667  10.196  1.00  0.00    -0.367 N 
HETATM    4  S   UNL     1      67.298   0.712   9.767  1.00  0.00    -0.041 SA
HETATM    5  C   UNL     1      67.281   4.524   8.680  1.00  0.00     0.122 C 
HETATM    6  C   UNL     1      69.707   3.912  10.098  1.00  0.00     0.122 C 
HETATM    7  C   UNL     1      68.586   5.101   8.150  1.00  0.00     0.021 C 
HETATM    8  C   UNL     1      69.849   4.419   8.671  1.00  0.00     0.021 C 
HETATM    9  H   UNL     1      66.672   2.657   7.985  1.00  0.00     0.161 HD
HETATM   10  H   UNL     1      69.324   2.021  10.847  1.00  0.00     0.161 HD
ENDROOT
TORSDOF 0
ENDMDL
MODEL 9
REMARK VINA RESULT:      -3.2     25.869     26.714
REMARK  0 active torsions:
REMARK  status: ('A' for Active; 'I' for Inactive)
ROOT
HETATM    1  C   UNL     1      56.082   2.439  13.403  1.00  0.00     0.167 C 
HETATM    2  N   UNL     1      56.202   1.408  14.264  1.00  0.00    -0.367 N 
HETATM    3  N   UNL     1      57.052   2.711  12.509  1.00  0.00    -0.367 N 
HETATM    4  S   UNL     1      54.724   3.400  13.456  1.00  0.00    -0.041 SA
HETATM    5  C   UNL     1      57.036   0.243  14.089  1.00  0.00     0.122 C 
HETATM    6  C   UNL     1      58.354   2.096  12.328  1.00  0.00     0.122 C 
HETATM    7  C   UNL     1      58.522   0.502  14.302  1.00  0.00     0.021 C 
HETATM    8  C   UNL     1      59.055   1.769  13.638  1.00  0.00     0.021 C 
HETATM    9  H   UNL     1      55.670   1.455  15.091  1.00  0.00     0.161 HD
HETATM   10  H   UNL     1      56.846   3.441  11.881  1.00  0.00     0.161 HD
ENDROOT
TORSDOF 0
ENDMDL
