MODEL 1
REMARK VINA RESULT:      -4.9      0.000      0.000
REMARK  1 active torsions:
REMARK  status: ('A' for Active; 'I' for Inactive)
REMARK    1  A    between atoms: C_3  and  C_9 
ROOT
HETATM    1  N   UNL     1      65.255   8.958   5.761  1.00  0.00    -0.197 NA
HETATM    2  C   UNL     1      66.012   8.207   5.299  1.00  0.00     0.065 C 
HETATM    3  C   UNL     1      66.948   7.270   4.672  1.00  0.00     0.188 C 
ENDROOT
BRANCH   3   4
HETATM    4  C   UNL     1      67.461   6.296   5.685  1.00  0.00     0.065 A 
HETATM    5  N   UNL     1      67.941   6.644   6.860  1.00  0.00    -0.352 N 
HETATM    6  C   UNL     1      68.282   5.515   7.588  1.00  0.00     0.050 A 
ATOM      7  HN  UNL     1      68.046   7.604   7.187  1.00  0.00     0.166 HD
HETATM    8  C   UNL     1      68.100   4.299   6.926  1.00  0.00     0.033 A 
HETATM    9  C   UNL     1      68.777   5.504   8.906  1.00  0.00     0.031 A 
HETATM   10  S   UNL     1      67.472   4.609   5.352  1.00  0.00    -0.074 SA
HETATM   11  C   UNL     1      68.404   3.071   7.538  1.00  0.00     0.021 A 
HETATM   12  C   UNL     1      68.890   3.087   8.850  1.00  0.00     0.002 A 
HETATM   13  C   UNL     1      69.072   4.288   9.529  1.00  0.00     0.002 A 
ENDBRANCH   3   4
TORSDOF 1
ENDMDL
MODEL 2
REMARK VINA RESULT:      -4.9      3.928      7.648
REMARK  1 active torsions:
REMARK  status: ('A' for Active; 'I' for Inactive)
REMARK    1  A    between atoms: C_3  and  C_9 
ROOT
HETATM    1  N   UNL     1      67.063   7.637   6.464  1.00  0.00    -0.197 NA
HETATM    2  C   UNL     1      65.928   7.396   6.394  1.00  0.00     0.065 C 
HETATM    3  C   UNL     1      64.507   7.049   6.327  1.00  0.00     0.188 C 
ENDROOT
BRANCH   3   4
HETATM    4  C   UNL     1      63.817   7.889   5.298  1.00  0.00     0.065 A 
HETATM    5  N   UNL     1      63.337   9.090   5.533  1.00  0.00    -0.352 N 
HETATM    6  C   UNL     1      62.810   9.629   4.370  1.00  0.00     0.050 A 
ATOM      7  HN  UNL     1      63.350   9.558   6.440  1.00  0.00     0.166 HD
HETATM    8  C   UNL     1      62.853   8.794   3.252  1.00  0.00     0.033 A 
HETATM    9  C   UNL     1      62.258  10.918   4.236  1.00  0.00     0.031 A 
HETATM   10  S   UNL     1      63.589   7.301   3.698  1.00  0.00    -0.074 SA
HETATM   11  C   UNL     1      62.354   9.203   2.003  1.00  0.00     0.021 A 
HETATM   12  C   UNL     1      61.815  10.490   1.894  1.00  0.00     0.002 A 
HETATM   13  C   UNL     1      61.769  11.340   2.995  1.00  0.00     0.002 A 
ENDBRANCH   3   4
TORSDOF 1
ENDMDL
MODEL 3
REMARK VINA RESULT:      -4.6     13.581     14.353
REMARK  1 active torsions:
REMARK  status: ('A' for Active; 'I' for Inactive)
REMARK    1  A    between atoms: C_3  and  C_9 
ROOT
HETATM    1  N   UNL     1      77.266   3.730  19.676  1.00  0.00    -0.197 NA
HETATM    2  C   UNL     1      76.776   3.434  18.664  1.00  0.00     0.065 C 
HETATM    3  C   UNL     1      76.162   3.108  17.374  1.00  0.00     0.188 C 
ENDROOT
BRANCH   3   4
HETATM    4  C   UNL     1      75.383   1.834  17.479  1.00  0.00     0.065 A 
HETATM    5  N   UNL     1      75.156   1.205  18.612  1.00  0.00    -0.352 N 
HETATM    6  C   UNL     1      74.362   0.092  18.387  1.00  0.00     0.050 A 
ATOM      7  HN  UNL     1      75.512   1.494  19.523  1.00  0.00     0.166 HD
HETATM    8  C   UNL     1      74.028  -0.145  17.052  1.00  0.00     0.033 A 
HETATM    9  C   UNL     1      73.877  -0.787  19.375  1.00  0.00     0.031 A 
HETATM   10  S   UNL     1      74.735   1.085  16.074  1.00  0.00    -0.074 SA
HETATM   11  C   UNL     1      73.231  -1.237  16.671  1.00  0.00     0.021 A 
HETATM   12  C   UNL     1      72.757  -2.093  17.672  1.00  0.00     0.002 A 
HETATM   13  C   UNL     1      73.073  -1.871  19.009  1.00  0.00     0.002 A 
ENDBRANCH   3   4
TORSDOF 1
ENDMDL
MODEL 4
REMARK VINA RESULT:      -4.6      1.402      1.954
REMARK  1 active torsions:
REMARK  status: ('A' for Active; 'I' for Inactive)
REMARK    1  A    between atoms: C_3  and  C_9 
ROOT
HETATM    1  N   UNL     1      64.510   9.397   5.422  1.00  0.00    -0.197 NA
HETATM    2  C   UNL     1      65.063   8.442   5.058  1.00  0.00     0.065 C 
HETATM    3  C   UNL     1      65.729   7.236   4.560  1.00  0.00     0.188 C 
ENDROOT
BRANCH   3   4
HETATM    4  C   UNL     1      66.454   6.548   5.674  1.00  0.00     0.065 A 
HETATM    5  N   UNL     1      67.023   5.367   5.560  1.00  0.00    -0.352 N 
HETATM    6  C   UNL     1      67.658   5.029   6.744  1.00  0.00     0.050 A 
ATOM      7  HN  UNL     1      67.001   4.786   4.722  1.00  0.00     0.166 HD
HETATM    8  C   UNL     1      67.519   5.952   7.783  1.00  0.00     0.033 A 
HETATM    9  C   UNL     1      68.414   3.861   6.969  1.00  0.00     0.031 A 
HETATM   10  S   UNL     1      66.570   7.278   7.227  1.00  0.00    -0.074 SA
HETATM   11  C   UNL     1      68.106   5.743   9.043  1.00  0.00     0.021 A 
HETATM   12  C   UNL     1      68.856   4.578   9.239  1.00  0.00     0.002 A 
HETATM   13  C   UNL     1      69.012   3.648   8.215  1.00  0.00     0.002 A 
ENDBRANCH   3   4
TORSDOF 1
ENDMDL
MODEL 5
REMARK VINA RESULT:      -4.5     13.668     16.197
REMARK  1 active torsions:
REMARK  status: ('A' for Active; 'I' for Inactive)
REMARK    1  A    between atoms: C_3  and  C_9 
ROOT
HETATM    1  N   UNL     1      79.865  -1.820  19.064  1.00  0.00    -0.197 NA
HETATM    2  C   UNL     1      79.549  -0.798  19.518  1.00  0.00     0.065 C 
HETATM    3  C   UNL     1      79.167   0.475  20.134  1.00  0.00     0.188 C 
ENDROOT
BRANCH   3   4
HETATM    4  C   UNL     1      78.105   1.146  19.321  1.00  0.00     0.065 A 
HETATM    5  N   UNL     1      78.068   2.440  19.087  1.00  0.00    -0.352 N 
HETATM    6  C   UNL     1      76.999   2.743  18.259  1.00  0.00     0.050 A 
ATOM      7  HN  UNL     1      78.730   3.120  19.460  1.00  0.00     0.166 HD
HETATM    8  C   UNL     1      76.190   1.662  17.906  1.00  0.00     0.033 A 
HETATM    9  C   UNL     1      76.682   4.022  17.759  1.00  0.00     0.031 A 
HETATM   10  S   UNL     1      76.818   0.233  18.637  1.00  0.00    -0.074 SA
HETATM   11  C   UNL     1      75.068   1.817  17.074  1.00  0.00     0.021 A 
HETATM   12  C   UNL     1      74.777   3.096  16.586  1.00  0.00     0.002 A 
HETATM   13  C   UNL     1      75.575   4.186  16.921  1.00  0.00     0.002 A 
ENDBRANCH   3   4
TORSDOF 1
ENDMDL
MODEL 6
REMARK VINA RESULT:      -4.4      3.312      4.668
REMARK  1 active torsions:
REMARK  status: ('A' for Active; 'I' for Inactive)
REMARK    1  A    between atoms: C_3  and  C_9 
ROOT
HETATM    1  N   UNL     1      61.942  11.584   4.277  1.00  0.00    -0.197 NA
HETATM    2  C   UNL     1      62.148  10.496   3.924  1.00  0.00     0.065 C 
HETATM    3  C   UNL     1      62.365   9.125   3.453  1.00  0.00     0.188 C 
ENDROOT
BRANCH   3   4
HETATM    4  C   UNL     1      63.288   8.400   4.380  1.00  0.00     0.065 A 
HETATM    5  N   UNL     1      64.472   8.849   4.736  1.00  0.00    -0.352 N 
HETATM    6  C   UNL     1      65.058   7.981   5.643  1.00  0.00     0.050 A 
ATOM      7  HN  UNL     1      64.897   9.711   4.395  1.00  0.00     0.166 HD
HETATM    8  C   UNL     1      64.319   6.833   5.935  1.00  0.00     0.033 A 
HETATM    9  C   UNL     1      66.302   8.167   6.277  1.00  0.00     0.031 A 
HETATM   10  S   UNL     1      62.846   6.875   5.041  1.00  0.00    -0.074 SA
HETATM   11  C   UNL     1      64.786   5.860   6.835  1.00  0.00     0.021 A 
HETATM   12  C   UNL     1      66.022   6.071   7.456  1.00  0.00     0.002 A 
HETATM   13  C   UNL     1      66.772   7.212   7.184  1.00  0.00     0.002 A 
ENDBRANCH   3   4
TORSDOF 1
ENDMDL
MODEL 7
REMARK VINA RESULT:      -4.4      2.497      2.827
REMARK  1 active torsions:
REMARK  status: ('A' for Active; 'I' for Inactive)
REMARK    1  A    between atoms: C_3  and  C_9 
ROOT
HETATM    1  N   UNL     1      61.362   6.288   6.829  1.00  0.00    -0.197 NA
HETATM    2  C   UNL     1      62.307   6.729   6.316  1.00  0.00     0.065 C 
HETATM    3  C   UNL     1      63.472   7.295   5.630  1.00  0.00     0.188 C 
ENDROOT
BRANCH   3   4
HETATM    4  C   UNL     1      64.735   6.762   6.230  1.00  0.00     0.065 A 
HETATM    5  N   UNL     1      65.158   7.066   7.438  1.00  0.00    -0.352 N 
HETATM    6  C   UNL     1      66.324   6.373   7.722  1.00  0.00     0.050 A 
ATOM      7  HN  UNL     1      64.695   7.716   8.074  1.00  0.00     0.166 HD
HETATM    8  C   UNL     1      66.811   5.572   6.688  1.00  0.00     0.033 A 
HETATM    9  C   UNL     1      67.028   6.411   8.942  1.00  0.00     0.031 A 
HETATM   10  S   UNL     1      65.751   5.701   5.336  1.00  0.00    -0.074 SA
HETATM   11  C   UNL     1      67.985   4.812   6.829  1.00  0.00     0.021 A 
HETATM   12  C   UNL     1      68.664   4.864   8.052  1.00  0.00     0.002 A 
HETATM   13  C   UNL     1      68.191   5.651   9.098  1.00  0.00     0.002 A 
ENDBRANCH   3   4
TORSDOF 1
ENDMDL
MODEL 8
REMARK VINA RESULT:      -4.0      6.873      8.550
REMARK  1 active torsions:
REMARK  status: ('A' for Active; 'I' for Inactive)
REMARK    1  A    between atoms: C_3  and  C_9 
ROOT
HETATM    1  N   UNL     1      59.964   5.326   0.458  1.00  0.00    -0.197 NA
HETATM    2  C   UNL     1      60.269   6.440   0.332  1.00  0.00     0.065 C 
HETATM    3  C   UNL     1      60.652   7.839   0.124  1.00  0.00     0.188 C 
ENDROOT
BRANCH   3   4
HETATM    4  C   UNL     1      61.344   8.372   1.339  1.00  0.00     0.065 A 
HETATM    5  N   UNL     1      61.154   9.582   1.819  1.00  0.00    -0.352 N 
HETATM    6  C   UNL     1      61.892   9.755   2.979  1.00  0.00     0.050 A 
ATOM      7  HN  UNL     1      60.550  10.289   1.400  1.00  0.00     0.166 HD
HETATM    8  C   UNL     1      62.690   8.671   3.348  1.00  0.00     0.033 A 
HETATM    9  C   UNL     1      61.893  10.907   3.790  1.00  0.00     0.031 A 
HETATM   10  S   UNL     1      62.480   7.406   2.196  1.00  0.00    -0.074 SA
HETATM   11  C   UNL     1      63.496   8.702   4.498  1.00  0.00     0.021 A 
HETATM   12  C   UNL     1      63.475   9.855   5.291  1.00  0.00     0.002 A 
HETATM   13  C   UNL     1      62.682  10.945   4.944  1.00  0.00     0.002 A 
ENDBRANCH   3   4
TORSDOF 1
ENDMDL
MODEL 9
REMARK VINA RESULT:      -4.0     10.511     10.753
REMARK  1 active torsions:
REMARK  status: ('A' for Active; 'I' for Inactive)
REMARK    1  A    between atoms: C_3  and  C_9 
ROOT
HETATM    1  N   UNL     1      58.755   5.875   9.445  1.00  0.00    -0.197 NA
HETATM    2  C   UNL     1      58.704   4.739   9.209  1.00  0.00     0.065 C 
HETATM    3  C   UNL     1      58.617   3.316   8.868  1.00  0.00     0.188 C 
ENDROOT
BRANCH   3   4
HETATM    4  C   UNL     1      58.711   2.481  10.107  1.00  0.00     0.065 A 
HETATM    5  N   UNL     1      58.464   2.934  11.317  1.00  0.00    -0.352 N 
HETATM    6  C   UNL     1      58.582   1.909  12.242  1.00  0.00     0.050 A 
ATOM      7  HN  UNL     1      58.219   3.898  11.542  1.00  0.00     0.166 HD
HETATM    8  C   UNL     1      58.975   0.675  11.720  1.00  0.00     0.033 A 
HETATM    9  C   UNL     1      58.338   2.016  13.625  1.00  0.00     0.031 A 
HETATM   10  S   UNL     1      59.183   0.830  10.017  1.00  0.00    -0.074 SA
HETATM   11  C   UNL     1      59.139  -0.456  12.538  1.00  0.00     0.021 A 
HETATM   12  C   UNL     1      58.886  -0.326  13.908  1.00  0.00     0.002 A 
HETATM   13  C   UNL     1      58.487   0.894  14.447  1.00  0.00     0.002 A 
ENDBRANCH   3   4
TORSDOF 1
ENDMDL
