MODEL 1
REMARK VINA RESULT:      -4.0      0.000      0.000
REMARK  0 active torsions:
REMARK  status: ('A' for Active; 'I' for Inactive)
ROOT
HETATM    1  N   UNL     1      79.192   9.522  18.045  1.00  0.00    -0.284 N 
ATOM      2  HN  UNL     1      79.954   8.976  17.644  1.00  0.00     0.188 HD
HETATM    3  C   UNL     1      77.962  10.869  19.397  1.00  0.00     0.068 A 
HETATM    4  C   UNL     1      79.200  10.245  19.161  1.00  0.00     0.114 A 
HETATM    5  N   UNL     1      77.946   9.678  17.570  1.00  0.00    -0.306 N 
HETATM    6  C   UNL     1      77.163  10.482  18.346  1.00  0.00     0.113 A 
HETATM    7  N   UNL     1      80.259  10.363  19.962  1.00  0.00    -0.384 N 
HETATM    8  C   UNL     1      77.546   9.023  16.348  1.00  0.00     0.177 C 
HETATM    9  H   UNL     1      80.201  10.915  20.775  1.00  0.00     0.157 HD
HETATM   10  H   UNL     1      81.099   9.900  19.740  1.00  0.00     0.157 HD
ENDROOT
TORSDOF 0
ENDMDL
MODEL 2
REMARK VINA RESULT:      -3.9      2.848      4.644
REMARK  0 active torsions:
REMARK  status: ('A' for Active; 'I' for Inactive)
ROOT
HETATM    1  N   UNL     1      80.335  11.537  21.723  1.00  0.00    -0.284 N 
ATOM      2  HN  UNL     1      81.228  11.149  22.023  1.00  0.00     0.188 HD
HETATM    3  C   UNL     1      78.447  11.986  20.543  1.00  0.00     0.068 A 
HETATM    4  C   UNL     1      79.646  11.255  20.621  1.00  0.00     0.114 A 
HETATM    5  N   UNL     1      79.579  12.455  22.349  1.00  0.00    -0.306 N 
HETATM    6  C   UNL     1      78.428  12.760  21.681  1.00  0.00     0.113 A 
HETATM    7  N   UNL     1      80.047  10.381  19.698  1.00  0.00    -0.384 N 
HETATM    8  C   UNL     1      80.010  13.019  23.604  1.00  0.00     0.177 C 
HETATM    9  H   UNL     1      79.491  10.216  18.903  1.00  0.00     0.157 HD
HETATM   10  H   UNL     1      80.899   9.901  19.812  1.00  0.00     0.157 HD
ENDROOT
TORSDOF 0
ENDMDL
MODEL 3
REMARK VINA RESULT:      -3.8     14.507     15.071
REMARK  0 active torsions:
REMARK  status: ('A' for Active; 'I' for Inactive)
ROOT
HETATM    1  N   UNL     1      73.190  23.615  15.712  1.00  0.00    -0.284 N 
ATOM      2  HN  UNL     1      72.963  23.704  16.702  1.00  0.00     0.188 HD
HETATM    3  C   UNL     1      74.003  22.866  13.728  1.00  0.00     0.068 A 
HETATM    4  C   UNL     1      73.902  22.663  15.117  1.00  0.00     0.114 A 
HETATM    5  N   UNL     1      72.839  24.432  14.705  1.00  0.00    -0.306 N 
HETATM    6  C   UNL     1      73.302  24.025  13.487  1.00  0.00     0.113 A 
HETATM    7  N   UNL     1      74.457  21.637  15.762  1.00  0.00    -0.384 N 
HETATM    8  C   UNL     1      72.048  25.609  14.966  1.00  0.00     0.177 C 
HETATM    9  H   UNL     1      74.973  20.963  15.262  1.00  0.00     0.157 HD
HETATM   10  H   UNL     1      74.349  21.552  16.737  1.00  0.00     0.157 HD
ENDROOT
TORSDOF 0
ENDMDL
MODEL 4
REMARK VINA RESULT:      -3.8      1.642      2.361
REMARK  0 active torsions:
REMARK  status: ('A' for Active; 'I' for Inactive)
ROOT
HETATM    1  N   UNL     1      78.336  11.605  19.805  1.00  0.00    -0.284 N 
ATOM      2  HN  UNL     1      78.589  12.322  20.485  1.00  0.00     0.188 HD
HETATM    3  C   UNL     1      78.374   9.771  18.466  1.00  0.00     0.068 A 
HETATM    4  C   UNL     1      79.048  10.548  19.426  1.00  0.00     0.114 A 
HETATM    5  N   UNL     1      77.208  11.509  19.083  1.00  0.00    -0.306 N 
HETATM    6  C   UNL     1      77.178  10.420  18.260  1.00  0.00     0.113 A 
HETATM    7  N   UNL     1      80.260  10.259  19.900  1.00  0.00    -0.384 N 
HETATM    8  C   UNL     1      76.172  12.502  19.218  1.00  0.00     0.177 C 
HETATM    9  H   UNL     1      80.736   9.459  19.579  1.00  0.00     0.157 HD
HETATM   10  H   UNL     1      80.678  10.845  20.572  1.00  0.00     0.157 HD
ENDROOT
TORSDOF 0
ENDMDL
MODEL 5
REMARK VINA RESULT:      -3.8      2.482      3.327
REMARK  0 active torsions:
REMARK  status: ('A' for Active; 'I' for Inactive)
ROOT
HETATM    1  N   UNL     1      79.908  11.177  20.802  1.00  0.00    -0.284 N 
ATOM      2  HN  UNL     1      80.566  10.453  20.515  1.00  0.00     0.188 HD
HETATM    3  C   UNL     1      78.939  12.934  21.867  1.00  0.00     0.068 A 
HETATM    4  C   UNL     1      80.061  12.092  21.755  1.00  0.00     0.114 A 
HETATM    5  N   UNL     1      78.685  11.430  20.307  1.00  0.00    -0.306 N 
HETATM    6  C   UNL     1      78.058  12.480  20.913  1.00  0.00     0.113 A 
HETATM    7  N   UNL     1      81.150  12.197  22.517  1.00  0.00    -0.384 N 
HETATM    8  C   UNL     1      78.153  10.622  19.238  1.00  0.00     0.177 C 
HETATM    9  H   UNL     1      81.202  12.898  23.206  1.00  0.00     0.157 HD
HETATM   10  H   UNL     1      81.903  11.575  22.388  1.00  0.00     0.157 HD
ENDROOT
TORSDOF 0
ENDMDL
MODEL 6
REMARK VINA RESULT:      -3.7     19.726     20.803
REMARK  0 active torsions:
REMARK  status: ('A' for Active; 'I' for Inactive)
ROOT
HETATM    1  N   UNL     1      63.176   9.441   5.541  1.00  0.00    -0.284 N 
ATOM      2  HN  UNL     1      63.697   8.860   6.197  1.00  0.00     0.188 HD
HETATM    3  C   UNL     1      62.286  11.222   4.448  1.00  0.00     0.068 A 
HETATM    4  C   UNL     1      63.098  10.768   5.503  1.00  0.00     0.114 A 
HETATM    5  N   UNL     1      62.409   9.045   4.512  1.00  0.00    -0.306 N 
HETATM    6  C   UNL     1      61.850  10.079   3.819  1.00  0.00     0.113 A 
HETATM    7  N   UNL     1      63.717  11.573   6.367  1.00  0.00    -0.384 N 
HETATM    8  C   UNL     1      62.239   7.641   4.231  1.00  0.00     0.177 C 
HETATM    9  H   UNL     1      63.620  12.549   6.286  1.00  0.00     0.157 HD
HETATM   10  H   UNL     1      64.272  11.191   7.085  1.00  0.00     0.157 HD
ENDROOT
TORSDOF 0
ENDMDL
MODEL 7
REMARK VINA RESULT:      -3.6      6.427      7.128
REMARK  0 active torsions:
REMARK  status: ('A' for Active; 'I' for Inactive)
ROOT
HETATM    1  N   UNL     1      76.042   2.529  18.396  1.00  0.00    -0.284 N 
ATOM      2  HN  UNL     1      75.881   1.621  18.832  1.00  0.00     0.188 HD
HETATM    3  C   UNL     1      76.849   4.597  17.917  1.00  0.00     0.068 A 
HETATM    4  C   UNL     1      76.902   3.474  18.763  1.00  0.00     0.114 A 
HETATM    5  N   UNL     1      75.433   3.049  17.318  1.00  0.00    -0.306 N 
HETATM    6  C   UNL     1      75.883   4.294  16.985  1.00  0.00     0.113 A 
HETATM    7  N   UNL     1      77.719   3.369  19.811  1.00  0.00    -0.384 N 
HETATM    8  C   UNL     1      74.407   2.303  16.632  1.00  0.00     0.177 C 
HETATM    9  H   UNL     1      78.335   4.105  20.030  1.00  0.00     0.157 HD
HETATM   10  H   UNL     1      77.707   2.555  20.365  1.00  0.00     0.157 HD
ENDROOT
TORSDOF 0
ENDMDL
MODEL 8
REMARK VINA RESULT:      -3.6     19.994     21.299
REMARK  0 active torsions:
REMARK  status: ('A' for Active; 'I' for Inactive)
ROOT
HETATM    1  N   UNL     1      62.319  11.754   4.457  1.00  0.00    -0.284 N 
ATOM      2  HN  UNL     1      62.108  12.751   4.486  1.00  0.00     0.188 HD
HETATM    3  C   UNL     1      62.979   9.655   5.021  1.00  0.00     0.068 A 
HETATM    4  C   UNL     1      62.828  10.995   5.423  1.00  0.00     0.114 A 
HETATM    5  N   UNL     1      62.150  10.901   3.433  1.00  0.00    -0.306 N 
HETATM    6  C   UNL     1      62.531   9.622   3.720  1.00  0.00     0.113 A 
HETATM    7  N   UNL     1      63.157  11.451   6.631  1.00  0.00    -0.384 N 
HETATM    8  C   UNL     1      61.614  11.368   2.179  1.00  0.00     0.177 C 
HETATM    9  H   UNL     1      63.529  10.837   7.304  1.00  0.00     0.157 HD
HETATM   10  H   UNL     1      63.026  12.403   6.850  1.00  0.00     0.157 HD
ENDROOT
TORSDOF 0
ENDMDL
MODEL 9
REMARK VINA RESULT:      -3.6      7.423      8.283
REMARK  0 active torsions:
REMARK  status: ('A' for Active; 'I' for Inactive)
ROOT
HETATM    1  N   UNL     1      77.835   2.783  19.400  1.00  0.00    -0.284 N 
ATOM      2  HN  UNL     1      78.250   3.332  20.152  1.00  0.00     0.188 HD
HETATM    3  C   UNL     1      76.615   2.145  17.593  1.00  0.00     0.068 A 
HETATM    4  C   UNL     1      76.965   3.182  18.477  1.00  0.00     0.114 A 
HETATM    5  N   UNL     1      78.039   1.487  19.110  1.00  0.00    -0.306 N 
HETATM    6  C   UNL     1      77.328   1.052  18.029  1.00  0.00     0.113 A 
HETATM    7  N   UNL     1      76.479   4.422  18.401  1.00  0.00    -0.384 N 
HETATM    8  C   UNL     1      78.936   0.695  19.914  1.00  0.00     0.177 C 
HETATM    9  H   UNL     1      75.837   4.655  17.692  1.00  0.00     0.157 HD
HETATM   10  H   UNL     1      76.764   5.103  19.052  1.00  0.00     0.157 HD
ENDROOT
TORSDOF 0
ENDMDL
