MODEL 1
REMARK VINA RESULT:      -4.7      0.000      0.000
REMARK  4 active torsions:
REMARK  status: ('A' for Active; 'I' for Inactive)
REMARK    1  A    between atoms: C_1  and  C_5 
REMARK    2  A    between atoms: C_2  and  N_8 
REMARK    3  A    between atoms: C_5  and  O_9 
REMARK    4  A    between atoms: O_9  and  C_11 
ROOT
HETATM    1  C   UNL     1      63.561   9.096   4.848  1.00  0.00     0.079 A 
HETATM    2  C   UNL     1      63.030  10.368   5.030  1.00  0.00     0.084 A 
HETATM    3  S   UNL     1      62.013  10.841   3.738  1.00  0.00    -0.083 SA
HETATM    4  C   UNL     1      63.101   8.517   3.590  1.00  0.00    -0.036 A 
HETATM    5  C   UNL     1      62.268   9.381   2.908  1.00  0.00     0.059 A 
HETATM    6  C   UNL     1      63.476   7.160   3.081  1.00  0.00     0.050 C 
ENDROOT
BRANCH   1   7
HETATM    7  C   UNL     1      64.469   8.416   5.784  1.00  0.00     0.296 C 
HETATM    8  O   UNL     1      64.163   7.397   6.392  1.00  0.00    -0.259 OA
BRANCH   7   9
HETATM    9  O   UNL     1      65.687   9.029   5.920  1.00  0.00    -0.318 OA
BRANCH   9  10
HETATM   10  C   UNL     1      66.778   8.174   6.288  1.00  0.00     0.174 C 
HETATM   11  C   UNL     1      67.521   7.692   5.055  1.00  0.00     0.034 C 
ENDBRANCH   9  10
ENDBRANCH   7   9
ENDBRANCH   1   7
BRANCH   2  12
HETATM   12  N   UNL     1      63.221  11.227   6.053  1.00  0.00    -0.393 N 
HETATM   13  H   UNL     1      64.076  11.709   6.137  1.00  0.00     0.156 HD
HETATM   14  H   UNL     1      62.508  11.371   6.716  1.00  0.00     0.156 HD
ENDBRANCH   2  12
TORSDOF 4
ENDMDL
MODEL 2
REMARK VINA RESULT:      -4.3      1.348      2.137
REMARK  4 active torsions:
REMARK  status: ('A' for Active; 'I' for Inactive)
REMARK    1  A    between atoms: C_1  and  C_5 
REMARK    2  A    between atoms: C_2  and  N_8 
REMARK    3  A    between atoms: C_5  and  O_9 
REMARK    4  A    between atoms: O_9  and  C_11 
ROOT
HETATM    1  C   UNL     1      63.402   9.186   4.532  1.00  0.00     0.079 A 
HETATM    2  C   UNL     1      62.988  10.456   4.915  1.00  0.00     0.084 A 
HETATM    3  S   UNL     1      61.912  11.159   3.786  1.00  0.00    -0.083 SA
HETATM    4  C   UNL     1      62.801   8.807   3.258  1.00  0.00    -0.036 A 
HETATM    5  C   UNL     1      61.987   9.805   2.763  1.00  0.00     0.059 A 
HETATM    6  C   UNL     1      63.029   7.505   2.554  1.00  0.00     0.050 C 
ENDROOT
BRANCH   1   7
HETATM    7  C   UNL     1      64.325   8.331   5.294  1.00  0.00     0.296 C 
HETATM    8  O   UNL     1      65.454   8.055   4.907  1.00  0.00    -0.259 OA
BRANCH   7   9
HETATM    9  O   UNL     1      63.804   7.864   6.472  1.00  0.00    -0.318 OA
BRANCH   9  10
HETATM   10  C   UNL     1      62.646   7.025   6.354  1.00  0.00     0.174 C 
HETATM   11  C   UNL     1      63.043   5.616   5.952  1.00  0.00     0.034 C 
ENDBRANCH   9  10
ENDBRANCH   7   9
ENDBRANCH   1   7
BRANCH   2  12
HETATM   12  N   UNL     1      63.324  11.161   6.016  1.00  0.00    -0.393 N 
HETATM   13  H   UNL     1      63.582  10.689   6.842  1.00  0.00     0.156 HD
HETATM   14  H   UNL     1      63.312  12.145   5.995  1.00  0.00     0.156 HD
ENDBRANCH   2  12
TORSDOF 4
ENDMDL
MODEL 3
REMARK VINA RESULT:      -4.3      4.511      5.412
REMARK  4 active torsions:
REMARK  status: ('A' for Active; 'I' for Inactive)
REMARK    1  A    between atoms: C_1  and  C_5 
REMARK    2  A    between atoms: C_2  and  N_8 
REMARK    3  A    between atoms: C_5  and  O_9 
REMARK    4  A    between atoms: O_9  and  C_11 
ROOT
HETATM    1  C   UNL     1      67.164   6.009   6.922  1.00  0.00     0.079 A 
HETATM    2  C   UNL     1      67.063   7.313   6.454  1.00  0.00     0.084 A 
HETATM    3  S   UNL     1      67.134   7.400   4.746  1.00  0.00    -0.083 SA
HETATM    4  C   UNL     1      67.308   5.069   5.815  1.00  0.00    -0.036 A 
HETATM    5  C   UNL     1      67.314   5.717   4.596  1.00  0.00     0.059 A 
HETATM    6  C   UNL     1      67.441   3.585   5.960  1.00  0.00     0.050 C 
ENDROOT
BRANCH   1   7
HETATM    7  C   UNL     1      67.137   5.614   8.339  1.00  0.00     0.296 C 
HETATM    8  O   UNL     1      66.204   5.000   8.845  1.00  0.00    -0.259 OA
BRANCH   7   9
HETATM    9  O   UNL     1      68.246   6.002   9.044  1.00  0.00    -0.318 OA
BRANCH   9  10
HETATM   10  C   UNL     1      69.458   5.298   8.739  1.00  0.00     0.174 C 
HETATM   11  C   UNL     1      69.556   4.021   9.554  1.00  0.00     0.034 C 
ENDBRANCH   9  10
ENDBRANCH   7   9
ENDBRANCH   1   7
BRANCH   2  12
HETATM   12  N   UNL     1      66.929   8.458   7.156  1.00  0.00    -0.393 N 
HETATM   13  H   UNL     1      67.586   8.688   7.852  1.00  0.00     0.156 HD
HETATM   14  H   UNL     1      66.173   9.062   6.974  1.00  0.00     0.156 HD
ENDBRANCH   2  12
TORSDOF 4
ENDMDL
MODEL 4
REMARK VINA RESULT:      -4.2      1.759      2.415
REMARK  4 active torsions:
REMARK  status: ('A' for Active; 'I' for Inactive)
REMARK    1  A    between atoms: C_1  and  C_5 
REMARK    2  A    between atoms: C_2  and  N_8 
REMARK    3  A    between atoms: C_5  and  O_9 
REMARK    4  A    between atoms: O_9  and  C_11 
ROOT
HETATM    1  C   UNL     1      63.342   8.932   4.482  1.00  0.00     0.079 A 
HETATM    2  C   UNL     1      63.082   8.258   3.295  1.00  0.00     0.084 A 
HETATM    3  S   UNL     1      62.100   9.167   2.230  1.00  0.00    -0.083 SA
HETATM    4  C   UNL     1      62.692  10.238   4.490  1.00  0.00    -0.036 A 
HETATM    5  C   UNL     1      61.986  10.462   3.325  1.00  0.00     0.059 A 
HETATM    6  C   UNL     1      62.764  11.226   5.612  1.00  0.00     0.050 C 
ENDROOT
BRANCH   1   7
HETATM    7  C   UNL     1      64.154   8.409   5.592  1.00  0.00     0.296 C 
HETATM    8  O   UNL     1      63.772   7.514   6.336  1.00  0.00    -0.259 OA
BRANCH   7   9
HETATM    9  O   UNL     1      65.373   9.021   5.723  1.00  0.00    -0.318 OA
BRANCH   9  10
HETATM   10  C   UNL     1      66.473   8.156   6.042  1.00  0.00     0.174 C 
HETATM   11  C   UNL     1      67.088   7.582   4.778  1.00  0.00     0.034 C 
ENDBRANCH   9  10
ENDBRANCH   7   9
ENDBRANCH   1   7
BRANCH   2  12
HETATM   12  N   UNL     1      63.492   7.030   2.910  1.00  0.00    -0.393 N 
HETATM   13  H   UNL     1      62.991   6.233   3.198  1.00  0.00     0.156 HD
HETATM   14  H   UNL     1      64.291   6.932   2.343  1.00  0.00     0.156 HD
ENDBRANCH   2  12
TORSDOF 4
ENDMDL
MODEL 5
REMARK VINA RESULT:      -4.1     18.190     19.299
REMARK  4 active torsions:
REMARK  status: ('A' for Active; 'I' for Inactive)
REMARK    1  A    between atoms: C_1  and  C_5 
REMARK    2  A    between atoms: C_2  and  N_8 
REMARK    3  A    between atoms: C_5  and  O_9 
REMARK    4  A    between atoms: O_9  and  C_11 
ROOT
HETATM    1  C   UNL     1      76.300   1.934  17.976  1.00  0.00     0.079 A 
HETATM    2  C   UNL     1      77.016   2.984  18.537  1.00  0.00     0.084 A 
HETATM    3  S   UNL     1      76.563   4.502  17.890  1.00  0.00    -0.083 SA
HETATM    4  C   UNL     1      75.356   2.425  16.977  1.00  0.00    -0.036 A 
HETATM    5  C   UNL     1      75.424   3.797  16.846  1.00  0.00     0.059 A 
HETATM    6  C   UNL     1      74.425   1.565  16.180  1.00  0.00     0.050 C 
ENDROOT
BRANCH   1   7
HETATM    7  C   UNL     1      76.465   0.515  18.325  1.00  0.00     0.296 C 
HETATM    8  O   UNL     1      75.750  -0.062  19.137  1.00  0.00    -0.259 OA
BRANCH   7   9
HETATM    9  O   UNL     1      77.496  -0.103  17.667  1.00  0.00    -0.318 OA
BRANCH   9  10
HETATM   10  C   UNL     1      77.114  -1.036  16.646  1.00  0.00     0.174 C 
HETATM   11  C   UNL     1      77.406  -0.469  15.267  1.00  0.00     0.034 C 
ENDBRANCH   9  10
ENDBRANCH   7   9
ENDBRANCH   1   7
BRANCH   2  12
HETATM   12  N   UNL     1      77.981   2.943  19.481  1.00  0.00    -0.393 N 
HETATM   13  H   UNL     1      78.640   3.672  19.542  1.00  0.00     0.156 HD
HETATM   14  H   UNL     1      78.026   2.185  20.107  1.00  0.00     0.156 HD
ENDBRANCH   2  12
TORSDOF 4
ENDMDL
MODEL 6
REMARK VINA RESULT:      -4.0      3.743      5.343
REMARK  4 active torsions:
REMARK  status: ('A' for Active; 'I' for Inactive)
REMARK    1  A    between atoms: C_1  and  C_5 
REMARK    2  A    between atoms: C_2  and  N_8 
REMARK    3  A    between atoms: C_5  and  O_9 
REMARK    4  A    between atoms: O_9  and  C_11 
ROOT
HETATM    1  C   UNL     1      67.195   6.587   6.160  1.00  0.00     0.079 A 
HETATM    2  C   UNL     1      67.351   6.324   7.516  1.00  0.00     0.084 A 
HETATM    3  S   UNL     1      67.524   4.653   7.840  1.00  0.00    -0.083 SA
HETATM    4  C   UNL     1      67.218   5.350   5.385  1.00  0.00    -0.036 A 
HETATM    5  C   UNL     1      67.381   4.245   6.197  1.00  0.00     0.059 A 
HETATM    6  C   UNL     1      67.079   5.266   3.897  1.00  0.00     0.050 C 
ENDROOT
BRANCH   1   7
HETATM    7  C   UNL     1      67.023   7.923   5.571  1.00  0.00     0.296 C 
HETATM    8  O   UNL     1      67.793   8.394   4.742  1.00  0.00    -0.259 OA
BRANCH   7   9
HETATM    9  O   UNL     1      65.926   8.599   6.039  1.00  0.00    -0.318 OA
BRANCH   9  10
HETATM   10  C   UNL     1      64.776   8.592   5.181  1.00  0.00     0.174 C 
HETATM   11  C   UNL     1      63.731   7.617   5.692  1.00  0.00     0.034 C 
ENDBRANCH   9  10
ENDBRANCH   7   9
ENDBRANCH   1   7
BRANCH   2  12
HETATM   12  N   UNL     1      67.374   7.191   8.549  1.00  0.00    -0.393 N 
HETATM   13  H   UNL     1      66.759   7.960   8.559  1.00  0.00     0.156 HD
HETATM   14  H   UNL     1      68.005   7.056   9.292  1.00  0.00     0.156 HD
ENDBRANCH   2  12
TORSDOF 4
ENDMDL
MODEL 7
REMARK VINA RESULT:      -3.7     19.769     21.269
REMARK  4 active torsions:
REMARK  status: ('A' for Active; 'I' for Inactive)
REMARK    1  A    between atoms: C_1  and  C_5 
REMARK    2  A    between atoms: C_2  and  N_8 
REMARK    3  A    between atoms: C_5  and  O_9 
REMARK    4  A    between atoms: O_9  and  C_11 
ROOT
HETATM    1  C   UNL     1      48.469  23.354   4.748  1.00  0.00     0.079 A 
HETATM    2  C   UNL     1      48.137  22.676   5.914  1.00  0.00     0.084 A 
HETATM    3  S   UNL     1      46.772  23.351   6.695  1.00  0.00    -0.083 SA
HETATM    4  C   UNL     1      47.554  24.467   4.516  1.00  0.00    -0.036 A 
HETATM    5  C   UNL     1      46.605  24.561   5.514  1.00  0.00     0.059 A 
HETATM    6  C   UNL     1      47.621  25.405   3.351  1.00  0.00     0.050 C 
ENDROOT
BRANCH   1   7
HETATM    7  C   UNL     1      49.591  23.012   3.860  1.00  0.00     0.296 C 
HETATM    8  O   UNL     1      50.755  22.967   4.241  1.00  0.00    -0.259 OA
BRANCH   7   9
HETATM    9  O   UNL     1      49.218  22.757   2.567  1.00  0.00    -0.318 OA
BRANCH   9  10
HETATM   10  C   UNL     1      48.775  21.419   2.297  1.00  0.00     0.174 C 
HETATM   11  C   UNL     1      49.836  20.646   1.535  1.00  0.00     0.034 C 
ENDBRANCH   9  10
ENDBRANCH   7   9
ENDBRANCH   1   7
BRANCH   2  12
HETATM   12  N   UNL     1      48.740  21.606   6.473  1.00  0.00    -0.393 N 
HETATM   13  H   UNL     1      48.323  20.716   6.408  1.00  0.00     0.156 HD
HETATM   14  H   UNL     1      49.596  21.714   6.947  1.00  0.00     0.156 HD
ENDBRANCH   2  12
TORSDOF 4
ENDMDL
MODEL 8
REMARK VINA RESULT:      -3.7      3.111      4.368
REMARK  4 active torsions:
REMARK  status: ('A' for Active; 'I' for Inactive)
REMARK    1  A    between atoms: C_1  and  C_5 
REMARK    2  A    between atoms: C_2  and  N_8 
REMARK    3  A    between atoms: C_5  and  O_9 
REMARK    4  A    between atoms: O_9  and  C_11 
ROOT
HETATM    1  C   UNL     1      62.372   8.461   4.501  1.00  0.00     0.079 A 
HETATM    2  C   UNL     1      63.460   8.290   5.349  1.00  0.00     0.084 A 
HETATM    3  S   UNL     1      63.409   6.798   6.183  1.00  0.00    -0.083 SA
HETATM    4  C   UNL     1      61.479   7.308   4.566  1.00  0.00    -0.036 A 
HETATM    5  C   UNL     1      61.941   6.356   5.452  1.00  0.00     0.059 A 
HETATM    6  C   UNL     1      60.212   7.159   3.782  1.00  0.00     0.050 C 
ENDROOT
BRANCH   1   7
HETATM    7  C   UNL     1      62.135   9.639   3.654  1.00  0.00     0.296 C 
HETATM    8  O   UNL     1      61.505  10.620   4.033  1.00  0.00    -0.259 OA
BRANCH   7   9
HETATM    9  O   UNL     1      62.676   9.538   2.399  1.00  0.00    -0.318 OA
BRANCH   9  10
HETATM   10  C   UNL     1      61.736   9.462   1.318  1.00  0.00     0.174 C 
HETATM   11  C   UNL     1      61.957   8.200   0.503  1.00  0.00     0.034 C 
ENDBRANCH   9  10
ENDBRANCH   7   9
ENDBRANCH   1   7
BRANCH   2  12
HETATM   12  N   UNL     1      64.494   9.127   5.579  1.00  0.00    -0.393 N 
HETATM   13  H   UNL     1      65.382   8.926   5.204  1.00  0.00     0.156 HD
HETATM   14  H   UNL     1      64.361   9.938   6.122  1.00  0.00     0.156 HD
ENDBRANCH   2  12
TORSDOF 4
ENDMDL
MODEL 9
REMARK VINA RESULT:      -3.7      3.442      4.789
REMARK  4 active torsions:
REMARK  status: ('A' for Active; 'I' for Inactive)
REMARK    1  A    between atoms: C_1  and  C_5 
REMARK    2  A    between atoms: C_2  and  N_8 
REMARK    3  A    between atoms: C_5  and  O_9 
REMARK    4  A    between atoms: O_9  and  C_11 
ROOT
HETATM    1  C   UNL     1      65.168   6.750   6.672  1.00  0.00     0.079 A 
HETATM    2  C   UNL     1      66.418   7.230   7.043  1.00  0.00     0.084 A 
HETATM    3  S   UNL     1      67.475   5.981   7.542  1.00  0.00    -0.083 SA
HETATM    4  C   UNL     1      65.105   5.299   6.820  1.00  0.00    -0.036 A 
HETATM    5  C   UNL     1      66.295   4.784   7.292  1.00  0.00     0.059 A 
HETATM    6  C   UNL     1      63.908   4.455   6.508  1.00  0.00     0.050 C 
ENDROOT
BRANCH   1   7
HETATM    7  C   UNL     1      64.048   7.578   6.200  1.00  0.00     0.296 C 
HETATM    8  O   UNL     1      62.997   7.697   6.819  1.00  0.00    -0.259 OA
BRANCH   7   9
HETATM    9  O   UNL     1      64.284   8.200   5.002  1.00  0.00    -0.318 OA
BRANCH   9  10
HETATM   10  C   UNL     1      63.741   7.549   3.844  1.00  0.00     0.174 C 
HETATM   11  C   UNL     1      62.858   8.503   3.059  1.00  0.00     0.034 C 
ENDBRANCH   9  10
ENDBRANCH   7   9
ENDBRANCH   1   7
BRANCH   2  12
HETATM   12  N   UNL     1      66.866   8.503   7.057  1.00  0.00    -0.393 N 
HETATM   13  H   UNL     1      66.990   8.971   7.915  1.00  0.00     0.156 HD
HETATM   14  H   UNL     1      67.067   8.965   6.211  1.00  0.00     0.156 HD
ENDBRANCH   2  12
TORSDOF 4
ENDMDL
