MODEL 1
REMARK VINA RESULT:      -4.5      0.000      0.000
REMARK  2 active torsions:
REMARK  status: ('A' for Active; 'I' for Inactive)
REMARK    1  A    between atoms: C_1  and  C_5 
REMARK    2  A    between atoms: C_5  and  O_9 
ROOT
HETATM    1  C   UNL     1      62.884   8.693   4.545  1.00  0.00     0.102 A 
HETATM    2  C   UNL     1      62.550   9.990   4.196  1.00  0.00     0.063 A 
HETATM    3  S   UNL     1      62.720   7.642   3.196  1.00  0.00    -0.094 SA
HETATM    4  C   UNL     1      62.162  10.127   2.817  1.00  0.00    -0.032 A 
HETATM    5  C   UNL     1      62.217   8.907   2.172  1.00  0.00     0.059 A 
HETATM    6 CL   UNL     1      62.577  11.350   5.251  1.00  0.00    -0.082 Cl
HETATM    7  C   UNL     1      61.752  11.404   2.159  1.00  0.00     0.050 C 
ENDROOT
BRANCH   1   8
HETATM    8  C   UNL     1      63.322   8.205   5.844  1.00  0.00     0.301 C 
HETATM    9  O   UNL     1      62.586   7.780   6.728  1.00  0.00    -0.259 OA
BRANCH   8  10
HETATM   10  O   UNL     1      64.681   8.271   5.979  1.00  0.00    -0.322 OA
HETATM   11  C   UNL     1      65.290   7.016   6.285  1.00  0.00     0.213 C 
ENDBRANCH   8  10
ENDBRANCH   1   8
TORSDOF 2
ENDMDL
MODEL 2
REMARK VINA RESULT:      -4.5      2.085      2.397
REMARK  2 active torsions:
REMARK  status: ('A' for Active; 'I' for Inactive)
REMARK    1  A    between atoms: C_1  and  C_5 
REMARK    2  A    between atoms: C_5  and  O_9 
ROOT
HETATM    1  C   UNL     1      62.911   9.170   4.055  1.00  0.00     0.102 A 
HETATM    2  C   UNL     1      62.959   8.398   2.907  1.00  0.00     0.063 A 
HETATM    3  S   UNL     1      62.071  10.640   3.760  1.00  0.00    -0.094 SA
HETATM    4  C   UNL     1      62.303   9.008   1.782  1.00  0.00    -0.032 A 
HETATM    5  C   UNL     1      61.779  10.237   2.131  1.00  0.00     0.059 A 
HETATM    6 CL   UNL     1      63.708   6.853   2.770  1.00  0.00    -0.082 Cl
HETATM    7  C   UNL     1      62.194   8.409   0.418  1.00  0.00     0.050 C 
ENDROOT
BRANCH   1   8
HETATM    8  C   UNL     1      63.464   8.857   5.363  1.00  0.00     0.301 C 
HETATM    9  O   UNL     1      62.864   8.292   6.271  1.00  0.00    -0.259 OA
BRANCH   8  10
HETATM   10  O   UNL     1      64.762   9.272   5.479  1.00  0.00    -0.322 OA
HETATM   11  C   UNL     1      65.695   8.202   5.636  1.00  0.00     0.213 C 
ENDBRANCH   8  10
ENDBRANCH   1   8
TORSDOF 2
ENDMDL
MODEL 3
REMARK VINA RESULT:      -4.0      4.494      7.160
REMARK  2 active torsions:
REMARK  status: ('A' for Active; 'I' for Inactive)
REMARK    1  A    between atoms: C_1  and  C_5 
REMARK    2  A    between atoms: C_5  and  O_9 
ROOT
HETATM    1  C   UNL     1      66.988   6.455   7.355  1.00  0.00     0.102 A 
HETATM    2  C   UNL     1      67.558   5.388   6.682  1.00  0.00     0.063 A 
HETATM    3  S   UNL     1      67.302   6.343   9.041  1.00  0.00    -0.094 SA
HETATM    4  C   UNL     1      68.257   4.476   7.548  1.00  0.00    -0.032 A 
HETATM    5  C   UNL     1      68.185   4.898   8.861  1.00  0.00     0.059 A 
HETATM    6 CL   UNL     1      67.479   5.119   4.984  1.00  0.00    -0.082 Cl
HETATM    7  C   UNL     1      68.970   3.241   7.104  1.00  0.00     0.050 C 
ENDROOT
BRANCH   1   8
HETATM    8  C   UNL     1      66.220   7.556   6.794  1.00  0.00     0.301 C 
HETATM    9  O   UNL     1      66.694   8.543   6.242  1.00  0.00    -0.259 OA
BRANCH   8  10
HETATM   10  O   UNL     1      64.874   7.369   6.950  1.00  0.00    -0.322 OA
HETATM   11  C   UNL     1      64.160   7.281   5.717  1.00  0.00     0.213 C 
ENDBRANCH   8  10
ENDBRANCH   1   8
TORSDOF 2
ENDMDL
MODEL 4
REMARK VINA RESULT:      -4.0      3.839      6.676
REMARK  2 active torsions:
REMARK  status: ('A' for Active; 'I' for Inactive)
REMARK    1  A    between atoms: C_1  and  C_5 
REMARK    2  A    between atoms: C_5  and  O_9 
ROOT
HETATM    1  C   UNL     1      66.320   6.225   7.027  1.00  0.00     0.102 A 
HETATM    2  C   UNL     1      66.969   5.982   8.225  1.00  0.00     0.063 A 
HETATM    3  S   UNL     1      66.999   5.272   5.768  1.00  0.00    -0.094 SA
HETATM    4  C   UNL     1      68.024   5.010   8.115  1.00  0.00    -0.032 A 
HETATM    5  C   UNL     1      68.131   4.552   6.816  1.00  0.00     0.059 A 
HETATM    6 CL   UNL     1      66.602   6.729   9.732  1.00  0.00    -0.082 Cl
HETATM    7  C   UNL     1      68.892   4.548   9.240  1.00  0.00     0.050 C 
ENDROOT
BRANCH   1   8
HETATM    8  C   UNL     1      65.214   7.137   6.781  1.00  0.00     0.301 C 
HETATM    9  O   UNL     1      64.047   6.942   7.106  1.00  0.00    -0.259 OA
BRANCH   8  10
HETATM   10  O   UNL     1      65.622   8.269   6.131  1.00  0.00    -0.322 OA
HETATM   11  C   UNL     1      64.757   8.663   5.066  1.00  0.00     0.213 C 
ENDBRANCH   8  10
ENDBRANCH   1   8
TORSDOF 2
ENDMDL
MODEL 5
REMARK VINA RESULT:      -3.8      7.465      8.638
REMARK  2 active torsions:
REMARK  status: ('A' for Active; 'I' for Inactive)
REMARK    1  A    between atoms: C_1  and  C_5 
REMARK    2  A    between atoms: C_5  and  O_9 
ROOT
HETATM    1  C   UNL     1      68.549   4.370   8.671  1.00  0.00     0.102 A 
HETATM    2  C   UNL     1      68.384   4.121   7.320  1.00  0.00     0.063 A 
HETATM    3  S   UNL     1      67.894   5.903   9.088  1.00  0.00    -0.094 SA
HETATM    4  C   UNL     1      67.717   5.188   6.621  1.00  0.00    -0.032 A 
HETATM    5  C   UNL     1      67.401   6.215   7.488  1.00  0.00     0.059 A 
HETATM    6 CL   UNL     1      68.899   2.702   6.493  1.00  0.00    -0.082 Cl
HETATM    7  C   UNL     1      67.401   5.197   5.161  1.00  0.00     0.050 C 
ENDROOT
BRANCH   1   8
HETATM    8  C   UNL     1      69.172   3.511   9.666  1.00  0.00     0.301 C 
HETATM    9  O   UNL     1      70.294   3.667  10.136  1.00  0.00    -0.259 OA
BRANCH   8  10
HETATM   10  O   UNL     1      68.351   2.481  10.034  1.00  0.00    -0.322 OA
HETATM   11  C   UNL     1      68.946   1.191   9.886  1.00  0.00     0.213 C 
ENDBRANCH   8  10
ENDBRANCH   1   8
TORSDOF 2
ENDMDL
MODEL 6
REMARK VINA RESULT:      -3.8     23.343     23.979
REMARK  2 active torsions:
REMARK  status: ('A' for Active; 'I' for Inactive)
REMARK    1  A    between atoms: C_1  and  C_5 
REMARK    2  A    between atoms: C_5  and  O_9 
ROOT
HETATM    1  C   UNL     1      51.096  19.875  21.321  1.00  0.00     0.102 A 
HETATM    2  C   UNL     1      50.957  19.935  22.696  1.00  0.00     0.063 A 
HETATM    3  S   UNL     1      49.560  19.963  20.554  1.00  0.00    -0.094 SA
HETATM    4  C   UNL     1      49.590  20.057  23.127  1.00  0.00    -0.032 A 
HETATM    5  C   UNL     1      48.738  20.083  22.041  1.00  0.00     0.059 A 
HETATM    6 CL   UNL     1      52.247  19.878  23.836  1.00  0.00    -0.082 Cl
HETATM    7  C   UNL     1      49.138  20.145  24.548  1.00  0.00     0.050 C 
ENDROOT
BRANCH   1   8
HETATM    8  C   UNL     1      52.325  19.756  20.553  1.00  0.00     0.301 C 
HETATM    9  O   UNL     1      53.068  18.780  20.547  1.00  0.00    -0.259 OA
BRANCH   8  10
HETATM   10  O   UNL     1      52.575  20.881  19.815  1.00  0.00    -0.322 OA
HETATM   11  C   UNL     1      53.125  21.957  20.576  1.00  0.00     0.213 C 
ENDBRANCH   8  10
ENDBRANCH   1   8
TORSDOF 2
ENDMDL
MODEL 7
REMARK VINA RESULT:      -3.7      2.090      2.463
REMARK  2 active torsions:
REMARK  status: ('A' for Active; 'I' for Inactive)
REMARK    1  A    between atoms: C_1  and  C_5 
REMARK    2  A    between atoms: C_5  and  O_9 
ROOT
HETATM    1  C   UNL     1      62.029   8.866   4.022  1.00  0.00     0.102 A 
HETATM    2  C   UNL     1      61.628   9.211   2.743  1.00  0.00     0.063 A 
HETATM    3  S   UNL     1      61.498   7.278   4.413  1.00  0.00    -0.094 SA
HETATM    4  C   UNL     1      60.887   8.173   2.077  1.00  0.00    -0.032 A 
HETATM    5  C   UNL     1      60.755   7.068   2.895  1.00  0.00     0.059 A 
HETATM    6 CL   UNL     1      61.951  10.712   1.964  1.00  0.00    -0.082 Cl
HETATM    7  C   UNL     1      60.331   8.261   0.694  1.00  0.00     0.050 C 
ENDROOT
BRANCH   1   8
HETATM    8  C   UNL     1      62.792   9.668   4.964  1.00  0.00     0.301 C 
HETATM    9  O   UNL     1      62.715  10.887   5.085  1.00  0.00    -0.259 OA
BRANCH   8  10
HETATM   10  O   UNL     1      63.630   8.900   5.724  1.00  0.00    -0.322 OA
HETATM   11  C   UNL     1      64.890   8.639   5.105  1.00  0.00     0.213 C 
ENDBRANCH   8  10
ENDBRANCH   1   8
TORSDOF 2
ENDMDL
MODEL 8
REMARK VINA RESULT:      -3.6      3.087      5.716
REMARK  2 active torsions:
REMARK  status: ('A' for Active; 'I' for Inactive)
REMARK    1  A    between atoms: C_1  and  C_5 
REMARK    2  A    between atoms: C_5  and  O_9 
ROOT
HETATM    1  C   UNL     1      66.124   7.107   5.335  1.00  0.00     0.102 A 
HETATM    2  C   UNL     1      66.701   6.446   6.406  1.00  0.00     0.063 A 
HETATM    3  S   UNL     1      66.443   6.272   3.867  1.00  0.00    -0.094 SA
HETATM    4  C   UNL     1      67.405   5.251   6.026  1.00  0.00    -0.032 A 
HETATM    5  C   UNL     1      67.330   5.054   4.661  1.00  0.00     0.059 A 
HETATM    6 CL   UNL     1      66.622   6.947   8.051  1.00  0.00    -0.082 Cl
HETATM    7  C   UNL     1      68.122   4.336   6.965  1.00  0.00     0.050 C 
ENDROOT
BRANCH   1   8
HETATM    8  C   UNL     1      65.342   8.333   5.360  1.00  0.00     0.301 C 
HETATM    9  O   UNL     1      65.556   9.297   6.088  1.00  0.00    -0.259 OA
BRANCH   8  10
HETATM   10  O   UNL     1      64.312   8.298   4.461  1.00  0.00    -0.322 OA
HETATM   11  C   UNL     1      63.168   9.049   4.869  1.00  0.00     0.213 C 
ENDBRANCH   8  10
ENDBRANCH   1   8
TORSDOF 2
ENDMDL
MODEL 9
REMARK VINA RESULT:      -3.4      6.629      8.924
REMARK  2 active torsions:
REMARK  status: ('A' for Active; 'I' for Inactive)
REMARK    1  A    between atoms: C_1  and  C_5 
REMARK    2  A    between atoms: C_5  and  O_9 
ROOT
HETATM    1  C   UNL     1      68.073   3.798   8.471  1.00  0.00     0.102 A 
HETATM    2  C   UNL     1      68.222   3.293   7.191  1.00  0.00     0.063 A 
HETATM    3  S   UNL     1      68.678   2.686   9.633  1.00  0.00    -0.094 SA
HETATM    4  C   UNL     1      68.837   1.993   7.159  1.00  0.00    -0.032 A 
HETATM    5  C   UNL     1      69.130   1.561   8.437  1.00  0.00     0.059 A 
HETATM    6 CL   UNL     1      67.746   4.087   5.739  1.00  0.00    -0.082 Cl
HETATM    7  C   UNL     1      69.126   1.205   5.923  1.00  0.00     0.050 C 
ENDROOT
BRANCH   1   8
HETATM    8  C   UNL     1      67.500   5.076   8.864  1.00  0.00     0.301 C 
HETATM    9  O   UNL     1      68.125   6.019   9.337  1.00  0.00    -0.259 OA
BRANCH   8  10
HETATM   10  O   UNL     1      66.151   5.117   8.643  1.00  0.00    -0.322 OA
HETATM   11  C   UNL     1      65.734   6.221   7.837  1.00  0.00     0.213 C 
ENDBRANCH   8  10
ENDBRANCH   1   8
TORSDOF 2
ENDMDL
