MODEL 1
REMARK VINA RESULT:      -4.4      0.000      0.000
REMARK  3 active torsions:
REMARK  status: ('A' for Active; 'I' for Inactive)
REMARK    1  A    between atoms: C_1  and  C_3 
REMARK    2  A    between atoms: C_2  and  N_8 
REMARK    3  A    between atoms: C_3  and  O_9 
ROOT
HETATM    1  C   UNL     1      76.483   2.667  17.951  1.00  0.00     0.072 A 
HETATM    2  C   UNL     1      75.318   2.538  17.148  1.00  0.00     0.049 A 
HETATM    3  S   UNL     1      76.621   0.436  16.808  1.00  0.00    -0.110 SA
HETATM    4  C   UNL     1      77.312   1.548  17.859  1.00  0.00     0.069 A 
HETATM    5  C   UNL     1      75.254   1.337  16.451  1.00  0.00     0.079 A 
ENDROOT
BRANCH   1   6
HETATM    6  C   UNL     1      76.854   3.819  18.813  1.00  0.00     0.295 C 
HETATM    7  O   UNL     1      77.393   3.645  19.896  1.00  0.00    -0.259 OA
BRANCH   6   8
HETATM    8  O   UNL     1      76.588   5.081  18.384  1.00  0.00    -0.322 OA
HETATM    9  C   UNL     1      77.186   5.662  17.286  1.00  0.00     0.213 C 
ENDBRANCH   6   8
ENDBRANCH   1   6
BRANCH   2  10
HETATM   10  N   UNL     1      74.285   3.504  17.030  1.00  0.00    -0.398 N 
HETATM   11  H   UNL     1      74.507   4.463  17.010  1.00  0.00     0.156 HD
HETATM   12  H   UNL     1      73.346   3.215  16.968  1.00  0.00     0.156 HD
ENDBRANCH   2  10
TORSDOF 3
ENDMDL
MODEL 2
REMARK VINA RESULT:      -4.2     18.417     19.189
REMARK  3 active torsions:
REMARK  status: ('A' for Active; 'I' for Inactive)
REMARK    1  A    between atoms: C_1  and  C_3 
REMARK    2  A    between atoms: C_2  and  N_8 
REMARK    3  A    between atoms: C_3  and  O_9 
ROOT
HETATM    1  C   UNL     1      63.534   9.211   4.697  1.00  0.00     0.072 A 
HETATM    2  C   UNL     1      63.093  10.510   5.070  1.00  0.00     0.049 A 
HETATM    3  S   UNL     1      61.864   9.944   2.971  1.00  0.00    -0.110 SA
HETATM    4  C   UNL     1      62.919   8.761   3.528  1.00  0.00     0.069 A 
HETATM    5  C   UNL     1      62.153  11.048   4.198  1.00  0.00     0.079 A 
ENDROOT
BRANCH   1   6
HETATM    6  C   UNL     1      64.527   8.364   5.408  1.00  0.00     0.295 C 
HETATM    7  O   UNL     1      64.391   7.151   5.464  1.00  0.00    -0.259 OA
BRANCH   6   8
HETATM    8  O   UNL     1      65.599   8.954   5.999  1.00  0.00    -0.322 OA
HETATM    9  C   UNL     1      66.669   8.258   6.522  1.00  0.00     0.213 C 
ENDBRANCH   6   8
ENDBRANCH   1   6
BRANCH   2  10
HETATM   10  N   UNL     1      63.531  11.236   6.207  1.00  0.00    -0.398 N 
HETATM   11  H   UNL     1      64.490  11.418   6.337  1.00  0.00     0.156 HD
HETATM   12  H   UNL     1      62.876  11.559   6.868  1.00  0.00     0.156 HD
ENDBRANCH   2  10
TORSDOF 3
ENDMDL
MODEL 3
REMARK VINA RESULT:      -3.6     16.768     17.621
REMARK  3 active torsions:
REMARK  status: ('A' for Active; 'I' for Inactive)
REMARK    1  A    between atoms: C_1  and  C_3 
REMARK    2  A    between atoms: C_2  and  N_8 
REMARK    3  A    between atoms: C_3  and  O_9 
ROOT
HETATM    1  C   UNL     1      65.589   7.789   5.107  1.00  0.00     0.072 A 
HETATM    2  C   UNL     1      66.695   7.718   5.995  1.00  0.00     0.049 A 
HETATM    3  S   UNL     1      67.016   5.866   4.351  1.00  0.00    -0.110 SA
HETATM    4  C   UNL     1      65.640   6.802   4.121  1.00  0.00     0.069 A 
HETATM    5  C   UNL     1      67.584   6.691   5.695  1.00  0.00     0.079 A 
ENDROOT
BRANCH   1   6
HETATM    6  C   UNL     1      64.467   8.763   5.149  1.00  0.00     0.295 C 
HETATM    7  O   UNL     1      64.590   9.838   5.717  1.00  0.00    -0.259 OA
BRANCH   6   8
HETATM    8  O   UNL     1      63.293   8.447   4.542  1.00  0.00    -0.322 OA
HETATM    9  C   UNL     1      62.703   9.214   3.560  1.00  0.00     0.213 C 
ENDBRANCH   6   8
ENDBRANCH   1   6
BRANCH   2  10
HETATM   10  N   UNL     1      66.927   8.582   7.096  1.00  0.00    -0.398 N 
HETATM   11  H   UNL     1      66.715   9.541   7.024  1.00  0.00     0.156 HD
HETATM   12  H   UNL     1      67.300   8.223   7.934  1.00  0.00     0.156 HD
ENDBRANCH   2  10
TORSDOF 3
ENDMDL
MODEL 4
REMARK VINA RESULT:      -3.6     19.229     19.978
REMARK  3 active torsions:
REMARK  status: ('A' for Active; 'I' for Inactive)
REMARK    1  A    between atoms: C_1  and  C_3 
REMARK    2  A    between atoms: C_2  and  N_8 
REMARK    3  A    between atoms: C_3  and  O_9 
ROOT
HETATM    1  C   UNL     1      63.193   9.056   4.702  1.00  0.00     0.072 A 
HETATM    2  C   UNL     1      62.455   7.961   4.178  1.00  0.00     0.049 A 
HETATM    3  S   UNL     1      64.785   7.125   4.507  1.00  0.00    -0.110 SA
HETATM    4  C   UNL     1      64.528   8.727   4.940  1.00  0.00     0.069 A 
HETATM    5  C   UNL     1      63.214   6.807   4.017  1.00  0.00     0.079 A 
ENDROOT
BRANCH   1   6
HETATM    6  C   UNL     1      62.684  10.423   4.992  1.00  0.00     0.295 C 
HETATM    7  O   UNL     1      63.143  11.081   5.912  1.00  0.00    -0.259 OA
BRANCH   6   8
HETATM    8  O   UNL     1      61.695  10.939   4.216  1.00  0.00    -0.322 OA
HETATM    9  C   UNL     1      61.887  11.397   2.929  1.00  0.00     0.213 C 
ENDBRANCH   6   8
ENDBRANCH   1   6
BRANCH   2  10
HETATM   10  N   UNL     1      61.078   7.980   3.836  1.00  0.00    -0.398 N 
HETATM   11  H   UNL     1      60.772   7.561   3.000  1.00  0.00     0.156 HD
HETATM   12  H   UNL     1      60.428   8.413   4.436  1.00  0.00     0.156 HD
ENDBRANCH   2  10
TORSDOF 3
ENDMDL
MODEL 5
REMARK VINA RESULT:      -3.5     14.652     15.497
REMARK  3 active torsions:
REMARK  status: ('A' for Active; 'I' for Inactive)
REMARK    1  A    between atoms: C_1  and  C_3 
REMARK    2  A    between atoms: C_2  and  N_8 
REMARK    3  A    between atoms: C_3  and  O_9 
ROOT
HETATM    1  C   UNL     1      66.385   6.650   7.326  1.00  0.00     0.072 A 
HETATM    2  C   UNL     1      67.543   6.228   6.620  1.00  0.00     0.049 A 
HETATM    3  S   UNL     1      67.903   5.550   8.995  1.00  0.00    -0.110 SA
HETATM    4  C   UNL     1      66.449   6.329   8.683  1.00  0.00     0.069 A 
HETATM    5  C   UNL     1      68.482   5.592   7.424  1.00  0.00     0.079 A 
ENDROOT
BRANCH   1   6
HETATM    6  C   UNL     1      65.201   7.355   6.767  1.00  0.00     0.295 C 
HETATM    7  O   UNL     1      64.068   7.017   7.072  1.00  0.00    -0.259 OA
BRANCH   6   8
HETATM    8  O   UNL     1      65.392   8.390   5.907  1.00  0.00    -0.322 OA
HETATM    9  C   UNL     1      64.484   8.764   4.939  1.00  0.00     0.213 C 
ENDBRANCH   6   8
ENDBRANCH   1   6
BRANCH   2  10
HETATM   10  N   UNL     1      67.775   6.408   5.231  1.00  0.00    -0.398 N 
HETATM   11  H   UNL     1      68.681   6.611   4.905  1.00  0.00     0.156 HD
HETATM   12  H   UNL     1      67.029   6.328   4.593  1.00  0.00     0.156 HD
ENDBRANCH   2  10
TORSDOF 3
ENDMDL
MODEL 6
REMARK VINA RESULT:      -3.5     14.356     15.275
REMARK  3 active torsions:
REMARK  status: ('A' for Active; 'I' for Inactive)
REMARK    1  A    between atoms: C_1  and  C_3 
REMARK    2  A    between atoms: C_2  and  N_8 
REMARK    3  A    between atoms: C_3  and  O_9 
ROOT
HETATM    1  C   UNL     1      65.738   6.382   7.335  1.00  0.00     0.072 A 
HETATM    2  C   UNL     1      66.048   7.599   6.670  1.00  0.00     0.049 A 
HETATM    3  S   UNL     1      64.317   6.473   5.266  1.00  0.00    -0.110 SA
HETATM    4  C   UNL     1      64.769   5.642   6.654  1.00  0.00     0.069 A 
HETATM    5  C   UNL     1      65.328   7.789   5.496  1.00  0.00     0.079 A 
ENDROOT
BRANCH   1   6
HETATM    6  C   UNL     1      66.325   5.880   8.604  1.00  0.00     0.295 C 
HETATM    7  O   UNL     1      66.662   6.652   9.489  1.00  0.00    -0.259 OA
BRANCH   6   8
HETATM    8  O   UNL     1      66.483   4.541   8.776  1.00  0.00    -0.322 OA
HETATM    9  C   UNL     1      67.707   3.905   8.776  1.00  0.00     0.213 C 
ENDBRANCH   6   8
ENDBRANCH   1   6
BRANCH   2  10
HETATM   10  N   UNL     1      66.989   8.564   7.112  1.00  0.00    -0.398 N 
HETATM   11  H   UNL     1      67.518   8.401   7.926  1.00  0.00     0.156 HD
HETATM   12  H   UNL     1      67.115   9.398   6.603  1.00  0.00     0.156 HD
ENDBRANCH   2  10
TORSDOF 3
ENDMDL
MODEL 7
REMARK VINA RESULT:      -3.4     36.289     36.967
REMARK  3 active torsions:
REMARK  status: ('A' for Active; 'I' for Inactive)
REMARK    1  A    between atoms: C_1  and  C_3 
REMARK    2  A    between atoms: C_2  and  N_8 
REMARK    3  A    between atoms: C_3  and  O_9 
ROOT
HETATM    1  C   UNL     1      48.402  23.424   4.705  1.00  0.00     0.072 A 
HETATM    2  C   UNL     1      48.077  22.766   5.921  1.00  0.00     0.049 A 
HETATM    3  S   UNL     1      46.346  24.540   5.617  1.00  0.00    -0.110 SA
HETATM    4  C   UNL     1      47.505  24.450   4.404  1.00  0.00     0.069 A 
HETATM    5  C   UNL     1      46.946  23.280   6.545  1.00  0.00     0.079 A 
ENDROOT
BRANCH   1   6
HETATM    6  C   UNL     1      49.542  23.122   3.799  1.00  0.00     0.295 C 
HETATM    7  O   UNL     1      50.653  22.884   4.247  1.00  0.00    -0.259 OA
BRANCH   6   8
HETATM    8  O   UNL     1      49.335  23.110   2.456  1.00  0.00    -0.322 OA
HETATM    9  C   UNL     1      50.118  23.796   1.551  1.00  0.00     0.213 C 
ENDBRANCH   6   8
ENDBRANCH   1   6
BRANCH   2  10
HETATM   10  N   UNL     1      48.796  21.685   6.493  1.00  0.00    -0.398 N 
HETATM   11  H   UNL     1      48.681  20.774   6.138  1.00  0.00     0.156 HD
HETATM   12  H   UNL     1      49.411  21.845   7.245  1.00  0.00     0.156 HD
ENDBRANCH   2  10
TORSDOF 3
ENDMDL
MODEL 8
REMARK VINA RESULT:      -3.4     12.986     13.895
REMARK  3 active torsions:
REMARK  status: ('A' for Active; 'I' for Inactive)
REMARK    1  A    between atoms: C_1  and  C_3 
REMARK    2  A    between atoms: C_2  and  N_8 
REMARK    3  A    between atoms: C_3  and  O_9 
ROOT
HETATM    1  C   UNL     1      67.812   5.695   7.155  1.00  0.00     0.072 A 
HETATM    2  C   UNL     1      67.291   6.833   6.483  1.00  0.00     0.049 A 
HETATM    3  S   UNL     1      67.197   4.960   4.834  1.00  0.00    -0.110 SA
HETATM    4  C   UNL     1      67.816   4.559   6.343  1.00  0.00     0.069 A 
HETATM    5  C   UNL     1      66.901   6.574   5.173  1.00  0.00     0.079 A 
ENDROOT
BRANCH   1   6
HETATM    6  C   UNL     1      68.314   5.631   8.552  1.00  0.00     0.295 C 
HETATM    7  O   UNL     1      67.740   6.224   9.453  1.00  0.00    -0.259 OA
BRANCH   6   8
HETATM    8  O   UNL     1      69.427   4.900   8.823  1.00  0.00    -0.322 OA
HETATM    9  C   UNL     1      69.475   3.893   9.765  1.00  0.00     0.213 C 
ENDBRANCH   6   8
ENDBRANCH   1   6
BRANCH   2  10
HETATM   10  N   UNL     1      67.155   8.131   7.040  1.00  0.00    -0.398 N 
HETATM   11  H   UNL     1      67.080   8.243   8.015  1.00  0.00     0.156 HD
HETATM   12  H   UNL     1      67.137   8.920   6.451  1.00  0.00     0.156 HD
ENDBRANCH   2  10
TORSDOF 3
ENDMDL
MODEL 9
REMARK VINA RESULT:      -3.3     24.142     24.690
REMARK  3 active torsions:
REMARK  status: ('A' for Active; 'I' for Inactive)
REMARK    1  A    between atoms: C_1  and  C_3 
REMARK    2  A    between atoms: C_2  and  N_8 
REMARK    3  A    between atoms: C_3  and  O_9 
ROOT
HETATM    1  C   UNL     1      52.034   7.267  14.890  1.00  0.00     0.072 A 
HETATM    2  C   UNL     1      52.377   5.913  14.632  1.00  0.00     0.049 A 
HETATM    3  S   UNL     1      49.896   6.050  14.387  1.00  0.00    -0.110 SA
HETATM    4  C   UNL     1      50.660   7.492  14.784  1.00  0.00     0.069 A 
HETATM    5  C   UNL     1      51.282   5.110  14.332  1.00  0.00     0.079 A 
ENDROOT
BRANCH   1   6
HETATM    6  C   UNL     1      52.960   8.376  15.239  1.00  0.00     0.295 C 
HETATM    7  O   UNL     1      54.071   8.447  14.736  1.00  0.00    -0.259 OA
BRANCH   6   8
HETATM    8  O   UNL     1      52.557   9.321  16.129  1.00  0.00    -0.322 OA
HETATM    9  C   UNL     1      53.334  10.391  16.519  1.00  0.00     0.213 C 
ENDBRANCH   6   8
ENDBRANCH   1   6
BRANCH   2  10
HETATM   10  N   UNL     1      53.689   5.374  14.661  1.00  0.00    -0.398 N 
HETATM   11  H   UNL     1      53.885   4.581  15.211  1.00  0.00     0.156 HD
HETATM   12  H   UNL     1      54.405   5.792  14.130  1.00  0.00     0.156 HD
ENDBRANCH   2  10
TORSDOF 3
ENDMDL
