MODEL 1
REMARK VINA RESULT:      -4.5      0.000      0.000
REMARK  1 active torsions:
REMARK  status: ('A' for Active; 'I' for Inactive)
REMARK    1  A    between atoms: C_1  and  C_4 
ROOT
HETATM    1  C   UNL     1      77.286  11.197  18.739  1.00  0.00     0.081 A 
HETATM    2  S   UNL     1      76.296  12.566  18.471  1.00  0.00    -0.095 SA
HETATM    3  C   UNL     1      78.040  11.346  19.889  1.00  0.00     0.033 A 
HETATM    4  C   UNL     1      76.873  13.344  19.880  1.00  0.00     0.057 A 
HETATM    5  C   UNL     1      77.809  12.590  20.561  1.00  0.00    -0.054 A 
HETATM    6  C   UNL     1      78.493  12.996  21.820  1.00  0.00     0.048 C 
ENDROOT
BRANCH   1   7
HETATM    7  C   UNL     1      77.247  10.093  17.811  1.00  0.00     0.216 C 
HETATM    8  O   UNL     1      76.949   8.925  18.012  1.00  0.00    -0.643 OA
HETATM    9  O   UNL     1      77.603  10.482  16.563  1.00  0.00    -0.643 OA
ENDBRANCH   1   7
TORSDOF 1
ENDMDL
MODEL 2
REMARK VINA RESULT:      -4.2     22.397     23.446
REMARK  1 active torsions:
REMARK  status: ('A' for Active; 'I' for Inactive)
REMARK    1  A    between atoms: C_1  and  C_4 
ROOT
HETATM    1  C   UNL     1      61.870   9.850   2.389  1.00  0.00     0.081 A 
HETATM    2  S   UNL     1      61.372   8.510   3.330  1.00  0.00    -0.095 SA
HETATM    3  C   UNL     1      62.246   9.454   1.119  1.00  0.00     0.033 A 
HETATM    4  C   UNL     1      61.658   7.417   2.046  1.00  0.00     0.057 A 
HETATM    5  C   UNL     1      62.126   8.042   0.907  1.00  0.00    -0.054 A 
HETATM    6  C   UNL     1      62.466   7.360  -0.373  1.00  0.00     0.048 C 
ENDROOT
BRANCH   1   7
HETATM    7  C   UNL     1      61.853  11.173   2.964  1.00  0.00     0.216 C 
HETATM    8  O   UNL     1      61.803  11.503   4.140  1.00  0.00    -0.643 OA
HETATM    9  O   UNL     1      61.901  12.130   2.006  1.00  0.00    -0.643 OA
ENDBRANCH   1   7
TORSDOF 1
ENDMDL
MODEL 3
REMARK VINA RESULT:      -4.2     20.328     21.753
REMARK  1 active torsions:
REMARK  status: ('A' for Active; 'I' for Inactive)
REMARK    1  A    between atoms: C_1  and  C_4 
ROOT
HETATM    1  C   UNL     1      62.868   9.190   4.039  1.00  0.00     0.081 A 
HETATM    2  S   UNL     1      62.071  10.674   3.737  1.00  0.00    -0.095 SA
HETATM    3  C   UNL     1      62.907   8.406   2.900  1.00  0.00     0.033 A 
HETATM    4  C   UNL     1      61.785  10.266   2.101  1.00  0.00     0.057 A 
HETATM    5  C   UNL     1      62.281   9.021   1.768  1.00  0.00    -0.054 A 
HETATM    6  C   UNL     1      62.188   8.387   0.422  1.00  0.00     0.048 C 
ENDROOT
BRANCH   1   7
HETATM    7  C   UNL     1      63.389   8.913   5.355  1.00  0.00     0.216 C 
HETATM    8  O   UNL     1      62.892   8.259   6.261  1.00  0.00    -0.643 OA
HETATM    9  O   UNL     1      64.601   9.491   5.540  1.00  0.00    -0.643 OA
ENDBRANCH   1   7
TORSDOF 1
ENDMDL
MODEL 4
REMARK VINA RESULT:      -4.1      3.322      4.405
REMARK  1 active torsions:
REMARK  status: ('A' for Active; 'I' for Inactive)
REMARK    1  A    between atoms: C_1  and  C_4 
ROOT
HETATM    1  C   UNL     1      76.943   7.425  17.218  1.00  0.00     0.081 A 
HETATM    2  S   UNL     1      77.403   8.228  15.778  1.00  0.00    -0.095 SA
HETATM    3  C   UNL     1      77.006   8.279  18.304  1.00  0.00     0.033 A 
HETATM    4  C   UNL     1      77.679   9.699  16.606  1.00  0.00     0.057 A 
HETATM    5  C   UNL     1      77.431   9.603  17.961  1.00  0.00    -0.054 A 
HETATM    6  C   UNL     1      77.580  10.711  18.946  1.00  0.00     0.048 C 
ENDROOT
BRANCH   1   7
HETATM    7  C   UNL     1      76.561   6.035  17.171  1.00  0.00     0.216 C 
HETATM    8  O   UNL     1      75.943   5.433  16.305  1.00  0.00    -0.643 OA
HETATM    9  O   UNL     1      76.980   5.369  18.273  1.00  0.00    -0.643 OA
ENDBRANCH   1   7
TORSDOF 1
ENDMDL
MODEL 5
REMARK VINA RESULT:      -4.1      2.767      4.787
REMARK  1 active torsions:
REMARK  status: ('A' for Active; 'I' for Inactive)
REMARK    1  A    between atoms: C_1  and  C_4 
ROOT
HETATM    1  C   UNL     1      77.390   9.605  17.853  1.00  0.00     0.081 A 
HETATM    2  S   UNL     1      77.743   9.604  16.179  1.00  0.00    -0.095 SA
HETATM    3  C   UNL     1      76.989   8.350  18.277  1.00  0.00     0.033 A 
HETATM    4  C   UNL     1      77.364   7.944  16.030  1.00  0.00     0.057 A 
HETATM    5  C   UNL     1      76.971   7.376  17.226  1.00  0.00    -0.054 A 
HETATM    6  C   UNL     1      76.579   5.952  17.418  1.00  0.00     0.048 C 
ENDROOT
BRANCH   1   7
HETATM    7  C   UNL     1      77.532  10.822  18.614  1.00  0.00     0.216 C 
HETATM    8  O   UNL     1      76.728  11.728  18.777  1.00  0.00    -0.643 OA
HETATM    9  O   UNL     1      78.751  10.901  19.200  1.00  0.00    -0.643 OA
ENDBRANCH   1   7
TORSDOF 1
ENDMDL
MODEL 6
REMARK VINA RESULT:      -4.0     20.034     21.341
REMARK  1 active torsions:
REMARK  status: ('A' for Active; 'I' for Inactive)
REMARK    1  A    between atoms: C_1  and  C_4 
ROOT
HETATM    1  C   UNL     1      62.965   9.805   4.467  1.00  0.00     0.081 A 
HETATM    2  S   UNL     1      64.092   8.636   5.004  1.00  0.00    -0.095 SA
HETATM    3  C   UNL     1      62.381   9.422   3.273  1.00  0.00     0.033 A 
HETATM    4  C   UNL     1      63.797   7.631   3.653  1.00  0.00     0.057 A 
HETATM    5  C   UNL     1      62.856   8.159   2.790  1.00  0.00    -0.054 A 
HETATM    6  C   UNL     1      62.388   7.521   1.528  1.00  0.00     0.048 C 
ENDROOT
BRANCH   1   7
HETATM    7  C   UNL     1      62.742  10.996   5.250  1.00  0.00     0.216 C 
HETATM    8  O   UNL     1      63.127  11.261   6.379  1.00  0.00    -0.643 OA
HETATM    9  O   UNL     1      61.995  11.901   4.573  1.00  0.00    -0.643 OA
ENDBRANCH   1   7
TORSDOF 1
ENDMDL
MODEL 7
REMARK VINA RESULT:      -4.0      2.945      4.010
REMARK  1 active torsions:
REMARK  status: ('A' for Active; 'I' for Inactive)
REMARK    1  A    between atoms: C_1  and  C_4 
ROOT
HETATM    1  C   UNL     1      78.276  11.838  20.240  1.00  0.00     0.081 A 
HETATM    2  S   UNL     1      77.069  12.867  19.598  1.00  0.00    -0.095 SA
HETATM    3  C   UNL     1      78.346  10.652  19.532  1.00  0.00     0.033 A 
HETATM    4  C   UNL     1      76.651  11.734  18.387  1.00  0.00     0.057 A 
HETATM    5  C   UNL     1      77.407  10.580  18.452  1.00  0.00    -0.054 A 
HETATM    6  C   UNL     1      77.279   9.413  17.536  1.00  0.00     0.048 C 
ENDROOT
BRANCH   1   7
HETATM    7  C   UNL     1      79.053  12.268  21.377  1.00  0.00     0.216 C 
HETATM    8  O   UNL     1      80.142  11.871  21.763  1.00  0.00    -0.643 OA
HETATM    9  O   UNL     1      78.422  13.251  22.064  1.00  0.00    -0.643 OA
ENDBRANCH   1   7
TORSDOF 1
ENDMDL
MODEL 8
REMARK VINA RESULT:      -4.0     15.322     16.338
REMARK  1 active torsions:
REMARK  status: ('A' for Active; 'I' for Inactive)
REMARK    1  A    between atoms: C_1  and  C_4 
ROOT
HETATM    1  C   UNL     1      67.235   6.127   7.642  1.00  0.00     0.081 A 
HETATM    2  S   UNL     1      67.560   4.997   6.400  1.00  0.00    -0.095 SA
HETATM    3  C   UNL     1      67.905   5.793   8.806  1.00  0.00     0.033 A 
HETATM    4  C   UNL     1      68.585   4.076   7.413  1.00  0.00     0.057 A 
HETATM    5  C   UNL     1      68.693   4.603   8.685  1.00  0.00    -0.054 A 
HETATM    6  C   UNL     1      69.510   4.029   9.790  1.00  0.00     0.048 C 
ENDROOT
BRANCH   1   7
HETATM    7  C   UNL     1      66.358   7.243   7.383  1.00  0.00     0.216 C 
HETATM    8  O   UNL     1      66.631   8.359   6.966  1.00  0.00    -0.643 OA
HETATM    9  O   UNL     1      65.069   6.935   7.664  1.00  0.00    -0.643 OA
ENDBRANCH   1   7
TORSDOF 1
ENDMDL
MODEL 9
REMARK VINA RESULT:      -3.9     20.384     21.185
REMARK  1 active torsions:
REMARK  status: ('A' for Active; 'I' for Inactive)
REMARK    1  A    between atoms: C_1  and  C_4 
ROOT
HETATM    1  C   UNL     1      62.834   9.767   4.243  1.00  0.00     0.081 A 
HETATM    2  S   UNL     1      61.937   9.350   2.846  1.00  0.00    -0.095 SA
HETATM    3  C   UNL     1      63.762   8.788   4.548  1.00  0.00     0.033 A 
HETATM    4  C   UNL     1      62.787   7.878   2.657  1.00  0.00     0.057 A 
HETATM    5  C   UNL     1      63.745   7.685   3.633  1.00  0.00    -0.054 A 
HETATM    6  C   UNL     1      64.645   6.502   3.737  1.00  0.00     0.048 C 
ENDROOT
BRANCH   1   7
HETATM    7  C   UNL     1      62.561  11.008   4.925  1.00  0.00     0.216 C 
HETATM    8  O   UNL     1      61.930  11.980   4.535  1.00  0.00    -0.643 OA
HETATM    9  O   UNL     1      63.112  11.026   6.162  1.00  0.00    -0.643 OA
ENDBRANCH   1   7
TORSDOF 1
ENDMDL
