MODEL 1
REMARK VINA RESULT:      -4.8      0.000      0.000
REMARK  3 active torsions:
REMARK  status: ('A' for Active; 'I' for Inactive)
REMARK    1  A    between atoms: C_1  and  C_3 
REMARK    2  A    between atoms: C_2  and  N_8 
REMARK    3  A    between atoms: C_3  and  O_9 
ROOT
HETATM    1  C   UNL     1      78.121  11.376  19.933  1.00  0.00     0.073 A 
HETATM    2  C   UNL     1      79.416  11.202  20.400  1.00  0.00     0.084 A 
HETATM    3  S   UNL     1      79.780  12.260  21.699  1.00  0.00    -0.084 SA
HETATM    4  C   UNL     1      77.446  12.412  20.676  1.00  0.00     0.028 A 
HETATM    5  C   UNL     1      78.233  12.969  21.655  1.00  0.00     0.053 A 
ENDROOT
BRANCH   1   6
HETATM    6  C   UNL     1      77.535  10.605  18.834  1.00  0.00     0.295 C 
HETATM    7  O   UNL     1      77.108  11.100  17.796  1.00  0.00    -0.259 OA
BRANCH   6   8
HETATM    8  O   UNL     1      77.525   9.263  19.098  1.00  0.00    -0.322 OA
HETATM    9  C   UNL     1      77.227   8.440  17.970  1.00  0.00     0.213 C 
ENDBRANCH   6   8
ENDBRANCH   1   6
BRANCH   2  10
HETATM   10  N   UNL     1      80.354  10.341  19.962  1.00  0.00    -0.393 N 
HETATM   11  H   UNL     1      81.285  10.641  19.854  1.00  0.00     0.156 HD
HETATM   12  H   UNL     1      80.108   9.412  19.748  1.00  0.00     0.156 HD
ENDBRANCH   2  10
TORSDOF 3
ENDMDL
MODEL 2
REMARK VINA RESULT:      -4.6      3.264      4.308
REMARK  3 active torsions:
REMARK  status: ('A' for Active; 'I' for Inactive)
REMARK    1  A    between atoms: C_1  and  C_3 
REMARK    2  A    between atoms: C_2  and  N_8 
REMARK    3  A    between atoms: C_3  and  O_9 
ROOT
HETATM    1  C   UNL     1      79.045  12.192  21.328  1.00  0.00     0.073 A 
HETATM    2  C   UNL     1      79.138  11.275  20.291  1.00  0.00     0.084 A 
HETATM    3  S   UNL     1      77.674  11.148  19.408  1.00  0.00    -0.084 SA
HETATM    4  C   UNL     1      77.728  12.779  21.372  1.00  0.00     0.028 A 
HETATM    5  C   UNL     1      76.893  12.299  20.391  1.00  0.00     0.053 A 
ENDROOT
BRANCH   1   6
HETATM    6  C   UNL     1      80.143  12.508  22.244  1.00  0.00     0.295 C 
HETATM    7  O   UNL     1      81.239  12.929  21.888  1.00  0.00    -0.259 OA
BRANCH   6   8
HETATM    8  O   UNL     1      79.801  12.283  23.550  1.00  0.00    -0.322 OA
HETATM    9  C   UNL     1      80.798  12.665  24.497  1.00  0.00     0.213 C 
ENDBRANCH   6   8
ENDBRANCH   1   6
BRANCH   2  10
HETATM   10  N   UNL     1      80.196  10.521  19.934  1.00  0.00    -0.393 N 
HETATM   11  H   UNL     1      80.629   9.936  20.596  1.00  0.00     0.156 HD
HETATM   12  H   UNL     1      80.536  10.556  19.011  1.00  0.00     0.156 HD
ENDBRANCH   2  10
TORSDOF 3
ENDMDL
MODEL 3
REMARK VINA RESULT:      -4.3      2.315      2.653
REMARK  3 active torsions:
REMARK  status: ('A' for Active; 'I' for Inactive)
REMARK    1  A    between atoms: C_1  and  C_3 
REMARK    2  A    between atoms: C_2  and  N_8 
REMARK    3  A    between atoms: C_3  and  O_9 
ROOT
HETATM    1  C   UNL     1      77.401  11.411  19.389  1.00  0.00     0.073 A 
HETATM    2  C   UNL     1      76.772  12.537  18.877  1.00  0.00     0.084 A 
HETATM    3  S   UNL     1      76.690  13.807  20.025  1.00  0.00    -0.084 SA
HETATM    4  C   UNL     1      77.805  11.629  20.756  1.00  0.00     0.028 A 
HETATM    5  C   UNL     1      77.478  12.882  21.219  1.00  0.00     0.053 A 
ENDROOT
BRANCH   1   6
HETATM    6  C   UNL     1      77.617  10.176  18.631  1.00  0.00     0.295 C 
HETATM    7  O   UNL     1      77.463   9.049  19.091  1.00  0.00    -0.259 OA
BRANCH   6   8
HETATM    8  O   UNL     1      78.006  10.427  17.344  1.00  0.00    -0.322 OA
HETATM    9  C   UNL     1      77.700   9.383  16.419  1.00  0.00     0.213 C 
ENDBRANCH   6   8
ENDBRANCH   1   6
BRANCH   2  10
HETATM   10  N   UNL     1      76.252  12.717  17.649  1.00  0.00    -0.393 N 
HETATM   11  H   UNL     1      75.307  12.501  17.478  1.00  0.00     0.156 HD
HETATM   12  H   UNL     1      76.816  13.065  16.921  1.00  0.00     0.156 HD
ENDBRANCH   2  10
TORSDOF 3
ENDMDL
MODEL 4
REMARK VINA RESULT:      -4.3     19.651     21.037
REMARK  3 active torsions:
REMARK  status: ('A' for Active; 'I' for Inactive)
REMARK    1  A    between atoms: C_1  and  C_3 
REMARK    2  A    between atoms: C_2  and  N_8 
REMARK    3  A    between atoms: C_3  and  O_9 
ROOT
HETATM    1  C   UNL     1      63.509   9.091   4.869  1.00  0.00     0.073 A 
HETATM    2  C   UNL     1      63.053  10.388   5.054  1.00  0.00     0.084 A 
HETATM    3  S   UNL     1      62.009  10.892   3.791  1.00  0.00    -0.084 SA
HETATM    4  C   UNL     1      62.975   8.532   3.651  1.00  0.00     0.028 A 
HETATM    5  C   UNL     1      62.153   9.403   2.976  1.00  0.00     0.053 A 
ENDROOT
BRANCH   1   6
HETATM    6  C   UNL     1      64.411   8.399   5.792  1.00  0.00     0.295 C 
HETATM    7  O   UNL     1      64.114   7.384   6.415  1.00  0.00    -0.259 OA
BRANCH   6   8
HETATM    8  O   UNL     1      65.630   9.014   5.875  1.00  0.00    -0.322 OA
HETATM    9  C   UNL     1      66.651   8.224   6.484  1.00  0.00     0.213 C 
ENDBRANCH   6   8
ENDBRANCH   1   6
BRANCH   2  10
HETATM   10  N   UNL     1      63.333  11.236   6.061  1.00  0.00    -0.393 N 
HETATM   11  H   UNL     1      64.094  11.056   6.660  1.00  0.00     0.156 HD
HETATM   12  H   UNL     1      62.777  12.037   6.200  1.00  0.00     0.156 HD
ENDBRANCH   2  10
TORSDOF 3
ENDMDL
MODEL 5
REMARK VINA RESULT:      -4.2      8.276      9.379
REMARK  3 active torsions:
REMARK  status: ('A' for Active; 'I' for Inactive)
REMARK    1  A    between atoms: C_1  and  C_3 
REMARK    2  A    between atoms: C_2  and  N_8 
REMARK    3  A    between atoms: C_3  and  O_9 
ROOT
HETATM    1  C   UNL     1      75.314   2.877  17.453  1.00  0.00     0.073 A 
HETATM    2  C   UNL     1      76.505   3.306  18.021  1.00  0.00     0.084 A 
HETATM    3  S   UNL     1      76.882   4.921  17.586  1.00  0.00    -0.084 SA
HETATM    4  C   UNL     1      74.730   3.919  16.645  1.00  0.00     0.028 A 
HETATM    5  C   UNL     1      75.479   5.071  16.632  1.00  0.00     0.053 A 
ENDROOT
BRANCH   1   6
HETATM    6  C   UNL     1      74.742   1.543  17.655  1.00  0.00     0.295 C 
HETATM    7  O   UNL     1      74.610   1.008  18.751  1.00  0.00    -0.259 OA
BRANCH   6   8
HETATM    8  O   UNL     1      74.366   0.964  16.474  1.00  0.00    -0.322 OA
HETATM    9  C   UNL     1      73.908  -0.383  16.596  1.00  0.00     0.213 C 
ENDBRANCH   6   8
ENDBRANCH   1   6
BRANCH   2  10
HETATM   10  N   UNL     1      77.340   2.623  18.827  1.00  0.00    -0.393 N 
HETATM   11  H   UNL     1      77.068   1.751  19.192  1.00  0.00     0.156 HD
HETATM   12  H   UNL     1      78.223   2.997  19.051  1.00  0.00     0.156 HD
ENDBRANCH   2  10
TORSDOF 3
ENDMDL
MODEL 6
REMARK VINA RESULT:      -4.1      7.486      8.933
REMARK  3 active torsions:
REMARK  status: ('A' for Active; 'I' for Inactive)
REMARK    1  A    between atoms: C_1  and  C_3 
REMARK    2  A    between atoms: C_2  and  N_8 
REMARK    3  A    between atoms: C_3  and  O_9 
ROOT
HETATM    1  C   UNL     1      76.016   3.229  17.478  1.00  0.00     0.073 A 
HETATM    2  C   UNL     1      76.771   2.236  18.084  1.00  0.00     0.084 A 
HETATM    3  S   UNL     1      76.076   0.682  17.880  1.00  0.00    -0.084 SA
HETATM    4  C   UNL     1      74.847   2.668  16.848  1.00  0.00     0.028 A 
HETATM    5  C   UNL     1      74.761   1.303  16.993  1.00  0.00     0.053 A 
ENDROOT
BRANCH   1   6
HETATM    6  C   UNL     1      76.371   4.650  17.487  1.00  0.00     0.295 C 
HETATM    7  O   UNL     1      77.034   5.190  18.367  1.00  0.00    -0.259 OA
BRANCH   6   8
HETATM    8  O   UNL     1      75.881   5.307  16.392  1.00  0.00    -0.322 OA
HETATM    9  C   UNL     1      76.754   6.302  15.858  1.00  0.00     0.213 C 
ENDBRANCH   6   8
ENDBRANCH   1   6
BRANCH   2  10
HETATM   10  N   UNL     1      77.920   2.363  18.774  1.00  0.00    -0.393 N 
HETATM   11  H   UNL     1      78.040   1.881  19.624  1.00  0.00     0.156 HD
HETATM   12  H   UNL     1      78.641   2.939  18.429  1.00  0.00     0.156 HD
ENDBRANCH   2  10
TORSDOF 3
ENDMDL
MODEL 7
REMARK VINA RESULT:      -3.8     15.804     16.472
REMARK  3 active torsions:
REMARK  status: ('A' for Active; 'I' for Inactive)
REMARK    1  A    between atoms: C_1  and  C_3 
REMARK    2  A    between atoms: C_2  and  N_8 
REMARK    3  A    between atoms: C_3  and  O_9 
ROOT
HETATM    1  C   UNL     1      68.928   3.012   9.626  1.00  0.00     0.073 A 
HETATM    2  C   UNL     1      67.894   3.273   8.739  1.00  0.00     0.084 A 
HETATM    3  S   UNL     1      68.142   4.729   7.869  1.00  0.00    -0.084 SA
HETATM    4  C   UNL     1      69.924   4.053   9.569  1.00  0.00     0.028 A 
HETATM    5  C   UNL     1      69.618   5.039   8.662  1.00  0.00     0.053 A 
ENDROOT
BRANCH   1   6
HETATM    6  C   UNL     1      68.984   1.835  10.497  1.00  0.00     0.295 C 
HETATM    7  O   UNL     1      68.001   1.303  11.001  1.00  0.00    -0.259 OA
BRANCH   6   8
HETATM    8  O   UNL     1      70.266   1.393  10.678  1.00  0.00    -0.322 OA
HETATM    9  C   UNL     1      70.653   0.327   9.812  1.00  0.00     0.213 C 
ENDBRANCH   6   8
ENDBRANCH   1   6
BRANCH   2  10
HETATM   10  N   UNL     1      66.785   2.544   8.510  1.00  0.00    -0.393 N 
HETATM   11  H   UNL     1      66.416   2.483   7.599  1.00  0.00     0.156 HD
HETATM   12  H   UNL     1      66.344   2.072   9.252  1.00  0.00     0.156 HD
ENDBRANCH   2  10
TORSDOF 3
ENDMDL
MODEL 8
REMARK VINA RESULT:      -3.7     19.932     21.228
REMARK  3 active torsions:
REMARK  status: ('A' for Active; 'I' for Inactive)
REMARK    1  A    between atoms: C_1  and  C_3 
REMARK    2  A    between atoms: C_2  and  N_8 
REMARK    3  A    between atoms: C_3  and  O_9 
ROOT
HETATM    1  C   UNL     1      63.667   9.081   4.734  1.00  0.00     0.073 A 
HETATM    2  C   UNL     1      63.033   8.764   3.541  1.00  0.00     0.084 A 
HETATM    3  S   UNL     1      61.910   9.970   3.067  1.00  0.00    -0.084 SA
HETATM    4  C   UNL     1      63.191  10.344   5.244  1.00  0.00     0.028 A 
HETATM    5  C   UNL     1      62.240  10.925   4.438  1.00  0.00     0.053 A 
ENDROOT
BRANCH   1   6
HETATM    6  C   UNL     1      64.677   8.237   5.375  1.00  0.00     0.295 C 
HETATM    7  O   UNL     1      64.710   7.014   5.288  1.00  0.00    -0.259 OA
BRANCH   6   8
HETATM    8  O   UNL     1      65.588   8.976   6.081  1.00  0.00    -0.322 OA
HETATM    9  C   UNL     1      66.708   8.232   6.561  1.00  0.00     0.213 C 
ENDBRANCH   6   8
ENDBRANCH   1   6
BRANCH   2  10
HETATM   10  N   UNL     1      63.200   7.673   2.771  1.00  0.00    -0.393 N 
HETATM   11  H   UNL     1      64.102   7.408   2.481  1.00  0.00     0.156 HD
HETATM   12  H   UNL     1      62.419   7.140   2.496  1.00  0.00     0.156 HD
ENDBRANCH   2  10
TORSDOF 3
ENDMDL
MODEL 9
REMARK VINA RESULT:      -3.6     16.205     17.868
REMARK  3 active torsions:
REMARK  status: ('A' for Active; 'I' for Inactive)
REMARK    1  A    between atoms: C_1  and  C_3 
REMARK    2  A    between atoms: C_2  and  N_8 
REMARK    3  A    between atoms: C_3  and  O_9 
ROOT
HETATM    1  C   UNL     1      67.090   5.988   6.882  1.00  0.00     0.073 A 
HETATM    2  C   UNL     1      67.047   7.306   6.449  1.00  0.00     0.084 A 
HETATM    3  S   UNL     1      67.114   7.426   4.740  1.00  0.00    -0.084 SA
HETATM    4  C   UNL     1      67.185   5.086   5.761  1.00  0.00     0.028 A 
HETATM    5  C   UNL     1      67.208   5.736   4.550  1.00  0.00     0.053 A 
ENDROOT
BRANCH   1   6
HETATM    6  C   UNL     1      67.044   5.585   8.290  1.00  0.00     0.295 C 
HETATM    7  O   UNL     1      66.152   4.903   8.783  1.00  0.00    -0.259 OA
BRANCH   6   8
HETATM    8  O   UNL     1      68.120   6.056   8.992  1.00  0.00    -0.322 OA
HETATM    9  C   UNL     1      69.334   5.341   8.763  1.00  0.00     0.213 C 
ENDBRANCH   6   8
ENDBRANCH   1   6
BRANCH   2  10
HETATM   10  N   UNL     1      66.967   8.427   7.190  1.00  0.00    -0.393 N 
HETATM   11  H   UNL     1      67.717   9.064   7.201  1.00  0.00     0.156 HD
HETATM   12  H   UNL     1      66.159   8.608   7.723  1.00  0.00     0.156 HD
ENDBRANCH   2  10
TORSDOF 3
ENDMDL
