MODEL 1
REMARK VINA RESULT:      -3.7      0.000      0.000
REMARK  0 active torsions:
REMARK  status: ('A' for Active; 'I' for Inactive)
ROOT
HETATM    1  C   UNL     1      77.327   7.990  14.884  1.00  0.00     0.116 A 
HETATM    2  N   UNL     1      77.383   8.588  16.122  1.00  0.00    -0.282 N 
HETATM    3  N   UNL     1      77.732   9.891  16.070  1.00  0.00    -0.308 N 
ATOM      4  HN  UNL     1      77.845  10.546  16.845  1.00  0.00     0.186 HD
HETATM    5  C   UNL     1      77.658   8.974  13.983  1.00  0.00     0.068 A 
HETATM    6  C   UNL     1      77.896  10.120  14.765  1.00  0.00     0.111 A 
HETATM    7  N   UNL     1      77.001   6.700  14.682  1.00  0.00    -0.384 N 
HETATM    8  C   UNL     1      77.100   7.981  17.399  1.00  0.00     0.179 C 
HETATM    9  H   UNL     1      76.788   6.121  15.449  1.00  0.00     0.157 HD
HETATM   10  H   UNL     1      76.974   6.336  13.767  1.00  0.00     0.157 HD
ENDROOT
TORSDOF 0
ENDMDL
MODEL 2
REMARK VINA RESULT:      -3.7      4.965      6.144
REMARK  0 active torsions:
REMARK  status: ('A' for Active; 'I' for Inactive)
ROOT
HETATM    1  C   UNL     1      76.851  12.509  19.620  1.00  0.00     0.116 A 
HETATM    2  N   UNL     1      77.728  11.459  19.764  1.00  0.00    -0.282 N 
HETATM    3  N   UNL     1      78.597  11.625  20.784  1.00  0.00    -0.308 N 
ATOM      4  HN  UNL     1      79.340  10.996  21.090  1.00  0.00     0.186 HD
HETATM    5  C   UNL     1      77.175  13.401  20.614  1.00  0.00     0.068 A 
HETATM    6  C   UNL     1      78.252  12.808  21.299  1.00  0.00     0.111 A 
HETATM    7  N   UNL     1      75.893  12.569  18.675  1.00  0.00    -0.384 N 
HETATM    8  C   UNL     1      77.787  10.255  18.973  1.00  0.00     0.179 C 
HETATM    9  H   UNL     1      75.794  11.834  18.029  1.00  0.00     0.157 HD
HETATM   10  H   UNL     1      75.294  13.349  18.631  1.00  0.00     0.157 HD
ENDROOT
TORSDOF 0
ENDMDL
MODEL 3
REMARK VINA RESULT:      -3.6      4.881      6.259
REMARK  0 active torsions:
REMARK  status: ('A' for Active; 'I' for Inactive)
ROOT
HETATM    1  C   UNL     1      76.608   2.893  17.978  1.00  0.00     0.116 A 
HETATM    2  N   UNL     1      76.237   4.120  17.479  1.00  0.00    -0.282 N 
HETATM    3  N   UNL     1      75.052   4.098  16.832  1.00  0.00    -0.308 N 
ATOM      4  HN  UNL     1      74.568   4.871  16.376  1.00  0.00     0.186 HD
HETATM    5  C   UNL     1      75.594   2.031  17.633  1.00  0.00     0.068 A 
HETATM    6  C   UNL     1      74.666   2.824  16.932  1.00  0.00     0.111 A 
HETATM    7  N   UNL     1      77.746   2.667  18.661  1.00  0.00    -0.384 N 
HETATM    8  C   UNL     1      76.958   5.364  17.594  1.00  0.00     0.179 C 
HETATM    9  H   UNL     1      78.376   3.406  18.824  1.00  0.00     0.157 HD
HETATM   10  H   UNL     1      77.949   1.764  18.996  1.00  0.00     0.157 HD
ENDROOT
TORSDOF 0
ENDMDL
MODEL 4
REMARK VINA RESULT:      -3.6      5.064      6.019
REMARK  0 active torsions:
REMARK  status: ('A' for Active; 'I' for Inactive)
ROOT
HETATM    1  C   UNL     1      76.744   3.429  17.904  1.00  0.00     0.116 A 
HETATM    2  N   UNL     1      75.498   3.012  17.497  1.00  0.00    -0.282 N 
HETATM    3  N   UNL     1      74.801   3.969  16.848  1.00  0.00    -0.308 N 
ATOM      4  HN  UNL     1      73.861   3.908  16.456  1.00  0.00     0.186 HD
HETATM    5  C   UNL     1      76.853   4.734  17.485  1.00  0.00     0.068 A 
HETATM    6  C   UNL     1      75.633   5.012  16.842  1.00  0.00     0.111 A 
HETATM    7  N   UNL     1      77.622   2.653  18.568  1.00  0.00    -0.384 N 
HETATM    8  C   UNL     1      74.910   1.708  17.681  1.00  0.00     0.179 C 
HETATM    9  H   UNL     1      77.383   1.726  18.796  1.00  0.00     0.157 HD
HETATM   10  H   UNL     1      78.501   3.013  18.825  1.00  0.00     0.157 HD
ENDROOT
TORSDOF 0
ENDMDL
MODEL 5
REMARK VINA RESULT:      -3.5     15.546     16.527
REMARK  0 active torsions:
REMARK  status: ('A' for Active; 'I' for Inactive)
ROOT
HETATM    1  C   UNL     1      72.656  24.024  13.837  1.00  0.00     0.116 A 
HETATM    2  N   UNL     1      71.433  23.426  13.636  1.00  0.00    -0.282 N 
HETATM    3  N   UNL     1      70.439  23.987  14.356  1.00  0.00    -0.308 N 
ATOM      4  HN  UNL     1      69.454  23.724  14.383  1.00  0.00     0.186 HD
HETATM    5  C   UNL     1      72.428  25.035  14.740  1.00  0.00     0.068 A 
HETATM    6  C   UNL     1      71.051  24.967  15.024  1.00  0.00     0.111 A 
HETATM    7  N   UNL     1      73.794  23.641  13.229  1.00  0.00    -0.384 N 
HETATM    8  C   UNL     1      71.136  22.322  12.757  1.00  0.00     0.179 C 
HETATM    9  H   UNL     1      73.785  22.885  12.600  1.00  0.00     0.157 HD
HETATM   10  H   UNL     1      74.636  24.117  13.415  1.00  0.00     0.157 HD
ENDROOT
TORSDOF 0
ENDMDL
MODEL 6
REMARK VINA RESULT:      -3.5     17.367     18.075
REMARK  0 active torsions:
REMARK  status: ('A' for Active; 'I' for Inactive)
ROOT
HETATM    1  C   UNL     1      63.174  10.670   5.194  1.00  0.00     0.116 A 
HETATM    2  N   UNL     1      63.576   9.436   4.740  1.00  0.00    -0.282 N 
HETATM    3  N   UNL     1      62.870   9.004   3.673  1.00  0.00    -0.308 N 
ATOM      4  HN  UNL     1      62.973   8.128   3.160  1.00  0.00     0.186 HD
HETATM    5  C   UNL     1      62.150  11.056   4.363  1.00  0.00     0.068 A 
HETATM    6  C   UNL     1      62.006   9.996   3.447  1.00  0.00     0.111 A 
HETATM    7  N   UNL     1      63.729  11.306   6.244  1.00  0.00    -0.384 N 
HETATM    8  C   UNL     1      64.637   8.614   5.266  1.00  0.00     0.179 C 
HETATM    9  H   UNL     1      64.466  10.884   6.741  1.00  0.00     0.157 HD
HETATM   10  H   UNL     1      63.396  12.193   6.514  1.00  0.00     0.157 HD
ENDROOT
TORSDOF 0
ENDMDL
MODEL 7
REMARK VINA RESULT:      -3.4     15.497     16.190
REMARK  0 active torsions:
REMARK  status: ('A' for Active; 'I' for Inactive)
ROOT
HETATM    1  C   UNL     1      71.423  23.913  14.163  1.00  0.00     0.116 A 
HETATM    2  N   UNL     1      71.659  23.045  13.122  1.00  0.00    -0.282 N 
HETATM    3  N   UNL     1      72.965  22.948  12.795  1.00  0.00    -0.308 N 
ATOM      4  HN  UNL     1      73.392  22.379  12.062  1.00  0.00     0.186 HD
HETATM    5  C   UNL     1      72.656  24.397  14.528  1.00  0.00     0.068 A 
HETATM    6  C   UNL     1      73.566  23.771  13.656  1.00  0.00     0.111 A 
HETATM    7  N   UNL     1      70.202  24.173  14.667  1.00  0.00    -0.384 N 
HETATM    8  C   UNL     1      70.688  22.262  12.400  1.00  0.00     0.179 C 
HETATM    9  H   UNL     1      69.408  23.736  14.284  1.00  0.00     0.157 HD
HETATM   10  H   UNL     1      70.103  24.802  15.419  1.00  0.00     0.157 HD
ENDROOT
TORSDOF 0
ENDMDL
MODEL 8
REMARK VINA RESULT:      -3.4     14.537     15.685
REMARK  0 active torsions:
REMARK  status: ('A' for Active; 'I' for Inactive)
ROOT
HETATM    1  C   UNL     1      71.905  22.816  14.069  1.00  0.00     0.116 A 
HETATM    2  N   UNL     1      72.861  23.236  14.964  1.00  0.00    -0.282 N 
HETATM    3  N   UNL     1      72.566  24.417  15.547  1.00  0.00    -0.308 N 
ATOM      4  HN  UNL     1      73.112  24.936  16.236  1.00  0.00     0.186 HD
HETATM    5  C   UNL     1      70.933  23.788  14.084  1.00  0.00     0.068 A 
HETATM    6  C   UNL     1      71.389  24.746  15.008  1.00  0.00     0.111 A 
HETATM    7  N   UNL     1      71.978  21.670  13.367  1.00  0.00    -0.384 N 
HETATM    8  C   UNL     1      74.079  22.553  15.325  1.00  0.00     0.179 C 
HETATM    9  H   UNL     1      72.755  21.076  13.474  1.00  0.00     0.157 HD
HETATM   10  H   UNL     1      71.254  21.426  12.746  1.00  0.00     0.157 HD
ENDROOT
TORSDOF 0
ENDMDL
MODEL 9
REMARK VINA RESULT:      -3.4      5.148      6.520
REMARK  0 active torsions:
REMARK  status: ('A' for Active; 'I' for Inactive)
ROOT
HETATM    1  C   UNL     1      75.424   3.023  17.281  1.00  0.00     0.116 A 
HETATM    2  N   UNL     1      76.563   3.662  17.715  1.00  0.00    -0.282 N 
HETATM    3  N   UNL     1      77.533   2.812  18.114  1.00  0.00    -0.308 N 
ATOM      4  HN  UNL     1      78.460   3.038  18.477  1.00  0.00     0.186 HD
HETATM    5  C   UNL     1      75.684   1.679  17.406  1.00  0.00     0.068 A 
HETATM    6  C   UNL     1      76.992   1.607  17.921  1.00  0.00     0.111 A 
HETATM    7  N   UNL     1      74.325   3.658  16.834  1.00  0.00    -0.384 N 
HETATM    8  C   UNL     1      76.802   5.083  17.762  1.00  0.00     0.179 C 
HETATM    9  H   UNL     1      74.301   4.642  16.809  1.00  0.00     0.157 HD
HETATM   10  H   UNL     1      73.544   3.139  16.532  1.00  0.00     0.157 HD
ENDROOT
TORSDOF 0
ENDMDL
