MODEL 1
REMARK VINA RESULT:      -6.2      0.000      0.000
REMARK  5 active torsions:
REMARK  status: ('A' for Active; 'I' for Inactive)
REMARK    1  A    between atoms: C_1  and  C_2 
REMARK    2  A    between atoms: N_3  and  C_8 
REMARK    3  A    between atoms: C_8  and  C_17 
REMARK    4  A    between atoms: C_10  and  O_16 
REMARK    5  A    between atoms: O_16  and  C_17 
ROOT
HETATM    1  C   UNL     1      77.530  12.172  19.567  1.00  0.00     0.063 A 
HETATM    2  N   UNL     1      78.759  10.085  19.461  1.00  0.00    -0.346 N 
ATOM      3  HN  UNL     1      79.507   9.483  19.807  1.00  0.00     0.167 HD
HETATM    4  C   UNL     1      78.537  11.313  19.987  1.00  0.00     0.106 A 
HETATM    5  C   UNL     1      77.944   9.695  18.459  1.00  0.00     0.142 A 
HETATM    6  C   UNL     1      76.701  11.730  18.530  1.00  0.00     0.022 A 
HETATM    7  C   UNL     1      76.906  10.470  17.970  1.00  0.00     0.057 A 
ENDROOT
BRANCH   5   8
HETATM    8  O   UNL     1      78.129   8.452  17.890  1.00  0.00    -0.323 OA
BRANCH   8   9
HETATM    9  C   UNL     1      76.892   7.804  17.543  1.00  0.00     0.281 C 
BRANCH   9  10
HETATM   10  C   UNL     1      77.056   6.294  17.539  1.00  0.00    -0.051 C 
BRANCH  10  11
HETATM   11  N   UNL     1      77.192   5.040  17.535  1.00  0.00    -0.368 N 
ATOM     12  HN2 UNL     1      77.102   6.055  17.528  1.00  0.00     0.165 HD
ATOM     13  HN1 UNL     1      77.301   4.025  17.533  1.00  0.00     0.165 HD
ENDBRANCH  10  11
ENDBRANCH   9  10
ENDBRANCH   8   9
ENDBRANCH   5   8
BRANCH   1  14
HETATM   14  C   UNL     1      77.343  13.511  20.215  1.00  0.00     0.418 C 
HETATM   15  F   UNL     1      76.081  13.720  20.679  1.00  0.00    -0.166 F 
HETATM   16  F   UNL     1      77.600  14.539  19.360  1.00  0.00    -0.166 F 
HETATM   17  F   UNL     1      78.169  13.697  21.281  1.00  0.00    -0.166 F 
ENDBRANCH   1  14
TORSDOF 5
ENDMDL
MODEL 2
REMARK VINA RESULT:      -6.1      2.027      2.215
REMARK  5 active torsions:
REMARK  status: ('A' for Active; 'I' for Inactive)
REMARK    1  A    between atoms: C_1  and  C_2 
REMARK    2  A    between atoms: N_3  and  C_8 
REMARK    3  A    between atoms: C_8  and  C_17 
REMARK    4  A    between atoms: C_10  and  O_16 
REMARK    5  A    between atoms: O_16  and  C_17 
ROOT
HETATM    1  C   UNL     1      78.062  11.757  20.058  1.00  0.00     0.063 A 
HETATM    2  N   UNL     1      79.113   9.969  18.804  1.00  0.00    -0.346 N 
ATOM      3  HN  UNL     1      79.889   9.318  18.677  1.00  0.00     0.167 HD
HETATM    4  C   UNL     1      79.092  10.856  19.827  1.00  0.00     0.106 A 
HETATM    5  C   UNL     1      78.060   9.986  17.961  1.00  0.00     0.142 A 
HETATM    6  C   UNL     1      76.983  11.740  19.167  1.00  0.00     0.022 A 
HETATM    7  C   UNL     1      76.978  10.837  18.105  1.00  0.00     0.057 A 
ENDROOT
BRANCH   5   8
HETATM    8  O   UNL     1      78.033   9.101  16.903  1.00  0.00    -0.323 OA
BRANCH   8   9
HETATM    9  C   UNL     1      77.836   9.751  15.634  1.00  0.00     0.281 C 
BRANCH   9  10
HETATM   10  C   UNL     1      77.727   8.728  14.515  1.00  0.00    -0.051 C 
BRANCH  10  11
HETATM   11  N   UNL     1      77.637   7.879  13.587  1.00  0.00    -0.368 N 
ATOM     12  HN2 UNL     1      77.729   8.573  14.328  1.00  0.00     0.165 HD
ATOM     13  HN1 UNL     1      77.564   7.192  12.835  1.00  0.00     0.165 HD
ENDBRANCH  10  11
ENDBRANCH   9  10
ENDBRANCH   8   9
ENDBRANCH   5   8
BRANCH   1  14
HETATM   14  C   UNL     1      78.111  12.696  21.225  1.00  0.00     0.418 C 
HETATM   15  F   UNL     1      77.263  13.755  21.108  1.00  0.00    -0.166 F 
HETATM   16  F   UNL     1      79.349  13.230  21.408  1.00  0.00    -0.166 F 
HETATM   17  F   UNL     1      77.789  12.089  22.400  1.00  0.00    -0.166 F 
ENDBRANCH   1  14
TORSDOF 5
ENDMDL
MODEL 3
REMARK VINA RESULT:      -6.0      3.720      5.785
REMARK  5 active torsions:
REMARK  status: ('A' for Active; 'I' for Inactive)
REMARK    1  A    between atoms: C_1  and  C_2 
REMARK    2  A    between atoms: N_3  and  C_8 
REMARK    3  A    between atoms: C_8  and  C_17 
REMARK    4  A    between atoms: C_10  and  O_16 
REMARK    5  A    between atoms: O_16  and  C_17 
ROOT
HETATM    1  C   UNL     1      77.801  12.234  20.038  1.00  0.00     0.063 A 
HETATM    2  N   UNL     1      79.842  11.223  20.867  1.00  0.00    -0.346 N 
ATOM      3  HN  UNL     1      80.582  10.528  20.775  1.00  0.00     0.167 HD
HETATM    4  C   UNL     1      78.829  11.304  19.972  1.00  0.00     0.106 A 
HETATM    5  C   UNL     1      79.826  12.107  21.886  1.00  0.00     0.142 A 
HETATM    6  C   UNL     1      77.821  13.139  21.105  1.00  0.00     0.022 A 
HETATM    7  C   UNL     1      78.853  13.080  22.042  1.00  0.00     0.057 A 
ENDROOT
BRANCH   5   8
HETATM    8  O   UNL     1      80.836  12.067  22.825  1.00  0.00    -0.323 OA
BRANCH   8   9
HETATM    9  C   UNL     1      80.678  13.052  23.862  1.00  0.00     0.281 C 
BRANCH   9  10
HETATM   10  C   UNL     1      80.714  12.402  25.235  1.00  0.00    -0.051 C 
BRANCH  10  11
HETATM   11  N   UNL     1      80.744  11.862  26.374  1.00  0.00    -0.368 N 
ATOM     12  HN2 UNL     1      80.722  12.278  25.443  1.00  0.00     0.165 HD
ATOM     13  HN1 UNL     1      80.768  11.426  27.296  1.00  0.00     0.165 HD
ENDBRANCH  10  11
ENDBRANCH   9  10
ENDBRANCH   8   9
ENDBRANCH   5   8
BRANCH   1  14
HETATM   14  C   UNL     1      76.724  12.264  18.995  1.00  0.00     0.418 C 
HETATM   15  F   UNL     1      76.635  11.115  18.271  1.00  0.00    -0.166 F 
HETATM   16  F   UNL     1      76.909  13.262  18.089  1.00  0.00    -0.166 F 
HETATM   17  F   UNL     1      75.487  12.467  19.526  1.00  0.00    -0.166 F 
ENDBRANCH   1  14
TORSDOF 5
ENDMDL
MODEL 4
REMARK VINA RESULT:      -6.0      4.029      6.076
REMARK  5 active torsions:
REMARK  status: ('A' for Active; 'I' for Inactive)
REMARK    1  A    between atoms: C_1  and  C_2 
REMARK    2  A    between atoms: N_3  and  C_8 
REMARK    3  A    between atoms: C_8  and  C_17 
REMARK    4  A    between atoms: C_10  and  O_16 
REMARK    5  A    between atoms: O_16  and  C_17 
ROOT
HETATM    1  C   UNL     1      78.231  10.710  19.387  1.00  0.00     0.063 A 
HETATM    2  N   UNL     1      79.905  11.403  20.998  1.00  0.00    -0.346 N 
ATOM      3  HN  UNL     1      80.858  11.350  21.358  1.00  0.00     0.167 HD
HETATM    4  C   UNL     1      79.508  10.671  19.929  1.00  0.00     0.106 A 
HETATM    5  C   UNL     1      78.980  12.207  21.562  1.00  0.00     0.142 A 
HETATM    6  C   UNL     1      77.301  11.561  19.996  1.00  0.00     0.022 A 
HETATM    7  C   UNL     1      77.681  12.326  21.097  1.00  0.00     0.057 A 
ENDROOT
BRANCH   5   8
HETATM    8  O   UNL     1      79.334  12.973  22.654  1.00  0.00    -0.323 OA
BRANCH   8   9
HETATM    9  C   UNL     1      80.588  12.574  23.236  1.00  0.00     0.281 C 
BRANCH   9  10
HETATM   10  C   UNL     1      81.640  13.654  23.047  1.00  0.00    -0.051 C 
BRANCH  10  11
HETATM   11  N   UNL     1      82.513  14.550  22.891  1.00  0.00    -0.368 N 
ATOM     12  HN2 UNL     1      81.796  13.839  23.031  1.00  0.00     0.165 HD
ATOM     13  HN1 UNL     1      83.221  15.275  22.763  1.00  0.00     0.165 HD
ENDBRANCH  10  11
ENDBRANCH   9  10
ENDBRANCH   8   9
ENDBRANCH   5   8
BRANCH   1  14
HETATM   14  C   UNL     1      77.879   9.877  18.192  1.00  0.00     0.418 C 
HETATM   15  F   UNL     1      78.963   9.389  17.530  1.00  0.00    -0.166 F 
HETATM   16  F   UNL     1      77.162  10.575  17.268  1.00  0.00    -0.166 F 
HETATM   17  F   UNL     1      77.119   8.794  18.513  1.00  0.00    -0.166 F 
ENDBRANCH   1  14
TORSDOF 5
ENDMDL
MODEL 5
REMARK VINA RESULT:      -5.9      6.561      8.751
REMARK  5 active torsions:
REMARK  status: ('A' for Active; 'I' for Inactive)
REMARK    1  A    between atoms: C_1  and  C_2 
REMARK    2  A    between atoms: N_3  and  C_8 
REMARK    3  A    between atoms: C_8  and  C_17 
REMARK    4  A    between atoms: C_10  and  O_16 
REMARK    5  A    between atoms: O_16  and  C_17 
ROOT
HETATM    1  C   UNL     1      75.591   2.954  17.319  1.00  0.00     0.063 A 
HETATM    2  N   UNL     1      77.375   4.259  18.314  1.00  0.00    -0.346 N 
ATOM      3  HN  UNL     1      78.201   4.313  18.910  1.00  0.00     0.167 HD
HETATM    4  C   UNL     1      76.712   3.093  18.125  1.00  0.00     0.106 A 
HETATM    5  C   UNL     1      76.892   5.345  17.676  1.00  0.00     0.142 A 
HETATM    6  C   UNL     1      75.122   4.102  16.668  1.00  0.00     0.022 A 
HETATM    7  C   UNL     1      75.786   5.315  16.844  1.00  0.00     0.057 A 
ENDROOT
BRANCH   5   8
HETATM    8  O   UNL     1      77.532   6.556  17.836  1.00  0.00    -0.323 OA
BRANCH   8   9
HETATM    9  C   UNL     1      76.621   7.668  17.901  1.00  0.00     0.281 C 
BRANCH   9  10
HETATM   10  C   UNL     1      77.275   8.864  18.574  1.00  0.00    -0.051 C 
BRANCH  10  11
HETATM   11  N   UNL     1      77.818   9.856  19.132  1.00  0.00    -0.368 N 
ATOM     12  HN2 UNL     1      77.395   9.041  18.688  1.00  0.00     0.165 HD
ATOM     13  HN1 UNL     1      78.256  10.659  19.584  1.00  0.00     0.165 HD
ENDBRANCH  10  11
ENDBRANCH   9  10
ENDBRANCH   8   9
ENDBRANCH   5   8
BRANCH   1  14
HETATM   14  C   UNL     1      74.924   1.622  17.153  1.00  0.00     0.418 C 
HETATM   15  F   UNL     1      74.265   1.200  18.267  1.00  0.00    -0.166 F 
HETATM   16  F   UNL     1      75.810   0.635  16.848  1.00  0.00    -0.166 F 
HETATM   17  F   UNL     1      74.003   1.619  16.151  1.00  0.00    -0.166 F 
ENDBRANCH   1  14
TORSDOF 5
ENDMDL
MODEL 6
REMARK VINA RESULT:      -5.7      2.414      3.177
REMARK  5 active torsions:
REMARK  status: ('A' for Active; 'I' for Inactive)
REMARK    1  A    between atoms: C_1  and  C_2 
REMARK    2  A    between atoms: N_3  and  C_8 
REMARK    3  A    between atoms: C_8  and  C_17 
REMARK    4  A    between atoms: C_10  and  O_16 
REMARK    5  A    between atoms: O_16  and  C_17 
ROOT
HETATM    1  C   UNL     1      79.462  12.419  21.782  1.00  0.00     0.063 A 
HETATM    2  N   UNL     1      79.279  10.849  19.944  1.00  0.00    -0.346 N 
ATOM      3  HN  UNL     1      79.672  10.084  19.395  1.00  0.00     0.167 HD
HETATM    4  C   UNL     1      79.949  11.387  20.992  1.00  0.00     0.106 A 
HETATM    5  C   UNL     1      78.068  11.372  19.661  1.00  0.00     0.142 A 
HETATM    6  C   UNL     1      78.200  12.932  21.462  1.00  0.00     0.022 A 
HETATM    7  C   UNL     1      77.488  12.397  20.389  1.00  0.00     0.057 A 
ENDROOT
BRANCH   5   8
HETATM    8  O   UNL     1      77.347  10.858  18.604  1.00  0.00    -0.323 OA
BRANCH   8   9
HETATM    9  C   UNL     1      78.027   9.785  17.929  1.00  0.00     0.281 C 
BRANCH   9  10
HETATM   10  C   UNL     1      77.203   8.509  17.974  1.00  0.00    -0.051 C 
BRANCH  10  11
HETATM   11  N   UNL     1      76.519   7.450  18.012  1.00  0.00    -0.368 N 
ATOM     12  HN2 UNL     1      77.079   8.300  17.961  1.00  0.00     0.165 HD
ATOM     13  HN1 UNL     1      75.965   6.594  18.043  1.00  0.00     0.165 HD
ENDBRANCH  10  11
ENDBRANCH   9  10
ENDBRANCH   8   9
ENDBRANCH   5   8
BRANCH   1  14
HETATM   14  C   UNL     1      80.262  12.947  22.933  1.00  0.00     0.418 C 
HETATM   15  F   UNL     1      79.549  13.751  23.770  1.00  0.00    -0.166 F 
HETATM   16  F   UNL     1      81.329  13.688  22.526  1.00  0.00    -0.166 F 
HETATM   17  F   UNL     1      80.773  11.956  23.715  1.00  0.00    -0.166 F 
ENDBRANCH   1  14
TORSDOF 5
ENDMDL
MODEL 7
REMARK VINA RESULT:      -5.4      3.898      5.578
REMARK  5 active torsions:
REMARK  status: ('A' for Active; 'I' for Inactive)
REMARK    1  A    between atoms: C_1  and  C_2 
REMARK    2  A    between atoms: N_3  and  C_8 
REMARK    3  A    between atoms: C_8  and  C_17 
REMARK    4  A    between atoms: C_10  and  O_16 
REMARK    5  A    between atoms: O_16  and  C_17 
ROOT
HETATM    1  C   UNL     1      78.276  10.704  19.455  1.00  0.00     0.063 A 
HETATM    2  N   UNL     1      79.957  11.479  21.020  1.00  0.00    -0.346 N 
ATOM      3  HN  UNL     1      80.917  11.458  21.367  1.00  0.00     0.167 HD
HETATM    4  C   UNL     1      79.562  10.710  19.978  1.00  0.00     0.106 A 
HETATM    5  C   UNL     1      79.023  12.277  21.577  1.00  0.00     0.142 A 
HETATM    6  C   UNL     1      77.336  11.549  20.055  1.00  0.00     0.022 A 
HETATM    7  C   UNL     1      77.715  12.353  21.129  1.00  0.00     0.057 A 
ENDROOT
BRANCH   5   8
HETATM    8  O   UNL     1      79.375  13.081  22.641  1.00  0.00    -0.323 OA
BRANCH   8   9
HETATM    9  C   UNL     1      80.045  12.360  23.691  1.00  0.00     0.281 C 
BRANCH   9  10
HETATM   10  C   UNL     1      79.067  11.480  24.452  1.00  0.00    -0.051 C 
BRANCH  10  11
HETATM   11  N   UNL     1      78.255  10.750  25.083  1.00  0.00    -0.368 N 
ATOM     12  HN2 UNL     1      78.896  11.343  24.557  1.00  0.00     0.165 HD
ATOM     13  HN1 UNL     1      77.598  10.159  25.594  1.00  0.00     0.165 HD
ENDBRANCH  10  11
ENDBRANCH   9  10
ENDBRANCH   8   9
ENDBRANCH   5   8
BRANCH   1  14
HETATM   14  C   UNL     1      77.926   9.831  18.288  1.00  0.00     0.418 C 
HETATM   15  F   UNL     1      77.184  10.464  17.338  1.00  0.00    -0.166 F 
HETATM   16  F   UNL     1      77.203   8.739  18.658  1.00  0.00    -0.166 F 
HETATM   17  F   UNL     1      79.025   9.351  17.645  1.00  0.00    -0.166 F 
ENDBRANCH   1  14
TORSDOF 5
ENDMDL
MODEL 8
REMARK VINA RESULT:      -5.4      6.006      7.681
REMARK  5 active torsions:
REMARK  status: ('A' for Active; 'I' for Inactive)
REMARK    1  A    between atoms: C_1  and  C_2 
REMARK    2  A    between atoms: N_3  and  C_8 
REMARK    3  A    between atoms: C_8  and  C_17 
REMARK    4  A    between atoms: C_10  and  O_16 
REMARK    5  A    between atoms: O_16  and  C_17 
ROOT
HETATM    1  C   UNL     1      76.279   4.833  17.519  1.00  0.00     0.063 A 
HETATM    2  N   UNL     1      76.556   2.780  18.777  1.00  0.00    -0.346 N 
ATOM      3  HN  UNL     1      77.002   2.263  19.535  1.00  0.00     0.167 HD
HETATM    4  C   UNL     1      76.860   4.076  18.527  1.00  0.00     0.106 A 
HETATM    5  C   UNL     1      75.633   2.205  17.978  1.00  0.00     0.142 A 
HETATM    6  C   UNL     1      75.321   4.205  16.715  1.00  0.00     0.022 A 
HETATM    7  C   UNL     1      74.988   2.872  16.950  1.00  0.00     0.057 A 
ENDROOT
BRANCH   5   8
HETATM    8  O   UNL     1      75.288   0.887  18.193  1.00  0.00    -0.323 OA
BRANCH   8   9
HETATM    9  C   UNL     1      76.429   0.012  18.258  1.00  0.00     0.281 C 
BRANCH   9  10
HETATM   10  C   UNL     1      77.083  -0.126  16.894  1.00  0.00    -0.051 C 
BRANCH  10  11
HETATM   11  N   UNL     1      77.625  -0.241  15.761  1.00  0.00    -0.368 N 
ATOM     12  HN2 UNL     1      77.196  -0.168  16.683  1.00  0.00     0.165 HD
ATOM     13  HN1 UNL     1      78.065  -0.332  14.844  1.00  0.00     0.165 HD
ENDBRANCH  10  11
ENDBRANCH   9  10
ENDBRANCH   8   9
ENDBRANCH   5   8
BRANCH   1  14
HETATM   14  C   UNL     1      76.663   6.268  17.319  1.00  0.00     0.418 C 
HETATM   15  F   UNL     1      77.951   6.540  17.663  1.00  0.00    -0.166 F 
HETATM   16  F   UNL     1      75.894   7.117  18.055  1.00  0.00    -0.166 F 
HETATM   17  F   UNL     1      76.529   6.670  16.025  1.00  0.00    -0.166 F 
ENDBRANCH   1  14
TORSDOF 5
ENDMDL
MODEL 9
REMARK VINA RESULT:      -5.3      6.856      8.788
REMARK  5 active torsions:
REMARK  status: ('A' for Active; 'I' for Inactive)
REMARK    1  A    between atoms: C_1  and  C_2 
REMARK    2  A    between atoms: N_3  and  C_8 
REMARK    3  A    between atoms: C_8  and  C_17 
REMARK    4  A    between atoms: C_10  and  O_16 
REMARK    5  A    between atoms: O_16  and  C_17 
ROOT
HETATM    1  C   UNL     1      75.977   3.964  17.278  1.00  0.00     0.063 A 
HETATM    2  N   UNL     1      76.660   2.089  18.654  1.00  0.00    -0.346 N 
ATOM      3  HN  UNL     1      77.308   1.679  19.327  1.00  0.00     0.167 HD
HETATM    4  C   UNL     1      76.829   3.348  18.184  1.00  0.00     0.106 A 
HETATM    5  C   UNL     1      75.595   1.404  18.190  1.00  0.00     0.142 A 
HETATM    6  C   UNL     1      74.879   3.224  16.824  1.00  0.00     0.022 A 
HETATM    7  C   UNL     1      74.680   1.925  17.291  1.00  0.00     0.057 A 
ENDROOT
BRANCH   5   8
HETATM    8  O   UNL     1      75.379   0.117  18.638  1.00  0.00    -0.323 OA
BRANCH   8   9
HETATM    9  C   UNL     1      74.087  -0.397  18.266  1.00  0.00     0.281 C 
BRANCH   9  10
HETATM   10  C   UNL     1      73.421  -1.088  19.444  1.00  0.00    -0.051 C 
BRANCH  10  11
HETATM   11  N   UNL     1      72.868  -1.660  20.422  1.00  0.00    -0.368 N 
ATOM     12  HN2 UNL     1      73.305  -1.212  19.618  1.00  0.00     0.165 HD
ATOM     13  HN1 UNL     1      72.421  -2.123  21.215  1.00  0.00     0.165 HD
ENDBRANCH  10  11
ENDBRANCH   9  10
ENDBRANCH   8   9
ENDBRANCH   5   8
BRANCH   1  14
HETATM   14  C   UNL     1      76.228   5.369  16.820  1.00  0.00     0.418 C 
HETATM   15  F   UNL     1      77.545   5.649  16.619  1.00  0.00    -0.166 F 
HETATM   16  F   UNL     1      75.784   6.293  17.715  1.00  0.00    -0.166 F 
HETATM   17  F   UNL     1      75.603   5.657  15.645  1.00  0.00    -0.166 F 
ENDBRANCH   1  14
TORSDOF 5
ENDMDL
