MODEL 1
REMARK VINA RESULT:      -4.9      0.000      0.000
REMARK  1 active torsions:
REMARK  status: ('A' for Active; 'I' for Inactive)
REMARK    1  A    between atoms: C_1  and  C_4 
ROOT
HETATM    1  C   UNL     1      78.004  11.197  19.627  1.00  0.00     0.133 A 
HETATM    2  N   UNL     1      78.975  11.245  20.562  1.00  0.00    -0.295 N 
ATOM      3  HN  UNL     1      79.706  10.556  20.739  1.00  0.00     0.187 HD
HETATM    4  C   UNL     1      77.171  12.346  19.712  1.00  0.00     0.054 A 
HETATM    5  N   UNL     1      78.761  12.404  21.208  1.00  0.00    -0.307 N 
HETATM    6  C   UNL     1      77.686  13.096  20.742  1.00  0.00     0.112 A 
HETATM    7  C   UNL     1      79.661  12.798  22.263  1.00  0.00     0.177 C 
ENDROOT
BRANCH   1   8
HETATM    8  C   UNL     1      77.864  10.066  18.641  1.00  0.00     0.433 C 
HETATM    9  F   UNL     1      77.102  10.371  17.558  1.00  0.00    -0.165 F 
HETATM   10  F   UNL     1      79.074   9.662  18.163  1.00  0.00    -0.165 F 
HETATM   11  F   UNL     1      77.299   8.968  19.217  1.00  0.00    -0.165 F 
ENDBRANCH   1   8
TORSDOF 1
ENDMDL
MODEL 2
REMARK VINA RESULT:      -4.8      4.775      5.560
REMARK  1 active torsions:
REMARK  status: ('A' for Active; 'I' for Inactive)
REMARK    1  A    between atoms: C_1  and  C_4 
ROOT
HETATM    1  C   UNL     1      77.493   8.653  15.903  1.00  0.00     0.133 A 
HETATM    2  N   UNL     1      77.211   7.335  15.917  1.00  0.00    -0.295 N 
ATOM      3  HN  UNL     1      77.202   6.689  15.127  1.00  0.00     0.187 HD
HETATM    4  C   UNL     1      77.384   9.202  17.210  1.00  0.00     0.054 A 
HETATM    5  N   UNL     1      76.947   7.062  17.207  1.00  0.00    -0.307 N 
HETATM    6  C   UNL     1      77.027   8.149  18.020  1.00  0.00     0.112 A 
HETATM    7  C   UNL     1      76.642   5.706  17.592  1.00  0.00     0.177 C 
ENDROOT
BRANCH   1   8
HETATM    8  C   UNL     1      77.874   9.401  14.652  1.00  0.00     0.433 C 
HETATM    9  F   UNL     1      77.379  10.666  14.594  1.00  0.00    -0.165 F 
HETATM   10  F   UNL     1      79.226   9.507  14.521  1.00  0.00    -0.165 F 
HETATM   11  F   UNL     1      77.435   8.760  13.533  1.00  0.00    -0.165 F 
ENDBRANCH   1   8
TORSDOF 1
ENDMDL
MODEL 3
REMARK VINA RESULT:      -4.8      2.869      3.899
REMARK  1 active torsions:
REMARK  status: ('A' for Active; 'I' for Inactive)
REMARK    1  A    between atoms: C_1  and  C_4 
ROOT
HETATM    1  C   UNL     1      77.662  11.687  20.204  1.00  0.00     0.133 A 
HETATM    2  N   UNL     1      77.947  10.409  19.885  1.00  0.00    -0.295 N 
ATOM      3  HN  UNL     1      78.452   9.723  20.446  1.00  0.00     0.187 HD
HETATM    4  C   UNL     1      76.953  12.321  19.147  1.00  0.00     0.054 A 
HETATM    5  N   UNL     1      77.417  10.243  18.661  1.00  0.00    -0.307 N 
HETATM    6  C   UNL     1      76.819  11.362  18.171  1.00  0.00     0.112 A 
HETATM    7  C   UNL     1      77.505   8.952  18.025  1.00  0.00     0.177 C 
ENDROOT
BRANCH   1   8
HETATM    8  C   UNL     1      78.052  12.316  21.517  1.00  0.00     0.433 C 
HETATM    9  F   UNL     1      79.368  12.179  21.825  1.00  0.00    -0.165 F 
HETATM   10  F   UNL     1      77.786  13.652  21.534  1.00  0.00    -0.165 F 
HETATM   11  F   UNL     1      77.352  11.778  22.555  1.00  0.00    -0.165 F 
ENDBRANCH   1   8
TORSDOF 1
ENDMDL
MODEL 4
REMARK VINA RESULT:      -4.6      4.946      5.797
REMARK  1 active torsions:
REMARK  status: ('A' for Active; 'I' for Inactive)
REMARK    1  A    between atoms: C_1  and  C_4 
ROOT
HETATM    1  C   UNL     1      77.041   7.373  16.585  1.00  0.00     0.133 A 
HETATM    2  N   UNL     1      77.292   7.747  15.315  1.00  0.00    -0.295 N 
ATOM      3  HN  UNL     1      77.222   7.178  14.471  1.00  0.00     0.187 HD
HETATM    4  C   UNL     1      77.270   8.455  17.479  1.00  0.00     0.054 A 
HETATM    5  N   UNL     1      77.656   9.037  15.410  1.00  0.00    -0.307 N 
HETATM    6  C   UNL     1      77.668   9.506  16.687  1.00  0.00     0.112 A 
HETATM    7  C   UNL     1      77.960   9.774  14.209  1.00  0.00     0.177 C 
ENDROOT
BRANCH   1   8
HETATM    8  C   UNL     1      76.575   5.990  16.961  1.00  0.00     0.433 C 
HETATM    9  F   UNL     1      76.026   5.912  18.202  1.00  0.00    -0.165 F 
HETATM   10  F   UNL     1      75.637   5.521  16.092  1.00  0.00    -0.165 F 
HETATM   11  F   UNL     1      77.600   5.093  16.933  1.00  0.00    -0.165 F 
ENDBRANCH   1   8
TORSDOF 1
ENDMDL
MODEL 5
REMARK VINA RESULT:      -4.5      7.241      8.577
REMARK  1 active torsions:
REMARK  status: ('A' for Active; 'I' for Inactive)
REMARK    1  A    between atoms: C_1  and  C_4 
ROOT
HETATM    1  C   UNL     1      76.483   3.715  17.598  1.00  0.00     0.133 A 
HETATM    2  N   UNL     1      77.517   3.381  18.396  1.00  0.00    -0.295 N 
ATOM      3  HN  UNL     1      78.228   3.999  18.788  1.00  0.00     0.187 HD
HETATM    4  C   UNL     1      75.724   2.563  17.255  1.00  0.00     0.054 A 
HETATM    5  N   UNL     1      77.398   2.052  18.560  1.00  0.00    -0.307 N 
HETATM    6  C   UNL     1      76.346   1.513  17.888  1.00  0.00     0.112 A 
HETATM    7  C   UNL     1      78.336   1.361  19.410  1.00  0.00     0.177 C 
ENDROOT
BRANCH   1   8
HETATM    8  C   UNL     1      76.202   5.130  17.160  1.00  0.00     0.433 C 
HETATM    9  F   UNL     1      76.044   6.004  18.189  1.00  0.00    -0.165 F 
HETATM   10  F   UNL     1      77.204   5.625  16.382  1.00  0.00    -0.165 F 
HETATM   11  F   UNL     1      75.068   5.204  16.410  1.00  0.00    -0.165 F 
ENDBRANCH   1   8
TORSDOF 1
ENDMDL
MODEL 6
REMARK VINA RESULT:      -4.5      3.225      4.352
REMARK  1 active torsions:
REMARK  status: ('A' for Active; 'I' for Inactive)
REMARK    1  A    between atoms: C_1  and  C_4 
ROOT
HETATM    1  C   UNL     1      77.625   9.349  16.253  1.00  0.00     0.133 A 
HETATM    2  N   UNL     1      77.785  10.423  17.051  1.00  0.00    -0.295 N 
ATOM      3  HN  UNL     1      78.051  11.369  16.780  1.00  0.00     0.187 HD
HETATM    4  C   UNL     1      77.263   8.206  17.017  1.00  0.00     0.054 A 
HETATM    5  N   UNL     1      77.515   9.965  18.286  1.00  0.00    -0.307 N 
HETATM    6  C   UNL     1      77.206   8.641  18.320  1.00  0.00     0.112 A 
HETATM    7  C   UNL     1      77.552  10.880  19.400  1.00  0.00     0.177 C 
ENDROOT
BRANCH   1   8
HETATM    8  C   UNL     1      77.806   9.399  14.757  1.00  0.00     0.433 C 
HETATM    9  F   UNL     1      77.191   8.385  14.093  1.00  0.00    -0.165 F 
HETATM   10  F   UNL     1      77.323  10.558  14.230  1.00  0.00    -0.165 F 
HETATM   11  F   UNL     1      79.123   9.346  14.412  1.00  0.00    -0.165 F 
ENDBRANCH   1   8
TORSDOF 1
ENDMDL
MODEL 7
REMARK VINA RESULT:      -4.4      7.109      8.693
REMARK  1 active torsions:
REMARK  status: ('A' for Active; 'I' for Inactive)
REMARK    1  A    between atoms: C_1  and  C_4 
ROOT
HETATM    1  C   UNL     1      76.199   4.209  17.438  1.00  0.00     0.133 A 
HETATM    2  N   UNL     1      75.130   3.580  16.912  1.00  0.00    -0.295 N 
ATOM      3  HN  UNL     1      74.355   3.993  16.392  1.00  0.00     0.187 HD
HETATM    4  C   UNL     1      77.050   3.282  18.101  1.00  0.00     0.054 A 
HETATM    5  N   UNL     1      75.314   2.286  17.226  1.00  0.00    -0.307 N 
HETATM    6  C   UNL     1      76.445   2.057  17.947  1.00  0.00     0.112 A 
HETATM    7  C   UNL     1      74.357   1.307  16.772  1.00  0.00     0.177 C 
ENDROOT
BRANCH   1   8
HETATM    8  C   UNL     1      76.428   5.694  17.310  1.00  0.00     0.433 C 
HETATM    9  F   UNL     1      75.590   6.448  18.067  1.00  0.00    -0.165 F 
HETATM   10  F   UNL     1      77.695   6.041  17.670  1.00  0.00    -0.165 F 
HETATM   11  F   UNL     1      76.273   6.113  16.023  1.00  0.00    -0.165 F 
ENDBRANCH   1   8
TORSDOF 1
ENDMDL
MODEL 8
REMARK VINA RESULT:      -4.3     15.574     16.387
REMARK  1 active torsions:
REMARK  status: ('A' for Active; 'I' for Inactive)
REMARK    1  A    between atoms: C_1  and  C_4 
ROOT
HETATM    1  C   UNL     1      68.356   5.745   8.392  1.00  0.00     0.133 A 
HETATM    2  N   UNL     1      68.188   6.423   7.240  1.00  0.00    -0.295 N 
ATOM      3  HN  UNL     1      68.835   6.489   6.454  1.00  0.00     0.187 HD
HETATM    4  C   UNL     1      67.229   5.915   9.242  1.00  0.00     0.054 A 
HETATM    5  N   UNL     1      66.977   6.993   7.360  1.00  0.00    -0.307 N 
HETATM    6  C   UNL     1      66.366   6.727   8.546  1.00  0.00     0.112 A 
HETATM    7  C   UNL     1      66.455   7.774   6.266  1.00  0.00     0.177 C 
ENDROOT
BRANCH   1   8
HETATM    8  C   UNL     1      69.583   4.923   8.695  1.00  0.00     0.433 C 
HETATM    9  F   UNL     1      70.741   5.633   8.674  1.00  0.00    -0.165 F 
HETATM   10  F   UNL     1      69.508   4.339   9.923  1.00  0.00    -0.165 F 
HETATM   11  F   UNL     1      69.736   3.906   7.801  1.00  0.00    -0.165 F 
ENDBRANCH   1   8
TORSDOF 1
ENDMDL
MODEL 9
REMARK VINA RESULT:      -4.0     15.639     16.436
REMARK  1 active torsions:
REMARK  status: ('A' for Active; 'I' for Inactive)
REMARK    1  A    between atoms: C_1  and  C_4 
ROOT
HETATM    1  C   UNL     1      68.667   3.885   9.360  1.00  0.00     0.133 A 
HETATM    2  N   UNL     1      67.620   3.041   9.276  1.00  0.00    -0.295 N 
ATOM      3  HN  UNL     1      66.711   3.214   8.845  1.00  0.00     0.187 HD
HETATM    4  C   UNL     1      69.749   3.272  10.050  1.00  0.00     0.054 A 
HETATM    5  N   UNL     1      68.042   1.920   9.887  1.00  0.00    -0.307 N 
HETATM    6  C   UNL     1      69.308   2.012  10.376  1.00  0.00     0.112 A 
HETATM    7  C   UNL     1      67.167   0.775   9.942  1.00  0.00     0.177 C 
ENDROOT
BRANCH   1   8
HETATM    8  C   UNL     1      68.654   5.276   8.781  1.00  0.00     0.433 C 
HETATM    9  F   UNL     1      67.998   6.186   9.548  1.00  0.00    -0.165 F 
HETATM   10  F   UNL     1      69.915   5.758   8.600  1.00  0.00    -0.165 F 
HETATM   11  F   UNL     1      68.060   5.301   7.555  1.00  0.00    -0.165 F 
ENDBRANCH   1   8
TORSDOF 1
ENDMDL
