MODEL 1
REMARK VINA RESULT:      -5.2      0.000      0.000
REMARK  1 active torsions:
REMARK  status: ('A' for Active; 'I' for Inactive)
REMARK    1  A    between atoms: C_1  and  C_2 
ROOT
HETATM    1  C   UNL     1      78.670  11.585  20.527  1.00  0.00     0.133 A 
HETATM    2  N   UNL     1      79.938  11.155  20.699  1.00  0.00    -0.297 N 
ATOM      3  HN  UNL     1      80.610  11.458  21.404  1.00  0.00     0.187 HD
HETATM    4  N   UNL     1      80.116  10.239  19.735  1.00  0.00    -0.311 N 
HETATM    5  C   UNL     1      78.061  10.916  19.429  1.00  0.00     0.054 A 
HETATM    6  C   UNL     1      79.020  10.059  18.946  1.00  0.00     0.109 A 
HETATM    7  H   UNL     1      80.959   9.745  19.609  1.00  0.00     0.186 HD
ENDROOT
BRANCH   1   8
HETATM    8  C   UNL     1      78.023  12.631  21.399  1.00  0.00     0.433 C 
HETATM    9  F   UNL     1      78.867  13.192  22.304  1.00  0.00    -0.165 F 
HETATM   10  F   UNL     1      77.511  13.653  20.658  1.00  0.00    -0.165 F 
HETATM   11  F   UNL     1      76.980  12.115  22.106  1.00  0.00    -0.165 F 
ENDBRANCH   1   8
TORSDOF 1
ENDMDL
MODEL 2
REMARK VINA RESULT:      -5.0      1.856      2.494
REMARK  1 active torsions:
REMARK  status: ('A' for Active; 'I' for Inactive)
REMARK    1  A    between atoms: C_1  and  C_2 
ROOT
HETATM    1  C   UNL     1      78.340  12.166  20.656  1.00  0.00     0.133 A 
HETATM    2  N   UNL     1      79.159  11.161  20.284  1.00  0.00    -0.297 N 
ATOM      3  HN  UNL     1      79.048  10.523  19.496  1.00  0.00     0.187 HD
HETATM    4  N   UNL     1      80.155  11.188  21.183  1.00  0.00    -0.311 N 
HETATM    5  C   UNL     1      78.847  12.822  21.812  1.00  0.00     0.054 A 
HETATM    6  C   UNL     1      80.014  12.166  22.121  1.00  0.00     0.109 A 
HETATM    7  H   UNL     1      80.914  10.560  21.167  1.00  0.00     0.186 HD
ENDROOT
BRANCH   1   8
HETATM    8  C   UNL     1      77.071  12.517  19.921  1.00  0.00     0.433 C 
HETATM    9  F   UNL     1      75.987  12.655  20.729  1.00  0.00    -0.165 F 
HETATM   10  F   UNL     1      77.198  13.689  19.236  1.00  0.00    -0.165 F 
HETATM   11  F   UNL     1      76.752  11.570  18.997  1.00  0.00    -0.165 F 
ENDBRANCH   1   8
TORSDOF 1
ENDMDL
MODEL 3
REMARK VINA RESULT:      -4.8      5.055      5.844
REMARK  1 active torsions:
REMARK  status: ('A' for Active; 'I' for Inactive)
REMARK    1  A    between atoms: C_1  and  C_2 
ROOT
HETATM    1  C   UNL     1      77.562   8.828  15.858  1.00  0.00     0.133 A 
HETATM    2  N   UNL     1      77.254   7.620  15.341  1.00  0.00    -0.297 N 
ATOM      3  HN  UNL     1      76.946   6.787  15.841  1.00  0.00     0.187 HD
HETATM    4  N   UNL     1      77.445   7.760  14.020  1.00  0.00    -0.311 N 
HETATM    5  C   UNL     1      77.953   9.727  14.827  1.00  0.00     0.054 A 
HETATM    6  C   UNL     1      77.865   9.006  13.661  1.00  0.00     0.109 A 
HETATM    7  H   UNL     1      77.298   7.033  13.373  1.00  0.00     0.186 HD
ENDROOT
BRANCH   1   8
HETATM    8  C   UNL     1      77.488   9.143  17.330  1.00  0.00     0.433 C 
HETATM    9  F   UNL     1      76.974  10.370  17.605  1.00  0.00    -0.165 F 
HETATM   10  F   UNL     1      76.717   8.239  17.997  1.00  0.00    -0.165 F 
HETATM   11  F   UNL     1      78.718   9.096  17.912  1.00  0.00    -0.165 F 
ENDBRANCH   1   8
TORSDOF 1
ENDMDL
MODEL 4
REMARK VINA RESULT:      -4.8     14.827     15.382
REMARK  1 active torsions:
REMARK  status: ('A' for Active; 'I' for Inactive)
REMARK    1  A    between atoms: C_1  and  C_2 
ROOT
HETATM    1  C   UNL     1      71.892  22.829  13.027  1.00  0.00     0.133 A 
HETATM    2  N   UNL     1      73.125  23.000  12.508  1.00  0.00    -0.297 N 
ATOM      3  HN  UNL     1      73.460  22.715  11.588  1.00  0.00     0.187 HD
HETATM    4  N   UNL     1      73.812  23.630  13.473  1.00  0.00    -0.311 N 
HETATM    5  C   UNL     1      71.826  23.365  14.344  1.00  0.00     0.054 A 
HETATM    6  C   UNL     1      73.078  23.871  14.595  1.00  0.00     0.109 A 
HETATM    7  H   UNL     1      74.757  23.891  13.380  1.00  0.00     0.186 HD
ENDROOT
BRANCH   1   8
HETATM    8  C   UNL     1      70.765  22.157  12.285  1.00  0.00     0.433 C 
HETATM    9  F   UNL     1      70.858  20.802  12.250  1.00  0.00    -0.165 F 
HETATM   10  F   UNL     1      69.555  22.450  12.840  1.00  0.00    -0.165 F 
HETATM   11  F   UNL     1      70.699  22.578  10.991  1.00  0.00    -0.165 F 
ENDBRANCH   1   8
TORSDOF 1
ENDMDL
MODEL 5
REMARK VINA RESULT:      -4.6     16.155     16.721
REMARK  1 active torsions:
REMARK  status: ('A' for Active; 'I' for Inactive)
REMARK    1  A    between atoms: C_1  and  C_2 
ROOT
HETATM    1  C   UNL     1      69.114   3.834   9.543  1.00  0.00     0.133 A 
HETATM    2  N   UNL     1      69.983   3.522  10.528  1.00  0.00    -0.297 N 
ATOM      3  HN  UNL     1      70.767   4.077  10.868  1.00  0.00     0.187 HD
HETATM    4  N   UNL     1      69.582   2.316  10.959  1.00  0.00    -0.311 N 
HETATM    5  C   UNL     1      68.162   2.792   9.368  1.00  0.00     0.054 A 
HETATM    6  C   UNL     1      68.495   1.834  10.295  1.00  0.00     0.109 A 
HETATM    7  H   UNL     1      70.033   1.825  11.684  1.00  0.00     0.186 HD
ENDROOT
BRANCH   1   8
HETATM    8  C   UNL     1      69.176   5.121   8.761  1.00  0.00     0.433 C 
HETATM    9  F   UNL     1      68.436   6.127   9.296  1.00  0.00    -0.165 F 
HETATM   10  F   UNL     1      70.453   5.587   8.664  1.00  0.00    -0.165 F 
HETATM   11  F   UNL     1      68.737   4.950   7.483  1.00  0.00    -0.165 F 
ENDBRANCH   1   8
TORSDOF 1
ENDMDL
MODEL 6
REMARK VINA RESULT:      -4.1     16.524     17.109
REMARK  1 active torsions:
REMARK  status: ('A' for Active; 'I' for Inactive)
REMARK    1  A    between atoms: C_1  and  C_2 
ROOT
HETATM    1  C   UNL     1      68.577   5.688   8.488  1.00  0.00     0.133 A 
HETATM    2  N   UNL     1      68.409   6.333   7.315  1.00  0.00    -0.297 N 
ATOM      3  HN  UNL     1      69.010   6.298   6.492  1.00  0.00     0.187 HD
HETATM    4  N   UNL     1      67.274   7.031   7.474  1.00  0.00    -0.311 N 
HETATM    5  C   UNL     1      67.519   6.003   9.386  1.00  0.00     0.054 A 
HETATM    6  C   UNL     1      66.702   6.867   8.699  1.00  0.00     0.109 A 
HETATM    7  H   UNL     1      66.892   7.608   6.773  1.00  0.00     0.186 HD
ENDROOT
BRANCH   1   8
HETATM    8  C   UNL     1      69.737   4.768   8.771  1.00  0.00     0.433 C 
HETATM    9  F   UNL     1      69.684   4.175   9.992  1.00  0.00    -0.165 F 
HETATM   10  F   UNL     1      69.814   3.764   7.853  1.00  0.00    -0.165 F 
HETATM   11  F   UNL     1      70.925   5.431   8.709  1.00  0.00    -0.165 F 
ENDBRANCH   1   8
TORSDOF 1
ENDMDL
MODEL 7
REMARK VINA RESULT:      -4.0     16.652     17.321
REMARK  1 active torsions:
REMARK  status: ('A' for Active; 'I' for Inactive)
REMARK    1  A    between atoms: C_1  and  C_2 
ROOT
HETATM    1  C   UNL     1      68.473   5.629   8.205  1.00  0.00     0.133 A 
HETATM    2  N   UNL     1      67.953   6.654   8.912  1.00  0.00    -0.297 N 
ATOM      3  HN  UNL     1      68.177   6.930   9.868  1.00  0.00     0.187 HD
HETATM    4  N   UNL     1      67.077   7.230   8.075  1.00  0.00    -0.311 N 
HETATM    5  C   UNL     1      67.897   5.577   6.905  1.00  0.00     0.054 A 
HETATM    6  C   UNL     1      67.005   6.621   6.859  1.00  0.00     0.109 A 
HETATM    7  H   UNL     1      66.536   8.016   8.318  1.00  0.00     0.186 HD
ENDROOT
BRANCH   1   8
HETATM    8  C   UNL     1      69.520   4.691   8.751  1.00  0.00     0.433 C 
HETATM    9  F   UNL     1      69.634   3.529   8.055  1.00  0.00    -0.165 F 
HETATM   10  F   UNL     1      70.755   5.266   8.754  1.00  0.00    -0.165 F 
HETATM   11  F   UNL     1      69.257   4.348  10.042  1.00  0.00    -0.165 F 
ENDBRANCH   1   8
TORSDOF 1
ENDMDL
MODEL 8
REMARK VINA RESULT:      -3.9     17.700     18.350
REMARK  1 active torsions:
REMARK  status: ('A' for Active; 'I' for Inactive)
REMARK    1  A    between atoms: C_1  and  C_2 
ROOT
HETATM    1  C   UNL     1      66.409   6.988   7.823  1.00  0.00     0.133 A 
HETATM    2  N   UNL     1      66.864   8.166   7.348  1.00  0.00    -0.297 N 
ATOM      3  HN  UNL     1      67.619   8.740   7.722  1.00  0.00     0.187 HD
HETATM    4  N   UNL     1      66.100   8.412   6.273  1.00  0.00    -0.311 N 
HETATM    5  C   UNL     1      65.340   6.505   7.019  1.00  0.00     0.054 A 
HETATM    6  C   UNL     1      65.170   7.446   6.033  1.00  0.00     0.109 A 
HETATM    7  H   UNL     1      66.201   9.215   5.711  1.00  0.00     0.186 HD
ENDROOT
BRANCH   1   8
HETATM    8  C   UNL     1      66.982   6.307   9.040  1.00  0.00     0.433 C 
HETATM    9  F   UNL     1      66.578   6.853  10.217  1.00  0.00    -0.165 F 
HETATM   10  F   UNL     1      66.641   4.989   9.084  1.00  0.00    -0.165 F 
HETATM   11  F   UNL     1      68.343   6.347   9.039  1.00  0.00    -0.165 F 
ENDBRANCH   1   8
TORSDOF 1
ENDMDL
MODEL 9
REMARK VINA RESULT:      -3.8     21.383     22.064
REMARK  1 active torsions:
REMARK  status: ('A' for Active; 'I' for Inactive)
REMARK    1  A    between atoms: C_1  and  C_2 
ROOT
HETATM    1  C   UNL     1      63.414   9.533   4.960  1.00  0.00     0.133 A 
HETATM    2  N   UNL     1      63.433  10.630   5.745  1.00  0.00    -0.297 N 
ATOM      3  HN  UNL     1      63.970  10.778   6.599  1.00  0.00     0.187 HD
HETATM    4  N   UNL     1      62.586  11.484   5.150  1.00  0.00    -0.311 N 
HETATM    5  C   UNL     1      62.531   9.721   3.860  1.00  0.00     0.054 A 
HETATM    6  C   UNL     1      62.019  10.985   4.016  1.00  0.00     0.109 A 
HETATM    7  H   UNL     1      62.391  12.384   5.500  1.00  0.00     0.186 HD
ENDROOT
BRANCH   1   8
HETATM    8  C   UNL     1      64.231   8.297   5.242  1.00  0.00     0.433 C 
HETATM    9  F   UNL     1      64.372   7.475   4.170  1.00  0.00    -0.165 F 
HETATM   10  F   UNL     1      65.489   8.614   5.659  1.00  0.00    -0.165 F 
HETATM   11  F   UNL     1      63.678   7.550   6.237  1.00  0.00    -0.165 F 
ENDBRANCH   1   8
TORSDOF 1
ENDMDL
