MODEL 1
REMARK VINA RESULT:      -5.5      0.000      0.000
REMARK  3 active torsions:
REMARK  status: ('A' for Active; 'I' for Inactive)
REMARK    1  A    between atoms: C_1  and  C_2 
REMARK    2  A    between atoms: C_2  and  C_4 
REMARK    3  A    between atoms: C_2  and  O_6 
ROOT
HETATM    1  C   UNL     1      77.533  11.113  18.834  1.00  0.00    -0.019 A 
HETATM    2  C   UNL     1      76.496  11.957  18.407  1.00  0.00     0.010 A 
HETATM    3  C   UNL     1      77.998  11.244  20.154  1.00  0.00     0.010 A 
HETATM    4  C   UNL     1      77.423  12.177  21.027  1.00  0.00     0.001 A 
HETATM    5  C   UNL     1      75.924  12.887  19.282  1.00  0.00     0.001 A 
HETATM    6  C   UNL     1      76.382  12.992  20.594  1.00  0.00     0.000 A 
ENDROOT
BRANCH   1   7
HETATM    7  C   UNL     1      78.161  10.092  17.906  1.00  0.00     0.252 C 
BRANCH   7   8
HETATM    8  C   UNL     1      77.371   8.781  17.780  1.00  0.00     0.207 C 
HETATM    9  O   UNL     1      76.895   8.134  18.703  1.00  0.00    -0.646 OA
HETATM   10  O   UNL     1      77.235   8.389  16.485  1.00  0.00    -0.646 OA
ENDBRANCH   7   8
BRANCH   7  11
HETATM   11  O   UNL     1      79.487   9.740  18.331  1.00  0.00    -0.380 OA
HETATM   12  H   UNL     1      79.730  10.267  19.108  1.00  0.00     0.211 HD
ENDBRANCH   7  11
ENDBRANCH   1   7
TORSDOF 3
ENDMDL
MODEL 2
REMARK VINA RESULT:      -5.2      3.540      4.992
REMARK  3 active torsions:
REMARK  status: ('A' for Active; 'I' for Inactive)
REMARK    1  A    between atoms: C_1  and  C_2 
REMARK    2  A    between atoms: C_2  and  C_4 
REMARK    3  A    between atoms: C_2  and  O_6 
ROOT
HETATM    1  C   UNL     1      78.167  12.450  21.346  1.00  0.00    -0.019 A 
HETATM    2  C   UNL     1      78.397  11.383  20.464  1.00  0.00     0.010 A 
HETATM    3  C   UNL     1      77.250  13.445  20.964  1.00  0.00     0.010 A 
HETATM    4  C   UNL     1      76.566  13.359  19.745  1.00  0.00     0.001 A 
HETATM    5  C   UNL     1      77.711  11.300  19.247  1.00  0.00     0.001 A 
HETATM    6  C   UNL     1      76.791  12.284  18.891  1.00  0.00     0.000 A 
ENDROOT
BRANCH   1   7
HETATM    7  C   UNL     1      78.891  12.556  22.674  1.00  0.00     0.252 C 
BRANCH   7   8
HETATM    8  C   UNL     1      80.416  12.692  22.553  1.00  0.00     0.207 C 
HETATM    9  O   UNL     1      81.023  13.203  21.621  1.00  0.00    -0.646 OA
HETATM   10  O   UNL     1      81.063  12.175  23.632  1.00  0.00    -0.646 OA
ENDBRANCH   7   8
BRANCH   7  11
HETATM   11  O   UNL     1      78.640  11.410  23.503  1.00  0.00    -0.380 OA
HETATM   12  H   UNL     1      77.686  11.324  23.657  1.00  0.00     0.211 HD
ENDBRANCH   7  11
ENDBRANCH   1   7
TORSDOF 3
ENDMDL
MODEL 3
REMARK VINA RESULT:      -4.9     18.749     19.929
REMARK  3 active torsions:
REMARK  status: ('A' for Active; 'I' for Inactive)
REMARK    1  A    between atoms: C_1  and  C_2 
REMARK    2  A    between atoms: C_2  and  C_4 
REMARK    3  A    between atoms: C_2  and  O_6 
ROOT
HETATM    1  C   UNL     1      63.534   9.100   4.649  1.00  0.00    -0.019 A 
HETATM    2  C   UNL     1      63.157  10.337   5.194  1.00  0.00     0.010 A 
HETATM    3  C   UNL     1      63.000   8.729   3.402  1.00  0.00     0.010 A 
HETATM    4  C   UNL     1      62.132   9.585   2.712  1.00  0.00     0.001 A 
HETATM    5  C   UNL     1      62.291  11.189   4.500  1.00  0.00     0.001 A 
HETATM    6  C   UNL     1      61.784  10.817   3.257  1.00  0.00     0.000 A 
ENDROOT
BRANCH   1   7
HETATM    7  C   UNL     1      64.478   8.163   5.378  1.00  0.00     0.252 C 
BRANCH   7   8
HETATM    8  C   UNL     1      63.822   7.357   6.508  1.00  0.00     0.207 C 
HETATM    9  O   UNL     1      62.630   7.100   6.612  1.00  0.00    -0.646 OA
HETATM   10  O   UNL     1      64.731   6.927   7.424  1.00  0.00    -0.646 OA
ENDBRANCH   7   8
BRANCH   7  11
HETATM   11  O   UNL     1      65.580   8.877   5.961  1.00  0.00    -0.380 OA
HETATM   12  H   UNL     1      65.341   9.810   6.072  1.00  0.00     0.211 HD
ENDBRANCH   7  11
ENDBRANCH   1   7
TORSDOF 3
ENDMDL
MODEL 4
REMARK VINA RESULT:      -4.8     19.669     20.905
REMARK  3 active torsions:
REMARK  status: ('A' for Active; 'I' for Inactive)
REMARK    1  A    between atoms: C_1  and  C_2 
REMARK    2  A    between atoms: C_2  and  C_4 
REMARK    3  A    between atoms: C_2  and  O_6 
ROOT
HETATM    1  C   UNL     1      62.625   9.426   4.047  1.00  0.00    -0.019 A 
HETATM    2  C   UNL     1      62.271  10.770   4.244  1.00  0.00     0.010 A 
HETATM    3  C   UNL     1      62.521   8.892   2.752  1.00  0.00     0.010 A 
HETATM    4  C   UNL     1      62.096   9.688   1.680  1.00  0.00     0.001 A 
HETATM    5  C   UNL     1      61.849  11.563   3.170  1.00  0.00     0.001 A 
HETATM    6  C   UNL     1      61.769  11.024   1.888  1.00  0.00     0.000 A 
ENDROOT
BRANCH   1   7
HETATM    7  C   UNL     1      63.094   8.551   5.194  1.00  0.00     0.252 C 
BRANCH   7   8
HETATM    8  C   UNL     1      64.613   8.324   5.235  1.00  0.00     0.207 C 
HETATM    9  O   UNL     1      65.212   7.369   4.759  1.00  0.00    -0.646 OA
HETATM   10  O   UNL     1      65.263   9.332   5.874  1.00  0.00    -0.646 OA
ENDBRANCH   7   8
BRANCH   7  11
HETATM   11  O   UNL     1      62.479   7.254   5.151  1.00  0.00    -0.380 OA
HETATM   12  H   UNL     1      63.165   6.569   5.177  1.00  0.00     0.211 HD
ENDBRANCH   7  11
ENDBRANCH   1   7
TORSDOF 3
ENDMDL
MODEL 5
REMARK VINA RESULT:      -4.8     19.887     21.097
REMARK  3 active torsions:
REMARK  status: ('A' for Active; 'I' for Inactive)
REMARK    1  A    between atoms: C_1  and  C_2 
REMARK    2  A    between atoms: C_2  and  C_4 
REMARK    3  A    between atoms: C_2  and  O_6 
ROOT
HETATM    1  C   UNL     1      62.532   8.841   3.606  1.00  0.00    -0.019 A 
HETATM    2  C   UNL     1      62.387   8.775   2.211  1.00  0.00     0.010 A 
HETATM    3  C   UNL     1      62.325  10.077   4.240  1.00  0.00     0.010 A 
HETATM    4  C   UNL     1      61.959  11.209   3.501  1.00  0.00     0.001 A 
HETATM    5  C   UNL     1      62.020   9.907   1.476  1.00  0.00     0.001 A 
HETATM    6  C   UNL     1      61.799  11.122   2.121  1.00  0.00     0.000 A 
ENDROOT
BRANCH   1   7
HETATM    7  C   UNL     1      62.920   7.624   4.424  1.00  0.00     0.252 C 
BRANCH   7   8
HETATM    8  C   UNL     1      63.583   7.952   5.770  1.00  0.00     0.207 C 
HETATM    9  O   UNL     1      64.729   8.351   5.931  1.00  0.00    -0.646 OA
HETATM   10  O   UNL     1      62.739   7.755   6.817  1.00  0.00    -0.646 OA
ENDBRANCH   7   8
BRANCH   7  11
HETATM   11  O   UNL     1      63.831   6.776   3.706  1.00  0.00    -0.380 OA
HETATM   12  H   UNL     1      63.608   6.786   2.762  1.00  0.00     0.211 HD
ENDBRANCH   7  11
ENDBRANCH   1   7
TORSDOF 3
ENDMDL
MODEL 6
REMARK VINA RESULT:      -4.7     15.369     16.784
REMARK  3 active torsions:
REMARK  status: ('A' for Active; 'I' for Inactive)
REMARK    1  A    between atoms: C_1  and  C_2 
REMARK    2  A    between atoms: C_2  and  C_4 
REMARK    3  A    between atoms: C_2  and  O_6 
ROOT
HETATM    1  C   UNL     1      66.611   6.293   7.203  1.00  0.00    -0.019 A 
HETATM    2  C   UNL     1      66.875   6.720   8.514  1.00  0.00     0.010 A 
HETATM    3  C   UNL     1      67.394   5.255   6.670  1.00  0.00     0.010 A 
HETATM    4  C   UNL     1      68.396   4.647   7.437  1.00  0.00     0.001 A 
HETATM    5  C   UNL     1      67.875   6.109   9.278  1.00  0.00     0.001 A 
HETATM    6  C   UNL     1      68.631   5.068   8.742  1.00  0.00     0.000 A 
ENDROOT
BRANCH   1   7
HETATM    7  C   UNL     1      65.525   6.934   6.361  1.00  0.00     0.252 C 
BRANCH   7   8
HETATM    8  C   UNL     1      65.901   8.307   5.783  1.00  0.00     0.207 C 
HETATM    9  O   UNL     1      65.316   9.361   5.991  1.00  0.00    -0.646 OA
HETATM   10  O   UNL     1      67.000   8.242   4.985  1.00  0.00    -0.646 OA
ENDBRANCH   7   8
BRANCH   7  11
HETATM   11  O   UNL     1      64.315   7.116   7.112  1.00  0.00    -0.380 OA
HETATM   12  H   UNL     1      64.528   7.461   7.993  1.00  0.00     0.211 HD
ENDBRANCH   7  11
ENDBRANCH   1   7
TORSDOF 3
ENDMDL
MODEL 7
REMARK VINA RESULT:      -4.6     15.070     16.536
REMARK  3 active torsions:
REMARK  status: ('A' for Active; 'I' for Inactive)
REMARK    1  A    between atoms: C_1  and  C_2 
REMARK    2  A    between atoms: C_2  and  C_4 
REMARK    3  A    between atoms: C_2  and  O_6 
ROOT
HETATM    1  C   UNL     1      67.002   5.979   7.303  1.00  0.00    -0.019 A 
HETATM    2  C   UNL     1      67.636   4.869   6.724  1.00  0.00     0.010 A 
HETATM    3  C   UNL     1      67.369   6.351   8.608  1.00  0.00     0.010 A 
HETATM    4  C   UNL     1      68.360   5.645   9.302  1.00  0.00     0.001 A 
HETATM    5  C   UNL     1      68.627   4.167   7.420  1.00  0.00     0.001 A 
HETATM    6  C   UNL     1      68.994   4.560   8.706  1.00  0.00     0.000 A 
ENDROOT
BRANCH   1   7
HETATM    7  C   UNL     1      65.933   6.760   6.564  1.00  0.00     0.252 C 
BRANCH   7   8
HETATM    8  C   UNL     1      66.427   8.073   5.938  1.00  0.00     0.207 C 
HETATM    9  O   UNL     1      67.525   8.262   5.432  1.00  0.00    -0.646 OA
HETATM   10  O   UNL     1      65.485   9.052   5.994  1.00  0.00    -0.646 OA
ENDBRANCH   7   8
BRANCH   7  11
HETATM   11  O   UNL     1      64.835   7.096   7.427  1.00  0.00    -0.380 OA
HETATM   12  H   UNL     1      64.740   8.061   7.470  1.00  0.00     0.211 HD
ENDBRANCH   7  11
ENDBRANCH   1   7
TORSDOF 3
ENDMDL
MODEL 8
REMARK VINA RESULT:      -4.5     13.939     15.365
REMARK  3 active torsions:
REMARK  status: ('A' for Active; 'I' for Inactive)
REMARK    1  A    between atoms: C_1  and  C_2 
REMARK    2  A    between atoms: C_2  and  C_4 
REMARK    3  A    between atoms: C_2  and  O_6 
ROOT
HETATM    1  C   UNL     1      69.073   3.016   9.176  1.00  0.00    -0.019 A 
HETATM    2  C   UNL     1      69.097   4.312   9.715  1.00  0.00     0.010 A 
HETATM    3  C   UNL     1      68.699   2.860   7.830  1.00  0.00     0.010 A 
HETATM    4  C   UNL     1      68.383   3.973   7.041  1.00  0.00     0.001 A 
HETATM    5  C   UNL     1      68.782   5.421   8.923  1.00  0.00     0.001 A 
HETATM    6  C   UNL     1      68.432   5.253   7.585  1.00  0.00     0.000 A 
ENDROOT
BRANCH   1   7
HETATM    7  C   UNL     1      69.420   1.799  10.013  1.00  0.00     0.252 C 
BRANCH   7   8
HETATM    8  C   UNL     1      68.263   0.806  10.196  1.00  0.00     0.207 C 
HETATM    9  O   UNL     1      68.305  -0.398   9.981  1.00  0.00    -0.646 OA
HETATM   10  O   UNL     1      67.133   1.414  10.647  1.00  0.00    -0.646 OA
ENDBRANCH   7   8
BRANCH   7  11
HETATM   11  O   UNL     1      69.859   2.174  11.328  1.00  0.00    -0.380 OA
HETATM   12  H   UNL     1      69.766   3.132  11.441  1.00  0.00     0.211 HD
ENDBRANCH   7  11
ENDBRANCH   1   7
TORSDOF 3
ENDMDL
MODEL 9
REMARK VINA RESULT:      -4.4      7.326      8.829
REMARK  3 active torsions:
REMARK  status: ('A' for Active; 'I' for Inactive)
REMARK    1  A    between atoms: C_1  and  C_2 
REMARK    2  A    between atoms: C_2  and  C_4 
REMARK    3  A    between atoms: C_2  and  O_6 
ROOT
HETATM    1  C   UNL     1      75.677   2.672  17.533  1.00  0.00    -0.019 A 
HETATM    2  C   UNL     1      74.782   3.408  16.740  1.00  0.00     0.010 A 
HETATM    3  C   UNL     1      76.783   3.341  18.086  1.00  0.00     0.010 A 
HETATM    4  C   UNL     1      76.971   4.713  17.871  1.00  0.00     0.001 A 
HETATM    5  C   UNL     1      74.973   4.778  16.530  1.00  0.00     0.001 A 
HETATM    6  C   UNL     1      76.063   5.431  17.100  1.00  0.00     0.000 A 
ENDROOT
BRANCH   1   7
HETATM    7  C   UNL     1      75.485   1.189  17.783  1.00  0.00     0.252 C 
BRANCH   7   8
HETATM    8  C   UNL     1      75.133   0.376  16.528  1.00  0.00     0.207 C 
HETATM    9  O   UNL     1      75.878   0.146  15.585  1.00  0.00    -0.646 OA
HETATM   10  O   UNL     1      73.857  -0.093  16.565  1.00  0.00    -0.646 OA
ENDBRANCH   7   8
BRANCH   7  11
HETATM   11  O   UNL     1      74.443   0.948  18.742  1.00  0.00    -0.380 OA
HETATM   12  H   UNL     1      74.301   1.746  19.274  1.00  0.00     0.211 HD
ENDBRANCH   7  11
ENDBRANCH   1   7
TORSDOF 3
ENDMDL
