MODEL 1
REMARK VINA RESULT:      -6.1      0.000      0.000
REMARK  0 active torsions:
REMARK  status: ('A' for Active; 'I' for Inactive)
ROOT
HETATM    1  C   UNL     1      77.577   8.528  14.466  1.00  0.00     0.164 A 
HETATM    2  C   UNL     1      77.119   7.593  15.491  1.00  0.00     0.016 A 
HETATM    3  C   UNL     1      77.261   8.196  16.735  1.00  0.00    -0.043 A 
HETATM    4  C   UNL     1      78.125   9.777  15.145  1.00  0.00     0.061 A 
HETATM    5  C   UNL     1      77.838   9.571  16.649  1.00  0.00     0.051 A 
HETATM    6  O   UNL     1      77.533   8.307  13.269  1.00  0.00    -0.292 OA
HETATM    7  C   UNL     1      76.607   6.317  15.337  1.00  0.00     0.015 A 
HETATM    8  C   UNL     1      76.865   7.525  17.882  1.00  0.00     0.008 A 
HETATM    9  C   UNL     1      77.480  11.049  14.622  1.00  0.00     0.018 C 
HETATM   10  C   UNL     1      76.217   5.633  16.490  1.00  0.00     0.001 A 
HETATM   11  C   UNL     1      76.339   6.237  17.754  1.00  0.00     0.001 A 
ENDROOT
TORSDOF 0
ENDMDL
MODEL 2
REMARK VINA RESULT:      -6.0      1.493      2.235
REMARK  0 active torsions:
REMARK  status: ('A' for Active; 'I' for Inactive)
ROOT
HETATM    1  C   UNL     1      77.665   9.892  16.502  1.00  0.00     0.164 A 
HETATM    2  C   UNL     1      77.308   8.486  16.326  1.00  0.00     0.016 A 
HETATM    3  C   UNL     1      77.083   7.927  17.579  1.00  0.00    -0.043 A 
HETATM    4  C   UNL     1      77.749  10.199  17.991  1.00  0.00     0.061 A 
HETATM    5  C   UNL     1      77.286   8.902  18.692  1.00  0.00     0.051 A 
HETATM    6  O   UNL     1      77.875  10.664  15.584  1.00  0.00    -0.292 OA
HETATM    7  C   UNL     1      77.180   7.761  15.154  1.00  0.00     0.015 A 
HETATM    8  C   UNL     1      76.696   6.600  17.689  1.00  0.00     0.008 A 
HETATM    9  C   UNL     1      76.887  11.385  18.386  1.00  0.00     0.018 C 
HETATM   10  C   UNL     1      76.802   6.421  15.261  1.00  0.00     0.001 A 
HETATM   11  C   UNL     1      76.555   5.847  16.519  1.00  0.00     0.001 A 
ENDROOT
TORSDOF 0
ENDMDL
MODEL 3
REMARK VINA RESULT:      -5.2     18.282     19.052
REMARK  0 active torsions:
REMARK  status: ('A' for Active; 'I' for Inactive)
ROOT
HETATM    1  C   UNL     1      62.275  10.483   4.048  1.00  0.00     0.164 A 
HETATM    2  C   UNL     1      63.015   9.226   4.128  1.00  0.00     0.016 A 
HETATM    3  C   UNL     1      62.834   8.528   2.939  1.00  0.00    -0.043 A 
HETATM    4  C   UNL     1      61.506  10.521   2.734  1.00  0.00     0.061 A 
HETATM    5  C   UNL     1      61.948   9.249   1.977  1.00  0.00     0.051 A 
HETATM    6  O   UNL     1      62.277  11.334   4.919  1.00  0.00    -0.292 OA
HETATM    7  C   UNL     1      63.796   8.741   5.163  1.00  0.00     0.015 A 
HETATM    8  C   UNL     1      63.462   7.308   2.746  1.00  0.00     0.008 A 
HETATM    9  C   UNL     1      61.795  11.778   1.932  1.00  0.00     0.018 C 
HETATM   10  C   UNL     1      64.422   7.506   4.977  1.00  0.00     0.001 A 
HETATM   11  C   UNL     1      64.261   6.798   3.773  1.00  0.00     0.001 A 
ENDROOT
TORSDOF 0
ENDMDL
MODEL 4
REMARK VINA RESULT:      -5.1      3.957      5.577
REMARK  0 active torsions:
REMARK  status: ('A' for Active; 'I' for Inactive)
ROOT
HETATM    1  C   UNL     1      76.956  11.516  17.439  1.00  0.00     0.164 A 
HETATM    2  C   UNL     1      77.045  12.118  18.768  1.00  0.00     0.016 A 
HETATM    3  C   UNL     1      77.442  11.138  19.671  1.00  0.00    -0.043 A 
HETATM    4  C   UNL     1      77.240  10.024  17.551  1.00  0.00     0.061 A 
HETATM    5  C   UNL     1      77.634   9.804  19.028  1.00  0.00     0.051 A 
HETATM    6  O   UNL     1      76.677  12.133  16.427  1.00  0.00    -0.292 OA
HETATM    7  C   UNL     1      76.806  13.427  19.148  1.00  0.00     0.015 A 
HETATM    8  C   UNL     1      77.633  11.460  21.006  1.00  0.00     0.008 A 
HETATM    9  C   UNL     1      78.339   9.572  16.606  1.00  0.00     0.018 C 
HETATM   10  C   UNL     1      76.986  13.752  20.494  1.00  0.00     0.001 A 
HETATM   11  C   UNL     1      77.404  12.777  21.415  1.00  0.00     0.001 A 
ENDROOT
TORSDOF 0
ENDMDL
MODEL 5
REMARK VINA RESULT:      -5.1     18.469     19.507
REMARK  0 active torsions:
REMARK  status: ('A' for Active; 'I' for Inactive)
ROOT
HETATM    1  C   UNL     1      62.977   8.372   4.911  1.00  0.00     0.164 A 
HETATM    2  C   UNL     1      62.567   9.436   3.998  1.00  0.00     0.016 A 
HETATM    3  C   UNL     1      62.526   8.921   2.707  1.00  0.00    -0.043 A 
HETATM    4  C   UNL     1      63.297   7.122   4.102  1.00  0.00     0.061 A 
HETATM    5  C   UNL     1      62.920   7.481   2.648  1.00  0.00     0.051 A 
HETATM    6  O   UNL     1      63.060   8.502   6.119  1.00  0.00    -0.292 OA
HETATM    7  C   UNL     1      62.245  10.751   4.284  1.00  0.00     0.015 A 
HETATM    8  C   UNL     1      62.132   9.725   1.649  1.00  0.00     0.008 A 
HETATM    9  C   UNL     1      62.532   5.905   4.593  1.00  0.00     0.018 C 
HETATM   10  C   UNL     1      61.858  11.569   3.219  1.00  0.00     0.001 A 
HETATM   11  C   UNL     1      61.796  11.056   1.912  1.00  0.00     0.001 A 
ENDROOT
TORSDOF 0
ENDMDL
MODEL 6
REMARK VINA RESULT:      -5.0     19.088     19.922
REMARK  0 active torsions:
REMARK  status: ('A' for Active; 'I' for Inactive)
ROOT
HETATM    1  C   UNL     1      62.813   7.774   2.270  1.00  0.00     0.164 A 
HETATM    2  C   UNL     1      62.769   8.857   3.249  1.00  0.00     0.016 A 
HETATM    3  C   UNL     1      62.124   9.947   2.676  1.00  0.00    -0.043 A 
HETATM    4  C   UNL     1      62.220   8.269   0.958  1.00  0.00     0.061 A 
HETATM    5  C   UNL     1      61.699   9.690   1.267  1.00  0.00     0.051 A 
HETATM    6  O   UNL     1      63.274   6.669   2.493  1.00  0.00    -0.292 OA
HETATM    7  C   UNL     1      63.250   8.877   4.547  1.00  0.00     0.015 A 
HETATM    8  C   UNL     1      61.922  11.103   3.413  1.00  0.00     0.008 A 
HETATM    9  C   UNL     1      61.111   7.366   0.447  1.00  0.00     0.018 C 
HETATM   10  C   UNL     1      63.059  10.044   5.290  1.00  0.00     0.001 A 
HETATM   11  C   UNL     1      62.393  11.147   4.728  1.00  0.00     0.001 A 
ENDROOT
TORSDOF 0
ENDMDL
MODEL 7
REMARK VINA RESULT:      -4.9     16.840     17.803
REMARK  0 active torsions:
REMARK  status: ('A' for Active; 'I' for Inactive)
ROOT
HETATM    1  C   UNL     1      65.178   8.385   5.335  1.00  0.00     0.164 A 
HETATM    2  C   UNL     1      63.997   9.035   4.771  1.00  0.00     0.016 A 
HETATM    3  C   UNL     1      63.495   8.235   3.751  1.00  0.00    -0.043 A 
HETATM    4  C   UNL     1      65.475   7.122   4.538  1.00  0.00     0.061 A 
HETATM    5  C   UNL     1      64.304   6.998   3.537  1.00  0.00     0.051 A 
HETATM    6  O   UNL     1      65.813   8.820   6.279  1.00  0.00    -0.292 OA
HETATM    7  C   UNL     1      63.405  10.232   5.137  1.00  0.00     0.015 A 
HETATM    8  C   UNL     1      62.349   8.614   3.070  1.00  0.00     0.008 A 
HETATM    9  C   UNL     1      65.586   5.893   5.423  1.00  0.00     0.018 C 
HETATM   10  C   UNL     1      62.257  10.623   4.445  1.00  0.00     0.001 A 
HETATM   11  C   UNL     1      61.729   9.816   3.423  1.00  0.00     0.001 A 
ENDROOT
TORSDOF 0
ENDMDL
MODEL 8
REMARK VINA RESULT:      -4.7     18.160     19.007
REMARK  0 active torsions:
REMARK  status: ('A' for Active; 'I' for Inactive)
ROOT
HETATM    1  C   UNL     1      63.786   7.475   3.771  1.00  0.00     0.164 A 
HETATM    2  C   UNL     1      62.992   8.433   3.006  1.00  0.00     0.016 A 
HETATM    3  C   UNL     1      62.741   9.541   3.807  1.00  0.00    -0.043 A 
HETATM    4  C   UNL     1      63.966   8.002   5.189  1.00  0.00     0.061 A 
HETATM    5  C   UNL     1      63.330   9.410   5.174  1.00  0.00     0.051 A 
HETATM    6  O   UNL     1      64.205   6.422   3.324  1.00  0.00    -0.292 OA
HETATM    7  C   UNL     1      62.535   8.340   1.703  1.00  0.00     0.015 A 
HETATM    8  C   UNL     1      62.028  10.617   3.303  1.00  0.00     0.008 A 
HETATM    9  C   UNL     1      65.425   8.053   5.606  1.00  0.00     0.018 C 
HETATM   10  C   UNL     1      61.806   9.417   1.194  1.00  0.00     0.001 A 
HETATM   11  C   UNL     1      61.561  10.551   1.987  1.00  0.00     0.001 A 
ENDROOT
TORSDOF 0
ENDMDL
MODEL 9
REMARK VINA RESULT:      -4.7     15.499     16.499
REMARK  0 active torsions:
REMARK  status: ('A' for Active; 'I' for Inactive)
ROOT
HETATM    1  C   UNL     1      66.370   8.029   5.766  1.00  0.00     0.164 A 
HETATM    2  C   UNL     1      65.223   7.945   4.865  1.00  0.00     0.016 A 
HETATM    3  C   UNL     1      65.411   6.865   4.010  1.00  0.00    -0.043 A 
HETATM    4  C   UNL     1      67.386   6.963   5.376  1.00  0.00     0.061 A 
HETATM    5  C   UNL     1      66.700   6.151   4.256  1.00  0.00     0.051 A 
HETATM    6  O   UNL     1      66.476   8.846   6.663  1.00  0.00    -0.292 OA
HETATM    7  C   UNL     1      64.099   8.749   4.810  1.00  0.00     0.015 A 
HETATM    8  C   UNL     1      64.443   6.545   3.070  1.00  0.00     0.008 A 
HETATM    9  C   UNL     1      67.776   6.080   6.548  1.00  0.00     0.018 C 
HETATM   10  C   UNL     1      63.126   8.438   3.857  1.00  0.00     0.001 A 
HETATM   11  C   UNL     1      63.295   7.339   2.998  1.00  0.00     0.001 A 
ENDROOT
TORSDOF 0
ENDMDL
