MODEL 1
REMARK VINA RESULT:      -4.4      0.000      0.000
REMARK  2 active torsions:
REMARK  status: ('A' for Active; 'I' for Inactive)
REMARK    1  A    between atoms: C_1  and  C_6 
REMARK    2  A    between atoms: C_2  and  O_9 
ROOT
HETATM    1  C   UNL     1      62.741   9.643   4.463  1.00  0.00     0.082 A 
HETATM    2  C   UNL     1      63.867   8.737   4.385  1.00  0.00     0.114 A 
HETATM    3  C   UNL     1      61.671   9.180   3.716  1.00  0.00     0.072 A 
HETATM    4  C   UNL     1      63.577   7.656   3.574  1.00  0.00     0.108 A 
HETATM    5  S   UNL     1      61.996   7.701   2.942  1.00  0.00    -0.086 SA
HETATM    6 CL   UNL     1      64.521   6.298   3.086  1.00  0.00    -0.073 Cl
ENDROOT
BRANCH   1   7
HETATM    7  C   UNL     1      62.698  10.889   5.211  1.00  0.00     0.212 C 
HETATM    8  O   UNL     1      63.186  11.098   6.311  1.00  0.00    -0.644 OA
HETATM    9  O   UNL     1      62.048  11.894   4.577  1.00  0.00    -0.644 OA
ENDBRANCH   1   7
BRANCH   2  10
HETATM   10  O   UNL     1      65.016   9.047   5.048  1.00  0.00    -0.353 OA
HETATM   11  C   UNL     1      65.595   8.069   5.890  1.00  0.00     0.210 C 
ENDBRANCH   2  10
TORSDOF 2
ENDMDL
MODEL 2
REMARK VINA RESULT:      -4.4      1.974      3.264
REMARK  2 active torsions:
REMARK  status: ('A' for Active; 'I' for Inactive)
REMARK    1  A    between atoms: C_1  and  C_6 
REMARK    2  A    between atoms: C_2  and  O_9 
ROOT
HETATM    1  C   UNL     1      62.964   9.233   4.296  1.00  0.00     0.082 A 
HETATM    2  C   UNL     1      62.039   9.707   3.289  1.00  0.00     0.114 A 
HETATM    3  C   UNL     1      63.265   7.894   4.110  1.00  0.00     0.072 A 
HETATM    4  C   UNL     1      61.694   8.693   2.416  1.00  0.00     0.108 A 
HETATM    5  S   UNL     1      62.470   7.218   2.766  1.00  0.00    -0.086 SA
HETATM    6 CL   UNL     1      60.624   8.653   1.065  1.00  0.00    -0.073 Cl
ENDROOT
BRANCH   1   7
HETATM    7  C   UNL     1      63.523  10.021   5.382  1.00  0.00     0.212 C 
HETATM    8  O   UNL     1      62.965  10.919   5.995  1.00  0.00    -0.644 OA
HETATM    9  O   UNL     1      64.790   9.683   5.718  1.00  0.00    -0.644 OA
ENDBRANCH   1   7
BRANCH   2  10
HETATM   10  O   UNL     1      61.619  11.003   3.331  1.00  0.00    -0.353 OA
HETATM   11  C   UNL     1      61.794  11.809   2.182  1.00  0.00     0.210 C 
ENDBRANCH   2  10
TORSDOF 2
ENDMDL
MODEL 3
REMARK VINA RESULT:      -4.3      1.818      2.103
REMARK  2 active torsions:
REMARK  status: ('A' for Active; 'I' for Inactive)
REMARK    1  A    between atoms: C_1  and  C_6 
REMARK    2  A    between atoms: C_2  and  O_9 
ROOT
HETATM    1  C   UNL     1      62.098   9.700   2.469  1.00  0.00     0.082 A 
HETATM    2  C   UNL     1      62.900   8.671   3.096  1.00  0.00     0.114 A 
HETATM    3  C   UNL     1      61.544   9.251   1.282  1.00  0.00     0.072 A 
HETATM    4  C   UNL     1      62.907   7.516   2.336  1.00  0.00     0.108 A 
HETATM    5  S   UNL     1      61.962   7.642   0.924  1.00  0.00    -0.086 SA
HETATM    6 CL   UNL     1      63.700   6.001   2.553  1.00  0.00    -0.073 Cl
ENDROOT
BRANCH   1   7
HETATM    7  C   UNL     1      61.884  11.044   2.979  1.00  0.00     0.212 C 
HETATM    8  O   UNL     1      61.657  11.359   4.138  1.00  0.00    -0.644 OA
HETATM    9  O   UNL     1      61.961  12.014   2.037  1.00  0.00    -0.644 OA
ENDBRANCH   1   7
BRANCH   2  10
HETATM   10  O   UNL     1      63.537   8.948   4.268  1.00  0.00    -0.353 OA
HETATM   11  C   UNL     1      63.090   8.310   5.449  1.00  0.00     0.210 C 
ENDBRANCH   2  10
TORSDOF 2
ENDMDL
MODEL 4
REMARK VINA RESULT:      -4.1      1.661      2.800
REMARK  2 active torsions:
REMARK  status: ('A' for Active; 'I' for Inactive)
REMARK    1  A    between atoms: C_1  and  C_6 
REMARK    2  A    between atoms: C_2  and  O_9 
ROOT
HETATM    1  C   UNL     1      63.256   9.588   4.604  1.00  0.00     0.082 A 
HETATM    2  C   UNL     1      62.758   8.846   3.466  1.00  0.00     0.114 A 
HETATM    3  C   UNL     1      64.313   8.930   5.210  1.00  0.00     0.072 A 
HETATM    4  C   UNL     1      63.463   7.669   3.294  1.00  0.00     0.108 A 
HETATM    5  S   UNL     1      64.706   7.464   4.440  1.00  0.00    -0.086 SA
HETATM    6 CL   UNL     1      63.303   6.388   2.153  1.00  0.00    -0.073 Cl
ENDROOT
BRANCH   1   7
HETATM    7  C   UNL     1      62.740  10.858   5.087  1.00  0.00     0.212 C 
HETATM    8  O   UNL     1      62.012  11.630   4.480  1.00  0.00    -0.644 OA
HETATM    9  O   UNL     1      63.126  11.171   6.347  1.00  0.00    -0.644 OA
ENDBRANCH   1   7
BRANCH   2  10
HETATM   10  O   UNL     1      61.702   9.341   2.760  1.00  0.00    -0.353 OA
HETATM   11  C   UNL     1      61.917   9.759   1.427  1.00  0.00     0.210 C 
ENDBRANCH   2  10
TORSDOF 2
ENDMDL
MODEL 5
REMARK VINA RESULT:      -4.1      2.463      3.204
REMARK  2 active torsions:
REMARK  status: ('A' for Active; 'I' for Inactive)
REMARK    1  A    between atoms: C_1  and  C_6 
REMARK    2  A    between atoms: C_2  and  O_9 
ROOT
HETATM    1  C   UNL     1      63.464   8.978   4.664  1.00  0.00     0.082 A 
HETATM    2  C   UNL     1      63.215   8.406   3.358  1.00  0.00     0.114 A 
HETATM    3  C   UNL     1      62.791  10.177   4.824  1.00  0.00     0.072 A 
HETATM    4  C   UNL     1      62.379   9.217   2.614  1.00  0.00     0.108 A 
HETATM    5  S   UNL     1      61.879  10.611   3.455  1.00  0.00    -0.086 SA
HETATM    6 CL   UNL     1      61.772   9.077   1.006  1.00  0.00    -0.073 Cl
ENDROOT
BRANCH   1   7
HETATM    7  C   UNL     1      64.309   8.406   5.699  1.00  0.00     0.212 C 
HETATM    8  O   UNL     1      64.039   7.460   6.424  1.00  0.00    -0.644 OA
HETATM    9  O   UNL     1      65.514   9.012   5.829  1.00  0.00    -0.644 OA
ENDBRANCH   1   7
BRANCH   2  10
HETATM   10  O   UNL     1      63.815   7.230   3.022  1.00  0.00    -0.353 OA
HETATM   11  C   UNL     1      63.005   6.086   2.833  1.00  0.00     0.210 C 
ENDBRANCH   2  10
TORSDOF 2
ENDMDL
MODEL 6
REMARK VINA RESULT:      -4.0      2.450      3.363
REMARK  2 active torsions:
REMARK  status: ('A' for Active; 'I' for Inactive)
REMARK    1  A    between atoms: C_1  and  C_6 
REMARK    2  A    between atoms: C_2  and  O_9 
ROOT
HETATM    1  C   UNL     1      62.539   8.024   4.725  1.00  0.00     0.082 A 
HETATM    2  C   UNL     1      62.758   9.392   4.307  1.00  0.00     0.114 A 
HETATM    3  C   UNL     1      61.694   7.361   3.852  1.00  0.00     0.072 A 
HETATM    4  C   UNL     1      62.055   9.676   3.151  1.00  0.00     0.108 A 
HETATM    5  S   UNL     1      61.176   8.341   2.561  1.00  0.00    -0.086 SA
HETATM    6 CL   UNL     1      61.901  11.120   2.222  1.00  0.00    -0.073 Cl
ENDROOT
BRANCH   1   7
HETATM    7  C   UNL     1      63.106   7.392   5.905  1.00  0.00     0.212 C 
HETATM    8  O   UNL     1      64.011   6.572   5.931  1.00  0.00    -0.644 OA
HETATM    9  O   UNL     1      62.545   7.790   7.071  1.00  0.00    -0.644 OA
ENDBRANCH   1   7
BRANCH   2  10
HETATM   10  O   UNL     1      63.553  10.200   5.063  1.00  0.00    -0.353 OA
HETATM   11  C   UNL     1      62.948  11.233   5.815  1.00  0.00     0.210 C 
ENDBRANCH   2  10
TORSDOF 2
ENDMDL
MODEL 7
REMARK VINA RESULT:      -4.0      1.921      3.519
REMARK  2 active torsions:
REMARK  status: ('A' for Active; 'I' for Inactive)
REMARK    1  A    between atoms: C_1  and  C_6 
REMARK    2  A    between atoms: C_2  and  O_9 
ROOT
HETATM    1  C   UNL     1      64.555   7.879   5.110  1.00  0.00     0.082 A 
HETATM    2  C   UNL     1      63.353   8.657   4.902  1.00  0.00     0.114 A 
HETATM    3  C   UNL     1      64.760   6.983   4.074  1.00  0.00     0.072 A 
HETATM    4  C   UNL     1      62.723   8.290   3.727  1.00  0.00     0.108 A 
HETATM    5  S   UNL     1      63.553   7.069   2.878  1.00  0.00    -0.086 SA
HETATM    6 CL   UNL     1      61.263   8.831   2.987  1.00  0.00    -0.073 Cl
ENDROOT
BRANCH   1   7
HETATM    7  C   UNL     1      65.454   7.985   6.248  1.00  0.00     0.212 C 
HETATM    8  O   UNL     1      66.357   8.795   6.393  1.00  0.00    -0.644 OA
HETATM    9  O   UNL     1      65.221   7.077   7.225  1.00  0.00    -0.644 OA
ENDBRANCH   1   7
BRANCH   2  10
HETATM   10  O   UNL     1      62.987   9.578   5.837  1.00  0.00    -0.353 OA
HETATM   11  C   UNL     1      62.933  10.940   5.460  1.00  0.00     0.210 C 
ENDBRANCH   2  10
TORSDOF 2
ENDMDL
MODEL 8
REMARK VINA RESULT:      -4.0      5.050      6.057
REMARK  2 active torsions:
REMARK  status: ('A' for Active; 'I' for Inactive)
REMARK    1  A    between atoms: C_1  and  C_6 
REMARK    2  A    between atoms: C_2  and  O_9 
ROOT
HETATM    1  C   UNL     1      66.853   6.709   7.359  1.00  0.00     0.082 A 
HETATM    2  C   UNL     1      67.553   5.649   6.665  1.00  0.00     0.114 A 
HETATM    3  C   UNL     1      67.097   6.664   8.721  1.00  0.00     0.072 A 
HETATM    4  C   UNL     1      68.272   4.867   7.550  1.00  0.00     0.108 A 
HETATM    5  S   UNL     1      68.139   5.395   9.165  1.00  0.00    -0.086 SA
HETATM    6 CL   UNL     1      69.251   3.468   7.317  1.00  0.00    -0.073 Cl
ENDROOT
BRANCH   1   7
HETATM    7  C   UNL     1      65.990   7.705   6.746  1.00  0.00     0.212 C 
HETATM    8  O   UNL     1      66.330   8.789   6.296  1.00  0.00    -0.644 OA
HETATM    9  O   UNL     1      64.686   7.346   6.683  1.00  0.00    -0.644 OA
ENDBRANCH   1   7
BRANCH   2  10
HETATM   10  O   UNL     1      67.411   5.532   5.315  1.00  0.00    -0.353 OA
HETATM   11  C   UNL     1      66.736   4.400   4.802  1.00  0.00     0.210 C 
ENDBRANCH   2  10
TORSDOF 2
ENDMDL
MODEL 9
REMARK VINA RESULT:      -3.9      8.667     10.034
REMARK  2 active torsions:
REMARK  status: ('A' for Active; 'I' for Inactive)
REMARK    1  A    between atoms: C_1  and  C_6 
REMARK    2  A    between atoms: C_2  and  O_9 
ROOT
HETATM    1  C   UNL     1      69.012   2.888   9.491  1.00  0.00     0.082 A 
HETATM    2  C   UNL     1      68.461   2.780   8.157  1.00  0.00     0.114 A 
HETATM    3  C   UNL     1      69.271   4.207   9.823  1.00  0.00     0.072 A 
HETATM    4  C   UNL     1      68.350   4.024   7.565  1.00  0.00     0.108 A 
HETATM    5  S   UNL     1      68.863   5.293   8.579  1.00  0.00    -0.086 SA
HETATM    6 CL   UNL     1      67.805   4.512   6.003  1.00  0.00    -0.073 Cl
ENDROOT
BRANCH   1   7
HETATM    7  C   UNL     1      69.282   1.781  10.394  1.00  0.00     0.212 C 
HETATM    8  O   UNL     1      70.370   1.274  10.624  1.00  0.00    -0.644 OA
HETATM    9  O   UNL     1      68.186   1.302  11.028  1.00  0.00    -0.644 OA
ENDBRANCH   1   7
BRANCH   2  10
HETATM   10  O   UNL     1      68.162   1.548   7.658  1.00  0.00    -0.353 OA
HETATM   11  C   UNL     1      69.054   0.959   6.732  1.00  0.00     0.210 C 
ENDBRANCH   2  10
TORSDOF 2
ENDMDL
