MODEL 1
REMARK VINA RESULT:      -4.5      0.000      0.000
REMARK  0 active torsions:
REMARK  status: ('A' for Active; 'I' for Inactive)
ROOT
HETATM    1  N   UNL     1      78.873  11.231  20.445  1.00  0.00    -0.304 N 
ATOM      2  HN  UNL     1      78.520  10.620  19.708  1.00  0.00     0.186 HD
HETATM    3  C   UNL     1      79.053  12.847  22.047  1.00  0.00     0.075 A 
HETATM    4  C   UNL     1      80.253  12.186  21.978  1.00  0.00     0.115 A 
HETATM    5  N   UNL     1      80.096  11.232  21.010  1.00  0.00    -0.286 N 
HETATM    6  C   UNL     1      78.230  12.221  21.078  1.00  0.00     0.025 A 
HETATM    7  N   UNL     1      81.400  12.348  22.659  1.00  0.00    -0.384 N 
HETATM    8  C   UNL     1      76.828  12.558  20.737  1.00  0.00     0.070 C 
HETATM    9  H   UNL     1      80.810  10.608  20.749  1.00  0.00     0.188 HD
HETATM   10  H   UNL     1      81.469  13.048  23.348  1.00  0.00     0.157 HD
HETATM   11  H   UNL     1      82.171  11.767  22.467  1.00  0.00     0.157 HD
ENDROOT
TORSDOF 0
ENDMDL
MODEL 2
REMARK VINA RESULT:      -4.4      1.826      3.108
REMARK  0 active torsions:
REMARK  status: ('A' for Active; 'I' for Inactive)
ROOT
HETATM    1  N   UNL     1      80.096  11.206  20.825  1.00  0.00    -0.304 N 
ATOM      2  HN  UNL     1      80.847  11.412  21.484  1.00  0.00     0.186 HD
HETATM    3  C   UNL     1      78.111  11.215  19.699  1.00  0.00     0.075 A 
HETATM    4  C   UNL     1      78.922  10.278  19.114  1.00  0.00     0.115 A 
HETATM    5  N   UNL     1      80.094  10.309  19.820  1.00  0.00    -0.286 N 
HETATM    6  C   UNL     1      78.880  11.763  20.755  1.00  0.00     0.025 A 
HETATM    7  N   UNL     1      78.724   9.451  18.074  1.00  0.00    -0.384 N 
HETATM    8  C   UNL     1      78.470  12.817  21.713  1.00  0.00     0.070 C 
HETATM    9  H   UNL     1      80.862   9.730  19.613  1.00  0.00     0.188 HD
HETATM   10  H   UNL     1      77.864   9.461  17.594  1.00  0.00     0.157 HD
HETATM   11  H   UNL     1      79.437   8.834  17.793  1.00  0.00     0.157 HD
ENDROOT
TORSDOF 0
ENDMDL
MODEL 3
REMARK VINA RESULT:      -4.1     14.256     14.918
REMARK  0 active torsions:
REMARK  status: ('A' for Active; 'I' for Inactive)
ROOT
HETATM    1  N   UNL     1      73.041  23.030  12.458  1.00  0.00    -0.304 N 
ATOM      2  HN  UNL     1      73.250  23.019  11.460  1.00  0.00     0.186 HD
HETATM    3  C   UNL     1      71.994  22.825  14.475  1.00  0.00     0.075 A 
HETATM    4  C   UNL     1      73.259  23.299  14.705  1.00  0.00     0.115 A 
HETATM    5  N   UNL     1      73.845  23.404  13.472  1.00  0.00    -0.286 N 
HETATM    6  C   UNL     1      71.904  22.675  13.069  1.00  0.00     0.025 A 
HETATM    7  N   UNL     1      73.898  23.624  15.841  1.00  0.00    -0.384 N 
HETATM    8  C   UNL     1      70.737  22.198  12.289  1.00  0.00     0.070 C 
HETATM    9  H   UNL     1      74.765  23.725  13.340  1.00  0.00     0.188 HD
HETATM   10  H   UNL     1      73.438  23.533  16.708  1.00  0.00     0.157 HD
HETATM   11  H   UNL     1      74.824  23.955  15.808  1.00  0.00     0.157 HD
ENDROOT
TORSDOF 0
ENDMDL
MODEL 4
REMARK VINA RESULT:      -4.1     15.767     15.950
REMARK  0 active torsions:
REMARK  status: ('A' for Active; 'I' for Inactive)
ROOT
HETATM    1  N   UNL     1      72.609  23.121  12.354  1.00  0.00    -0.304 N 
ATOM      2  HN  UNL     1      73.322  23.813  12.589  1.00  0.00     0.186 HD
HETATM    3  C   UNL     1      70.744  21.807  12.382  1.00  0.00     0.075 A 
HETATM    4  C   UNL     1      71.474  21.479  11.269  1.00  0.00     0.115 A 
HETATM    5  N   UNL     1      72.576  22.289  11.296  1.00  0.00    -0.286 N 
HETATM    6  C   UNL     1      71.487  22.828  13.024  1.00  0.00     0.025 A 
HETATM    7  N   UNL     1      71.258  20.579  10.294  1.00  0.00    -0.384 N 
HETATM    8  C   UNL     1      71.145  23.534  14.281  1.00  0.00     0.070 C 
HETATM    9  H   UNL     1      73.279  22.264  10.608  1.00  0.00     0.188 HD
HETATM   10  H   UNL     1      70.450  20.016  10.314  1.00  0.00     0.157 HD
HETATM   11  H   UNL     1      71.907  20.483   9.561  1.00  0.00     0.157 HD
ENDROOT
TORSDOF 0
ENDMDL
MODEL 5
REMARK VINA RESULT:      -4.0      8.953      9.718
REMARK  0 active torsions:
REMARK  status: ('A' for Active; 'I' for Inactive)
ROOT
HETATM    1  N   UNL     1      76.261   2.908  18.488  1.00  0.00    -0.304 N 
ATOM      2  HN  UNL     1      76.328   2.092  19.098  1.00  0.00     0.186 HD
HETATM    3  C   UNL     1      75.680   4.342  16.811  1.00  0.00     0.075 A 
HETATM    4  C   UNL     1      76.598   4.976  17.608  1.00  0.00     0.115 A 
HETATM    5  N   UNL     1      76.914   4.081  18.594  1.00  0.00    -0.286 N 
HETATM    6  C   UNL     1      75.504   3.063  17.395  1.00  0.00     0.025 A 
HETATM    7  N   UNL     1      77.144   6.202  17.539  1.00  0.00    -0.384 N 
HETATM    8  C   UNL     1      74.619   1.973  16.920  1.00  0.00     0.070 C 
HETATM    9  H   UNL     1      77.559   4.276  19.311  1.00  0.00     0.188 HD
HETATM   10  H   UNL     1      76.888   6.814  16.811  1.00  0.00     0.157 HD
HETATM   11  H   UNL     1      77.800   6.487  18.214  1.00  0.00     0.157 HD
ENDROOT
TORSDOF 0
ENDMDL
MODEL 6
REMARK VINA RESULT:      -3.9     10.694     11.268
REMARK  0 active torsions:
REMARK  status: ('A' for Active; 'I' for Inactive)
ROOT
HETATM    1  N   UNL     1      75.228   2.586  18.091  1.00  0.00    -0.304 N 
ATOM      2  HN  UNL     1      74.332   3.072  18.148  1.00  0.00     0.186 HD
HETATM    3  C   UNL     1      76.921   1.186  17.473  1.00  0.00     0.075 A 
HETATM    4  C   UNL     1      77.369   1.954  18.517  1.00  0.00     0.115 A 
HETATM    5  N   UNL     1      76.325   2.773  18.850  1.00  0.00    -0.286 N 
HETATM    6  C   UNL     1      75.589   1.612  17.246  1.00  0.00     0.025 A 
HETATM    7  N   UNL     1      78.550   1.988  19.156  1.00  0.00    -0.384 N 
HETATM    8  C   UNL     1      74.643   1.098  16.228  1.00  0.00     0.070 C 
HETATM    9  H   UNL     1      76.370   3.434  19.577  1.00  0.00     0.188 HD
HETATM   10  H   UNL     1      79.276   1.380  18.883  1.00  0.00     0.157 HD
HETATM   11  H   UNL     1      78.690   2.620  19.898  1.00  0.00     0.157 HD
ENDROOT
TORSDOF 0
ENDMDL
MODEL 7
REMARK VINA RESULT:      -3.9     22.456     24.013
REMARK  0 active torsions:
REMARK  status: ('A' for Active; 'I' for Inactive)
ROOT
HETATM    1  N   UNL     1      61.686  10.985   3.468  1.00  0.00    -0.304 N 
ATOM      2  HN  UNL     1      61.097  11.327   2.708  1.00  0.00     0.186 HD
HETATM    3  C   UNL     1      62.910   9.648   4.854  1.00  0.00     0.075 A 
HETATM    4  C   UNL     1      62.972  10.928   5.341  1.00  0.00     0.115 A 
HETATM    5  N   UNL     1      62.227  11.689   4.481  1.00  0.00    -0.286 N 
HETATM    6  C   UNL     1      62.101   9.732   3.694  1.00  0.00     0.025 A 
HETATM    7  N   UNL     1      63.594  11.445   6.414  1.00  0.00    -0.384 N 
HETATM    8  C   UNL     1      61.709   8.626   2.790  1.00  0.00     0.070 C 
HETATM    9  H   UNL     1      62.098  12.658   4.593  1.00  0.00     0.188 HD
HETATM   10  H   UNL     1      64.120  10.861   7.007  1.00  0.00     0.157 HD
HETATM   11  H   UNL     1      63.522  12.408   6.607  1.00  0.00     0.157 HD
ENDROOT
TORSDOF 0
ENDMDL
MODEL 8
REMARK VINA RESULT:      -3.8     22.833     23.777
REMARK  0 active torsions:
REMARK  status: ('A' for Active; 'I' for Inactive)
ROOT
HETATM    1  N   UNL     1      62.533  11.508   4.915  1.00  0.00    -0.304 N 
ATOM      2  HN  UNL     1      62.419  12.512   5.060  1.00  0.00     0.186 HD
HETATM    3  C   UNL     1      62.555   9.421   3.993  1.00  0.00     0.075 A 
HETATM    4  C   UNL     1      63.016   9.318   5.281  1.00  0.00     0.115 A 
HETATM    5  N   UNL     1      62.984  10.588   5.788  1.00  0.00    -0.286 N 
HETATM    6  C   UNL     1      62.267  10.796   3.813  1.00  0.00     0.025 A 
HETATM    7  N   UNL     1      63.435   8.261   5.996  1.00  0.00    -0.384 N 
HETATM    8  C   UNL     1      61.732  11.450   2.595  1.00  0.00     0.070 C 
HETATM    9  H   UNL     1      63.264  10.808   6.706  1.00  0.00     0.188 HD
HETATM   10  H   UNL     1      63.442   7.363   5.590  1.00  0.00     0.157 HD
HETATM   11  H   UNL     1      63.735   8.383   6.925  1.00  0.00     0.157 HD
ENDROOT
TORSDOF 0
ENDMDL
MODEL 9
REMARK VINA RESULT:      -3.8      9.403     10.267
REMARK  0 active torsions:
REMARK  status: ('A' for Active; 'I' for Inactive)
ROOT
HETATM    1  N   UNL     1      75.087   4.379  16.959  1.00  0.00    -0.304 N 
ATOM      2  HN  UNL     1      74.505   5.078  16.494  1.00  0.00     0.186 HD
HETATM    3  C   UNL     1      76.817   3.318  18.001  1.00  0.00     0.075 A 
HETATM    4  C   UNL     1      75.781   2.428  17.894  1.00  0.00     0.115 A 
HETATM    5  N   UNL     1      74.772   3.107  17.266  1.00  0.00    -0.286 N 
HETATM    6  C   UNL     1      76.341   4.514  17.407  1.00  0.00     0.025 A 
HETATM    7  N   UNL     1      75.662   1.146  18.280  1.00  0.00    -0.384 N 
HETATM    8  C   UNL     1      77.072   5.794  17.254  1.00  0.00     0.070 C 
HETATM    9  H   UNL     1      73.900   2.702  17.057  1.00  0.00     0.188 HD
HETATM   10  H   UNL     1      76.414   0.696  18.730  1.00  0.00     0.157 HD
HETATM   11  H   UNL     1      74.824   0.658  18.114  1.00  0.00     0.157 HD
ENDROOT
TORSDOF 0
ENDMDL
