MODEL 1
REMARK VINA RESULT:      -4.6      0.000      0.000
REMARK  2 active torsions:
REMARK  status: ('A' for Active; 'I' for Inactive)
REMARK    1  A    between atoms: C_3  and  C_7 
REMARK    2  A    between atoms: C_5  and  N_11 
ROOT
HETATM    1  N   UNL     1      64.633   7.574   6.636  1.00  0.00    -0.296 N 
ATOM      2  HN  UNL     1      63.762   7.517   7.166  1.00  0.00     0.187 HD
HETATM    3  C   UNL     1      64.844   8.177   5.458  1.00  0.00     0.069 A 
HETATM    4  C   UNL     1      66.201   8.086   5.065  1.00  0.00     0.081 A 
HETATM    5  C   UNL     1      66.828   7.389   6.069  1.00  0.00     0.117 A 
HETATM    6  N   UNL     1      65.837   7.062   6.960  1.00  0.00    -0.281 N 
HETATM    7  C   UNL     1      65.960   6.219   8.124  1.00  0.00     0.179 C 
ENDROOT
BRANCH   3   8
HETATM    8  C   UNL     1      63.737   8.841   4.693  1.00  0.00     0.033 A 
HETATM    9  S   UNL     1      62.964  10.288   5.171  1.00  0.00    -0.100 SA
HETATM   10  C   UNL     1      61.967  10.293   3.781  1.00  0.00     0.050 A 
HETATM   11  C   UNL     1      62.199   9.198   2.978  1.00  0.00     0.008 A 
HETATM   12  C   UNL     1      63.225   8.359   3.504  1.00  0.00     0.021 A 
ENDBRANCH   3   8
BRANCH   5  13
HETATM   13  N   UNL     1      68.125   7.041   6.212  1.00  0.00    -0.384 N 
HETATM   14  H   UNL     1      68.722   7.587   6.773  1.00  0.00     0.157 HD
HETATM   15  H   UNL     1      68.473   6.242   5.754  1.00  0.00     0.157 HD
ENDBRANCH   5  13
TORSDOF 2
ENDMDL
MODEL 2
REMARK VINA RESULT:      -4.6      4.556      6.262
REMARK  2 active torsions:
REMARK  status: ('A' for Active; 'I' for Inactive)
REMARK    1  A    between atoms: C_3  and  C_7 
REMARK    2  A    between atoms: C_5  and  N_11 
ROOT
HETATM    1  N   UNL     1      67.195   3.108   8.987  1.00  0.00    -0.296 N 
ATOM      2  HN  UNL     1      66.258   2.938   8.623  1.00  0.00     0.187 HD
HETATM    3  C   UNL     1      67.962   4.194   8.817  1.00  0.00     0.069 A 
HETATM    4  C   UNL     1      69.185   4.081   9.521  1.00  0.00     0.081 A 
HETATM    5  C   UNL     1      69.139   2.858  10.143  1.00  0.00     0.117 A 
HETATM    6  N   UNL     1      67.950   2.293   9.751  1.00  0.00    -0.281 N 
HETATM    7  C   UNL     1      67.490   0.955  10.031  1.00  0.00     0.179 C 
ENDROOT
BRANCH   3   8
HETATM    8  C   UNL     1      67.528   5.351   7.966  1.00  0.00     0.033 A 
HETATM    9  S   UNL     1      66.587   6.663   8.526  1.00  0.00    -0.100 SA
HETATM   10  C   UNL     1      66.635   7.434   6.999  1.00  0.00     0.050 A 
HETATM   11  C   UNL     1      67.333   6.695   6.070  1.00  0.00     0.008 A 
HETATM   12  C   UNL     1      67.852   5.490   6.631  1.00  0.00     0.021 A 
ENDBRANCH   3   8
BRANCH   5  13
HETATM   13  N   UNL     1      70.033   2.258  10.958  1.00  0.00    -0.384 N 
HETATM   14  H   UNL     1      69.846   1.361  11.319  1.00  0.00     0.157 HD
HETATM   15  H   UNL     1      70.872   2.718  11.192  1.00  0.00     0.157 HD
ENDBRANCH   5  13
TORSDOF 2
ENDMDL
MODEL 3
REMARK VINA RESULT:      -4.3      4.150      7.010
REMARK  2 active torsions:
REMARK  status: ('A' for Active; 'I' for Inactive)
REMARK    1  A    between atoms: C_3  and  C_7 
REMARK    2  A    between atoms: C_5  and  N_11 
ROOT
HETATM    1  N   UNL     1      67.987   6.285   7.021  1.00  0.00    -0.296 N 
ATOM      2  HN  UNL     1      68.989   6.345   6.841  1.00  0.00     0.187 HD
HETATM    3  C   UNL     1      67.345   5.449   7.849  1.00  0.00     0.069 A 
HETATM    4  C   UNL     1      65.954   5.704   7.868  1.00  0.00     0.081 A 
HETATM    5  C   UNL     1      65.760   6.753   7.003  1.00  0.00     0.117 A 
HETATM    6  N   UNL     1      67.001   7.031   6.483  1.00  0.00    -0.281 N 
HETATM    7  C   UNL     1      67.312   7.967   5.431  1.00  0.00     0.179 C 
ENDROOT
BRANCH   3   8
HETATM    8  C   UNL     1      68.067   4.385   8.624  1.00  0.00     0.033 A 
HETATM    9  S   UNL     1      67.711   2.716   8.537  1.00  0.00    -0.100 SA
HETATM   10  C   UNL     1      68.968   2.324   9.628  1.00  0.00     0.050 A 
HETATM   11  C   UNL     1      69.632   3.445  10.074  1.00  0.00     0.008 A 
HETATM   12  C   UNL     1      69.112   4.639   9.490  1.00  0.00     0.021 A 
ENDBRANCH   3   8
BRANCH   5  13
HETATM   13  N   UNL     1      64.630   7.409   6.664  1.00  0.00    -0.384 N 
HETATM   14  H   UNL     1      64.136   7.923   7.343  1.00  0.00     0.157 HD
HETATM   15  H   UNL     1      64.300   7.373   5.737  1.00  0.00     0.157 HD
ENDBRANCH   5  13
TORSDOF 2
ENDMDL
MODEL 4
REMARK VINA RESULT:      -4.3      3.911      5.450
REMARK  2 active torsions:
REMARK  status: ('A' for Active; 'I' for Inactive)
REMARK    1  A    between atoms: C_3  and  C_7 
REMARK    2  A    between atoms: C_5  and  N_11 
ROOT
HETATM    1  N   UNL     1      68.064   3.749   7.389  1.00  0.00    -0.296 N 
ATOM      2  HN  UNL     1      67.629   3.343   6.559  1.00  0.00     0.187 HD
HETATM    3  C   UNL     1      68.099   5.037   7.756  1.00  0.00     0.069 A 
HETATM    4  C   UNL     1      68.753   5.204   9.000  1.00  0.00     0.081 A 
HETATM    5  C   UNL     1      69.126   3.941   9.392  1.00  0.00     0.117 A 
HETATM    6  N   UNL     1      68.736   3.112   8.369  1.00  0.00    -0.281 N 
HETATM    7  C   UNL     1      69.015   1.703   8.239  1.00  0.00     0.179 C 
ENDROOT
BRANCH   3   8
HETATM    8  C   UNL     1      67.509   6.124   6.907  1.00  0.00     0.033 A 
HETATM    9  S   UNL     1      67.514   6.125   5.198  1.00  0.00    -0.100 SA
HETATM   10  C   UNL     1      66.656   7.603   5.131  1.00  0.00     0.050 A 
HETATM   11  C   UNL     1      66.393   8.104   6.386  1.00  0.00     0.008 A 
HETATM   12  C   UNL     1      66.884   7.246   7.415  1.00  0.00     0.021 A 
ENDBRANCH   3   8
BRANCH   5  13
HETATM   13  N   UNL     1      69.761   3.525  10.508  1.00  0.00    -0.384 N 
HETATM   14  H   UNL     1      70.712   3.274  10.470  1.00  0.00     0.157 HD
HETATM   15  H   UNL     1      69.272   3.472  11.361  1.00  0.00     0.157 HD
ENDBRANCH   5  13
TORSDOF 2
ENDMDL
MODEL 5
REMARK VINA RESULT:      -4.2     17.119     18.486
REMARK  2 active torsions:
REMARK  status: ('A' for Active; 'I' for Inactive)
REMARK    1  A    between atoms: C_3  and  C_7 
REMARK    2  A    between atoms: C_5  and  N_11 
ROOT
HETATM    1  N   UNL     1      77.701   0.302  17.809  1.00  0.00    -0.296 N 
ATOM      2  HN  UNL     1      78.102  -0.636  17.781  1.00  0.00     0.187 HD
HETATM    3  C   UNL     1      76.872   0.872  16.924  1.00  0.00     0.069 A 
HETATM    4  C   UNL     1      76.491   2.172  17.334  1.00  0.00     0.081 A 
HETATM    5  C   UNL     1      77.131   2.383  18.530  1.00  0.00     0.117 A 
HETATM    6  N   UNL     1      77.883   1.255  18.746  1.00  0.00    -0.281 N 
HETATM    7  C   UNL     1      78.837   1.036  19.805  1.00  0.00     0.179 C 
ENDROOT
BRANCH   3   8
HETATM    8  C   UNL     1      76.444   0.173  15.668  1.00  0.00     0.033 A 
HETATM    9  S   UNL     1      74.841   0.142  15.077  1.00  0.00    -0.100 SA
HETATM   10  C   UNL     1      75.296  -0.765  13.699  1.00  0.00     0.050 A 
HETATM   11  C   UNL     1      76.641  -1.064  13.701  1.00  0.00     0.008 A 
HETATM   12  C   UNL     1      77.306  -0.518  14.839  1.00  0.00     0.021 A 
ENDBRANCH   3   8
BRANCH   5  13
HETATM   13  N   UNL     1      77.100   3.447  19.362  1.00  0.00    -0.384 N 
HETATM   14  H   UNL     1      77.935   3.918  19.590  1.00  0.00     0.157 HD
HETATM   15  H   UNL     1      76.244   3.751  19.740  1.00  0.00     0.157 HD
ENDBRANCH   5  13
TORSDOF 2
ENDMDL
MODEL 6
REMARK VINA RESULT:      -4.2      2.898      5.353
REMARK  2 active torsions:
REMARK  status: ('A' for Active; 'I' for Inactive)
REMARK    1  A    between atoms: C_3  and  C_7 
REMARK    2  A    between atoms: C_5  and  N_11 
ROOT
HETATM    1  N   UNL     1      63.345   8.042   3.061  1.00  0.00    -0.296 N 
ATOM      2  HN  UNL     1      63.758   7.186   2.690  1.00  0.00     0.187 HD
HETATM    3  C   UNL     1      63.500   8.572   4.282  1.00  0.00     0.069 A 
HETATM    4  C   UNL     1      62.806   9.798   4.408  1.00  0.00     0.081 A 
HETATM    5  C   UNL     1      62.205  10.007   3.190  1.00  0.00     0.117 A 
HETATM    6  N   UNL     1      62.516   8.902   2.436  1.00  0.00    -0.281 N 
HETATM    7  C   UNL     1      62.017   8.579   1.122  1.00  0.00     0.179 C 
ENDROOT
BRANCH   3   8
HETATM    8  C   UNL     1      64.314   7.896   5.347  1.00  0.00     0.033 A 
HETATM    9  S   UNL     1      63.765   6.585   6.297  1.00  0.00    -0.100 SA
HETATM   10  C   UNL     1      65.260   6.470   7.120  1.00  0.00     0.050 A 
HETATM   11  C   UNL     1      66.155   7.429   6.700  1.00  0.00     0.008 A 
HETATM   12  C   UNL     1      65.608   8.253   5.671  1.00  0.00     0.021 A 
ENDBRANCH   3   8
BRANCH   5  13
HETATM   13  N   UNL     1      61.441  11.032   2.757  1.00  0.00    -0.384 N 
HETATM   14  H   UNL     1      61.656  11.482   1.908  1.00  0.00     0.157 HD
HETATM   15  H   UNL     1      60.669  11.330   3.291  1.00  0.00     0.157 HD
ENDBRANCH   5  13
TORSDOF 2
ENDMDL
MODEL 7
REMARK VINA RESULT:      -4.0      2.847      5.360
REMARK  2 active torsions:
REMARK  status: ('A' for Active; 'I' for Inactive)
REMARK    1  A    between atoms: C_3  and  C_7 
REMARK    2  A    between atoms: C_5  and  N_11 
ROOT
HETATM    1  N   UNL     1      64.308   6.354   6.709  1.00  0.00    -0.296 N 
ATOM      2  HN  UNL     1      64.015   5.544   7.256  1.00  0.00     0.187 HD
HETATM    3  C   UNL     1      65.527   6.908   6.641  1.00  0.00     0.069 A 
HETATM    4  C   UNL     1      65.554   7.992   5.732  1.00  0.00     0.081 A 
HETATM    5  C   UNL     1      64.277   8.086   5.233  1.00  0.00     0.117 A 
HETATM    6  N   UNL     1      63.558   7.116   5.887  1.00  0.00    -0.281 N 
HETATM    7  C   UNL     1      62.136   6.890   5.811  1.00  0.00     0.179 C 
ENDROOT
BRANCH   3   8
HETATM    8  C   UNL     1      66.678   6.403   7.460  1.00  0.00     0.033 A 
HETATM    9  S   UNL     1      66.760   6.483   9.165  1.00  0.00    -0.100 SA
HETATM   10  C   UNL     1      68.277   5.692   9.195  1.00  0.00     0.050 A 
HETATM   11  C   UNL     1      68.728   5.395   7.928  1.00  0.00     0.008 A 
HETATM   12  C   UNL     1      67.801   5.804   6.924  1.00  0.00     0.021 A 
ENDBRANCH   3   8
BRANCH   5  13
HETATM   13  N   UNL     1      63.757   8.931   4.317  1.00  0.00    -0.384 N 
HETATM   14  H   UNL     1      63.551   8.608   3.410  1.00  0.00     0.157 HD
HETATM   15  H   UNL     1      63.583   9.870   4.558  1.00  0.00     0.157 HD
ENDBRANCH   5  13
TORSDOF 2
ENDMDL
MODEL 8
REMARK VINA RESULT:      -3.8     18.415     20.242
REMARK  2 active torsions:
REMARK  status: ('A' for Active; 'I' for Inactive)
REMARK    1  A    between atoms: C_3  and  C_7 
REMARK    2  A    between atoms: C_5  and  N_11 
ROOT
HETATM    1  N   UNL     1      50.210  21.039   1.833  1.00  0.00    -0.296 N 
ATOM      2  HN  UNL     1      51.183  20.981   1.533  1.00  0.00     0.187 HD
HETATM    3  C   UNL     1      49.242  20.126   1.677  1.00  0.00     0.069 A 
HETATM    4  C   UNL     1      48.030  20.548   2.274  1.00  0.00     0.081 A 
HETATM    5  C   UNL     1      48.296  21.782   2.815  1.00  0.00     0.117 A 
HETATM    6  N   UNL     1      49.600  22.053   2.480  1.00  0.00    -0.281 N 
HETATM    7  C   UNL     1      50.316  23.285   2.704  1.00  0.00     0.179 C 
ENDROOT
BRANCH   3   8
HETATM    8  C   UNL     1      49.472  18.839   0.942  1.00  0.00     0.033 A 
HETATM    9  S   UNL     1      48.827  18.477  -0.599  1.00  0.00    -0.100 SA
HETATM   10  C   UNL     1      49.600  16.951  -0.637  1.00  0.00     0.050 A 
HETATM   11  C   UNL     1      50.316  16.708   0.514  1.00  0.00     0.008 A 
HETATM   12  C   UNL     1      50.244  17.801   1.427  1.00  0.00     0.021 A 
ENDBRANCH   3   8
BRANCH   5  13
HETATM   13  N   UNL     1      47.501  22.619   3.516  1.00  0.00    -0.384 N 
HETATM   14  H   UNL     1      47.887  23.412   3.955  1.00  0.00     0.157 HD
HETATM   15  H   UNL     1      46.536  22.436   3.587  1.00  0.00     0.157 HD
ENDBRANCH   5  13
TORSDOF 2
ENDMDL
MODEL 9
REMARK VINA RESULT:      -3.7      4.682      6.471
REMARK  2 active torsions:
REMARK  status: ('A' for Active; 'I' for Inactive)
REMARK    1  A    between atoms: C_3  and  C_7 
REMARK    2  A    between atoms: C_5  and  N_11 
ROOT
HETATM    1  N   UNL     1      59.646   8.041   2.636  1.00  0.00    -0.296 N 
ATOM      2  HN  UNL     1      59.097   8.110   3.492  1.00  0.00     0.187 HD
HETATM    3  C   UNL     1      60.901   8.463   2.423  1.00  0.00     0.069 A 
HETATM    4  C   UNL     1      61.341   8.144   1.117  1.00  0.00     0.081 A 
HETATM    5  C   UNL     1      60.287   7.494   0.522  1.00  0.00     0.117 A 
HETATM    6  N   UNL     1      59.280   7.504   1.455  1.00  0.00    -0.281 N 
HETATM    7  C   UNL     1      57.921   7.057   1.270  1.00  0.00     0.179 C 
ENDROOT
BRANCH   3   8
HETATM    8  C   UNL     1      61.686   9.189   3.476  1.00  0.00     0.033 A 
HETATM    9  S   UNL     1      62.631   8.424   4.676  1.00  0.00    -0.100 SA
HETATM   10  C   UNL     1      63.141   9.923   5.324  1.00  0.00     0.050 A 
HETATM   11  C   UNL     1      62.581  10.989   4.657  1.00  0.00     0.008 A 
HETATM   12  C   UNL     1      61.741  10.565   3.585  1.00  0.00     0.021 A 
ENDBRANCH   3   8
BRANCH   5  13
HETATM   13  N   UNL     1      60.176   6.956  -0.712  1.00  0.00    -0.384 N 
HETATM   14  H   UNL     1      60.935   6.467  -1.105  1.00  0.00     0.157 HD
HETATM   15  H   UNL     1      59.337   7.053  -1.217  1.00  0.00     0.157 HD
ENDBRANCH   5  13
TORSDOF 2
ENDMDL
