MODEL 1
REMARK VINA RESULT:      -5.3      0.000      0.000
REMARK  2 active torsions:
REMARK  status: ('A' for Active; 'I' for Inactive)
REMARK    1  A    between atoms: C_4  and  N_8 
REMARK    2  A    between atoms: C_6  and  C_7 
ROOT
HETATM    1  N   UNL     1      64.697   7.460   6.692  1.00  0.00    -0.296 N 
ATOM      2  HN  UNL     1      63.808   7.354   7.182  1.00  0.00     0.187 HD
HETATM    3  C   UNL     1      66.313   8.071   5.213  1.00  0.00     0.081 A 
HETATM    4  C   UNL     1      66.913   7.326   6.198  1.00  0.00     0.117 A 
HETATM    5  N   UNL     1      65.898   6.968   7.049  1.00  0.00    -0.281 N 
HETATM    6  C   UNL     1      64.931   8.122   5.547  1.00  0.00     0.062 A 
HETATM    7  C   UNL     1      66.001   6.135   8.223  1.00  0.00     0.179 C 
ENDROOT
BRANCH   6   8
HETATM    8  C   UNL     1      63.857   8.764   4.790  1.00  0.00    -0.008 A 
HETATM    9  C   UNL     1      63.322   9.990   5.211  1.00  0.00     0.014 A 
HETATM   10  C   UNL     1      62.334  10.630   4.459  1.00  0.00     0.001 A 
HETATM   11  C   UNL     1      61.867  10.046   3.284  1.00  0.00     0.000 A 
HETATM   12  C   UNL     1      62.374   8.816   2.866  1.00  0.00     0.001 A 
HETATM   13  C   UNL     1      63.364   8.178   3.616  1.00  0.00     0.014 A 
ENDBRANCH   6   8
BRANCH   4  14
HETATM   14  N   UNL     1      68.200   6.969   6.352  1.00  0.00    -0.384 N 
HETATM   15  H   UNL     1      68.502   6.573   7.201  1.00  0.00     0.157 HD
HETATM   16  H   UNL     1      68.840   7.104   5.616  1.00  0.00     0.157 HD
ENDBRANCH   4  14
TORSDOF 2
ENDMDL
MODEL 2
REMARK VINA RESULT:      -5.0      3.888      5.516
REMARK  2 active torsions:
REMARK  status: ('A' for Active; 'I' for Inactive)
REMARK    1  A    between atoms: C_4  and  N_8 
REMARK    2  A    between atoms: C_6  and  C_7 
ROOT
HETATM    1  N   UNL     1      67.261   3.534   8.491  1.00  0.00    -0.296 N 
ATOM      2  HN  UNL     1      66.389   3.219   8.065  1.00  0.00     0.187 HD
HETATM    3  C   UNL     1      69.082   4.764   9.078  1.00  0.00     0.081 A 
HETATM    4  C   UNL     1      69.104   3.609   9.822  1.00  0.00     0.117 A 
HETATM    5  N   UNL     1      68.002   2.899   9.418  1.00  0.00    -0.281 N 
HETATM    6  C   UNL     1      67.928   4.675   8.252  1.00  0.00     0.062 A 
HETATM    7  C   UNL     1      67.602   1.586   9.867  1.00  0.00     0.179 C 
ENDROOT
BRANCH   6   8
HETATM    8  C   UNL     1      67.479   5.637   7.245  1.00  0.00    -0.008 A 
HETATM    9  C   UNL     1      66.934   6.871   7.631  1.00  0.00     0.014 A 
HETATM   10  C   UNL     1      66.557   7.812   6.672  1.00  0.00     0.001 A 
HETATM   11  C   UNL     1      66.713   7.526   5.317  1.00  0.00     0.000 A 
HETATM   12  C   UNL     1      67.232   6.294   4.920  1.00  0.00     0.001 A 
HETATM   13  C   UNL     1      67.613   5.354   5.879  1.00  0.00     0.014 A 
ENDBRANCH   6   8
BRANCH   4  14
HETATM   14  N   UNL     1      69.985   3.191  10.747  1.00  0.00    -0.384 N 
HETATM   15  H   UNL     1      69.739   2.470  11.370  1.00  0.00     0.157 HD
HETATM   16  H   UNL     1      70.877   3.604  10.799  1.00  0.00     0.157 HD
ENDBRANCH   4  14
TORSDOF 2
ENDMDL
MODEL 3
REMARK VINA RESULT:      -5.0      1.605      2.209
REMARK  2 active torsions:
REMARK  status: ('A' for Active; 'I' for Inactive)
REMARK    1  A    between atoms: C_4  and  N_8 
REMARK    2  A    between atoms: C_6  and  C_7 
ROOT
HETATM    1  N   UNL     1      62.792   7.099   4.871  1.00  0.00    -0.296 N 
ATOM      2  HN  UNL     1      61.975   6.681   4.424  1.00  0.00     0.187 HD
HETATM    3  C   UNL     1      64.420   8.548   5.524  1.00  0.00     0.081 A 
HETATM    4  C   UNL     1      64.597   7.380   6.227  1.00  0.00     0.117 A 
HETATM    5  N   UNL     1      63.608   6.539   5.784  1.00  0.00    -0.281 N 
HETATM    6  C   UNL     1      63.295   8.329   4.682  1.00  0.00     0.062 A 
HETATM    7  C   UNL     1      63.392   5.167   6.180  1.00  0.00     0.179 C 
ENDROOT
BRANCH   6   8
HETATM    8  C   UNL     1      62.723   9.257   3.705  1.00  0.00    -0.008 A 
HETATM    9  C   UNL     1      62.353  10.555   4.087  1.00  0.00     0.014 A 
HETATM   10  C   UNL     1      61.858  11.459   3.145  1.00  0.00     0.001 A 
HETATM   11  C   UNL     1      61.723  11.071   1.813  1.00  0.00     0.000 A 
HETATM   12  C   UNL     1      62.065   9.777   1.425  1.00  0.00     0.001 A 
HETATM   13  C   UNL     1      62.563   8.874   2.367  1.00  0.00     0.014 A 
ENDBRANCH   6   8
BRANCH   4  14
HETATM   14  N   UNL     1      65.522   7.054   7.146  1.00  0.00    -0.384 N 
HETATM   15  H   UNL     1      66.470   6.991   6.889  1.00  0.00     0.157 HD
HETATM   16  H   UNL     1      65.251   6.878   8.076  1.00  0.00     0.157 HD
ENDBRANCH   4  14
TORSDOF 2
ENDMDL
MODEL 4
REMARK VINA RESULT:      -4.7      3.143      6.805
REMARK  2 active torsions:
REMARK  status: ('A' for Active; 'I' for Inactive)
REMARK    1  A    between atoms: C_4  and  N_8 
REMARK    2  A    between atoms: C_6  and  C_7 
ROOT
HETATM    1  N   UNL     1      65.601   5.240   7.283  1.00  0.00    -0.296 N 
ATOM      2  HN  UNL     1      65.220   4.311   7.462  1.00  0.00     0.187 HD
HETATM    3  C   UNL     1      66.991   7.033   7.116  1.00  0.00     0.081 A 
HETATM    4  C   UNL     1      65.781   7.395   6.575  1.00  0.00     0.117 A 
HETATM    5  N   UNL     1      64.978   6.292   6.717  1.00  0.00    -0.281 N 
HETATM    6  C   UNL     1      66.836   5.690   7.558  1.00  0.00     0.062 A 
HETATM    7  C   UNL     1      63.587   6.176   6.349  1.00  0.00     0.179 C 
ENDROOT
BRANCH   6   8
HETATM    8  C   UNL     1      67.828   4.860   8.242  1.00  0.00    -0.008 A 
HETATM    9  C   UNL     1      69.139   5.321   8.426  1.00  0.00     0.014 A 
HETATM   10  C   UNL     1      70.071   4.553   9.127  1.00  0.00     0.001 A 
HETATM   11  C   UNL     1      69.702   3.313   9.644  1.00  0.00     0.000 A 
HETATM   12  C   UNL     1      68.408   2.832   9.448  1.00  0.00     0.001 A 
HETATM   13  C   UNL     1      67.475   3.602   8.751  1.00  0.00     0.014 A 
ENDBRANCH   6   8
BRANCH   4  14
HETATM   14  N   UNL     1      65.390   8.558   6.027  1.00  0.00    -0.384 N 
HETATM   15  H   UNL     1      65.216   9.338   6.600  1.00  0.00     0.157 HD
HETATM   16  H   UNL     1      65.278   8.629   5.051  1.00  0.00     0.157 HD
ENDBRANCH   4  14
TORSDOF 2
ENDMDL
MODEL 5
REMARK VINA RESULT:      -4.7     16.467     18.241
REMARK  2 active torsions:
REMARK  status: ('A' for Active; 'I' for Inactive)
REMARK    1  A    between atoms: C_4  and  N_8 
REMARK    2  A    between atoms: C_6  and  C_7 
ROOT
HETATM    1  N   UNL     1      75.212   0.676  18.678  1.00  0.00    -0.296 N 
ATOM      2  HN  UNL     1      74.477   1.095  19.248  1.00  0.00     0.187 HD
HETATM    3  C   UNL     1      76.963   0.367  17.258  1.00  0.00     0.081 A 
HETATM    4  C   UNL     1      76.623  -0.861  17.771  1.00  0.00     0.117 A 
HETATM    5  N   UNL     1      75.557  -0.623  18.601  1.00  0.00    -0.281 N 
HETATM    6  C   UNL     1      76.054   1.297  17.835  1.00  0.00     0.062 A 
HETATM    7  C   UNL     1      74.799  -1.601  19.346  1.00  0.00     0.179 C 
ENDROOT
BRANCH   6   8
HETATM    8  C   UNL     1      75.972   2.735  17.578  1.00  0.00    -0.008 A 
HETATM    9  C   UNL     1      76.952   3.605  18.077  1.00  0.00     0.014 A 
HETATM   10  C   UNL     1      76.904   4.970  17.787  1.00  0.00     0.001 A 
HETATM   11  C   UNL     1      75.872   5.479  17.002  1.00  0.00     0.000 A 
HETATM   12  C   UNL     1      74.878   4.628  16.519  1.00  0.00     0.001 A 
HETATM   13  C   UNL     1      74.928   3.262  16.806  1.00  0.00     0.014 A 
ENDBRANCH   6   8
BRANCH   4  14
HETATM   14  N   UNL     1      77.158  -2.073  17.544  1.00  0.00    -0.384 N 
HETATM   15  H   UNL     1      78.019  -2.316  17.955  1.00  0.00     0.157 HD
HETATM   16  H   UNL     1      76.688  -2.719  16.968  1.00  0.00     0.157 HD
ENDBRANCH   4  14
TORSDOF 2
ENDMDL
MODEL 6
REMARK VINA RESULT:      -4.6      2.120      5.221
REMARK  2 active torsions:
REMARK  status: ('A' for Active; 'I' for Inactive)
REMARK    1  A    between atoms: C_4  and  N_8 
REMARK    2  A    between atoms: C_6  and  C_7 
ROOT
HETATM    1  N   UNL     1      64.039   9.685   5.598  1.00  0.00    -0.296 N 
ATOM      2  HN  UNL     1      64.570  10.197   6.303  1.00  0.00     0.187 HD
HETATM    3  C   UNL     1      63.277   8.072   4.186  1.00  0.00     0.081 A 
HETATM    4  C   UNL     1      62.439   9.154   4.071  1.00  0.00     0.117 A 
HETATM    5  N   UNL     1      62.950  10.099   4.923  1.00  0.00    -0.281 N 
HETATM    6  C   UNL     1      64.268   8.445   5.136  1.00  0.00     0.062 A 
HETATM    7  C   UNL     1      62.456  11.440   5.132  1.00  0.00     0.179 C 
ENDROOT
BRANCH   6   8
HETATM    8  C   UNL     1      65.417   7.653   5.579  1.00  0.00    -0.008 A 
HETATM    9  C   UNL     1      65.311   6.802   6.689  1.00  0.00     0.014 A 
HETATM   10  C   UNL     1      66.389   6.006   7.079  1.00  0.00     0.001 A 
HETATM   11  C   UNL     1      67.586   6.059   6.368  1.00  0.00     0.000 A 
HETATM   12  C   UNL     1      67.712   6.918   5.277  1.00  0.00     0.001 A 
HETATM   13  C   UNL     1      66.632   7.711   4.884  1.00  0.00     0.014 A 
ENDBRANCH   6   8
BRANCH   4  14
HETATM   14  N   UNL     1      61.350   9.329   3.302  1.00  0.00    -0.384 N 
HETATM   15  H   UNL     1      61.142  10.219   2.939  1.00  0.00     0.157 HD
HETATM   16  H   UNL     1      60.761   8.565   3.102  1.00  0.00     0.157 HD
ENDBRANCH   4  14
TORSDOF 2
ENDMDL
MODEL 7
REMARK VINA RESULT:      -4.4      1.994      2.909
REMARK  2 active torsions:
REMARK  status: ('A' for Active; 'I' for Inactive)
REMARK    1  A    between atoms: C_4  and  N_8 
REMARK    2  A    between atoms: C_6  and  C_7 
ROOT
HETATM    1  N   UNL     1      66.524   5.106   6.261  1.00  0.00    -0.296 N 
ATOM      2  HN  UNL     1      66.007   4.507   5.618  1.00  0.00     0.187 HD
HETATM    3  C   UNL     1      67.171   6.838   7.586  1.00  0.00     0.081 A 
HETATM    4  C   UNL     1      68.090   5.829   7.744  1.00  0.00     0.117 A 
HETATM    5  N   UNL     1      67.667   4.822   6.914  1.00  0.00    -0.281 N 
HETATM    6  C   UNL     1      66.220   6.356   6.646  1.00  0.00     0.062 A 
HETATM    7  C   UNL     1      68.321   3.557   6.678  1.00  0.00     0.179 C 
ENDROOT
BRANCH   6   8
HETATM    8  C   UNL     1      65.061   7.071   6.109  1.00  0.00    -0.008 A 
HETATM    9  C   UNL     1      63.759   6.666   6.436  1.00  0.00     0.014 A 
HETATM   10  C   UNL     1      62.654   7.380   5.969  1.00  0.00     0.001 A 
HETATM   11  C   UNL     1      62.841   8.501   5.164  1.00  0.00     0.000 A 
HETATM   12  C   UNL     1      64.129   8.902   4.812  1.00  0.00     0.001 A 
HETATM   13  C   UNL     1      65.234   8.189   5.283  1.00  0.00     0.014 A 
ENDBRANCH   6   8
BRANCH   4  14
HETATM   14  N   UNL     1      69.194   5.773   8.509  1.00  0.00    -0.384 N 
HETATM   15  H   UNL     1      70.050   5.487   8.118  1.00  0.00     0.157 HD
HETATM   16  H   UNL     1      69.146   6.020   9.461  1.00  0.00     0.157 HD
ENDBRANCH   4  14
TORSDOF 2
ENDMDL
MODEL 8
REMARK VINA RESULT:      -4.2      3.214      4.131
REMARK  2 active torsions:
REMARK  status: ('A' for Active; 'I' for Inactive)
REMARK    1  A    between atoms: C_4  and  N_8 
REMARK    2  A    between atoms: C_6  and  C_7 
ROOT
HETATM    1  N   UNL     1      62.902   6.786   1.556  1.00  0.00    -0.296 N 
ATOM      2  HN  UNL     1      62.327   7.074   0.764  1.00  0.00     0.187 HD
HETATM    3  C   UNL     1      63.978   6.715   3.559  1.00  0.00     0.081 A 
HETATM    4  C   UNL     1      64.215   5.524   2.918  1.00  0.00     0.117 A 
HETATM    5  N   UNL     1      63.565   5.625   1.715  1.00  0.00    -0.281 N 
HETATM    6  C   UNL     1      63.168   7.480   2.675  1.00  0.00     0.062 A 
HETATM    7  C   UNL     1      63.548   4.650   0.651  1.00  0.00     0.179 C 
ENDROOT
BRANCH   6   8
HETATM    8  C   UNL     1      62.676   8.843   2.876  1.00  0.00    -0.008 A 
HETATM    9  C   UNL     1      62.718   9.437   4.147  1.00  0.00     0.014 A 
HETATM   10  C   UNL     1      62.299  10.756   4.328  1.00  0.00     0.001 A 
HETATM   11  C   UNL     1      61.828  11.492   3.244  1.00  0.00     0.000 A 
HETATM   12  C   UNL     1      61.760  10.907   1.980  1.00  0.00     0.001 A 
HETATM   13  C   UNL     1      62.182   9.589   1.797  1.00  0.00     0.014 A 
ENDBRANCH   6   8
BRANCH   4  14
HETATM   14  N   UNL     1      64.931   4.455   3.312  1.00  0.00    -0.384 N 
HETATM   15  H   UNL     1      65.526   4.000   2.674  1.00  0.00     0.157 HD
HETATM   16  H   UNL     1      64.860   4.129   4.238  1.00  0.00     0.157 HD
ENDBRANCH   4  14
TORSDOF 2
ENDMDL
MODEL 9
REMARK VINA RESULT:      -4.2      4.389      5.907
REMARK  2 active torsions:
REMARK  status: ('A' for Active; 'I' for Inactive)
REMARK    1  A    between atoms: C_4  and  N_8 
REMARK    2  A    between atoms: C_6  and  C_7 
ROOT
HETATM    1  N   UNL     1      61.962   6.591   1.501  1.00  0.00    -0.296 N 
ATOM      2  HN  UNL     1      61.718   6.262   2.435  1.00  0.00     0.187 HD
HETATM    3  C   UNL     1      62.595   7.885  -0.260  1.00  0.00     0.081 A 
HETATM    4  C   UNL     1      62.440   6.601  -0.723  1.00  0.00     0.117 A 
HETATM    5  N   UNL     1      62.042   5.869   0.367  1.00  0.00    -0.281 N 
HETATM    6  C   UNL     1      62.276   7.842   1.125  1.00  0.00     0.062 A 
HETATM    7  C   UNL     1      61.699   4.467   0.395  1.00  0.00     0.179 C 
ENDROOT
BRANCH   6   8
HETATM    8  C   UNL     1      62.249   8.962   2.066  1.00  0.00    -0.008 A 
HETATM    9  C   UNL     1      61.880  10.245   1.636  1.00  0.00     0.014 A 
HETATM   10  C   UNL     1      61.801  11.303   2.543  1.00  0.00     0.001 A 
HETATM   11  C   UNL     1      62.097  11.090   3.888  1.00  0.00     0.000 A 
HETATM   12  C   UNL     1      62.487   9.825   4.324  1.00  0.00     0.001 A 
HETATM   13  C   UNL     1      62.563   8.766   3.417  1.00  0.00     0.014 A 
ENDBRANCH   6   8
BRANCH   4  14
HETATM   14  N   UNL     1      62.606   6.099  -1.959  1.00  0.00    -0.384 N 
HETATM   15  H   UNL     1      61.954   5.458  -2.321  1.00  0.00     0.157 HD
HETATM   16  H   UNL     1      63.380   6.374  -2.502  1.00  0.00     0.157 HD
ENDBRANCH   4  14
TORSDOF 2
ENDMDL
