MODEL 1
REMARK VINA RESULT:      -5.4      0.000      0.000
REMARK  3 active torsions:
REMARK  status: ('A' for Active; 'I' for Inactive)
REMARK    1  A    between atoms: S_1  and  C_2 
REMARK    2  A    between atoms: S_1  and  C_8 
REMARK    3  A    between atoms: C_3  and  N_10 
ROOT
HETATM    1  S   UNL     1      63.038   7.927   5.014  1.00  0.00     0.209 S 
HETATM    2  O   UNL     1      62.912   8.462   6.355  1.00  0.00    -0.217 OA
HETATM    3  O   UNL     1      62.372   6.698   4.616  1.00  0.00    -0.217 OA
ENDROOT
BRANCH   1   4
HETATM    4  C   UNL     1      64.727   7.591   4.805  1.00  0.00     0.097 A 
HETATM    5  C   UNL     1      65.285   6.700   3.839  1.00  0.00     0.054 A 
HETATM    6  C   UNL     1      66.653   6.608   3.947  1.00  0.00     0.080 A 
HETATM    7  S   UNL     1      67.277   7.645   5.156  1.00  0.00    -0.110 SA
HETATM    8  C   UNL     1      65.710   8.195   5.565  1.00  0.00     0.075 A 
BRANCH   5   9
HETATM    9  N   UNL     1      64.593   6.013   2.901  1.00  0.00    -0.397 N 
HETATM   10  H   UNL     1      63.613   6.101   2.848  1.00  0.00     0.156 HD
HETATM   11  H   UNL     1      65.069   5.426   2.270  1.00  0.00     0.156 HD
ENDBRANCH   5   9
ENDBRANCH   1   4
BRANCH   1  12
HETATM   12  C   UNL     1      62.609   9.205   3.861  1.00  0.00     0.064 A 
HETATM   13  C   UNL     1      62.466   8.897   2.503  1.00  0.00     0.024 A 
HETATM   14  C   UNL     1      62.040   9.882   1.610  1.00  0.00     0.002 A 
HETATM   15  C   UNL     1      61.760  11.171   2.071  1.00  0.00     0.000 A 
HETATM   16  C   UNL     1      61.905  11.475   3.424  1.00  0.00     0.002 A 
HETATM   17  C   UNL     1      62.325  10.494   4.324  1.00  0.00     0.024 A 
ENDBRANCH   1  12
TORSDOF 3
ENDMDL
MODEL 2
REMARK VINA RESULT:      -5.3      1.374      1.611
REMARK  3 active torsions:
REMARK  status: ('A' for Active; 'I' for Inactive)
REMARK    1  A    between atoms: S_1  and  C_2 
REMARK    2  A    between atoms: S_1  and  C_8 
REMARK    3  A    between atoms: C_3  and  N_10 
ROOT
HETATM    1  S   UNL     1      62.992   7.706   4.976  1.00  0.00     0.209 S 
HETATM    2  O   UNL     1      63.017   8.321   6.289  1.00  0.00    -0.217 OA
HETATM    3  O   UNL     1      62.180   6.533   4.699  1.00  0.00    -0.217 OA
ENDROOT
BRANCH   1   4
HETATM    4  C   UNL     1      64.619   7.187   4.676  1.00  0.00     0.097 A 
HETATM    5  C   UNL     1      65.786   7.683   5.332  1.00  0.00     0.054 A 
HETATM    6  C   UNL     1      66.939   7.109   4.848  1.00  0.00     0.080 A 
HETATM    7  S   UNL     1      66.618   5.921   3.659  1.00  0.00    -0.110 SA
HETATM    8  C   UNL     1      64.933   6.199   3.762  1.00  0.00     0.075 A 
BRANCH   5   9
HETATM    9  N   UNL     1      65.807   8.601   6.326  1.00  0.00    -0.397 N 
HETATM   10  H   UNL     1      66.334   8.434   7.140  1.00  0.00     0.156 HD
HETATM   11  H   UNL     1      65.295   9.438   6.234  1.00  0.00     0.156 HD
ENDBRANCH   5   9
ENDBRANCH   1   4
BRANCH   1  12
HETATM   12  C   UNL     1      62.610   8.958   3.780  1.00  0.00     0.064 A 
HETATM   13  C   UNL     1      62.572   8.632   2.419  1.00  0.00     0.024 A 
HETATM   14  C   UNL     1      62.182   9.595   1.486  1.00  0.00     0.002 A 
HETATM   15  C   UNL     1      61.833  10.880   1.910  1.00  0.00     0.000 A 
HETATM   16  C   UNL     1      61.872  11.202   3.266  1.00  0.00     0.002 A 
HETATM   17  C   UNL     1      62.255  10.243   4.206  1.00  0.00     0.024 A 
ENDBRANCH   1  12
TORSDOF 3
ENDMDL
MODEL 3
REMARK VINA RESULT:      -5.1      1.999      2.622
REMARK  3 active torsions:
REMARK  status: ('A' for Active; 'I' for Inactive)
REMARK    1  A    between atoms: S_1  and  C_2 
REMARK    2  A    between atoms: S_1  and  C_8 
REMARK    3  A    between atoms: C_3  and  N_10 
ROOT
HETATM    1  S   UNL     1      64.842   7.909   5.916  1.00  0.00     0.209 S 
HETATM    2  O   UNL     1      65.940   8.829   6.140  1.00  0.00    -0.217 OA
HETATM    3  O   UNL     1      64.110   7.312   7.021  1.00  0.00    -0.217 OA
ENDROOT
BRANCH   1   4
HETATM    4  C   UNL     1      65.534   6.558   5.076  1.00  0.00     0.097 A 
HETATM    5  C   UNL     1      66.768   6.568   4.357  1.00  0.00     0.054 A 
HETATM    6  C   UNL     1      67.029   5.357   3.758  1.00  0.00     0.080 A 
HETATM    7  S   UNL     1      65.835   4.186   4.119  1.00  0.00    -0.110 SA
HETATM    8  C   UNL     1      64.941   5.310   5.050  1.00  0.00     0.075 A 
BRANCH   5   9
HETATM    9  N   UNL     1      67.618   7.615   4.256  1.00  0.00    -0.397 N 
HETATM   10  H   UNL     1      67.628   8.311   4.953  1.00  0.00     0.156 HD
HETATM   11  H   UNL     1      68.228   7.681   3.486  1.00  0.00     0.156 HD
ENDBRANCH   5   9
ENDBRANCH   1   4
BRANCH   1  12
HETATM   12  C   UNL     1      63.685   8.677   4.815  1.00  0.00     0.064 A 
HETATM   13  C   UNL     1      63.105   9.904   5.160  1.00  0.00     0.024 A 
HETATM   14  C   UNL     1      62.264  10.553   4.253  1.00  0.00     0.002 A 
HETATM   15  C   UNL     1      62.001   9.978   3.008  1.00  0.00     0.000 A 
HETATM   16  C   UNL     1      62.579   8.755   2.667  1.00  0.00     0.002 A 
HETATM   17  C   UNL     1      63.426   8.103   3.566  1.00  0.00     0.024 A 
ENDBRANCH   1  12
TORSDOF 3
ENDMDL
MODEL 4
REMARK VINA RESULT:      -5.1      4.769      7.736
REMARK  3 active torsions:
REMARK  status: ('A' for Active; 'I' for Inactive)
REMARK    1  A    between atoms: S_1  and  C_2 
REMARK    2  A    between atoms: S_1  and  C_8 
REMARK    3  A    between atoms: C_3  and  N_10 
ROOT
HETATM    1  S   UNL     1      66.288   5.391   8.062  1.00  0.00     0.209 S 
HETATM    2  O   UNL     1      65.366   4.290   7.863  1.00  0.00    -0.217 OA
HETATM    3  O   UNL     1      65.962   6.514   8.926  1.00  0.00    -0.217 OA
ENDROOT
BRANCH   1   4
HETATM    4  C   UNL     1      66.508   6.101   6.494  1.00  0.00     0.097 A 
HETATM    5  C   UNL     1      66.784   7.478   6.236  1.00  0.00     0.054 A 
HETATM    6  C   UNL     1      66.861   7.748   4.889  1.00  0.00     0.080 A 
HETATM    7  S   UNL     1      66.678   6.338   3.936  1.00  0.00    -0.110 SA
HETATM    8  C   UNL     1      66.456   5.365   5.326  1.00  0.00     0.075 A 
BRANCH   5   9
HETATM    9  N   UNL     1      66.967   8.439   7.170  1.00  0.00    -0.397 N 
HETATM   10  H   UNL     1      66.362   9.215   7.203  1.00  0.00     0.156 HD
HETATM   11  H   UNL     1      67.704   8.361   7.818  1.00  0.00     0.156 HD
ENDBRANCH   5   9
ENDBRANCH   1   4
BRANCH   1  12
HETATM   12  C   UNL     1      67.854   4.725   8.562  1.00  0.00     0.064 A 
HETATM   13  C   UNL     1      69.018   5.487   8.401  1.00  0.00     0.024 A 
HETATM   14  C   UNL     1      70.237   5.000   8.877  1.00  0.00     0.002 A 
HETATM   15  C   UNL     1      70.294   3.756   9.511  1.00  0.00     0.000 A 
HETATM   16  C   UNL     1      69.133   2.999   9.669  1.00  0.00     0.002 A 
HETATM   17  C   UNL     1      67.910   3.482   9.200  1.00  0.00     0.024 A 
ENDBRANCH   1  12
TORSDOF 3
ENDMDL
MODEL 5
REMARK VINA RESULT:      -5.1      2.154      5.180
REMARK  3 active torsions:
REMARK  status: ('A' for Active; 'I' for Inactive)
REMARK    1  A    between atoms: S_1  and  C_2 
REMARK    2  A    between atoms: S_1  and  C_8 
REMARK    3  A    between atoms: C_3  and  N_10 
ROOT
HETATM    1  S   UNL     1      63.176   7.312   5.822  1.00  0.00     0.209 S 
HETATM    2  O   UNL     1      62.712   6.029   5.332  1.00  0.00    -0.217 OA
HETATM    3  O   UNL     1      62.694   7.870   7.075  1.00  0.00    -0.217 OA
ENDROOT
BRANCH   1   4
HETATM    4  C   UNL     1      62.698   8.469   4.621  1.00  0.00     0.097 A 
HETATM    5  C   UNL     1      62.695   9.887   4.787  1.00  0.00     0.054 A 
HETATM    6  C   UNL     1      62.221  10.539   3.672  1.00  0.00     0.080 A 
HETATM    7  S   UNL     1      61.850   9.457   2.400  1.00  0.00    -0.110 SA
HETATM    8  C   UNL     1      62.289   8.105   3.353  1.00  0.00     0.075 A 
BRANCH   5   9
HETATM    9  N   UNL     1      63.109  10.558   5.887  1.00  0.00    -0.397 N 
HETATM   10  H   UNL     1      62.537  10.591   6.688  1.00  0.00     0.156 HD
HETATM   11  H   UNL     1      63.982  11.012   5.887  1.00  0.00     0.156 HD
ENDBRANCH   5   9
ENDBRANCH   1   4
BRANCH   1  12
HETATM   12  C   UNL     1      64.949   7.289   5.854  1.00  0.00     0.064 A 
HETATM   13  C   UNL     1      65.618   6.788   6.977  1.00  0.00     0.024 A 
HETATM   14  C   UNL     1      67.011   6.686   6.966  1.00  0.00     0.002 A 
HETATM   15  C   UNL     1      67.733   7.084   5.838  1.00  0.00     0.000 A 
HETATM   16  C   UNL     1      67.063   7.583   4.721  1.00  0.00     0.002 A 
HETATM   17  C   UNL     1      65.670   7.683   4.723  1.00  0.00     0.024 A 
ENDBRANCH   1  12
TORSDOF 3
ENDMDL
MODEL 6
REMARK VINA RESULT:      -5.1      3.466      6.358
REMARK  3 active torsions:
REMARK  status: ('A' for Active; 'I' for Inactive)
REMARK    1  A    between atoms: S_1  and  C_2 
REMARK    2  A    between atoms: S_1  and  C_8 
REMARK    3  A    between atoms: C_3  and  N_10 
ROOT
HETATM    1  S   UNL     1      66.034   7.532   5.937  1.00  0.00     0.209 S 
HETATM    2  O   UNL     1      65.979   8.906   6.396  1.00  0.00    -0.217 OA
HETATM    3  O   UNL     1      66.501   7.191   4.603  1.00  0.00    -0.217 OA
ENDROOT
BRANCH   1   4
HETATM    4  C   UNL     1      64.396   6.962   5.980  1.00  0.00     0.097 A 
HETATM    5  C   UNL     1      63.228   7.777   5.867  1.00  0.00     0.054 A 
HETATM    6  C   UNL     1      62.070   7.043   5.982  1.00  0.00     0.080 A 
HETATM    7  S   UNL     1      62.380   5.369   6.150  1.00  0.00    -0.110 SA
HETATM    8  C   UNL     1      64.071   5.625   6.106  1.00  0.00     0.075 A 
BRANCH   5   9
HETATM    9  N   UNL     1      63.211   9.114   5.661  1.00  0.00    -0.397 N 
HETATM   10  H   UNL     1      63.401   9.730   6.406  1.00  0.00     0.156 HD
HETATM   11  H   UNL     1      63.010   9.471   4.766  1.00  0.00     0.156 HD
ENDBRANCH   5   9
ENDBRANCH   1   4
BRANCH   1  12
HETATM   12  C   UNL     1      66.952   6.583   7.120  1.00  0.00     0.064 A 
HETATM   13  C   UNL     1      67.815   5.571   6.682  1.00  0.00     0.024 A 
HETATM   14  C   UNL     1      68.606   4.886   7.607  1.00  0.00     0.002 A 
HETATM   15  C   UNL     1      68.534   5.209   8.964  1.00  0.00     0.000 A 
HETATM   16  C   UNL     1      67.673   6.217   9.398  1.00  0.00     0.002 A 
HETATM   17  C   UNL     1      66.883   6.910   8.478  1.00  0.00     0.024 A 
ENDBRANCH   1  12
TORSDOF 3
ENDMDL
MODEL 7
REMARK VINA RESULT:      -5.0     18.135     19.403
REMARK  3 active torsions:
REMARK  status: ('A' for Active; 'I' for Inactive)
REMARK    1  A    between atoms: S_1  and  C_2 
REMARK    2  A    between atoms: S_1  and  C_8 
REMARK    3  A    between atoms: C_3  and  N_10 
ROOT
HETATM    1  S   UNL     1      75.521   0.558  18.318  1.00  0.00     0.209 S 
HETATM    2  O   UNL     1      76.769   0.222  18.976  1.00  0.00    -0.217 OA
HETATM    3  O   UNL     1      74.239   0.399  18.985  1.00  0.00    -0.217 OA
ENDROOT
BRANCH   1   4
HETATM    4  C   UNL     1      75.425  -0.492  16.941  1.00  0.00     0.097 A 
HETATM    5  C   UNL     1      76.477  -0.738  16.007  1.00  0.00     0.054 A 
HETATM    6  C   UNL     1      76.085  -1.584  14.995  1.00  0.00     0.080 A 
HETATM    7  S   UNL     1      74.482  -2.143  15.205  1.00  0.00    -0.110 SA
HETATM    8  C   UNL     1      74.293  -1.223  16.635  1.00  0.00     0.075 A 
BRANCH   5   9
HETATM    9  N   UNL     1      77.729  -0.231  16.071  1.00  0.00    -0.397 N 
HETATM   10  H   UNL     1      77.885   0.723  15.883  1.00  0.00     0.156 HD
HETATM   11  H   UNL     1      78.485  -0.815  16.308  1.00  0.00     0.156 HD
ENDBRANCH   5   9
ENDBRANCH   1   4
BRANCH   1  12
HETATM   12  C   UNL     1      75.642   2.218  17.707  1.00  0.00     0.064 A 
HETATM   13  C   UNL     1      74.599   2.756  16.942  1.00  0.00     0.024 A 
HETATM   14  C   UNL     1      74.653   4.091  16.538  1.00  0.00     0.002 A 
HETATM   15  C   UNL     1      75.745   4.887  16.894  1.00  0.00     0.000 A 
HETATM   16  C   UNL     1      76.783   4.348  17.655  1.00  0.00     0.002 A 
HETATM   17  C   UNL     1      76.733   3.015  18.068  1.00  0.00     0.024 A 
ENDBRANCH   1  12
TORSDOF 3
ENDMDL
MODEL 8
REMARK VINA RESULT:      -4.9      1.825      2.109
REMARK  3 active torsions:
REMARK  status: ('A' for Active; 'I' for Inactive)
REMARK    1  A    between atoms: S_1  and  C_2 
REMARK    2  A    between atoms: S_1  and  C_8 
REMARK    3  A    between atoms: C_3  and  N_10 
ROOT
HETATM    1  S   UNL     1      64.789   7.966   5.854  1.00  0.00     0.209 S 
HETATM    2  O   UNL     1      65.965   8.758   6.155  1.00  0.00    -0.217 OA
HETATM    3  O   UNL     1      63.987   7.360   6.904  1.00  0.00    -0.217 OA
ENDROOT
BRANCH   1   4
HETATM    4  C   UNL     1      65.361   6.622   4.917  1.00  0.00     0.097 A 
HETATM    5  C   UNL     1      64.731   5.344   4.826  1.00  0.00     0.054 A 
HETATM    6  C   UNL     1      65.446   4.468   4.041  1.00  0.00     0.080 A 
HETATM    7  S   UNL     1      66.831   5.200   3.353  1.00  0.00    -0.110 SA
HETATM    8  C   UNL     1      66.499   6.685   4.136  1.00  0.00     0.075 A 
BRANCH   5   9
HETATM    9  N   UNL     1      63.566   4.990   5.414  1.00  0.00    -0.397 N 
HETATM   10  H   UNL     1      63.272   5.443   6.238  1.00  0.00     0.156 HD
HETATM   11  H   UNL     1      63.010   4.281   5.017  1.00  0.00     0.156 HD
ENDBRANCH   5   9
ENDBRANCH   1   4
BRANCH   1  12
HETATM   12  C   UNL     1      63.725   8.923   4.806  1.00  0.00     0.064 A 
HETATM   13  C   UNL     1      63.305   8.399   3.577  1.00  0.00     0.024 A 
HETATM   14  C   UNL     1      62.395   9.114   2.794  1.00  0.00     0.002 A 
HETATM   15  C   UNL     1      61.909  10.346   3.236  1.00  0.00     0.000 A 
HETATM   16  C   UNL     1      62.330  10.866   4.460  1.00  0.00     0.002 A 
HETATM   17  C   UNL     1      63.235  10.155   5.251  1.00  0.00     0.024 A 
ENDBRANCH   1  12
TORSDOF 3
ENDMDL
MODEL 9
REMARK VINA RESULT:      -4.8      2.993      3.829
REMARK  3 active torsions:
REMARK  status: ('A' for Active; 'I' for Inactive)
REMARK    1  A    between atoms: S_1  and  C_2 
REMARK    2  A    between atoms: S_1  and  C_8 
REMARK    3  A    between atoms: C_3  and  N_10 
ROOT
HETATM    1  S   UNL     1      66.006   8.184   5.626  1.00  0.00     0.209 S 
HETATM    2  O   UNL     1      67.082   7.991   4.674  1.00  0.00    -0.217 OA
HETATM    3  O   UNL     1      66.062   9.224   6.641  1.00  0.00    -0.217 OA
ENDROOT
BRANCH   1   4
HETATM    4  C   UNL     1      65.915   6.704   6.528  1.00  0.00     0.097 A 
HETATM    5  C   UNL     1      66.590   6.437   7.758  1.00  0.00     0.054 A 
HETATM    6  C   UNL     1      66.356   5.158   8.210  1.00  0.00     0.080 A 
HETATM    7  S   UNL     1      65.270   4.304   7.201  1.00  0.00    -0.110 SA
HETATM    8  C   UNL     1      65.136   5.634   6.132  1.00  0.00     0.075 A 
BRANCH   5   9
HETATM    9  N   UNL     1      67.368   7.307   8.441  1.00  0.00    -0.397 N 
HETATM   10  H   UNL     1      68.347   7.284   8.330  1.00  0.00     0.156 HD
HETATM   11  H   UNL     1      66.957   7.964   9.048  1.00  0.00     0.156 HD
ENDBRANCH   5   9
ENDBRANCH   1   4
BRANCH   1  12
HETATM   12  C   UNL     1      64.487   8.347   4.727  1.00  0.00     0.064 A 
HETATM   13  C   UNL     1      63.590   9.371   5.055  1.00  0.00     0.024 A 
HETATM   14  C   UNL     1      62.437   9.555   4.289  1.00  0.00     0.002 A 
HETATM   15  C   UNL     1      62.180   8.719   3.200  1.00  0.00     0.000 A 
HETATM   16  C   UNL     1      63.074   7.699   2.876  1.00  0.00     0.002 A 
HETATM   17  C   UNL     1      64.232   7.512   3.634  1.00  0.00     0.024 A 
ENDBRANCH   1  12
TORSDOF 3
ENDMDL
