MODEL 1
REMARK VINA RESULT:      -5.5      0.000      0.000
REMARK  3 active torsions:
REMARK  status: ('A' for Active; 'I' for Inactive)
REMARK    1  A    between atoms: S_1  and  C_2 
REMARK    2  A    between atoms: S_1  and  C_3 
REMARK    3  A    between atoms: C_2  and  C_6 
ROOT
HETATM    1  C   UNL     1      62.869   8.598   4.520  1.00  0.00     0.059 A 
HETATM    2  C   UNL     1      62.570   8.372   3.172  1.00  0.00     0.025 A 
HETATM    3  C   UNL     1      62.728   9.875   5.075  1.00  0.00     0.025 A 
HETATM    4  C   UNL     1      62.055  10.719   2.913  1.00  0.00     0.034 A 
HETATM    5  C   UNL     1      62.329  10.939   4.264  1.00  0.00     0.025 A 
HETATM    6  C   UNL     1      62.166   9.440   2.367  1.00  0.00     0.025 A 
HETATM    7 CL   UNL     1      61.561  12.032   1.918  1.00  0.00    -0.084 Cl
ENDROOT
BRANCH   1   8
HETATM    8  S   UNL     1      63.317   7.226   5.560  1.00  0.00     0.182 S 
HETATM    9  O   UNL     1      63.102   7.629   6.936  1.00  0.00    -0.222 OA
HETATM   10  O   UNL     1      62.630   6.059   5.036  1.00  0.00    -0.222 OA
BRANCH   8  11
HETATM   11  C   UNL     1      65.040   6.963   5.319  1.00  0.00     0.223 C 
BRANCH  11  12
HETATM   12  C   UNL     1      65.849   7.704   6.335  1.00  0.00     0.137 C 
HETATM   13  O   UNL     1      65.989   8.925   6.260  1.00  0.00    -0.297 OA
HETATM   14  C   UNL     1      66.497   6.914   7.442  1.00  0.00     0.091 C 
ENDBRANCH  11  12
ENDBRANCH   8  11
ENDBRANCH   1   8
TORSDOF 3
ENDMDL
MODEL 2
REMARK VINA RESULT:      -5.2      4.079      6.920
REMARK  3 active torsions:
REMARK  status: ('A' for Active; 'I' for Inactive)
REMARK    1  A    between atoms: S_1  and  C_2 
REMARK    2  A    between atoms: S_1  and  C_3 
REMARK    3  A    between atoms: C_2  and  C_6 
ROOT
HETATM    1  C   UNL     1      67.078   6.639   6.959  1.00  0.00     0.059 A 
HETATM    2  C   UNL     1      66.981   6.936   8.322  1.00  0.00     0.025 A 
HETATM    3  C   UNL     1      67.788   5.515   6.523  1.00  0.00     0.025 A 
HETATM    4  C   UNL     1      68.367   5.018   8.816  1.00  0.00     0.034 A 
HETATM    5  C   UNL     1      68.442   4.709   7.457  1.00  0.00     0.025 A 
HETATM    6  C   UNL     1      67.633   6.122   9.252  1.00  0.00     0.025 A 
HETATM    7 CL   UNL     1      69.172   4.021   9.964  1.00  0.00    -0.084 Cl
ENDROOT
BRANCH   1   8
HETATM    8  S   UNL     1      66.192   7.635   5.780  1.00  0.00     0.182 S 
HETATM    9  O   UNL     1      65.952   8.929   6.389  1.00  0.00    -0.222 OA
HETATM   10  O   UNL     1      66.923   7.554   4.527  1.00  0.00    -0.222 OA
BRANCH   8  11
HETATM   11  C   UNL     1      64.642   6.842   5.526  1.00  0.00     0.223 C 
BRANCH  11  12
HETATM   12  C   UNL     1      63.507   7.795   5.721  1.00  0.00     0.137 C 
HETATM   13  O   UNL     1      62.907   7.849   6.796  1.00  0.00    -0.297 OA
HETATM   14  C   UNL     1      63.111   8.675   4.565  1.00  0.00     0.091 C 
ENDBRANCH  11  12
ENDBRANCH   8  11
ENDBRANCH   1   8
TORSDOF 3
ENDMDL
MODEL 3
REMARK VINA RESULT:      -5.1     17.627     19.339
REMARK  3 active torsions:
REMARK  status: ('A' for Active; 'I' for Inactive)
REMARK    1  A    between atoms: S_1  and  C_2 
REMARK    2  A    between atoms: S_1  and  C_3 
REMARK    3  A    between atoms: C_2  and  C_6 
ROOT
HETATM    1  C   UNL     1      75.540   2.576  17.468  1.00  0.00     0.059 A 
HETATM    2  C   UNL     1      74.816   3.487  16.693  1.00  0.00     0.025 A 
HETATM    3  C   UNL     1      76.654   2.994  18.204  1.00  0.00     0.025 A 
HETATM    4  C   UNL     1      76.363   5.230  17.333  1.00  0.00     0.034 A 
HETATM    5  C   UNL     1      77.071   4.325  18.126  1.00  0.00     0.025 A 
HETATM    6  C   UNL     1      75.234   4.818  16.624  1.00  0.00     0.025 A 
HETATM    7 CL   UNL     1      76.878   6.869  17.241  1.00  0.00    -0.084 Cl
ENDROOT
BRANCH   1   8
HETATM    8  S   UNL     1      74.967   0.897  17.611  1.00  0.00     0.182 S 
HETATM    9  O   UNL     1      74.289   0.770  18.886  1.00  0.00    -0.222 OA
HETATM   10  O   UNL     1      74.255   0.590  16.383  1.00  0.00    -0.222 OA
BRANCH   8  11
HETATM   11  C   UNL     1      76.406  -0.117  17.641  1.00  0.00     0.223 C 
BRANCH  11  12
HETATM   12  C   UNL     1      76.624  -0.707  18.998  1.00  0.00     0.137 C 
HETATM   13  O   UNL     1      77.195  -0.065  19.880  1.00  0.00    -0.297 OA
HETATM   14  C   UNL     1      76.139  -2.111  19.248  1.00  0.00     0.091 C 
ENDBRANCH  11  12
ENDBRANCH   8  11
ENDBRANCH   1   8
TORSDOF 3
ENDMDL
MODEL 4
REMARK VINA RESULT:      -5.0     17.632     18.978
REMARK  3 active torsions:
REMARK  status: ('A' for Active; 'I' for Inactive)
REMARK    1  A    between atoms: S_1  and  C_2 
REMARK    2  A    between atoms: S_1  and  C_3 
REMARK    3  A    between atoms: C_2  and  C_6 
ROOT
HETATM    1  C   UNL     1      75.345   2.229  17.585  1.00  0.00     0.059 A 
HETATM    2  C   UNL     1      76.569   2.628  18.132  1.00  0.00     0.025 A 
HETATM    3  C   UNL     1      74.588   3.117  16.812  1.00  0.00     0.025 A 
HETATM    4  C   UNL     1      76.249   4.831  17.191  1.00  0.00     0.034 A 
HETATM    5  C   UNL     1      75.039   4.425  16.625  1.00  0.00     0.025 A 
HETATM    6  C   UNL     1      77.018   3.936  17.936  1.00  0.00     0.025 A 
HETATM    7 CL   UNL     1      76.802   6.443  16.957  1.00  0.00    -0.084 Cl
ENDROOT
BRANCH   1   8
HETATM    8  S   UNL     1      74.806   0.544  17.776  1.00  0.00     0.182 S 
HETATM    9  O   UNL     1      74.216   0.418  19.094  1.00  0.00    -0.222 OA
HETATM   10  O   UNL     1      74.018   0.219  16.600  1.00  0.00    -0.222 OA
BRANCH   8  11
HETATM   11  C   UNL     1      76.257  -0.450  17.717  1.00  0.00     0.223 C 
BRANCH  11  12
HETATM   12  C   UNL     1      76.453  -1.041  16.357  1.00  0.00     0.137 C 
HETATM   13  O   UNL     1      75.999  -2.152  16.081  1.00  0.00    -0.297 OA
HETATM   14  C   UNL     1      77.233  -0.245  15.342  1.00  0.00     0.091 C 
ENDBRANCH  11  12
ENDBRANCH   8  11
ENDBRANCH   1   8
TORSDOF 3
ENDMDL
MODEL 5
REMARK VINA RESULT:      -4.9     17.785     18.675
REMARK  3 active torsions:
REMARK  status: ('A' for Active; 'I' for Inactive)
REMARK    1  A    between atoms: S_1  and  C_2 
REMARK    2  A    between atoms: S_1  and  C_3 
REMARK    3  A    between atoms: C_2  and  C_6 
ROOT
HETATM    1  C   UNL     1      75.724   2.761  17.474  1.00  0.00     0.059 A 
HETATM    2  C   UNL     1      75.020   3.662  16.669  1.00  0.00     0.025 A 
HETATM    3  C   UNL     1      76.757   3.206  18.307  1.00  0.00     0.025 A 
HETATM    4  C   UNL     1      76.430   5.452  17.477  1.00  0.00     0.034 A 
HETATM    5  C   UNL     1      77.115   4.556  18.298  1.00  0.00     0.025 A 
HETATM    6  C   UNL     1      75.380   5.012  16.669  1.00  0.00     0.025 A 
HETATM    7 CL   UNL     1      76.873   7.114  17.471  1.00  0.00    -0.084 Cl
ENDROOT
BRANCH   1   8
HETATM    8  S   UNL     1      75.221   1.055  17.525  1.00  0.00     0.182 S 
HETATM    9  O   UNL     1      76.418   0.241  17.444  1.00  0.00    -0.222 OA
HETATM   10  O   UNL     1      74.331   0.913  18.664  1.00  0.00    -0.222 OA
BRANCH   8  11
HETATM   11  C   UNL     1      74.258   0.778  16.079  1.00  0.00     0.223 C 
BRANCH  11  12
HETATM   12  C   UNL     1      74.168  -0.680  15.760  1.00  0.00     0.137 C 
HETATM   13  O   UNL     1      73.407  -1.417  16.390  1.00  0.00    -0.297 OA
HETATM   14  C   UNL     1      75.043  -1.223  14.661  1.00  0.00     0.091 C 
ENDBRANCH  11  12
ENDBRANCH   8  11
ENDBRANCH   1   8
TORSDOF 3
ENDMDL
MODEL 6
REMARK VINA RESULT:      -4.9      1.647      2.439
REMARK  3 active torsions:
REMARK  status: ('A' for Active; 'I' for Inactive)
REMARK    1  A    between atoms: S_1  and  C_2 
REMARK    2  A    between atoms: S_1  and  C_3 
REMARK    3  A    between atoms: C_2  and  C_6 
ROOT
HETATM    1  C   UNL     1      63.851   8.085   4.478  1.00  0.00     0.059 A 
HETATM    2  C   UNL     1      63.089   9.256   4.414  1.00  0.00     0.025 A 
HETATM    3  C   UNL     1      63.849   7.176   3.414  1.00  0.00     0.025 A 
HETATM    4  C   UNL     1      62.265   8.579   2.246  1.00  0.00     0.034 A 
HETATM    5  C   UNL     1      63.044   7.422   2.299  1.00  0.00     0.025 A 
HETATM    6  C   UNL     1      62.291   9.499   3.294  1.00  0.00     0.025 A 
HETATM    7 CL   UNL     1      61.277   8.879   0.870  1.00  0.00    -0.084 Cl
ENDROOT
BRANCH   1   8
HETATM    8  S   UNL     1      64.920   7.809   5.873  1.00  0.00     0.182 S 
HETATM    9  O   UNL     1      65.673   9.027   6.099  1.00  0.00    -0.222 OA
HETATM   10  O   UNL     1      64.092   7.268   6.937  1.00  0.00    -0.222 OA
BRANCH   8  11
HETATM   11  C   UNL     1      66.042   6.540   5.395  1.00  0.00     0.223 C 
BRANCH  11  12
HETATM   12  C   UNL     1      67.369   6.712   6.062  1.00  0.00     0.137 C 
HETATM   13  O   UNL     1      68.300   7.267   5.478  1.00  0.00    -0.297 OA
HETATM   14  C   UNL     1      67.537   6.174   7.459  1.00  0.00     0.091 C 
ENDBRANCH  11  12
ENDBRANCH   8  11
ENDBRANCH   1   8
TORSDOF 3
ENDMDL
MODEL 7
REMARK VINA RESULT:      -4.8      4.425      6.910
REMARK  3 active torsions:
REMARK  status: ('A' for Active; 'I' for Inactive)
REMARK    1  A    between atoms: S_1  and  C_2 
REMARK    2  A    between atoms: S_1  and  C_3 
REMARK    3  A    between atoms: C_2  and  C_6 
ROOT
HETATM    1  C   UNL     1      66.822   6.510   7.279  1.00  0.00     0.059 A 
HETATM    2  C   UNL     1      67.511   5.465   6.656  1.00  0.00     0.025 A 
HETATM    3  C   UNL     1      67.024   6.787   8.636  1.00  0.00     0.025 A 
HETATM    4  C   UNL     1      68.556   4.922   8.767  1.00  0.00     0.034 A 
HETATM    5  C   UNL     1      67.887   5.981   9.382  1.00  0.00     0.025 A 
HETATM    6  C   UNL     1      68.377   4.666   7.407  1.00  0.00     0.025 A 
HETATM    7 CL   UNL     1      69.620   3.934   9.689  1.00  0.00    -0.084 Cl
ENDROOT
BRANCH   1   8
HETATM    8  S   UNL     1      65.772   7.569   6.309  1.00  0.00     0.182 S 
HETATM    9  O   UNL     1      64.398   7.256   6.648  1.00  0.00    -0.222 OA
HETATM   10  O   UNL     1      66.265   8.925   6.483  1.00  0.00    -0.222 OA
BRANCH   8  11
HETATM   11  C   UNL     1      66.045   7.132   4.626  1.00  0.00     0.223 C 
BRANCH  11  12
HETATM   12  C   UNL     1      64.886   6.370   4.070  1.00  0.00     0.137 C 
HETATM   13  O   UNL     1      64.779   5.158   4.259  1.00  0.00    -0.297 OA
HETATM   14  C   UNL     1      63.862   7.124   3.261  1.00  0.00     0.091 C 
ENDBRANCH  11  12
ENDBRANCH   8  11
ENDBRANCH   1   8
TORSDOF 3
ENDMDL
MODEL 8
REMARK VINA RESULT:      -4.7      2.316      3.486
REMARK  3 active torsions:
REMARK  status: ('A' for Active; 'I' for Inactive)
REMARK    1  A    between atoms: S_1  and  C_2 
REMARK    2  A    between atoms: S_1  and  C_3 
REMARK    3  A    between atoms: C_2  and  C_6 
ROOT
HETATM    1  C   UNL     1      65.214   7.910   4.744  1.00  0.00     0.059 A 
HETATM    2  C   UNL     1      64.224   8.892   4.839  1.00  0.00     0.025 A 
HETATM    3  C   UNL     1      65.090   6.859   3.829  1.00  0.00     0.025 A 
HETATM    4  C   UNL     1      62.943   7.734   3.146  1.00  0.00     0.034 A 
HETATM    5  C   UNL     1      63.944   6.768   3.036  1.00  0.00     0.025 A 
HETATM    6  C   UNL     1      63.083   8.799   4.038  1.00  0.00     0.025 A 
HETATM    7 CL   UNL     1      61.535   7.620   2.166  1.00  0.00    -0.084 Cl
ENDROOT
BRANCH   1   8
HETATM    8  S   UNL     1      66.698   8.066   5.714  1.00  0.00     0.182 S 
HETATM    9  O   UNL     1      67.810   8.217   4.797  1.00  0.00    -0.222 OA
HETATM   10  O   UNL     1      66.443   9.092   6.711  1.00  0.00    -0.222 OA
BRANCH   8  11
HETATM   11  C   UNL     1      66.889   6.544   6.577  1.00  0.00     0.223 C 
BRANCH  11  12
HETATM   12  C   UNL     1      66.217   6.591   7.912  1.00  0.00     0.137 C 
HETATM   13  O   UNL     1      64.991   6.682   7.997  1.00  0.00    -0.297 OA
HETATM   14  C   UNL     1      67.080   6.539   9.145  1.00  0.00     0.091 C 
ENDBRANCH  11  12
ENDBRANCH   8  11
ENDBRANCH   1   8
TORSDOF 3
ENDMDL
MODEL 9
REMARK VINA RESULT:      -4.7      1.810      2.359
REMARK  3 active torsions:
REMARK  status: ('A' for Active; 'I' for Inactive)
REMARK    1  A    between atoms: S_1  and  C_2 
REMARK    2  A    between atoms: S_1  and  C_3 
REMARK    3  A    between atoms: C_2  and  C_6 
ROOT
HETATM    1  C   UNL     1      62.494   8.313   4.128  1.00  0.00     0.059 A 
HETATM    2  C   UNL     1      61.393   7.451   4.159  1.00  0.00     0.025 A 
HETATM    3  C   UNL     1      62.692   9.176   3.045  1.00  0.00     0.025 A 
HETATM    4  C   UNL     1      60.720   8.265   1.985  1.00  0.00     0.034 A 
HETATM    5  C   UNL     1      61.806   9.142   1.966  1.00  0.00     0.025 A 
HETATM    6  C   UNL     1      60.507   7.426   3.080  1.00  0.00     0.025 A 
HETATM    7 CL   UNL     1      59.629   8.228   0.655  1.00  0.00    -0.084 Cl
ENDROOT
BRANCH   1   8
HETATM    8  S   UNL     1      63.584   8.394   5.532  1.00  0.00     0.182 S 
HETATM    9  O   UNL     1      64.219   9.697   5.522  1.00  0.00    -0.222 OA
HETATM   10  O   UNL     1      62.810   7.979   6.689  1.00  0.00    -0.222 OA
BRANCH   8  11
HETATM   11  C   UNL     1      64.820   7.168   5.272  1.00  0.00     0.223 C 
BRANCH  11  12
HETATM   12  C   UNL     1      66.101   7.539   5.950  1.00  0.00     0.137 C 
HETATM   13  O   UNL     1      66.152   7.661   7.175  1.00  0.00    -0.297 OA
HETATM   14  C   UNL     1      67.317   7.772   5.093  1.00  0.00     0.091 C 
ENDBRANCH  11  12
ENDBRANCH   8  11
ENDBRANCH   1   8
TORSDOF 3
ENDMDL
