MODEL 1
REMARK VINA RESULT:      -6.6      0.000      0.000
REMARK  2 active torsions:
REMARK  status: ('A' for Active; 'I' for Inactive)
REMARK    1  A    between atoms: C_4  and  C_7 
REMARK    2  A    between atoms: C_5  and  N_8 
ROOT
HETATM    1  C   UNL     1      75.477   3.933  16.846  1.00  0.00     0.081 A 
HETATM    2  N   UNL     1      76.971   4.426  18.493  1.00  0.00    -0.298 N 
ATOM      3  HN  UNL     1      77.682   4.881  19.065  1.00  0.00     0.187 HD
HETATM    4  C   UNL     1      76.404   4.882  17.362  1.00  0.00     0.062 A 
HETATM    5  C   UNL     1      75.490   2.884  17.727  1.00  0.00     0.115 A 
HETATM    6  N   UNL     1      76.387   3.232  18.696  1.00  0.00    -0.285 N 
HETATM    7  H   UNL     1      76.590   2.660  19.473  1.00  0.00     0.188 HD
ENDROOT
BRANCH   4   8
HETATM    8  C   UNL     1      76.752   6.186  16.793  1.00  0.00    -0.008 A 
HETATM    9  C   UNL     1      76.814   6.363  15.402  1.00  0.00     0.015 A 
HETATM   10  C   UNL     1      77.116   7.615  14.857  1.00  0.00     0.024 A 
HETATM   11  C   UNL     1      77.368   8.695  15.702  1.00  0.00     0.034 A 
HETATM   12  C   UNL     1      77.326   8.532  17.085  1.00  0.00     0.024 A 
HETATM   13 CL   UNL     1      77.730  10.239  15.036  1.00  0.00    -0.084 Cl
HETATM   14  C   UNL     1      77.019   7.281  17.628  1.00  0.00     0.015 A 
ENDBRANCH   4   8
BRANCH   5  15
HETATM   15  N   UNL     1      74.811   1.726  17.743  1.00  0.00    -0.384 N 
HETATM   16  H   UNL     1      74.190   1.530  18.480  1.00  0.00     0.157 HD
HETATM   17  H   UNL     1      74.935   1.074  17.016  1.00  0.00     0.157 HD
ENDBRANCH   5  15
TORSDOF 2
ENDMDL
MODEL 2
REMARK VINA RESULT:      -5.4      4.387      6.735
REMARK  2 active torsions:
REMARK  status: ('A' for Active; 'I' for Inactive)
REMARK    1  A    between atoms: C_4  and  C_7 
REMARK    2  A    between atoms: C_5  and  N_8 
ROOT
HETATM    1  C   UNL     1      75.746   4.040  16.884  1.00  0.00     0.081 A 
HETATM    2  N   UNL     1      76.502   2.971  18.747  1.00  0.00    -0.298 N 
ATOM      3  HN  UNL     1      76.669   2.282  19.480  1.00  0.00     0.187 HD
HETATM    4  C   UNL     1      75.751   2.834  17.640  1.00  0.00     0.062 A 
HETATM    5  C   UNL     1      76.547   4.913  17.571  1.00  0.00     0.115 A 
HETATM    6  N   UNL     1      76.982   4.224  18.668  1.00  0.00    -0.285 N 
HETATM    7  H   UNL     1      77.590   4.610  19.339  1.00  0.00     0.188 HD
ENDROOT
BRANCH   4   8
HETATM    8  C   UNL     1      75.053   1.586  17.327  1.00  0.00    -0.008 A 
HETATM    9  C   UNL     1      74.838   1.203  15.994  1.00  0.00     0.015 A 
HETATM   10  C   UNL     1      74.199  -0.004  15.694  1.00  0.00     0.024 A 
HETATM   11  C   UNL     1      73.762  -0.831  16.727  1.00  0.00     0.034 A 
HETATM   12  C   UNL     1      73.953  -0.459  18.056  1.00  0.00     0.024 A 
HETATM   13 CL   UNL     1      72.984  -2.321  16.362  1.00  0.00    -0.084 Cl
HETATM   14  C   UNL     1      74.597   0.746  18.354  1.00  0.00     0.015 A 
ENDBRANCH   4   8
BRANCH   5  15
HETATM   15  N   UNL     1      76.903   6.183  17.319  1.00  0.00    -0.384 N 
HETATM   16  H   UNL     1      77.826   6.390  17.048  1.00  0.00     0.157 HD
HETATM   17  H   UNL     1      76.241   6.906  17.403  1.00  0.00     0.157 HD
ENDBRANCH   5  15
TORSDOF 2
ENDMDL
MODEL 3
REMARK VINA RESULT:      -5.2     12.610     13.606
REMARK  2 active torsions:
REMARK  status: ('A' for Active; 'I' for Inactive)
REMARK    1  A    between atoms: C_4  and  C_7 
REMARK    2  A    between atoms: C_5  and  N_8 
ROOT
HETATM    1  C   UNL     1      66.186   6.755   7.255  1.00  0.00     0.081 A 
HETATM    2  N   UNL     1      68.306   7.047   6.473  1.00  0.00    -0.298 N 
ATOM      3  HN  UNL     1      69.308   6.961   6.307  1.00  0.00     0.187 HD
HETATM    4  C   UNL     1      67.532   6.291   7.272  1.00  0.00     0.062 A 
HETATM    5  C   UNL     1      66.171   7.817   6.390  1.00  0.00     0.115 A 
HETATM    6  N   UNL     1      67.455   7.943   5.943  1.00  0.00    -0.285 N 
HETATM    7  H   UNL     1      67.734   8.628   5.292  1.00  0.00     0.188 HD
ENDROOT
BRANCH   4   8
HETATM    8  C   UNL     1      68.074   5.164   8.035  1.00  0.00    -0.008 A 
HETATM    9  C   UNL     1      69.349   5.244   8.616  1.00  0.00     0.015 A 
HETATM   10  C   UNL     1      69.855   4.180   9.370  1.00  0.00     0.024 A 
HETATM   11  C   UNL     1      69.091   3.027   9.538  1.00  0.00     0.034 A 
HETATM   12  C   UNL     1      67.830   2.925   8.955  1.00  0.00     0.024 A 
HETATM   13 CL   UNL     1      69.705   1.720  10.474  1.00  0.00    -0.084 Cl
HETATM   14  C   UNL     1      67.324   3.991   8.205  1.00  0.00     0.015 A 
ENDBRANCH   4   8
BRANCH   5  15
HETATM   15  N   UNL     1      65.176   8.625   5.990  1.00  0.00    -0.384 N 
HETATM   16  H   UNL     1      64.509   8.943   6.639  1.00  0.00     0.157 HD
HETATM   17  H   UNL     1      65.116   8.900   5.047  1.00  0.00     0.157 HD
ENDBRANCH   5  15
TORSDOF 2
ENDMDL
MODEL 4
REMARK VINA RESULT:      -5.1     20.199     21.111
REMARK  2 active torsions:
REMARK  status: ('A' for Active; 'I' for Inactive)
REMARK    1  A    between atoms: C_4  and  C_7 
REMARK    2  A    between atoms: C_5  and  N_8 
ROOT
HETATM    1  C   UNL     1      62.898   9.782   4.758  1.00  0.00     0.081 A 
HETATM    2  N   UNL     1      61.725  11.200   3.417  1.00  0.00    -0.298 N 
ATOM      3  HN  UNL     1      61.180  11.597   2.652  1.00  0.00     0.187 HD
HETATM    4  C   UNL     1      62.128   9.926   3.570  1.00  0.00     0.062 A 
HETATM    5  C   UNL     1      62.928  11.024   5.334  1.00  0.00     0.115 A 
HETATM    6  N   UNL     1      62.205  11.831   4.503  1.00  0.00    -0.285 N 
HETATM    7  H   UNL     1      62.050  12.787   4.681  1.00  0.00     0.188 HD
ENDROOT
BRANCH   4   8
HETATM    8  C   UNL     1      61.790   8.885   2.597  1.00  0.00    -0.008 A 
HETATM    9  C   UNL     1      61.178   7.692   3.012  1.00  0.00     0.015 A 
HETATM   10  C   UNL     1      60.827   6.710   2.080  1.00  0.00     0.024 A 
HETATM   11  C   UNL     1      61.098   6.912   0.728  1.00  0.00     0.034 A 
HETATM   12  C   UNL     1      61.720   8.083   0.301  1.00  0.00     0.024 A 
HETATM   13 CL   UNL     1      60.659   5.711  -0.423  1.00  0.00    -0.084 Cl
HETATM   14  C   UNL     1      62.065   9.066   1.233  1.00  0.00     0.015 A 
ENDBRANCH   4   8
BRANCH   5  15
HETATM   15  N   UNL     1      63.501  11.468   6.465  1.00  0.00    -0.384 N 
HETATM   16  H   UNL     1      62.964  11.957   7.129  1.00  0.00     0.157 HD
HETATM   17  H   UNL     1      64.458  11.304   6.628  1.00  0.00     0.157 HD
ENDBRANCH   5  15
TORSDOF 2
ENDMDL
MODEL 5
REMARK VINA RESULT:      -5.1     11.134     11.871
REMARK  2 active torsions:
REMARK  status: ('A' for Active; 'I' for Inactive)
REMARK    1  A    between atoms: C_4  and  C_7 
REMARK    2  A    between atoms: C_5  and  N_8 
ROOT
HETATM    1  C   UNL     1      69.158   2.281   8.732  1.00  0.00     0.081 A 
HETATM    2  N   UNL     1      69.416   3.737  10.464  1.00  0.00    -0.298 N 
ATOM      3  HN  UNL     1      69.416   4.573  11.048  1.00  0.00     0.187 HD
HETATM    4  C   UNL     1      68.937   3.602   9.215  1.00  0.00     0.062 A 
HETATM    5  C   UNL     1      69.777   1.611   9.754  1.00  0.00     0.115 A 
HETATM    6  N   UNL     1      69.897   2.519  10.767  1.00  0.00    -0.285 N 
HETATM    7  H   UNL     1      70.301   2.302  11.639  1.00  0.00     0.188 HD
ENDROOT
BRANCH   4   8
HETATM    8  C   UNL     1      68.295   4.712   8.507  1.00  0.00    -0.008 A 
HETATM    9  C   UNL     1      68.193   4.702   7.108  1.00  0.00     0.015 A 
HETATM   10  C   UNL     1      67.554   5.746   6.433  1.00  0.00     0.024 A 
HETATM   11  C   UNL     1      67.021   6.812   7.155  1.00  0.00     0.034 A 
HETATM   12  C   UNL     1      67.127   6.846   8.544  1.00  0.00     0.024 A 
HETATM   13 CL   UNL     1      66.225   8.095   6.330  1.00  0.00    -0.084 Cl
HETATM   14  C   UNL     1      67.763   5.798   9.217  1.00  0.00     0.015 A 
ENDBRANCH   4   8
BRANCH   5  15
HETATM   15  N   UNL     1      70.209   0.343   9.855  1.00  0.00    -0.384 N 
HETATM   16  H   UNL     1      70.335  -0.064  10.742  1.00  0.00     0.157 HD
HETATM   17  H   UNL     1      70.397  -0.178   9.042  1.00  0.00     0.157 HD
ENDBRANCH   5  15
TORSDOF 2
ENDMDL
MODEL 6
REMARK VINA RESULT:      -5.1     16.521     17.260
REMARK  2 active torsions:
REMARK  status: ('A' for Active; 'I' for Inactive)
REMARK    1  A    between atoms: C_4  and  C_7 
REMARK    2  A    between atoms: C_5  and  N_8 
ROOT
HETATM    1  C   UNL     1      65.007   6.557   6.901  1.00  0.00     0.081 A 
HETATM    2  N   UNL     1      66.181   8.443   6.399  1.00  0.00    -0.298 N 
ATOM      3  HN  UNL     1      66.517   9.298   5.956  1.00  0.00     0.187 HD
HETATM    4  C   UNL     1      65.123   7.691   6.048  1.00  0.00     0.062 A 
HETATM    5  C   UNL     1      66.032   6.665   7.803  1.00  0.00     0.115 A 
HETATM    6  N   UNL     1      66.695   7.811   7.468  1.00  0.00    -0.285 N 
HETATM    7  H   UNL     1      67.479   8.144   7.964  1.00  0.00     0.188 HD
ENDROOT
BRANCH   4   8
HETATM    8  C   UNL     1      64.258   8.048   4.921  1.00  0.00    -0.008 A 
HETATM    9  C   UNL     1      64.150   7.201   3.808  1.00  0.00     0.015 A 
HETATM   10  C   UNL     1      63.301   7.526   2.746  1.00  0.00     0.024 A 
HETATM   11  C   UNL     1      62.563   8.708   2.787  1.00  0.00     0.034 A 
HETATM   12  C   UNL     1      62.671   9.568   3.877  1.00  0.00     0.024 A 
HETATM   13 CL   UNL     1      61.510   9.107   1.486  1.00  0.00    -0.084 Cl
HETATM   14  C   UNL     1      63.517   9.239   4.941  1.00  0.00     0.015 A 
ENDBRANCH   4   8
BRANCH   5  15
HETATM   15  N   UNL     1      66.399   5.884   8.832  1.00  0.00    -0.384 N 
HETATM   16  H   UNL     1      66.871   6.275   9.602  1.00  0.00     0.157 HD
HETATM   17  H   UNL     1      66.194   4.922   8.816  1.00  0.00     0.157 HD
ENDBRANCH   5  15
TORSDOF 2
ENDMDL
MODEL 7
REMARK VINA RESULT:      -5.1      2.757      4.144
REMARK  2 active torsions:
REMARK  status: ('A' for Active; 'I' for Inactive)
REMARK    1  A    between atoms: C_4  and  C_7 
REMARK    2  A    between atoms: C_5  and  N_8 
ROOT
HETATM    1  C   UNL     1      74.560   0.446  16.325  1.00  0.00     0.081 A 
HETATM    2  N   UNL     1      74.716   0.603  18.591  1.00  0.00    -0.298 N 
ATOM      3  HN  UNL     1      74.893   0.934  19.539  1.00  0.00     0.187 HD
HETATM    4  C   UNL     1      74.892   1.270  17.437  1.00  0.00     0.062 A 
HETATM    5  C   UNL     1      74.151  -0.749  16.856  1.00  0.00     0.115 A 
HETATM    6  N   UNL     1      74.251  -0.600  18.210  1.00  0.00    -0.285 N 
HETATM    7  H   UNL     1      74.007  -1.309  18.849  1.00  0.00     0.188 HD
ENDROOT
BRANCH   4   8
HETATM    8  C   UNL     1      75.375   2.651  17.407  1.00  0.00    -0.008 A 
HETATM    9  C   UNL     1      76.554   3.010  18.078  1.00  0.00     0.015 A 
HETATM   10  C   UNL     1      77.033   4.323  18.024  1.00  0.00     0.024 A 
HETATM   11  C   UNL     1      76.328   5.287  17.306  1.00  0.00     0.034 A 
HETATM   12  C   UNL     1      75.147   4.952  16.647  1.00  0.00     0.024 A 
HETATM   13 CL   UNL     1      76.918   6.901  17.229  1.00  0.00    -0.084 Cl
HETATM   14  C   UNL     1      74.673   3.637  16.698  1.00  0.00     0.015 A 
ENDBRANCH   4   8
BRANCH   5  15
HETATM   15  N   UNL     1      73.721  -1.881  16.276  1.00  0.00    -0.384 N 
HETATM   16  H   UNL     1      73.809  -1.999  15.303  1.00  0.00     0.157 HD
HETATM   17  H   UNL     1      73.317  -2.591  16.825  1.00  0.00     0.157 HD
ENDBRANCH   5  15
TORSDOF 2
ENDMDL
MODEL 8
REMARK VINA RESULT:      -5.0     21.379     22.307
REMARK  2 active torsions:
REMARK  status: ('A' for Active; 'I' for Inactive)
REMARK    1  A    between atoms: C_4  and  C_7 
REMARK    2  A    between atoms: C_5  and  N_8 
ROOT
HETATM    1  C   UNL     1      62.200   9.620   3.461  1.00  0.00     0.081 A 
HETATM    2  N   UNL     1      61.419  11.091   1.908  1.00  0.00    -0.298 N 
ATOM      3  HN  UNL     1      61.054  11.509   1.052  1.00  0.00     0.187 HD
HETATM    4  C   UNL     1      61.662   9.791   2.154  1.00  0.00     0.062 A 
HETATM    5  C   UNL     1      62.254  10.874   4.008  1.00  0.00     0.115 A 
HETATM    6  N   UNL     1      61.766  11.713   3.048  1.00  0.00    -0.285 N 
HETATM    7  H   UNL     1      61.678  12.686   3.177  1.00  0.00     0.188 HD
ENDROOT
BRANCH   4   8
HETATM    8  C   UNL     1      61.395   8.751   1.159  1.00  0.00    -0.008 A 
HETATM    9  C   UNL     1      62.446   8.170   0.433  1.00  0.00     0.015 A 
HETATM   10  C   UNL     1      62.194   7.155  -0.495  1.00  0.00     0.024 A 
HETATM   11  C   UNL     1      60.887   6.722  -0.710  1.00  0.00     0.034 A 
HETATM   12  C   UNL     1      59.830   7.300  -0.010  1.00  0.00     0.024 A 
HETATM   13 CL   UNL     1      60.575   5.467  -1.844  1.00  0.00    -0.084 Cl
HETATM   14  C   UNL     1      60.084   8.311   0.922  1.00  0.00     0.015 A 
ENDBRANCH   4   8
BRANCH   5  15
HETATM   15  N   UNL     1      62.667  11.304   5.212  1.00  0.00    -0.384 N 
HETATM   16  H   UNL     1      62.965  12.234   5.326  1.00  0.00     0.157 HD
HETATM   17  H   UNL     1      62.669  10.688   5.979  1.00  0.00     0.157 HD
ENDBRANCH   5  15
TORSDOF 2
ENDMDL
MODEL 9
REMARK VINA RESULT:      -5.0     14.068     14.893
REMARK  2 active torsions:
REMARK  status: ('A' for Active; 'I' for Inactive)
REMARK    1  A    between atoms: C_4  and  C_7 
REMARK    2  A    between atoms: C_5  and  N_8 
ROOT
HETATM    1  C   UNL     1      64.363   6.653   6.277  1.00  0.00     0.081 A 
HETATM    2  N   UNL     1      65.819   8.404   6.298  1.00  0.00    -0.298 N 
ATOM      3  HN  UNL     1      66.631   9.000   6.457  1.00  0.00     0.187 HD
HETATM    4  C   UNL     1      65.655   7.118   6.652  1.00  0.00     0.062 A 
HETATM    5  C   UNL     1      63.753   7.711   5.657  1.00  0.00     0.115 A 
HETATM    6  N   UNL     1      64.666   8.727   5.685  1.00  0.00    -0.285 N 
HETATM    7  H   UNL     1      64.496   9.614   5.293  1.00  0.00     0.188 HD
ENDROOT
BRANCH   4   8
HETATM    8  C   UNL     1      66.706   6.364   7.339  1.00  0.00    -0.008 A 
HETATM    9  C   UNL     1      67.061   6.677   8.660  1.00  0.00     0.015 A 
HETATM   10  C   UNL     1      68.043   5.937   9.327  1.00  0.00     0.024 A 
HETATM   11  C   UNL     1      68.683   4.887   8.672  1.00  0.00     0.034 A 
HETATM   12  C   UNL     1      68.354   4.574   7.355  1.00  0.00     0.024 A 
HETATM   13 CL   UNL     1      69.884   3.969   9.492  1.00  0.00    -0.084 Cl
HETATM   14  C   UNL     1      67.368   5.310   6.691  1.00  0.00     0.015 A 
ENDBRANCH   4   8
BRANCH   5  15
HETATM   15  N   UNL     1      62.537   7.838   5.102  1.00  0.00    -0.384 N 
HETATM   16  H   UNL     1      61.905   8.508   5.449  1.00  0.00     0.157 HD
HETATM   17  H   UNL     1      62.279   7.262   4.347  1.00  0.00     0.157 HD
ENDBRANCH   5  15
TORSDOF 2
ENDMDL
