MODEL 1
REMARK VINA RESULT:      -5.7      0.000      0.000
REMARK  4 active torsions:
REMARK  status: ('A' for Active; 'I' for Inactive)
REMARK    1  A    between atoms: C_1  and  S_5 
REMARK    2  A    between atoms: C_2  and  C_4 
REMARK    3  A    between atoms: S_5  and  C_13 
REMARK    4  A    between atoms: C_12  and  C_13 
ROOT
HETATM    1  C   UNL     1      62.134   9.759   2.461  1.00  0.00     0.041 A 
HETATM    2  C   UNL     1      62.526   8.716   3.316  1.00  0.00     0.026 A 
HETATM    3  C   UNL     1      62.752   7.418   2.825  1.00  0.00    -0.048 A 
HETATM    4  C   UNL     1      61.974   9.516   1.094  1.00  0.00     0.018 A 
HETATM    5  C   UNL     1      62.202   8.237   0.588  1.00  0.00     0.002 A 
HETATM    6  C   UNL     1      62.592   7.203   1.444  1.00  0.00     0.008 A 
ENDROOT
BRANCH   3   7
HETATM    7  C   UNL     1      63.255   6.269   3.686  1.00  0.00     0.118 C 
BRANCH   7   8
HETATM    8  S   UNL     1      64.951   5.717   3.338  1.00  0.00    -0.118 SA
BRANCH   8   9
HETATM    9  C   UNL     1      65.905   6.622   4.503  1.00  0.00     0.041 A 
HETATM   10  S   UNL     1      65.274   7.228   5.974  1.00  0.00    -0.095 SA
HETATM   11  C   UNL     1      66.725   8.060   6.332  1.00  0.00     0.051 A 
HETATM   12  C   UNL     1      67.686   7.860   5.368  1.00  0.00     0.009 A 
HETATM   13  C   UNL     1      67.214   7.020   4.314  1.00  0.00     0.026 A 
ENDBRANCH   8   9
ENDBRANCH   7   8
ENDBRANCH   3   7
BRANCH   1  14
HETATM   14  C   UNL     1      61.921  11.104   3.048  1.00  0.00     0.209 C 
HETATM   15  O   UNL     1      61.774  11.354   4.229  1.00  0.00    -0.644 OA
HETATM   16  O   UNL     1      61.916  12.087   2.127  1.00  0.00    -0.644 OA
ENDBRANCH   1  14
TORSDOF 4
ENDMDL
MODEL 2
REMARK VINA RESULT:      -5.5      2.722      3.329
REMARK  4 active torsions:
REMARK  status: ('A' for Active; 'I' for Inactive)
REMARK    1  A    between atoms: C_1  and  S_5 
REMARK    2  A    between atoms: C_2  and  C_4 
REMARK    3  A    between atoms: S_5  and  C_13 
REMARK    4  A    between atoms: C_12  and  C_13 
ROOT
HETATM    1  C   UNL     1      63.389   9.309   4.613  1.00  0.00     0.041 A 
HETATM    2  C   UNL     1      64.574   8.810   5.176  1.00  0.00     0.026 A 
HETATM    3  C   UNL     1      65.158   7.619   4.708  1.00  0.00    -0.048 A 
HETATM    4  C   UNL     1      62.774   8.623   3.562  1.00  0.00     0.018 A 
HETATM    5  C   UNL     1      63.343   7.445   3.079  1.00  0.00     0.002 A 
HETATM    6  C   UNL     1      64.524   6.953   3.644  1.00  0.00     0.008 A 
ENDROOT
BRANCH   3   7
HETATM    7  C   UNL     1      66.481   7.074   5.221  1.00  0.00     0.118 C 
BRANCH   7   8
HETATM    8  S   UNL     1      66.653   5.265   5.169  1.00  0.00    -0.118 SA
BRANCH   8   9
HETATM    9  C   UNL     1      67.759   4.938   6.495  1.00  0.00     0.041 A 
HETATM   10  S   UNL     1      68.425   3.394   6.810  1.00  0.00    -0.095 SA
HETATM   11  C   UNL     1      69.153   3.929   8.262  1.00  0.00     0.051 A 
HETATM   12  C   UNL     1      68.921   5.265   8.494  1.00  0.00     0.009 A 
HETATM   13  C   UNL     1      68.121   5.851   7.466  1.00  0.00     0.026 A 
ENDBRANCH   8   9
ENDBRANCH   7   8
ENDBRANCH   3   7
BRANCH   1  14
HETATM   14  C   UNL     1      62.835  10.575   5.153  1.00  0.00     0.209 C 
HETATM   15  O   UNL     1      63.158  11.109   6.196  1.00  0.00    -0.644 OA
HETATM   16  O   UNL     1      61.906  11.129   4.350  1.00  0.00    -0.644 OA
ENDBRANCH   1  14
TORSDOF 4
ENDMDL
MODEL 3
REMARK VINA RESULT:      -5.5     18.364     19.818
REMARK  4 active torsions:
REMARK  status: ('A' for Active; 'I' for Inactive)
REMARK    1  A    between atoms: C_1  and  S_5 
REMARK    2  A    between atoms: C_2  and  C_4 
REMARK    3  A    between atoms: S_5  and  C_13 
REMARK    4  A    between atoms: C_12  and  C_13 
ROOT
HETATM    1  C   UNL     1      76.090   4.920  17.143  1.00  0.00     0.041 A 
HETATM    2  C   UNL     1      76.895   3.905  17.682  1.00  0.00     0.026 A 
HETATM    3  C   UNL     1      76.427   2.583  17.787  1.00  0.00    -0.048 A 
HETATM    4  C   UNL     1      74.803   4.622  16.688  1.00  0.00     0.018 A 
HETATM    5  C   UNL     1      74.325   3.314  16.775  1.00  0.00     0.002 A 
HETATM    6  C   UNL     1      75.131   2.307  17.314  1.00  0.00     0.008 A 
ENDROOT
BRANCH   3   7
HETATM    7  C   UNL     1      77.279   1.426  18.286  1.00  0.00     0.118 C 
BRANCH   7   8
HETATM    8  S   UNL     1      76.507  -0.215  18.183  1.00  0.00    -0.118 SA
BRANCH   8   9
HETATM    9  C   UNL     1      77.147  -0.857  16.678  1.00  0.00     0.041 A 
HETATM   10  S   UNL     1      77.918  -2.379  16.552  1.00  0.00    -0.095 SA
HETATM   11  C   UNL     1      78.346  -2.103  14.919  1.00  0.00     0.051 A 
HETATM   12  C   UNL     1      77.888  -0.888  14.464  1.00  0.00     0.009 A 
HETATM   13  C   UNL     1      77.186  -0.171  15.480  1.00  0.00     0.026 A 
ENDBRANCH   8   9
ENDBRANCH   7   8
ENDBRANCH   3   7
BRANCH   1  14
HETATM   14  C   UNL     1      76.652   6.290  17.057  1.00  0.00     0.209 C 
HETATM   15  O   UNL     1      76.883   7.029  17.995  1.00  0.00    -0.644 OA
HETATM   16  O   UNL     1      76.918   6.673  15.793  1.00  0.00    -0.644 OA
ENDBRANCH   1  14
TORSDOF 4
ENDMDL
MODEL 4
REMARK VINA RESULT:      -5.3      6.399      9.287
REMARK  4 active torsions:
REMARK  status: ('A' for Active; 'I' for Inactive)
REMARK    1  A    between atoms: C_1  and  S_5 
REMARK    2  A    between atoms: C_2  and  C_4 
REMARK    3  A    between atoms: S_5  and  C_13 
REMARK    4  A    between atoms: C_12  and  C_13 
ROOT
HETATM    1  C   UNL     1      69.061   3.140   9.623  1.00  0.00     0.041 A 
HETATM    2  C   UNL     1      67.823   3.376   9.005  1.00  0.00     0.026 A 
HETATM    3  C   UNL     1      67.602   4.531   8.235  1.00  0.00    -0.048 A 
HETATM    4  C   UNL     1      70.104   4.057   9.467  1.00  0.00     0.018 A 
HETATM    5  C   UNL     1      69.905   5.205   8.699  1.00  0.00     0.002 A 
HETATM    6  C   UNL     1      68.670   5.435   8.087  1.00  0.00     0.008 A 
ENDROOT
BRANCH   3   7
HETATM    7  C   UNL     1      66.311   4.802   7.477  1.00  0.00     0.118 C 
BRANCH   7   8
HETATM    8  S   UNL     1      66.517   5.405   5.775  1.00  0.00    -0.118 SA
BRANCH   8   9
HETATM    9  C   UNL     1      65.331   6.698   5.670  1.00  0.00     0.041 A 
HETATM   10  S   UNL     1      63.709   6.536   6.193  1.00  0.00    -0.095 SA
HETATM   11  C   UNL     1      63.288   8.077   5.581  1.00  0.00     0.051 A 
HETATM   12  C   UNL     1      64.365   8.720   5.014  1.00  0.00     0.009 A 
HETATM   13  C   UNL     1      65.549   7.924   5.075  1.00  0.00     0.026 A 
ENDBRANCH   8   9
ENDBRANCH   7   8
ENDBRANCH   3   7
BRANCH   1  14
HETATM   14  C   UNL     1      69.224   1.896  10.414  1.00  0.00     0.209 C 
HETATM   15  O   UNL     1      70.275   1.330  10.647  1.00  0.00    -0.644 OA
HETATM   16  O   UNL     1      68.059   1.420  10.894  1.00  0.00    -0.644 OA
ENDBRANCH   1  14
TORSDOF 4
ENDMDL
MODEL 5
REMARK VINA RESULT:      -5.3     19.211     21.678
REMARK  4 active torsions:
REMARK  status: ('A' for Active; 'I' for Inactive)
REMARK    1  A    between atoms: C_1  and  S_5 
REMARK    2  A    between atoms: C_2  and  C_4 
REMARK    3  A    between atoms: S_5  and  C_13 
REMARK    4  A    between atoms: C_12  and  C_13 
ROOT
HETATM    1  C   UNL     1      76.420   2.714  17.966  1.00  0.00     0.041 A 
HETATM    2  C   UNL     1      77.117   1.495  17.943  1.00  0.00     0.026 A 
HETATM    3  C   UNL     1      76.689   0.427  17.134  1.00  0.00    -0.048 A 
HETATM    4  C   UNL     1      75.286   2.884  17.168  1.00  0.00     0.018 A 
HETATM    5  C   UNL     1      74.852   1.839  16.353  1.00  0.00     0.002 A 
HETATM    6  C   UNL     1      75.549   0.627  16.334  1.00  0.00     0.008 A 
ENDROOT
BRANCH   3   7
HETATM    7  C   UNL     1      77.446  -0.886  17.005  1.00  0.00     0.118 C 
BRANCH   7   8
HETATM    8  S   UNL     1      77.163  -2.085  18.341  1.00  0.00    -0.118 SA
BRANCH   8   9
HETATM    9  C   UNL     1      77.907  -1.308  19.730  1.00  0.00     0.041 A 
HETATM   10  S   UNL     1      79.559  -0.867  19.793  1.00  0.00    -0.095 SA
HETATM   11  C   UNL     1      79.443  -0.404  21.435  1.00  0.00     0.051 A 
HETATM   12  C   UNL     1      78.166  -0.553  21.924  1.00  0.00     0.009 A 
HETATM   13  C   UNL     1      77.275  -1.068  20.934  1.00  0.00     0.026 A 
ENDBRANCH   8   9
ENDBRANCH   7   8
ENDBRANCH   3   7
BRANCH   1  14
HETATM   14  C   UNL     1      76.935   3.799  18.838  1.00  0.00     0.209 C 
HETATM   15  O   UNL     1      77.331   3.671  19.980  1.00  0.00    -0.644 OA
HETATM   16  O   UNL     1      76.945   5.002  18.232  1.00  0.00    -0.644 OA
ENDBRANCH   1  14
TORSDOF 4
ENDMDL
MODEL 6
REMARK VINA RESULT:      -5.3      5.553      8.443
REMARK  4 active torsions:
REMARK  status: ('A' for Active; 'I' for Inactive)
REMARK    1  A    between atoms: C_1  and  S_5 
REMARK    2  A    between atoms: C_2  and  C_4 
REMARK    3  A    between atoms: S_5  and  C_13 
REMARK    4  A    between atoms: C_12  and  C_13 
ROOT
HETATM    1  C   UNL     1      69.213   4.277   8.431  1.00  0.00     0.041 A 
HETATM    2  C   UNL     1      68.513   5.492   8.488  1.00  0.00     0.026 A 
HETATM    3  C   UNL     1      67.586   5.845   7.492  1.00  0.00    -0.048 A 
HETATM    4  C   UNL     1      68.985   3.389   7.376  1.00  0.00     0.018 A 
HETATM    5  C   UNL     1      68.062   3.719   6.383  1.00  0.00     0.002 A 
HETATM    6  C   UNL     1      67.368   4.931   6.445  1.00  0.00     0.008 A 
ENDROOT
BRANCH   3   7
HETATM    7  C   UNL     1      66.739   7.108   7.541  1.00  0.00     0.118 C 
BRANCH   7   8
HETATM    8  S   UNL     1      66.575   8.001   5.966  1.00  0.00    -0.118 SA
BRANCH   8   9
HETATM    9  C   UNL     1      64.848   7.928   5.651  1.00  0.00     0.041 A 
HETATM   10  S   UNL     1      63.824   6.710   6.280  1.00  0.00    -0.095 SA
HETATM   11  C   UNL     1      62.485   7.275   5.377  1.00  0.00     0.051 A 
HETATM   12  C   UNL     1      62.799   8.388   4.632  1.00  0.00     0.009 A 
HETATM   13  C   UNL     1      64.164   8.771   4.798  1.00  0.00     0.026 A 
ENDBRANCH   8   9
ENDBRANCH   7   8
ENDBRANCH   3   7
BRANCH   1  14
HETATM   14  C   UNL     1      70.170   3.967   9.521  1.00  0.00     0.209 C 
HETATM   15  O   UNL     1      69.963   3.232  10.467  1.00  0.00    -0.644 OA
HETATM   16  O   UNL     1      71.358   4.583   9.371  1.00  0.00    -0.644 OA
ENDBRANCH   1  14
TORSDOF 4
ENDMDL
MODEL 7
REMARK VINA RESULT:      -5.2      3.895      6.609
REMARK  4 active torsions:
REMARK  status: ('A' for Active; 'I' for Inactive)
REMARK    1  A    between atoms: C_1  and  S_5 
REMARK    2  A    between atoms: C_2  and  C_4 
REMARK    3  A    between atoms: S_5  and  C_13 
REMARK    4  A    between atoms: C_12  and  C_13 
ROOT
HETATM    1  C   UNL     1      66.590   6.443   7.213  1.00  0.00     0.041 A 
HETATM    2  C   UNL     1      65.216   6.630   6.994  1.00  0.00     0.026 A 
HETATM    3  C   UNL     1      64.746   7.290   5.845  1.00  0.00    -0.048 A 
HETATM    4  C   UNL     1      67.515   6.907   6.275  1.00  0.00     0.018 A 
HETATM    5  C   UNL     1      67.066   7.557   5.125  1.00  0.00     0.002 A 
HETATM    6  C   UNL     1      65.697   7.740   4.912  1.00  0.00     0.008 A 
ENDROOT
BRANCH   3   7
HETATM    7  C   UNL     1      63.270   7.451   5.513  1.00  0.00     0.118 C 
BRANCH   7   8
HETATM    8  S   UNL     1      62.838   7.254   3.759  1.00  0.00    -0.118 SA
BRANCH   8   9
HETATM    9  C   UNL     1      62.502   8.901   3.249  1.00  0.00     0.041 A 
HETATM   10  S   UNL     1      62.339  10.212   4.337  1.00  0.00    -0.095 SA
HETATM   11  C   UNL     1      61.870  11.280   3.086  1.00  0.00     0.051 A 
HETATM   12  C   UNL     1      61.864  10.663   1.856  1.00  0.00     0.009 A 
HETATM   13  C   UNL     1      62.239   9.289   1.950  1.00  0.00     0.026 A 
ENDBRANCH   8   9
ENDBRANCH   7   8
ENDBRANCH   3   7
BRANCH   1  14
HETATM   14  C   UNL     1      67.013   5.730   8.444  1.00  0.00     0.209 C 
HETATM   15  O   UNL     1      67.890   6.083   9.208  1.00  0.00    -0.644 OA
HETATM   16  O   UNL     1      66.304   4.608   8.674  1.00  0.00    -0.644 OA
ENDBRANCH   1  14
TORSDOF 4
ENDMDL
MODEL 8
REMARK VINA RESULT:      -5.2      2.947      5.034
REMARK  4 active torsions:
REMARK  status: ('A' for Active; 'I' for Inactive)
REMARK    1  A    between atoms: C_1  and  S_5 
REMARK    2  A    between atoms: C_2  and  C_4 
REMARK    3  A    between atoms: S_5  and  C_13 
REMARK    4  A    between atoms: C_12  and  C_13 
ROOT
HETATM    1  C   UNL     1      62.800   9.761   4.131  1.00  0.00     0.041 A 
HETATM    2  C   UNL     1      62.141   9.709   2.892  1.00  0.00     0.026 A 
HETATM    3  C   UNL     1      62.276   8.597   2.042  1.00  0.00    -0.048 A 
HETATM    4  C   UNL     1      63.599   8.691   4.541  1.00  0.00     0.018 A 
HETATM    5  C   UNL     1      63.738   7.575   3.715  1.00  0.00     0.002 A 
HETATM    6  C   UNL     1      63.079   7.529   2.483  1.00  0.00     0.008 A 
ENDROOT
BRANCH   3   7
HETATM    7  C   UNL     1      61.525   8.447   0.728  1.00  0.00     0.118 C 
BRANCH   7   8
HETATM    8  S   UNL     1      59.739   8.146   0.880  1.00  0.00    -0.118 SA
BRANCH   8   9
HETATM    9  C   UNL     1      59.637   7.083   2.275  1.00  0.00     0.041 A 
HETATM   10  S   UNL     1      59.902   5.394   2.197  1.00  0.00    -0.095 SA
HETATM   11  C   UNL     1      59.441   5.178   3.831  1.00  0.00     0.051 A 
HETATM   12  C   UNL     1      59.118   6.371   4.437  1.00  0.00     0.009 A 
HETATM   13  C   UNL     1      59.241   7.474   3.539  1.00  0.00     0.026 A 
ENDBRANCH   8   9
ENDBRANCH   7   8
ENDBRANCH   3   7
BRANCH   1  14
HETATM   14  C   UNL     1      62.605  10.963   4.978  1.00  0.00     0.209 C 
HETATM   15  O   UNL     1      63.039  11.123   6.103  1.00  0.00    -0.644 OA
HETATM   16  O   UNL     1      61.882  11.924   4.372  1.00  0.00    -0.644 OA
ENDBRANCH   1  14
TORSDOF 4
ENDMDL
MODEL 9
REMARK VINA RESULT:      -5.2     18.667     19.927
REMARK  4 active torsions:
REMARK  status: ('A' for Active; 'I' for Inactive)
REMARK    1  A    between atoms: C_1  and  S_5 
REMARK    2  A    between atoms: C_2  and  C_4 
REMARK    3  A    between atoms: S_5  and  C_13 
REMARK    4  A    between atoms: C_12  and  C_13 
ROOT
HETATM    1  C   UNL     1      76.344   2.738  17.901  1.00  0.00     0.041 A 
HETATM    2  C   UNL     1      77.069   1.556  17.680  1.00  0.00     0.026 A 
HETATM    3  C   UNL     1      76.582   0.552  16.825  1.00  0.00    -0.048 A 
HETATM    4  C   UNL     1      75.121   2.936  17.256  1.00  0.00     0.018 A 
HETATM    5  C   UNL     1      74.626   1.954  16.397  1.00  0.00     0.002 A 
HETATM    6  C   UNL     1      75.352   0.780  16.181  1.00  0.00     0.008 A 
ENDROOT
BRANCH   3   7
HETATM    7  C   UNL     1      77.358  -0.711  16.484  1.00  0.00     0.118 C 
BRANCH   7   8
HETATM    8  S   UNL     1      76.417  -1.992  15.602  1.00  0.00    -0.118 SA
BRANCH   8   9
HETATM    9  C   UNL     1      76.814  -1.682  13.919  1.00  0.00     0.041 A 
HETATM   10  S   UNL     1      76.247  -2.644  12.622  1.00  0.00    -0.095 SA
HETATM   11  C   UNL     1      77.207  -1.798  11.486  1.00  0.00     0.051 A 
HETATM   12  C   UNL     1      77.926  -0.783  12.073  1.00  0.00     0.009 A 
HETATM   13  C   UNL     1      77.691  -0.710  13.480  1.00  0.00     0.026 A 
ENDBRANCH   8   9
ENDBRANCH   7   8
ENDBRANCH   3   7
BRANCH   1  14
HETATM   14  C   UNL     1      76.923   3.756  18.811  1.00  0.00     0.209 C 
HETATM   15  O   UNL     1      77.349   3.554  19.932  1.00  0.00    -0.644 OA
HETATM   16  O   UNL     1      76.959   4.989  18.269  1.00  0.00    -0.644 OA
ENDBRANCH   1  14
TORSDOF 4
ENDMDL
