MODEL 1
REMARK VINA RESULT:      -5.8      0.000      0.000
REMARK  2 active torsions:
REMARK  status: ('A' for Active; 'I' for Inactive)
REMARK    1  A    between atoms: C_2  and  S_3 
REMARK    2  A    between atoms: C_4  and  C_11 
ROOT
HETATM    1  C   UNL     1      64.040   7.221   5.329  1.00  0.00     0.084 A 
HETATM    2  C   UNL     1      63.963   6.065   6.085  1.00  0.00     0.120 A 
HETATM    3  C   UNL     1      62.787   7.558   4.690  1.00  0.00     0.003 A 
HETATM    4  S   UNL     1      62.373   5.436   6.105  1.00  0.00    -0.088 SA
HETATM    5  C   UNL     1      61.801   6.659   5.061  1.00  0.00     0.065 A 
HETATM    6  C   UNL     1      65.256   7.976   5.204  1.00  0.00     0.102 C 
HETATM    7  N   UNL     1      66.210   8.622   5.072  1.00  0.00    -0.191 NA
ENDROOT
BRANCH   2   8
HETATM    8  S   UNL     1      65.177   5.124   6.986  1.00  0.00     0.179 S 
HETATM    9  O   UNL     1      65.766   6.052   7.930  1.00  0.00    -0.222 OA
HETATM   10  O   UNL     1      64.484   3.933   7.428  1.00  0.00    -0.222 OA
HETATM   11  C   UNL     1      66.386   4.650   5.784  1.00  0.00     0.167 C 
ENDBRANCH   2   8
BRANCH   3  12
HETATM   12  C   UNL     1      62.502   8.659   3.757  1.00  0.00    -0.024 A 
HETATM   13  C   UNL     1      62.279   9.958   4.239  1.00  0.00     0.012 A 
HETATM   14  C   UNL     1      61.963  11.005   3.368  1.00  0.00     0.001 A 
HETATM   15  C   UNL     1      61.902  10.777   1.999  1.00  0.00     0.000 A 
HETATM   16  C   UNL     1      62.155   9.502   1.497  1.00  0.00     0.001 A 
HETATM   17  C   UNL     1      62.446   8.447   2.371  1.00  0.00     0.012 A 
ENDBRANCH   3  12
TORSDOF 2
ENDMDL
MODEL 2
REMARK VINA RESULT:      -5.7      3.539      7.719
REMARK  2 active torsions:
REMARK  status: ('A' for Active; 'I' for Inactive)
REMARK    1  A    between atoms: C_2  and  S_3 
REMARK    2  A    between atoms: C_4  and  C_11 
ROOT
HETATM    1  C   UNL     1      66.659   5.899   7.400  1.00  0.00     0.084 A 
HETATM    2  C   UNL     1      66.088   6.395   6.241  1.00  0.00     0.120 A 
HETATM    3  C   UNL     1      67.516   4.759   7.159  1.00  0.00     0.003 A 
HETATM    4  S   UNL     1      66.648   5.558   4.860  1.00  0.00    -0.088 SA
HETATM    5  C   UNL     1      67.597   4.497   5.802  1.00  0.00     0.065 A 
HETATM    6  C   UNL     1      66.397   6.473   8.690  1.00  0.00     0.102 C 
HETATM    7  N   UNL     1      66.221   6.899   9.754  1.00  0.00    -0.191 NA
ENDROOT
BRANCH   2   8
HETATM    8  S   UNL     1      64.895   7.681   5.933  1.00  0.00     0.179 S 
HETATM    9  O   UNL     1      63.762   7.370   6.782  1.00  0.00    -0.222 OA
HETATM   10  O   UNL     1      65.627   8.921   6.071  1.00  0.00    -0.222 OA
HETATM   11  C   UNL     1      64.434   7.492   4.234  1.00  0.00     0.167 C 
ENDBRANCH   2   8
BRANCH   3  12
HETATM   12  C   UNL     1      68.227   3.925   8.140  1.00  0.00    -0.024 A 
HETATM   13  C   UNL     1      67.754   2.642   8.456  1.00  0.00     0.012 A 
HETATM   14  C   UNL     1      68.394   1.856   9.418  1.00  0.00     0.001 A 
HETATM   15  C   UNL     1      69.539   2.325  10.052  1.00  0.00     0.000 A 
HETATM   16  C   UNL     1      70.044   3.582   9.727  1.00  0.00     0.001 A 
HETATM   17  C   UNL     1      69.389   4.381   8.782  1.00  0.00     0.012 A 
ENDBRANCH   3  12
TORSDOF 2
ENDMDL
MODEL 3
REMARK VINA RESULT:      -5.6      1.548      2.100
REMARK  2 active torsions:
REMARK  status: ('A' for Active; 'I' for Inactive)
REMARK    1  A    between atoms: C_2  and  S_3 
REMARK    2  A    between atoms: C_4  and  C_11 
ROOT
HETATM    1  C   UNL     1      64.495   7.165   4.711  1.00  0.00     0.084 A 
HETATM    2  C   UNL     1      64.831   5.828   4.827  1.00  0.00     0.120 A 
HETATM    3  C   UNL     1      63.401   7.390   3.792  1.00  0.00     0.003 A 
HETATM    4  S   UNL     1      63.782   4.837   3.910  1.00  0.00    -0.088 SA
HETATM    5  C   UNL     1      62.922   6.184   3.309  1.00  0.00     0.065 A 
HETATM    6  C   UNL     1      65.188   8.195   5.434  1.00  0.00     0.102 C 
HETATM    7  N   UNL     1      65.712   9.064   5.994  1.00  0.00    -0.191 NA
ENDROOT
BRANCH   2   8
HETATM    8  S   UNL     1      66.129   4.976   5.700  1.00  0.00     0.179 S 
HETATM    9  O   UNL     1      65.930   3.570   5.415  1.00  0.00    -0.222 OA
HETATM   10  O   UNL     1      67.350   5.659   5.328  1.00  0.00    -0.222 OA
HETATM   11  C   UNL     1      65.819   5.285   7.415  1.00  0.00     0.167 C 
ENDBRANCH   2   8
BRANCH   3  12
HETATM   12  C   UNL     1      62.821   8.670   3.356  1.00  0.00    -0.024 A 
HETATM   13  C   UNL     1      62.489   8.876   2.008  1.00  0.00     0.012 A 
HETATM   14  C   UNL     1      61.978  10.102   1.572  1.00  0.00     0.001 A 
HETATM   15  C   UNL     1      61.756  11.128   2.483  1.00  0.00     0.000 A 
HETATM   16  C   UNL     1      62.046  10.931   3.831  1.00  0.00     0.001 A 
HETATM   17  C   UNL     1      62.582   9.712   4.265  1.00  0.00     0.012 A 
ENDBRANCH   3  12
TORSDOF 2
ENDMDL
MODEL 4
REMARK VINA RESULT:      -5.5      2.066      2.952
REMARK  2 active torsions:
REMARK  status: ('A' for Active; 'I' for Inactive)
REMARK    1  A    between atoms: C_2  and  S_3 
REMARK    2  A    between atoms: C_4  and  C_11 
ROOT
HETATM    1  C   UNL     1      64.911   6.558   5.981  1.00  0.00     0.084 A 
HETATM    2  C   UNL     1      66.131   6.101   6.447  1.00  0.00     0.120 A 
HETATM    3  C   UNL     1      65.026   7.781   5.216  1.00  0.00     0.003 A 
HETATM    4  S   UNL     1      67.419   7.080   5.893  1.00  0.00    -0.088 SA
HETATM    5  C   UNL     1      66.355   8.146   5.090  1.00  0.00     0.065 A 
HETATM    6  C   UNL     1      63.680   5.872   6.256  1.00  0.00     0.102 C 
HETATM    7  N   UNL     1      62.658   5.357   6.448  1.00  0.00    -0.191 NA
ENDROOT
BRANCH   2   8
HETATM    8  S   UNL     1      66.593   4.745   7.506  1.00  0.00     0.179 S 
HETATM    9  O   UNL     1      66.045   5.066   8.808  1.00  0.00    -0.222 OA
HETATM   10  O   UNL     1      66.197   3.551   6.791  1.00  0.00    -0.222 OA
HETATM   11  C   UNL     1      68.361   4.791   7.577  1.00  0.00     0.167 C 
ENDBRANCH   2   8
BRANCH   3  12
HETATM   12  C   UNL     1      63.952   8.598   4.632  1.00  0.00    -0.024 A 
HETATM   13  C   UNL     1      63.325   8.201   3.440  1.00  0.00     0.012 A 
HETATM   14  C   UNL     1      62.334   8.990   2.850  1.00  0.00     0.001 A 
HETATM   15  C   UNL     1      61.928  10.171   3.461  1.00  0.00     0.000 A 
HETATM   16  C   UNL     1      62.513  10.565   4.662  1.00  0.00     0.001 A 
HETATM   17  C   UNL     1      63.524   9.788   5.242  1.00  0.00     0.012 A 
ENDBRANCH   3  12
TORSDOF 2
ENDMDL
MODEL 5
REMARK VINA RESULT:      -5.4      3.233      6.658
REMARK  2 active torsions:
REMARK  status: ('A' for Active; 'I' for Inactive)
REMARK    1  A    between atoms: C_2  and  S_3 
REMARK    2  A    between atoms: C_4  and  C_11 
ROOT
HETATM    1  C   UNL     1      65.317   6.282   6.685  1.00  0.00     0.084 A 
HETATM    2  C   UNL     1      63.999   6.172   6.278  1.00  0.00     0.120 A 
HETATM    3  C   UNL     1      65.873   5.022   7.127  1.00  0.00     0.003 A 
HETATM    4  S   UNL     1      63.459   4.551   6.338  1.00  0.00    -0.088 SA
HETATM    5  C   UNL     1      64.950   4.004   6.963  1.00  0.00     0.065 A 
HETATM    6  C   UNL     1      66.023   7.532   6.668  1.00  0.00     0.102 C 
HETATM    7  N   UNL     1      66.639   8.515   6.672  1.00  0.00    -0.191 NA
ENDROOT
BRANCH   2   8
HETATM    8  S   UNL     1      62.790   7.369   5.750  1.00  0.00     0.179 S 
HETATM    9  O   UNL     1      62.553   8.214   6.903  1.00  0.00    -0.222 OA
HETATM   10  O   UNL     1      63.304   7.908   4.509  1.00  0.00    -0.222 OA
HETATM   11  C   UNL     1      61.333   6.432   5.389  1.00  0.00     0.167 C 
ENDBRANCH   2   8
BRANCH   3  12
HETATM   12  C   UNL     1      67.204   4.759   7.697  1.00  0.00    -0.024 A 
HETATM   13  C   UNL     1      68.068   3.838   7.086  1.00  0.00     0.012 A 
HETATM   14  C   UNL     1      69.318   3.546   7.641  1.00  0.00     0.001 A 
HETATM   15  C   UNL     1      69.737   4.197   8.795  1.00  0.00     0.000 A 
HETATM   16  C   UNL     1      68.908   5.140   9.397  1.00  0.00     0.001 A 
HETATM   17  C   UNL     1      67.646   5.416   8.857  1.00  0.00     0.012 A 
ENDBRANCH   3  12
TORSDOF 2
ENDMDL
MODEL 6
REMARK VINA RESULT:      -5.4      4.927      6.573
REMARK  2 active torsions:
REMARK  status: ('A' for Active; 'I' for Inactive)
REMARK    1  A    between atoms: C_2  and  S_3 
REMARK    2  A    between atoms: C_4  and  C_11 
ROOT
HETATM    1  C   UNL     1      67.807   3.581   8.310  1.00  0.00     0.084 A 
HETATM    2  C   UNL     1      68.688   3.081   9.252  1.00  0.00     0.120 A 
HETATM    3  C   UNL     1      68.221   4.861   7.778  1.00  0.00     0.003 A 
HETATM    4  S   UNL     1      70.052   4.097   9.433  1.00  0.00    -0.088 SA
HETATM    5  C   UNL     1      69.445   5.230   8.310  1.00  0.00     0.065 A 
HETATM    6  C   UNL     1      66.612   2.880   7.931  1.00  0.00     0.102 C 
HETATM    7  N   UNL     1      65.636   2.356   7.589  1.00  0.00    -0.191 NA
ENDROOT
BRANCH   2   8
HETATM    8  S   UNL     1      68.654   1.642  10.300  1.00  0.00     0.179 S 
HETATM    9  O   UNL     1      69.827   1.749  11.144  1.00  0.00    -0.222 OA
HETATM   10  O   UNL     1      67.319   1.610  10.859  1.00  0.00    -0.222 OA
HETATM   11  C   UNL     1      68.833   0.263   9.205  1.00  0.00     0.167 C 
ENDBRANCH   2   8
BRANCH   3  12
HETATM   12  C   UNL     1      67.512   5.729   6.825  1.00  0.00    -0.024 A 
HETATM   13  C   UNL     1      66.822   6.865   7.277  1.00  0.00     0.012 A 
HETATM   14  C   UNL     1      66.108   7.674   6.388  1.00  0.00     0.001 A 
HETATM   15  C   UNL     1      66.102   7.380   5.030  1.00  0.00     0.000 A 
HETATM   16  C   UNL     1      66.809   6.277   4.557  1.00  0.00     0.001 A 
HETATM   17  C   UNL     1      67.504   5.451   5.449  1.00  0.00     0.012 A 
ENDBRANCH   3  12
TORSDOF 2
ENDMDL
MODEL 7
REMARK VINA RESULT:      -5.3      2.569      2.986
REMARK  2 active torsions:
REMARK  status: ('A' for Active; 'I' for Inactive)
REMARK    1  A    between atoms: C_2  and  S_3 
REMARK    2  A    between atoms: C_4  and  C_11 
ROOT
HETATM    1  C   UNL     1      64.220   7.729   4.479  1.00  0.00     0.084 A 
HETATM    2  C   UNL     1      65.403   7.161   4.918  1.00  0.00     0.120 A 
HETATM    3  C   UNL     1      63.736   7.138   3.250  1.00  0.00     0.003 A 
HETATM    4  S   UNL     1      65.884   5.864   3.913  1.00  0.00    -0.088 SA
HETATM    5  C   UNL     1      64.560   6.095   2.861  1.00  0.00     0.065 A 
HETATM    6  C   UNL     1      63.574   8.799   5.187  1.00  0.00     0.102 C 
HETATM    7  N   UNL     1      63.012   9.661   5.721  1.00  0.00    -0.191 NA
ENDROOT
BRANCH   2   8
HETATM    8  S   UNL     1      66.498   7.537   6.271  1.00  0.00     0.179 S 
HETATM    9  O   UNL     1      67.777   6.962   5.905  1.00  0.00    -0.222 OA
HETATM   10  O   UNL     1      66.345   8.957   6.502  1.00  0.00    -0.222 OA
HETATM   11  C   UNL     1      65.833   6.671   7.664  1.00  0.00     0.167 C 
ENDBRANCH   2   8
BRANCH   3  12
HETATM   12  C   UNL     1      62.565   7.524   2.448  1.00  0.00    -0.024 A 
HETATM   13  C   UNL     1      62.548   8.747   1.760  1.00  0.00     0.012 A 
HETATM   14  C   UNL     1      61.425   9.147   1.030  1.00  0.00     0.001 A 
HETATM   15  C   UNL     1      60.316   8.313   0.946  1.00  0.00     0.000 A 
HETATM   16  C   UNL     1      60.327   7.079   1.593  1.00  0.00     0.001 A 
HETATM   17  C   UNL     1      61.441   6.689   2.345  1.00  0.00     0.012 A 
ENDBRANCH   3  12
TORSDOF 2
ENDMDL
MODEL 8
REMARK VINA RESULT:      -5.3      3.397      7.295
REMARK  2 active torsions:
REMARK  status: ('A' for Active; 'I' for Inactive)
REMARK    1  A    between atoms: C_2  and  S_3 
REMARK    2  A    between atoms: C_4  and  C_11 
ROOT
HETATM    1  C   UNL     1      65.661   5.662   7.001  1.00  0.00     0.084 A 
HETATM    2  C   UNL     1      65.213   6.816   6.384  1.00  0.00     0.120 A 
HETATM    3  C   UNL     1      67.069   5.711   7.328  1.00  0.00     0.003 A 
HETATM    4  S   UNL     1      66.452   7.990   6.279  1.00  0.00    -0.088 SA
HETATM    5  C   UNL     1      67.598   6.946   6.994  1.00  0.00     0.065 A 
HETATM    6  C   UNL     1      64.794   4.548   7.264  1.00  0.00     0.102 C 
HETATM    7  N   UNL     1      64.137   3.622   7.500  1.00  0.00    -0.191 NA
ENDROOT
BRANCH   2   8
HETATM    8  S   UNL     1      63.648   7.281   5.673  1.00  0.00     0.179 S 
HETATM    9  O   UNL     1      63.350   6.260   4.690  1.00  0.00    -0.222 OA
HETATM   10  O   UNL     1      62.775   7.525   6.801  1.00  0.00    -0.222 OA
HETATM   11  C   UNL     1      63.947   8.824   4.857  1.00  0.00     0.167 C 
ENDBRANCH   2   8
BRANCH   3  12
HETATM   12  C   UNL     1      67.910   4.656   7.914  1.00  0.00    -0.024 A 
HETATM   13  C   UNL     1      68.463   4.817   9.194  1.00  0.00     0.012 A 
HETATM   14  C   UNL     1      69.299   3.843   9.745  1.00  0.00     0.001 A 
HETATM   15  C   UNL     1      69.566   2.674   9.041  1.00  0.00     0.000 A 
HETATM   16  C   UNL     1      68.998   2.479   7.784  1.00  0.00     0.001 A 
HETATM   17  C   UNL     1      68.181   3.466   7.220  1.00  0.00     0.012 A 
ENDBRANCH   3  12
TORSDOF 2
ENDMDL
MODEL 9
REMARK VINA RESULT:      -5.1      2.764      3.449
REMARK  2 active torsions:
REMARK  status: ('A' for Active; 'I' for Inactive)
REMARK    1  A    between atoms: C_2  and  S_3 
REMARK    2  A    between atoms: C_4  and  C_11 
ROOT
HETATM    1  C   UNL     1      63.593   7.921   3.718  1.00  0.00     0.084 A 
HETATM    2  C   UNL     1      64.310   8.521   4.737  1.00  0.00     0.120 A 
HETATM    3  C   UNL     1      62.378   8.633   3.392  1.00  0.00     0.003 A 
HETATM    4  S   UNL     1      63.578   9.983   5.240  1.00  0.00    -0.088 SA
HETATM    5  C   UNL     1      62.278   9.787   4.151  1.00  0.00     0.065 A 
HETATM    6  C   UNL     1      64.034   6.712   3.080  1.00  0.00     0.102 C 
HETATM    7  N   UNL     1      64.345   5.738   2.532  1.00  0.00    -0.191 NA
ENDROOT
BRANCH   2   8
HETATM    8  S   UNL     1      65.787   8.057   5.617  1.00  0.00     0.179 S 
HETATM    9  O   UNL     1      66.752   7.702   4.596  1.00  0.00    -0.222 OA
HETATM   10  O   UNL     1      66.032   9.137   6.548  1.00  0.00    -0.222 OA
HETATM   11  C   UNL     1      65.345   6.614   6.543  1.00  0.00     0.167 C 
ENDBRANCH   2   8
BRANCH   3  12
HETATM   12  C   UNL     1      61.331   8.264   2.427  1.00  0.00    -0.024 A 
HETATM   13  C   UNL     1      60.118   7.713   2.870  1.00  0.00     0.012 A 
HETATM   14  C   UNL     1      59.133   7.317   1.962  1.00  0.00     0.001 A 
HETATM   15  C   UNL     1      59.329   7.498   0.598  1.00  0.00     0.000 A 
HETATM   16  C   UNL     1      60.511   8.075   0.140  1.00  0.00     0.001 A 
HETATM   17  C   UNL     1      61.510   8.450   1.047  1.00  0.00     0.012 A 
ENDBRANCH   3  12
TORSDOF 2
ENDMDL
