MODEL 1
REMARK VINA RESULT:      -5.2      0.000      0.000
REMARK  6 active torsions:
REMARK  status: ('A' for Active; 'I' for Inactive)
REMARK    1  A    between atoms: C_2  and  S_8 
REMARK    2  A    between atoms: C_4  and  C_6 
REMARK    3  A    between atoms: C_6  and  O_12 
REMARK    4  A    between atoms: S_8  and  C_15 
REMARK    5  A    between atoms: O_12  and  C_16 
REMARK    6  A    between atoms: C_15  and  C_17 
ROOT
HETATM    1  C   UNL     1      62.996   8.887   3.751  1.00  0.00     0.041 C 
HETATM    2  C   UNL     1      63.649   7.733   4.148  1.00  0.00     0.056 C 
HETATM    3  C   UNL     1      62.487   8.767   2.395  1.00  0.00    -0.019 C 
HETATM    4  C   UNL     1      62.773   7.528   1.835  1.00  0.00     0.088 C 
HETATM    5  S   UNL     1      63.839   6.644   2.839  1.00  0.00    -0.076 SA
HETATM    6  C   UNL     1      62.756  10.096   4.551  1.00  0.00     0.162 C 
HETATM    7  O   UNL     1      63.225  10.278   5.672  1.00  0.00    -0.292 OA
HETATM    8  C   UNL     1      61.677   9.871   1.771  1.00  0.00     0.042 C 
HETATM    9  C   UNL     1      61.803  11.121   3.953  1.00  0.00     0.084 C 
HETATM   10  C   UNL     1      61.954  11.217   2.440  1.00  0.00     0.012 C 
ENDROOT
BRANCH   4  11
HETATM   11  C   UNL     1      62.318   6.906   0.602  1.00  0.00     0.300 C 
HETATM   12  O   UNL     1      62.978   6.737  -0.422  1.00  0.00    -0.259 OA
BRANCH  11  13
HETATM   13  O   UNL     1      61.035   6.464   0.759  1.00  0.00    -0.317 OA
BRANCH  13  14
HETATM   14  C   UNL     1      60.038   7.048  -0.082  1.00  0.00     0.174 C 
HETATM   15  C   UNL     1      58.939   7.681   0.750  1.00  0.00     0.034 C 
ENDBRANCH  13  14
ENDBRANCH  11  13
ENDBRANCH   4  11
BRANCH   2  16
HETATM   16  S   UNL     1      64.291   7.271   5.719  1.00  0.00    -0.122 SA
BRANCH  16  17
HETATM   17  C   UNL     1      65.929   8.077   5.717  1.00  0.00     0.080 C 
BRANCH  17  18
HETATM   18  C   UNL     1      66.987   7.487   4.780  1.00  0.00     0.006 C 
HETATM   19  C   UNL     1      67.388   6.048   5.067  1.00  0.00     0.006 C 
ENDBRANCH  17  18
ENDBRANCH  16  17
ENDBRANCH   2  16
TORSDOF 6
ENDMDL
MODEL 2
REMARK VINA RESULT:      -5.0      1.844      2.401
REMARK  6 active torsions:
REMARK  status: ('A' for Active; 'I' for Inactive)
REMARK    1  A    between atoms: C_2  and  S_8 
REMARK    2  A    between atoms: C_4  and  C_6 
REMARK    3  A    between atoms: C_6  and  O_12 
REMARK    4  A    between atoms: S_8  and  C_15 
REMARK    5  A    between atoms: O_12  and  C_16 
REMARK    6  A    between atoms: C_15  and  C_17 
ROOT
HETATM    1  C   UNL     1      64.043   8.770   4.585  1.00  0.00     0.041 C 
HETATM    2  C   UNL     1      65.077   7.927   4.957  1.00  0.00     0.056 C 
HETATM    3  C   UNL     1      63.236   8.183   3.529  1.00  0.00    -0.019 C 
HETATM    4  C   UNL     1      63.691   6.924   3.158  1.00  0.00     0.088 C 
HETATM    5  S   UNL     1      65.196   6.585   3.899  1.00  0.00    -0.076 SA
HETATM    6  C   UNL     1      63.705  10.076   5.168  1.00  0.00     0.162 C 
HETATM    7  O   UNL     1      64.394  10.649   6.009  1.00  0.00    -0.292 OA
HETATM    8  C   UNL     1      62.010   8.885   3.010  1.00  0.00     0.042 C 
HETATM    9  C   UNL     1      62.377  10.681   4.736  1.00  0.00     0.084 C 
HETATM   10  C   UNL     1      62.073  10.389   3.272  1.00  0.00     0.012 C 
ENDROOT
BRANCH   4  11
HETATM   11  C   UNL     1      63.107   5.910   2.295  1.00  0.00     0.300 C 
HETATM   12  O   UNL     1      62.175   5.157   2.573  1.00  0.00    -0.259 OA
BRANCH  11  13
HETATM   13  O   UNL     1      63.712   5.947   1.072  1.00  0.00    -0.317 OA
BRANCH  13  14
HETATM   14  C   UNL     1      62.862   6.059  -0.071  1.00  0.00     0.174 C 
HETATM   15  C   UNL     1      62.572   7.516  -0.382  1.00  0.00     0.034 C 
ENDBRANCH  13  14
ENDBRANCH  11  13
ENDBRANCH   4  11
BRANCH   2  16
HETATM   16  S   UNL     1      66.228   8.053   6.280  1.00  0.00    -0.122 SA
BRANCH  16  17
HETATM   17  C   UNL     1      65.917   6.512   7.208  1.00  0.00     0.080 C 
BRANCH  17  18
HETATM   18  C   UNL     1      66.332   6.499   8.682  1.00  0.00     0.006 C 
HETATM   19  C   UNL     1      67.763   6.063   8.956  1.00  0.00     0.006 C 
ENDBRANCH  17  18
ENDBRANCH  16  17
ENDBRANCH   2  16
TORSDOF 6
ENDMDL
MODEL 3
REMARK VINA RESULT:      -4.9      1.410      2.215
REMARK  6 active torsions:
REMARK  status: ('A' for Active; 'I' for Inactive)
REMARK    1  A    between atoms: C_2  and  S_8 
REMARK    2  A    between atoms: C_4  and  C_6 
REMARK    3  A    between atoms: C_6  and  O_12 
REMARK    4  A    between atoms: S_8  and  C_15 
REMARK    5  A    between atoms: O_12  and  C_16 
REMARK    6  A    between atoms: C_15  and  C_17 
ROOT
HETATM    1  C   UNL     1      63.022   8.921   3.752  1.00  0.00     0.041 C 
HETATM    2  C   UNL     1      63.683   7.767   4.138  1.00  0.00     0.056 C 
HETATM    3  C   UNL     1      62.485   8.798   2.408  1.00  0.00    -0.019 C 
HETATM    4  C   UNL     1      62.757   7.557   1.844  1.00  0.00     0.088 C 
HETATM    5  S   UNL     1      63.844   6.675   2.829  1.00  0.00    -0.076 SA
HETATM    6  C   UNL     1      62.801  10.132   4.554  1.00  0.00     0.162 C 
HETATM    7  O   UNL     1      63.293  10.317   5.664  1.00  0.00    -0.292 OA
HETATM    8  C   UNL     1      61.663   9.901   1.797  1.00  0.00     0.042 C 
HETATM    9  C   UNL     1      61.836  11.156   3.973  1.00  0.00     0.084 C 
HETATM   10  C   UNL     1      61.956  11.248   2.456  1.00  0.00     0.012 C 
ENDROOT
BRANCH   4  11
HETATM   11  C   UNL     1      62.276   6.932   0.623  1.00  0.00     0.300 C 
HETATM   12  O   UNL     1      62.850   6.906  -0.464  1.00  0.00    -0.259 OA
BRANCH  11  13
HETATM   13  O   UNL     1      61.089   6.303   0.869  1.00  0.00    -0.317 OA
BRANCH  13  14
HETATM   14  C   UNL     1      59.995   6.617   0.004  1.00  0.00     0.174 C 
HETATM   15  C   UNL     1      59.080   7.641   0.648  1.00  0.00     0.034 C 
ENDBRANCH  13  14
ENDBRANCH  11  13
ENDBRANCH   4  11
BRANCH   2  16
HETATM   16  S   UNL     1      64.357   7.309   5.696  1.00  0.00    -0.122 SA
BRANCH  16  17
HETATM   17  C   UNL     1      63.091   6.163   6.341  1.00  0.00     0.080 C 
BRANCH  17  18
HETATM   18  C   UNL     1      61.630   6.512   6.046  1.00  0.00     0.006 C 
HETATM   19  C   UNL     1      60.599   5.786   6.897  1.00  0.00     0.006 C 
ENDBRANCH  17  18
ENDBRANCH  16  17
ENDBRANCH   2  16
TORSDOF 6
ENDMDL
MODEL 4
REMARK VINA RESULT:      -4.8      1.858      5.587
REMARK  6 active torsions:
REMARK  status: ('A' for Active; 'I' for Inactive)
REMARK    1  A    between atoms: C_2  and  S_8 
REMARK    2  A    between atoms: C_4  and  C_6 
REMARK    3  A    between atoms: C_6  and  O_12 
REMARK    4  A    between atoms: S_8  and  C_15 
REMARK    5  A    between atoms: O_12  and  C_16 
REMARK    6  A    between atoms: C_15  and  C_17 
ROOT
HETATM    1  C   UNL     1      62.836   8.576   2.925  1.00  0.00     0.041 C 
HETATM    2  C   UNL     1      63.240   7.290   2.611  1.00  0.00     0.056 C 
HETATM    3  C   UNL     1      63.381   9.004   4.202  1.00  0.00    -0.019 C 
HETATM    4  C   UNL     1      64.176   8.027   4.788  1.00  0.00     0.088 C 
HETATM    5  S   UNL     1      64.052   6.554   3.927  1.00  0.00    -0.076 SA
HETATM    6  C   UNL     1      62.012   9.476   2.107  1.00  0.00     0.162 C 
HETATM    7  O   UNL     1      61.467   9.141   1.058  1.00  0.00    -0.292 OA
HETATM    8  C   UNL     1      63.138  10.396   4.721  1.00  0.00     0.042 C 
HETATM    9  C   UNL     1      61.919  10.920   2.581  1.00  0.00     0.084 C 
HETATM   10  C   UNL     1      61.885  11.013   4.102  1.00  0.00     0.012 C 
ENDROOT
BRANCH   4  11
HETATM   11  C   UNL     1      65.053   8.072   5.948  1.00  0.00     0.300 C 
HETATM   12  O   UNL     1      65.982   8.856   6.135  1.00  0.00    -0.259 OA
BRANCH  11  13
HETATM   13  O   UNL     1      64.654   7.137   6.858  1.00  0.00    -0.317 OA
BRANCH  13  14
HETATM   14  C   UNL     1      65.675   6.517   7.643  1.00  0.00     0.174 C 
HETATM   15  C   UNL     1      66.352   5.407   6.861  1.00  0.00     0.034 C 
ENDBRANCH  13  14
ENDBRANCH  11  13
ENDBRANCH   4  11
BRANCH   2  16
HETATM   16  S   UNL     1      63.025   6.358   1.134  1.00  0.00    -0.122 SA
BRANCH  16  17
HETATM   17  C   UNL     1      61.847   5.068   1.662  1.00  0.00     0.080 C 
BRANCH  17  18
HETATM   18  C   UNL     1      60.360   5.361   1.444  1.00  0.00     0.006 C 
HETATM   19  C   UNL     1      59.741   6.364   2.407  1.00  0.00     0.006 C 
ENDBRANCH  17  18
ENDBRANCH  16  17
ENDBRANCH   2  16
TORSDOF 6
ENDMDL
MODEL 5
REMARK VINA RESULT:      -4.8      1.846      2.006
REMARK  6 active torsions:
REMARK  status: ('A' for Active; 'I' for Inactive)
REMARK    1  A    between atoms: C_2  and  S_8 
REMARK    2  A    between atoms: C_4  and  C_6 
REMARK    3  A    between atoms: C_6  and  O_12 
REMARK    4  A    between atoms: S_8  and  C_15 
REMARK    5  A    between atoms: O_12  and  C_16 
REMARK    6  A    between atoms: C_15  and  C_17 
ROOT
HETATM    1  C   UNL     1      63.850   9.004   4.571  1.00  0.00     0.041 C 
HETATM    2  C   UNL     1      64.805   8.044   4.860  1.00  0.00     0.056 C 
HETATM    3  C   UNL     1      62.950   8.555   3.523  1.00  0.00    -0.019 C 
HETATM    4  C   UNL     1      63.260   7.276   3.075  1.00  0.00     0.088 C 
HETATM    5  S   UNL     1      64.748   6.752   3.738  1.00  0.00    -0.076 SA
HETATM    6  C   UNL     1      63.668  10.306   5.226  1.00  0.00     0.162 C 
HETATM    7  O   UNL     1      64.442  10.764   6.064  1.00  0.00    -0.292 OA
HETATM    8  C   UNL     1      61.784   9.401   3.087  1.00  0.00     0.042 C 
HETATM    9  C   UNL     1      62.394  11.063   4.878  1.00  0.00     0.084 C 
HETATM   10  C   UNL     1      62.010  10.876   3.415  1.00  0.00     0.012 C 
ENDROOT
BRANCH   4  11
HETATM   11  C   UNL     1      62.545   6.370   2.191  1.00  0.00     0.300 C 
HETATM   12  O   UNL     1      62.739   6.215   0.987  1.00  0.00    -0.259 OA
BRANCH  11  13
HETATM   13  O   UNL     1      61.641   5.646   2.913  1.00  0.00    -0.317 OA
BRANCH  13  14
HETATM   14  C   UNL     1      60.266   6.019   2.797  1.00  0.00     0.174 C 
HETATM   15  C   UNL     1      59.683   6.347   4.158  1.00  0.00     0.034 C 
ENDBRANCH  13  14
ENDBRANCH  11  13
ENDBRANCH   4  11
BRANCH   2  16
HETATM   16  S   UNL     1      66.010   7.987   6.140  1.00  0.00    -0.122 SA
BRANCH  16  17
HETATM   17  C   UNL     1      66.710   6.314   5.935  1.00  0.00     0.080 C 
BRANCH  17  18
HETATM   18  C   UNL     1      67.775   5.882   6.946  1.00  0.00     0.006 C 
HETATM   19  C   UNL     1      67.456   6.183   8.403  1.00  0.00     0.006 C 
ENDBRANCH  17  18
ENDBRANCH  16  17
ENDBRANCH   2  16
TORSDOF 6
ENDMDL
MODEL 6
REMARK VINA RESULT:      -4.7      2.589      5.942
REMARK  6 active torsions:
REMARK  status: ('A' for Active; 'I' for Inactive)
REMARK    1  A    between atoms: C_2  and  S_8 
REMARK    2  A    between atoms: C_4  and  C_6 
REMARK    3  A    between atoms: C_6  and  O_12 
REMARK    4  A    between atoms: S_8  and  C_15 
REMARK    5  A    between atoms: O_12  and  C_16 
REMARK    6  A    between atoms: C_15  and  C_17 
ROOT
HETATM    1  C   UNL     1      60.995   7.633   2.770  1.00  0.00     0.041 C 
HETATM    2  C   UNL     1      60.451   6.404   3.102  1.00  0.00     0.056 C 
HETATM    3  C   UNL     1      61.878   8.120   3.816  1.00  0.00    -0.019 C 
HETATM    4  C   UNL     1      61.966   7.235   4.884  1.00  0.00     0.088 C 
HETATM    5  S   UNL     1      60.816   5.979   4.721  1.00  0.00    -0.076 SA
HETATM    6  C   UNL     1      60.801   8.386   1.524  1.00  0.00     0.162 C 
HETATM    7  O   UNL     1      60.012   8.057   0.641  1.00  0.00    -0.292 OA
HETATM    8  C   UNL     1      62.643   9.405   3.649  1.00  0.00     0.042 C 
HETATM    9  C   UNL     1      61.706   9.593   1.319  1.00  0.00     0.084 C 
HETATM   10  C   UNL     1      61.975  10.326   2.628  1.00  0.00     0.012 C 
ENDROOT
BRANCH   4  11
HETATM   11  C   UNL     1      62.844   7.216   6.043  1.00  0.00     0.300 C 
HETATM   12  O   UNL     1      62.663   7.796   7.112  1.00  0.00    -0.259 OA
BRANCH  11  13
HETATM   13  O   UNL     1      63.903   6.388   5.800  1.00  0.00    -0.317 OA
BRANCH  13  14
HETATM   14  C   UNL     1      65.160   7.006   5.518  1.00  0.00     0.174 C 
HETATM   15  C   UNL     1      65.547   6.795   4.066  1.00  0.00     0.034 C 
ENDBRANCH  13  14
ENDBRANCH  11  13
ENDBRANCH   4  11
BRANCH   2  16
HETATM   16  S   UNL     1      59.476   5.296   2.147  1.00  0.00    -0.122 SA
BRANCH  16  17
HETATM   17  C   UNL     1      57.797   5.606   2.794  1.00  0.00     0.080 C 
BRANCH  17  18
HETATM   18  C   UNL     1      57.398   7.069   3.004  1.00  0.00     0.006 C 
HETATM   19  C   UNL     1      57.346   7.532   4.452  1.00  0.00     0.006 C 
ENDBRANCH  17  18
ENDBRANCH  16  17
ENDBRANCH   2  16
TORSDOF 6
ENDMDL
MODEL 7
REMARK VINA RESULT:      -4.7      1.035      1.854
REMARK  6 active torsions:
REMARK  status: ('A' for Active; 'I' for Inactive)
REMARK    1  A    between atoms: C_2  and  S_8 
REMARK    2  A    between atoms: C_4  and  C_6 
REMARK    3  A    between atoms: C_6  and  O_12 
REMARK    4  A    between atoms: S_8  and  C_15 
REMARK    5  A    between atoms: O_12  and  C_16 
REMARK    6  A    between atoms: C_15  and  C_17 
ROOT
HETATM    1  C   UNL     1      63.098   8.773   3.793  1.00  0.00     0.041 C 
HETATM    2  C   UNL     1      63.800   7.657   4.214  1.00  0.00     0.056 C 
HETATM    3  C   UNL     1      62.514   8.565   2.479  1.00  0.00    -0.019 C 
HETATM    4  C   UNL     1      62.793   7.302   1.973  1.00  0.00     0.088 C 
HETATM    5  S   UNL     1      63.938   6.499   2.959  1.00  0.00    -0.076 SA
HETATM    6  C   UNL     1      62.878  10.021   4.537  1.00  0.00     0.162 C 
HETATM    7  O   UNL     1      63.408  10.276   5.616  1.00  0.00    -0.292 OA
HETATM    8  C   UNL     1      61.642   9.615   1.844  1.00  0.00     0.042 C 
HETATM    9  C   UNL     1      61.868  10.991   3.941  1.00  0.00     0.084 C 
HETATM   10  C   UNL     1      61.928  11.002   2.418  1.00  0.00     0.012 C 
ENDROOT
BRANCH   4  11
HETATM   11  C   UNL     1      62.281   6.601   0.807  1.00  0.00     0.300 C 
HETATM   12  O   UNL     1      61.176   6.072   0.695  1.00  0.00    -0.259 OA
BRANCH  11  13
HETATM   13  O   UNL     1      63.197   6.665  -0.204  1.00  0.00    -0.317 OA
BRANCH  13  14
HETATM   14  C   UNL     1      63.384   5.484  -0.987  1.00  0.00     0.174 C 
HETATM   15  C   UNL     1      64.132   4.428  -0.195  1.00  0.00     0.034 C 
ENDBRANCH  13  14
ENDBRANCH  11  13
ENDBRANCH   4  11
BRANCH   2  16
HETATM   16  S   UNL     1      64.544   7.299   5.767  1.00  0.00    -0.122 SA
BRANCH  16  17
HETATM   17  C   UNL     1      66.195   8.057   5.586  1.00  0.00     0.080 C 
BRANCH  17  18
HETATM   18  C   UNL     1      67.395   7.107   5.589  1.00  0.00     0.006 C 
HETATM   19  C   UNL     1      67.190   5.790   4.856  1.00  0.00     0.006 C 
ENDBRANCH  17  18
ENDBRANCH  16  17
ENDBRANCH   2  16
TORSDOF 6
ENDMDL
MODEL 8
REMARK VINA RESULT:      -4.5      3.659      4.712
REMARK  6 active torsions:
REMARK  status: ('A' for Active; 'I' for Inactive)
REMARK    1  A    between atoms: C_2  and  S_8 
REMARK    2  A    between atoms: C_4  and  C_6 
REMARK    3  A    between atoms: C_6  and  O_12 
REMARK    4  A    between atoms: S_8  and  C_15 
REMARK    5  A    between atoms: O_12  and  C_16 
REMARK    6  A    between atoms: C_15  and  C_17 
ROOT
HETATM    1  C   UNL     1      64.127   7.225   5.793  1.00  0.00     0.041 C 
HETATM    2  C   UNL     1      65.022   6.510   6.569  1.00  0.00     0.056 C 
HETATM    3  C   UNL     1      62.973   6.417   5.436  1.00  0.00    -0.019 C 
HETATM    4  C   UNL     1      63.047   5.134   5.963  1.00  0.00     0.088 C 
HETATM    5  S   UNL     1      64.587   4.855   6.656  1.00  0.00    -0.076 SA
HETATM    6  C   UNL     1      64.226   8.634   5.387  1.00  0.00     0.162 C 
HETATM    7  O   UNL     1      65.210   9.339   5.599  1.00  0.00    -0.292 OA
HETATM    8  C   UNL     1      61.828   7.003   4.654  1.00  0.00     0.042 C 
HETATM    9  C   UNL     1      62.988   9.237   4.740  1.00  0.00     0.084 C 
HETATM   10  C   UNL     1      62.267   8.229   3.853  1.00  0.00     0.012 C 
ENDROOT
BRANCH   4  11
HETATM   11  C   UNL     1      62.065   4.063   6.020  1.00  0.00     0.300 C 
HETATM   12  O   UNL     1      61.891   3.181   5.180  1.00  0.00    -0.259 OA
BRANCH  11  13
HETATM   13  O   UNL     1      61.380   4.132   7.199  1.00  0.00    -0.317 OA
BRANCH  13  14
HETATM   14  C   UNL     1      60.007   4.523   7.132  1.00  0.00     0.174 C 
HETATM   15  C   UNL     1      59.813   5.903   7.730  1.00  0.00     0.034 C 
ENDBRANCH  13  14
ENDBRANCH  11  13
ENDBRANCH   4  11
BRANCH   2  16
HETATM   16  S   UNL     1      66.473   7.037   7.411  1.00  0.00    -0.122 SA
BRANCH  16  17
HETATM   17  C   UNL     1      66.860   5.589   8.453  1.00  0.00     0.080 C 
BRANCH  17  18
HETATM   18  C   UNL     1      68.143   5.661   9.286  1.00  0.00     0.006 C 
HETATM   19  C   UNL     1      69.408   5.193   8.582  1.00  0.00     0.006 C 
ENDBRANCH  17  18
ENDBRANCH  16  17
ENDBRANCH   2  16
TORSDOF 6
ENDMDL
MODEL 9
REMARK VINA RESULT:      -4.5      3.706      7.008
REMARK  6 active torsions:
REMARK  status: ('A' for Active; 'I' for Inactive)
REMARK    1  A    between atoms: C_2  and  S_8 
REMARK    2  A    between atoms: C_4  and  C_6 
REMARK    3  A    between atoms: C_6  and  O_12 
REMARK    4  A    between atoms: S_8  and  C_15 
REMARK    5  A    between atoms: O_12  and  C_16 
REMARK    6  A    between atoms: C_15  and  C_17 
ROOT
HETATM    1  C   UNL     1      67.532   4.887   6.423  1.00  0.00     0.041 C 
HETATM    2  C   UNL     1      67.332   4.651   5.074  1.00  0.00     0.056 C 
HETATM    3  C   UNL     1      67.047   6.201   6.807  1.00  0.00    -0.019 C 
HETATM    4  C   UNL     1      66.497   6.893   5.734  1.00  0.00     0.088 C 
HETATM    5  S   UNL     1      66.795   6.063   4.268  1.00  0.00    -0.076 SA
HETATM    6  C   UNL     1      68.100   3.964   7.416  1.00  0.00     0.162 C 
HETATM    7  O   UNL     1      68.591   2.873   7.133  1.00  0.00    -0.292 OA
HETATM    8  C   UNL     1      67.089   6.655   8.241  1.00  0.00     0.042 C 
HETATM    9  C   UNL     1      67.983   4.387   8.873  1.00  0.00     0.084 C 
HETATM   10  C   UNL     1      68.148   5.893   9.038  1.00  0.00     0.012 C 
ENDROOT
BRANCH   4  11
HETATM   11  C   UNL     1      65.744   8.135   5.679  1.00  0.00     0.300 C 
HETATM   12  O   UNL     1      65.937   9.142   6.359  1.00  0.00    -0.259 OA
BRANCH  11  13
HETATM   13  O   UNL     1      64.802   8.055   4.694  1.00  0.00    -0.317 OA
BRANCH  13  14
HETATM   14  C   UNL     1      63.436   8.199   5.088  1.00  0.00     0.174 C 
HETATM   15  C   UNL     1      62.859   9.497   4.554  1.00  0.00     0.034 C 
ENDBRANCH  13  14
ENDBRANCH  11  13
ENDBRANCH   4  11
BRANCH   2  16
HETATM   16  S   UNL     1      67.563   3.185   4.129  1.00  0.00    -0.122 SA
BRANCH  16  17
HETATM   17  C   UNL     1      66.190   2.133   4.711  1.00  0.00     0.080 C 
BRANCH  17  18
HETATM   18  C   UNL     1      64.907   2.848   5.141  1.00  0.00     0.006 C 
HETATM   19  C   UNL     1      64.540   2.707   6.611  1.00  0.00     0.006 C 
ENDBRANCH  17  18
ENDBRANCH  16  17
ENDBRANCH   2  16
TORSDOF 6
ENDMDL
