MODEL 1
REMARK VINA RESULT:      -5.1      0.000      0.000
REMARK  1 active torsions:
REMARK  status: ('A' for Active; 'I' for Inactive)
REMARK    1  A    between atoms: C_3  and  S_13 
ROOT
HETATM    1  C   UNL     1      65.141   6.681   6.352  1.00  0.00     0.042 A 
HETATM    2  C   UNL     1      65.167   5.334   6.912  1.00  0.00    -0.014 A 
HETATM    3  C   UNL     1      63.913   6.993   5.790  1.00  0.00     0.056 A 
HETATM    4  C   UNL     1      63.956   4.688   6.750  1.00  0.00     0.093 A 
HETATM    5  S   UNL     1      62.823   5.668   5.940  1.00  0.00    -0.071 SA
HETATM    6  C   UNL     1      66.315   7.537   6.486  1.00  0.00     0.162 C 
HETATM    7  C   UNL     1      63.646   3.363   7.203  1.00  0.00     0.107 C 
HETATM    8  N   UNL     1      63.422   2.291   7.579  1.00  0.00    -0.191 NA
HETATM    9  C   UNL     1      66.398   4.770   7.602  1.00  0.00     0.050 C 
HETATM   10  C   UNL     1      67.462   5.859   7.926  1.00  0.00    -0.037 C 
HETATM   11  C   UNL     1      67.614   6.790   6.705  1.00  0.00     0.093 C 
HETATM   12  O   UNL     1      66.282   8.760   6.522  1.00  0.00    -0.292 OA
HETATM   13  C   UNL     1      68.826   5.213   8.218  1.00  0.00     0.015 C 
HETATM   14  C   UNL     1      67.045   6.666   9.177  1.00  0.00     0.015 C 
ENDROOT
BRANCH   3  15
HETATM   15  S   UNL     1      63.299   8.467   5.039  1.00  0.00    -0.126 SA
HETATM   16  C   UNL     1      63.139   8.098   3.283  1.00  0.00     0.096 C 
ENDBRANCH   3  15
TORSDOF 1
ENDMDL
MODEL 2
REMARK VINA RESULT:      -5.0      4.154      5.788
REMARK  1 active torsions:
REMARK  status: ('A' for Active; 'I' for Inactive)
REMARK    1  A    between atoms: C_3  and  S_13 
ROOT
HETATM    1  C   UNL     1      63.025   7.576   2.631  1.00  0.00     0.042 A 
HETATM    2  C   UNL     1      62.941   8.619   3.649  1.00  0.00    -0.014 A 
HETATM    3  C   UNL     1      62.462   7.970   1.429  1.00  0.00     0.056 A 
HETATM    4  C   UNL     1      62.320   9.756   3.168  1.00  0.00     0.093 A 
HETATM    5  S   UNL     1      61.841   9.572   1.543  1.00  0.00    -0.071 SA
HETATM    6  C   UNL     1      63.707   6.324   2.942  1.00  0.00     0.162 C 
HETATM    7  C   UNL     1      62.096  10.965   3.907  1.00  0.00     0.107 C 
HETATM    8  N   UNL     1      61.926  11.928   4.526  1.00  0.00    -0.191 NA
HETATM    9  C   UNL     1      63.509   8.431   5.046  1.00  0.00     0.050 C 
HETATM   10  C   UNL     1      64.443   7.191   5.158  1.00  0.00    -0.037 C 
HETATM   11  C   UNL     1      63.789   6.004   4.420  1.00  0.00     0.093 C 
HETATM   12  O   UNL     1      64.264   5.613   2.115  1.00  0.00    -0.292 OA
HETATM   13  C   UNL     1      64.644   6.796   6.631  1.00  0.00     0.015 C 
HETATM   14  C   UNL     1      65.833   7.505   4.560  1.00  0.00     0.015 C 
ENDROOT
BRANCH   3  15
HETATM   15  S   UNL     1      62.335   7.163  -0.136  1.00  0.00    -0.126 SA
HETATM   16  C   UNL     1      61.147   5.827   0.091  1.00  0.00     0.096 C 
ENDBRANCH   3  15
TORSDOF 1
ENDMDL
MODEL 3
REMARK VINA RESULT:      -4.8      3.745      5.265
REMARK  1 active torsions:
REMARK  status: ('A' for Active; 'I' for Inactive)
REMARK    1  A    between atoms: C_3  and  S_13 
ROOT
HETATM    1  C   UNL     1      62.545   6.834   4.579  1.00  0.00     0.042 A 
HETATM    2  C   UNL     1      62.888   8.252   4.518  1.00  0.00    -0.014 A 
HETATM    3  C   UNL     1      61.312   6.567   4.008  1.00  0.00     0.056 A 
HETATM    4  C   UNL     1      61.898   8.992   3.900  1.00  0.00     0.093 A 
HETATM    5  S   UNL     1      60.590   8.014   3.416  1.00  0.00    -0.071 SA
HETATM    6  C   UNL     1      63.503   5.889   5.144  1.00  0.00     0.162 C 
HETATM    7  C   UNL     1      61.933  10.407   3.665  1.00  0.00     0.107 C 
HETATM    8  N   UNL     1      61.985  11.549   3.489  1.00  0.00    -0.191 NA
HETATM    9  C   UNL     1      64.201   8.789   5.062  1.00  0.00     0.050 C 
HETATM   10  C   UNL     1      65.233   7.666   5.371  1.00  0.00    -0.037 C 
HETATM   11  C   UNL     1      64.512   6.507   6.089  1.00  0.00     0.093 C 
HETATM   12  O   UNL     1      63.579   4.707   4.831  1.00  0.00    -0.292 OA
HETATM   13  C   UNL     1      66.346   8.192   6.292  1.00  0.00     0.015 C 
HETATM   14  C   UNL     1      65.897   7.169   4.066  1.00  0.00     0.015 C 
ENDROOT
BRANCH   3  15
HETATM   15  S   UNL     1      60.434   5.058   3.748  1.00  0.00    -0.126 SA
HETATM   16  C   UNL     1      60.010   4.443   5.387  1.00  0.00     0.096 C 
ENDBRANCH   3  15
TORSDOF 1
ENDMDL
MODEL 4
REMARK VINA RESULT:      -4.8     15.303     17.904
REMARK  1 active torsions:
REMARK  status: ('A' for Active; 'I' for Inactive)
REMARK    1  A    between atoms: C_3  and  S_13 
ROOT
HETATM    1  C   UNL     1      77.299  -0.171  18.092  1.00  0.00     0.042 A 
HETATM    2  C   UNL     1      76.821   1.171  17.775  1.00  0.00    -0.014 A 
HETATM    3  C   UNL     1      78.218  -0.170  19.128  1.00  0.00     0.056 A 
HETATM    4  C   UNL     1      77.400   2.127  18.588  1.00  0.00     0.093 A 
HETATM    5  S   UNL     1      78.493   1.433  19.695  1.00  0.00    -0.071 SA
HETATM    6  C   UNL     1      76.749  -1.317  17.374  1.00  0.00     0.162 C 
HETATM    7  C   UNL     1      77.133   3.535  18.547  1.00  0.00     0.107 C 
HETATM    8  N   UNL     1      76.900   4.668  18.492  1.00  0.00    -0.191 NA
HETATM    9  C   UNL     1      75.791   1.425  16.686  1.00  0.00     0.050 C 
HETATM   10  C   UNL     1      75.088   0.123  16.203  1.00  0.00    -0.037 C 
HETATM   11  C   UNL     1      76.149  -0.982  16.024  1.00  0.00     0.093 C 
HETATM   12  O   UNL     1      76.672  -2.450  17.830  1.00  0.00    -0.292 OA
HETATM   13  C   UNL     1      74.394   0.354  14.850  1.00  0.00     0.015 C 
HETATM   14  C   UNL     1      74.009  -0.317  17.218  1.00  0.00     0.015 C 
ENDROOT
BRANCH   3  15
HETATM   15  S   UNL     1      79.063  -1.479  19.958  1.00  0.00    -0.126 SA
HETATM   16  C   UNL     1      80.163  -2.212  18.734  1.00  0.00     0.096 C 
ENDBRANCH   3  15
TORSDOF 1
ENDMDL
MODEL 5
REMARK VINA RESULT:      -4.8      3.727      6.679
REMARK  1 active torsions:
REMARK  status: ('A' for Active; 'I' for Inactive)
REMARK    1  A    between atoms: C_3  and  S_13 
ROOT
HETATM    1  C   UNL     1      64.015   7.171   3.315  1.00  0.00     0.042 A 
HETATM    2  C   UNL     1      63.293   8.375   3.713  1.00  0.00    -0.014 A 
HETATM    3  C   UNL     1      65.106   6.918   4.130  1.00  0.00     0.056 A 
HETATM    4  C   UNL     1      63.871   8.978   4.814  1.00  0.00     0.093 A 
HETATM    5  S   UNL     1      65.247   8.128   5.348  1.00  0.00    -0.071 SA
HETATM    6  C   UNL     1      63.511   6.366   2.206  1.00  0.00     0.162 C 
HETATM    7  C   UNL     1      63.397  10.166   5.464  1.00  0.00     0.107 C 
HETATM    8  N   UNL     1      62.994  11.126   5.969  1.00  0.00    -0.191 NA
HETATM    9  C   UNL     1      62.047   8.848   2.983  1.00  0.00     0.050 C 
HETATM   10  C   UNL     1      61.463   7.771   2.023  1.00  0.00    -0.037 C 
HETATM   11  C   UNL     1      62.620   7.118   1.240  1.00  0.00     0.093 C 
HETATM   12  O   UNL     1      63.690   5.161   2.085  1.00  0.00    -0.292 OA
HETATM   13  C   UNL     1      60.495   8.413   1.015  1.00  0.00     0.015 C 
HETATM   14  C   UNL     1      60.676   6.706   2.820  1.00  0.00     0.015 C 
ENDROOT
BRANCH   3  15
HETATM   15  S   UNL     1      66.278   5.599   4.159  1.00  0.00    -0.126 SA
HETATM   16  C   UNL     1      67.137   5.734   5.737  1.00  0.00     0.096 C 
ENDBRANCH   3  15
TORSDOF 1
ENDMDL
MODEL 6
REMARK VINA RESULT:      -4.5      4.434      6.139
REMARK  1 active torsions:
REMARK  status: ('A' for Active; 'I' for Inactive)
REMARK    1  A    between atoms: C_3  and  S_13 
ROOT
HETATM    1  C   UNL     1      68.374   3.653   7.226  1.00  0.00     0.042 A 
HETATM    2  C   UNL     1      67.691   4.765   6.573  1.00  0.00    -0.014 A 
HETATM    3  C   UNL     1      68.721   3.945   8.534  1.00  0.00     0.056 A 
HETATM    4  C   UNL     1      67.551   5.849   7.419  1.00  0.00     0.093 A 
HETATM    5  S   UNL     1      68.229   5.542   8.952  1.00  0.00    -0.071 SA
HETATM    6  C   UNL     1      68.556   2.399   6.502  1.00  0.00     0.162 C 
HETATM    7  C   UNL     1      66.912   7.090   7.092  1.00  0.00     0.107 C 
HETATM    8  N   UNL     1      66.391   8.083   6.803  1.00  0.00    -0.191 NA
HETATM    9  C   UNL     1      67.194   4.677   5.139  1.00  0.00     0.050 C 
HETATM   10  C   UNL     1      67.194   3.222   4.587  1.00  0.00    -0.037 C 
HETATM   11  C   UNL     1      68.512   2.532   4.994  1.00  0.00     0.093 C 
HETATM   12  O   UNL     1      68.643   1.298   7.031  1.00  0.00    -0.292 OA
HETATM   13  C   UNL     1      67.101   3.227   3.052  1.00  0.00     0.015 C 
HETATM   14  C   UNL     1      65.978   2.438   5.130  1.00  0.00     0.015 C 
ENDROOT
BRANCH   3  15
HETATM   15  S   UNL     1      69.491   2.980   9.795  1.00  0.00    -0.126 SA
HETATM   16  C   UNL     1      68.233   1.828  10.375  1.00  0.00     0.096 C 
ENDBRANCH   3  15
TORSDOF 1
ENDMDL
MODEL 7
REMARK VINA RESULT:      -4.5      4.382      5.628
REMARK  1 active torsions:
REMARK  status: ('A' for Active; 'I' for Inactive)
REMARK    1  A    between atoms: C_3  and  S_13 
ROOT
HETATM    1  C   UNL     1      67.964   3.560   6.915  1.00  0.00     0.042 A 
HETATM    2  C   UNL     1      68.528   2.551   7.806  1.00  0.00    -0.014 A 
HETATM    3  C   UNL     1      67.947   4.819   7.491  1.00  0.00     0.056 A 
HETATM    4  C   UNL     1      68.913   3.094   9.017  1.00  0.00     0.093 A 
HETATM    5  S   UNL     1      68.598   4.767   9.085  1.00  0.00    -0.071 SA
HETATM    6  C   UNL     1      67.559   3.180   5.566  1.00  0.00     0.162 C 
HETATM    7  C   UNL     1      69.517   2.377  10.103  1.00  0.00     0.107 C 
HETATM    8  N   UNL     1      70.002   1.775  10.964  1.00  0.00    -0.191 NA
HETATM    9  C   UNL     1      68.672   1.096   7.390  1.00  0.00     0.050 C 
HETATM   10  C   UNL     1      68.474   0.882   5.861  1.00  0.00    -0.037 C 
HETATM   11  C   UNL     1      67.256   1.706   5.394  1.00  0.00     0.093 C 
HETATM   12  O   UNL     1      67.546   3.938   4.604  1.00  0.00    -0.292 OA
HETATM   13  C   UNL     1      68.205  -0.601   5.553  1.00  0.00     0.015 C 
HETATM   14  C   UNL     1      69.744   1.302   5.087  1.00  0.00     0.015 C 
ENDROOT
BRANCH   3  15
HETATM   15  S   UNL     1      67.448   6.395   6.872  1.00  0.00    -0.126 SA
HETATM   16  C   UNL     1      65.686   6.529   7.224  1.00  0.00     0.096 C 
ENDBRANCH   3  15
TORSDOF 1
ENDMDL
MODEL 8
REMARK VINA RESULT:      -4.4      4.470      6.789
REMARK  1 active torsions:
REMARK  status: ('A' for Active; 'I' for Inactive)
REMARK    1  A    between atoms: C_3  and  S_13 
ROOT
HETATM    1  C   UNL     1      61.308   6.613   3.965  1.00  0.00     0.042 A 
HETATM    2  C   UNL     1      62.506   7.437   3.838  1.00  0.00    -0.014 A 
HETATM    3  C   UNL     1      61.041   6.273   5.281  1.00  0.00     0.056 A 
HETATM    4  C   UNL     1      63.091   7.684   5.066  1.00  0.00     0.093 A 
HETATM    5  S   UNL     1      62.230   6.939   6.334  1.00  0.00    -0.071 SA
HETATM    6  C   UNL     1      60.523   6.301   2.775  1.00  0.00     0.162 C 
HETATM    7  C   UNL     1      64.268   8.472   5.291  1.00  0.00     0.107 C 
HETATM    8  N   UNL     1      65.219   9.113   5.445  1.00  0.00    -0.191 NA
HETATM    9  C   UNL     1      62.992   7.954   2.494  1.00  0.00     0.050 C 
HETATM   10  C   UNL     1      61.932   7.796   1.366  1.00  0.00    -0.037 C 
HETATM   11  C   UNL     1      61.292   6.396   1.474  1.00  0.00     0.093 C 
HETATM   12  O   UNL     1      59.320   6.074   2.777  1.00  0.00    -0.292 OA
HETATM   13  C   UNL     1      62.592   7.923  -0.018  1.00  0.00     0.015 C 
HETATM   14  C   UNL     1      60.855   8.898   1.478  1.00  0.00     0.015 C 
ENDROOT
BRANCH   3  15
HETATM   15  S   UNL     1      59.721   5.366   6.021  1.00  0.00    -0.126 SA
HETATM   16  C   UNL     1      59.609   5.951   7.721  1.00  0.00     0.096 C 
ENDBRANCH   3  15
TORSDOF 1
ENDMDL
MODEL 9
REMARK VINA RESULT:      -4.4      5.763      7.466
REMARK  1 active torsions:
REMARK  status: ('A' for Active; 'I' for Inactive)
REMARK    1  A    between atoms: C_3  and  S_13 
ROOT
HETATM    1  C   UNL     1      69.335   1.271   8.390  1.00  0.00     0.042 A 
HETATM    2  C   UNL     1      68.919   2.111   7.271  1.00  0.00    -0.014 A 
HETATM    3  C   UNL     1      69.644  -0.019   7.992  1.00  0.00     0.056 A 
HETATM    4  C   UNL     1      68.934   1.418   6.076  1.00  0.00     0.093 A 
HETATM    5  S   UNL     1      69.425  -0.199   6.293  1.00  0.00    -0.071 SA
HETATM    6  C   UNL     1      69.438   1.854   9.725  1.00  0.00     0.162 C 
HETATM    7  C   UNL     1      68.598   1.957   4.790  1.00  0.00     0.107 C 
HETATM    8  N   UNL     1      68.321   2.416   3.765  1.00  0.00    -0.191 NA
HETATM    9  C   UNL     1      68.548   3.574   7.454  1.00  0.00     0.050 C 
HETATM   10  C   UNL     1      68.967   4.135   8.844  1.00  0.00    -0.037 C 
HETATM   11  C   UNL     1      68.606   3.102   9.931  1.00  0.00     0.093 C 
HETATM   12  O   UNL     1      70.197   1.455  10.599  1.00  0.00    -0.292 OA
HETATM   13  C   UNL     1      68.217   5.443   9.148  1.00  0.00     0.015 C 
HETATM   14  C   UNL     1      70.481   4.444   8.868  1.00  0.00     0.015 C 
ENDROOT
BRANCH   3  15
HETATM   15  S   UNL     1      70.249  -1.416   8.884  1.00  0.00    -0.126 SA
HETATM   16  C   UNL     1      70.535  -2.702   7.655  1.00  0.00     0.096 C 
ENDBRANCH   3  15
TORSDOF 1
ENDMDL
