MODEL 1
REMARK VINA RESULT:      -4.6      0.000      0.000
REMARK  3 active torsions:
REMARK  status: ('A' for Active; 'I' for Inactive)
REMARK    1  A    between atoms: C_1  and  C_4 
REMARK    2  A    between atoms: S_3  and  C_4 
REMARK    3  A    between atoms: S_3  and  C_6 
ROOT
HETATM    1  S   UNL     1      63.311   8.009   5.152  1.00  0.00    -0.123 SA
ENDROOT
BRANCH   1   2
HETATM    2  C   UNL     1      65.134   8.096   5.027  1.00  0.00     0.148 C 
BRANCH   2   3
HETATM    3  C   UNL     1      65.786   7.672   6.336  1.00  0.00     0.080 C 
HETATM    4  S   UNL     1      65.446   6.205   7.059  1.00  0.00    -0.065 SA
HETATM    5  N   UNL     1      66.739   8.481   6.882  1.00  0.00    -0.393 N 
HETATM    6  H   UNL     1      67.174   8.227   7.728  1.00  0.00     0.156 HD
HETATM    7  H   UNL     1      66.992   9.318   6.430  1.00  0.00     0.156 HD
ENDBRANCH   2   3
ENDBRANCH   1   2
BRANCH   1   8
HETATM    8  C   UNL     1      62.763   9.106   3.849  1.00  0.00     0.000 A 
HETATM    9  C   UNL     1      62.599   8.718   2.516  1.00  0.00     0.018 A 
HETATM   10  C   UNL     1      62.086   9.615   1.572  1.00  0.00     0.001 A 
HETATM   11  C   UNL     1      61.729  10.907   1.952  1.00  0.00     0.000 A 
HETATM   12  C   UNL     1      61.890  11.305   3.275  1.00  0.00     0.001 A 
HETATM   13  C   UNL     1      62.402  10.409   4.218  1.00  0.00     0.018 A 
ENDBRANCH   1   8
TORSDOF 3
ENDMDL
MODEL 2
REMARK VINA RESULT:      -4.5      0.995      1.760
REMARK  3 active torsions:
REMARK  status: ('A' for Active; 'I' for Inactive)
REMARK    1  A    between atoms: C_1  and  C_4 
REMARK    2  A    between atoms: S_3  and  C_4 
REMARK    3  A    between atoms: S_3  and  C_6 
ROOT
HETATM    1  S   UNL     1      63.122   8.062   5.023  1.00  0.00    -0.123 SA
ENDROOT
BRANCH   1   2
HETATM    2  C   UNL     1      64.880   8.514   5.252  1.00  0.00     0.148 C 
BRANCH   2   3
HETATM    3  C   UNL     1      65.632   7.406   5.976  1.00  0.00     0.080 C 
HETATM    4  S   UNL     1      66.954   6.644   5.296  1.00  0.00    -0.065 SA
HETATM    5  N   UNL     1      65.264   7.093   7.252  1.00  0.00    -0.393 N 
HETATM    6  H   UNL     1      65.736   6.380   7.740  1.00  0.00     0.156 HD
HETATM    7  H   UNL     1      64.526   7.579   7.685  1.00  0.00     0.156 HD
ENDBRANCH   2   3
ENDBRANCH   1   2
BRANCH   1   8
HETATM    8  C   UNL     1      62.528   9.310   3.887  1.00  0.00     0.000 A 
HETATM    9  C   UNL     1      62.259  10.634   4.250  1.00  0.00     0.018 A 
HETATM   10  C   UNL     1      61.876  11.573   3.283  1.00  0.00     0.001 A 
HETATM   11  C   UNL     1      61.762  11.197   1.947  1.00  0.00     0.000 A 
HETATM   12  C   UNL     1      62.025   9.883   1.575  1.00  0.00     0.001 A 
HETATM   13  C   UNL     1      62.407   8.946   2.539  1.00  0.00     0.018 A 
ENDBRANCH   1   8
TORSDOF 3
ENDMDL
MODEL 3
REMARK VINA RESULT:      -4.4     24.141     25.175
REMARK  3 active torsions:
REMARK  status: ('A' for Active; 'I' for Inactive)
REMARK    1  A    between atoms: C_1  and  C_4 
REMARK    2  A    between atoms: S_3  and  C_4 
REMARK    3  A    between atoms: S_3  and  C_6 
ROOT
HETATM    1  S   UNL     1      56.373  19.805  27.132  1.00  0.00    -0.123 SA
ENDROOT
BRANCH   1   2
HETATM    2  C   UNL     1      55.581  20.332  25.569  1.00  0.00     0.148 C 
BRANCH   2   3
HETATM    3  C   UNL     1      54.289  19.561  25.333  1.00  0.00     0.080 C 
HETATM    4  S   UNL     1      53.092  20.132  24.317  1.00  0.00    -0.065 SA
HETATM    5  N   UNL     1      54.151  18.329  25.902  1.00  0.00    -0.393 N 
HETATM    6  H   UNL     1      53.325  17.812  25.762  1.00  0.00     0.156 HD
HETATM    7  H   UNL     1      54.878  17.957  26.452  1.00  0.00     0.156 HD
ENDBRANCH   2   3
ENDBRANCH   1   2
BRANCH   1   8
HETATM    8  C   UNL     1      57.812  18.901  26.570  1.00  0.00     0.000 A 
HETATM    9  C   UNL     1      57.918  18.301  25.312  1.00  0.00     0.018 A 
HETATM   10  C   UNL     1      59.111  17.682  24.916  1.00  0.00     0.001 A 
HETATM   11  C   UNL     1      60.208  17.661  25.774  1.00  0.00     0.000 A 
HETATM   12  C   UNL     1      60.113  18.251  27.030  1.00  0.00     0.001 A 
HETATM   13  C   UNL     1      58.923  18.869  27.424  1.00  0.00     0.018 A 
ENDBRANCH   1   8
TORSDOF 3
ENDMDL
MODEL 4
REMARK VINA RESULT:      -4.1      1.428      1.743
REMARK  3 active torsions:
REMARK  status: ('A' for Active; 'I' for Inactive)
REMARK    1  A    between atoms: C_1  and  C_4 
REMARK    2  A    between atoms: S_3  and  C_4 
REMARK    3  A    between atoms: S_3  and  C_6 
ROOT
HETATM    1  S   UNL     1      65.256   6.977   4.725  1.00  0.00    -0.123 SA
ENDROOT
BRANCH   1   2
HETATM    2  C   UNL     1      65.001   6.787   6.526  1.00  0.00     0.148 C 
BRANCH   2   3
HETATM    3  C   UNL     1      66.238   7.228   7.296  1.00  0.00     0.080 C 
HETATM    4  S   UNL     1      66.931   6.274   8.480  1.00  0.00    -0.065 SA
HETATM    5  N   UNL     1      66.844   8.399   6.942  1.00  0.00    -0.393 N 
HETATM    6  H   UNL     1      67.645   8.703   7.425  1.00  0.00     0.156 HD
HETATM    7  H   UNL     1      66.479   8.938   6.203  1.00  0.00     0.156 HD
ENDBRANCH   2   3
ENDBRANCH   1   2
BRANCH   1   8
HETATM    8  C   UNL     1      64.019   8.187   4.267  1.00  0.00     0.000 A 
HETATM    9  C   UNL     1      63.214   8.091   3.128  1.00  0.00     0.018 A 
HETATM   10  C   UNL     1      62.210   9.037   2.884  1.00  0.00     0.001 A 
HETATM   11  C   UNL     1      62.000  10.084   3.779  1.00  0.00     0.000 A 
HETATM   12  C   UNL     1      62.797  10.191   4.914  1.00  0.00     0.001 A 
HETATM   13  C   UNL     1      63.798   9.247   5.158  1.00  0.00     0.018 A 
ENDBRANCH   1   8
TORSDOF 3
ENDMDL
MODEL 5
REMARK VINA RESULT:      -4.1      4.533      8.035
REMARK  3 active torsions:
REMARK  status: ('A' for Active; 'I' for Inactive)
REMARK    1  A    between atoms: C_1  and  C_4 
REMARK    2  A    between atoms: S_3  and  C_4 
REMARK    3  A    between atoms: S_3  and  C_6 
ROOT
HETATM    1  S   UNL     1      67.193   5.295   5.540  1.00  0.00    -0.123 SA
ENDROOT
BRANCH   1   2
HETATM    2  C   UNL     1      67.749   7.034   5.419  1.00  0.00     0.148 C 
BRANCH   2   3
HETATM    3  C   UNL     1      66.689   7.978   5.971  1.00  0.00     0.080 C 
HETATM    4  S   UNL     1      65.209   8.180   5.223  1.00  0.00    -0.065 SA
HETATM    5  N   UNL     1      66.929   8.606   7.158  1.00  0.00    -0.393 N 
HETATM    6  H   UNL     1      66.257   9.221   7.534  1.00  0.00     0.156 HD
HETATM    7  H   UNL     1      67.773   8.446   7.638  1.00  0.00     0.156 HD
ENDBRANCH   2   3
ENDBRANCH   1   2
BRANCH   1   8
HETATM    8  C   UNL     1      68.122   4.670   6.936  1.00  0.00     0.000 A 
HETATM    9  C   UNL     1      68.552   5.459   8.007  1.00  0.00     0.018 A 
HETATM   10  C   UNL     1      69.203   4.878   9.103  1.00  0.00     0.001 A 
HETATM   11  C   UNL     1      69.425   3.503   9.139  1.00  0.00     0.000 A 
HETATM   12  C   UNL     1      69.004   2.708   8.078  1.00  0.00     0.001 A 
HETATM   13  C   UNL     1      68.355   3.289   6.984  1.00  0.00     0.018 A 
ENDBRANCH   1   8
TORSDOF 3
ENDMDL
MODEL 6
REMARK VINA RESULT:      -3.9      2.645      3.353
REMARK  3 active torsions:
REMARK  status: ('A' for Active; 'I' for Inactive)
REMARK    1  A    between atoms: C_1  and  C_4 
REMARK    2  A    between atoms: S_3  and  C_4 
REMARK    3  A    between atoms: S_3  and  C_6 
ROOT
HETATM    1  S   UNL     1      63.397   7.458   4.378  1.00  0.00    -0.123 SA
ENDROOT
BRANCH   1   2
HETATM    2  C   UNL     1      62.515   7.371   5.978  1.00  0.00     0.148 C 
BRANCH   2   3
HETATM    3  C   UNL     1      61.354   6.389   5.902  1.00  0.00     0.080 C 
HETATM    4  S   UNL     1      60.927   5.634   4.474  1.00  0.00    -0.065 SA
HETATM    5  N   UNL     1      60.705   6.054   7.054  1.00  0.00    -0.393 N 
HETATM    6  H   UNL     1      59.952   5.421   7.028  1.00  0.00     0.156 HD
HETATM    7  H   UNL     1      60.989   6.446   7.911  1.00  0.00     0.156 HD
ENDBRANCH   2   3
ENDBRANCH   1   2
BRANCH   1   8
HETATM    8  C   UNL     1      62.703   8.920   3.613  1.00  0.00     0.000 A 
HETATM    9  C   UNL     1      62.424  10.106   4.299  1.00  0.00     0.018 A 
HETATM   10  C   UNL     1      61.960  11.234   3.612  1.00  0.00     0.001 A 
HETATM   11  C   UNL     1      61.773  11.187   2.232  1.00  0.00     0.000 A 
HETATM   12  C   UNL     1      62.044  10.012   1.539  1.00  0.00     0.001 A 
HETATM   13  C   UNL     1      62.509   8.886   2.226  1.00  0.00     0.018 A 
ENDBRANCH   1   8
TORSDOF 3
ENDMDL
MODEL 7
REMARK VINA RESULT:      -3.8      3.063      6.650
REMARK  3 active torsions:
REMARK  status: ('A' for Active; 'I' for Inactive)
REMARK    1  A    between atoms: C_1  and  C_4 
REMARK    2  A    between atoms: S_3  and  C_4 
REMARK    3  A    between atoms: S_3  and  C_6 
ROOT
HETATM    1  S   UNL     1      65.463   5.840   5.454  1.00  0.00    -0.123 SA
ENDROOT
BRANCH   1   2
HETATM    2  C   UNL     1      63.969   6.692   6.078  1.00  0.00     0.148 C 
BRANCH   2   3
HETATM    3  C   UNL     1      63.794   8.043   5.398  1.00  0.00     0.080 C 
HETATM    4  S   UNL     1      62.501   8.365   4.391  1.00  0.00    -0.065 SA
HETATM    5  N   UNL     1      64.675   9.041   5.694  1.00  0.00    -0.393 N 
HETATM    6  H   UNL     1      64.581   9.923   5.267  1.00  0.00     0.156 HD
HETATM    7  H   UNL     1      65.404   8.880   6.335  1.00  0.00     0.156 HD
ENDBRANCH   2   3
ENDBRANCH   1   2
BRANCH   1   8
HETATM    8  C   UNL     1      66.528   5.788   6.891  1.00  0.00     0.000 A 
HETATM    9  C   UNL     1      67.803   5.213   6.900  1.00  0.00     0.018 A 
HETATM   10  C   UNL     1      68.608   5.287   8.043  1.00  0.00     0.001 A 
HETATM   11  C   UNL     1      68.148   5.938   9.185  1.00  0.00     0.000 A 
HETATM   12  C   UNL     1      66.881   6.511   9.189  1.00  0.00     0.001 A 
HETATM   13  C   UNL     1      66.077   6.438   8.048  1.00  0.00     0.018 A 
ENDBRANCH   1   8
TORSDOF 3
ENDMDL
MODEL 8
REMARK VINA RESULT:      -3.8      5.009      8.514
REMARK  3 active torsions:
REMARK  status: ('A' for Active; 'I' for Inactive)
REMARK    1  A    between atoms: C_1  and  C_4 
REMARK    2  A    between atoms: S_3  and  C_4 
REMARK    3  A    between atoms: S_3  and  C_6 
ROOT
HETATM    1  S   UNL     1      66.946   5.984   7.749  1.00  0.00    -0.123 SA
ENDROOT
BRANCH   1   2
HETATM    2  C   UNL     1      67.709   6.009   6.086  1.00  0.00     0.148 C 
BRANCH   2   3
HETATM    3  C   UNL     1      67.377   7.305   5.359  1.00  0.00     0.080 C 
HETATM    4  S   UNL     1      65.836   7.951   5.362  1.00  0.00    -0.065 SA
HETATM    5  N   UNL     1      68.391   7.999   4.766  1.00  0.00    -0.393 N 
HETATM    6  H   UNL     1      68.199   8.840   4.291  1.00  0.00     0.156 HD
HETATM    7  H   UNL     1      69.313   7.659   4.812  1.00  0.00     0.156 HD
ENDBRANCH   2   3
ENDBRANCH   1   2
BRANCH   1   8
HETATM    8  C   UNL     1      67.747   4.594   8.540  1.00  0.00     0.000 A 
HETATM    9  C   UNL     1      67.387   3.259   8.331  1.00  0.00     0.018 A 
HETATM   10  C   UNL     1      68.118   2.223   8.925  1.00  0.00     0.001 A 
HETATM   11  C   UNL     1      69.218   2.512   9.729  1.00  0.00     0.000 A 
HETATM   12  C   UNL     1      69.585   3.836   9.947  1.00  0.00     0.001 A 
HETATM   13  C   UNL     1      68.854   4.870   9.354  1.00  0.00     0.018 A 
ENDBRANCH   1   8
TORSDOF 3
ENDMDL
MODEL 9
REMARK VINA RESULT:      -3.8      4.626      8.161
REMARK  3 active torsions:
REMARK  status: ('A' for Active; 'I' for Inactive)
REMARK    1  A    between atoms: C_1  and  C_4 
REMARK    2  A    between atoms: S_3  and  C_4 
REMARK    3  A    between atoms: S_3  and  C_6 
ROOT
HETATM    1  S   UNL     1      67.368   5.145   5.694  1.00  0.00    -0.123 SA
ENDROOT
BRANCH   1   2
HETATM    2  C   UNL     1      65.659   5.422   6.286  1.00  0.00     0.148 C 
BRANCH   2   3
HETATM    3  C   UNL     1      65.385   6.908   6.468  1.00  0.00     0.080 C 
HETATM    4  S   UNL     1      66.606   8.047   6.400  1.00  0.00    -0.065 SA
HETATM    5  N   UNL     1      64.092   7.322   6.602  1.00  0.00    -0.393 N 
HETATM    6  H   UNL     1      63.891   8.278   6.721  1.00  0.00     0.156 HD
HETATM    7  H   UNL     1      63.360   6.664   6.581  1.00  0.00     0.156 HD
ENDBRANCH   2   3
ENDBRANCH   1   2
BRANCH   1   8
HETATM    8  C   UNL     1      68.162   4.371   7.098  1.00  0.00     0.000 A 
HETATM    9  C   UNL     1      68.388   2.995   7.210  1.00  0.00     0.018 A 
HETATM   10  C   UNL     1      69.091   2.476   8.304  1.00  0.00     0.001 A 
HETATM   11  C   UNL     1      69.577   3.327   9.294  1.00  0.00     0.000 A 
HETATM   12  C   UNL     1      69.355   4.697   9.196  1.00  0.00     0.001 A 
HETATM   13  C   UNL     1      68.654   5.215   8.103  1.00  0.00     0.018 A 
ENDBRANCH   1   8
TORSDOF 3
ENDMDL
