MODEL 1
REMARK VINA RESULT:      -3.9      0.000      0.000
REMARK  1 active torsions:
REMARK  status: ('A' for Active; 'I' for Inactive)
REMARK    1  A    between atoms: C_1  and  C_2 
ROOT
HETATM    1  C   UNL     1      76.528   2.677  17.820  1.00  0.00     0.347 C 
HETATM    2  N   UNL     1      76.314   1.481  18.659  1.00  0.00    -0.051 N 
HETATM    3  S   UNL     1      74.967   2.971  16.964  1.00  0.00    -0.124 SA
HETATM    4  C   UNL     1      75.521   0.525  17.877  1.00  0.00     0.244 C 
HETATM    5  C   UNL     1      74.574   1.214  16.892  1.00  0.00     0.104 C 
HETATM    6  H   UNL     1      75.811   1.737  19.509  1.00  0.00     0.279 HD
HETATM    7  H   UNL     1      77.208   1.068  18.928  1.00  0.00     0.279 HD
ENDROOT
BRANCH   1   8
HETATM    8  C   UNL     1      76.916   3.899  18.667  1.00  0.00     0.215 C 
HETATM    9  O   UNL     1      76.937   5.067  18.287  1.00  0.00    -0.646 OA
HETATM   10  O   UNL     1      77.198   3.606  19.959  1.00  0.00    -0.646 OA
ENDBRANCH   1   8
TORSDOF 1
ENDMDL
MODEL 2
REMARK VINA RESULT:      -3.8      2.964      3.784
REMARK  1 active torsions:
REMARK  status: ('A' for Active; 'I' for Inactive)
REMARK    1  A    between atoms: C_1  and  C_2 
ROOT
HETATM    1  C   UNL     1      75.384   2.554  16.949  1.00  0.00     0.347 C 
HETATM    2  N   UNL     1      74.557   3.775  16.884  1.00  0.00    -0.051 N 
HETATM    3  S   UNL     1      76.745   2.934  18.073  1.00  0.00    -0.124 SA
HETATM    4  C   UNL     1      75.466   4.927  16.841  1.00  0.00     0.244 C 
HETATM    5  C   UNL     1      76.776   4.669  17.589  1.00  0.00     0.104 C 
HETATM    6  H   UNL     1      73.958   3.835  17.707  1.00  0.00     0.279 HD
HETATM    7  H   UNL     1      73.961   3.759  16.056  1.00  0.00     0.279 HD
ENDROOT
BRANCH   1   8
HETATM    8  C   UNL     1      74.578   1.353  17.467  1.00  0.00     0.215 C 
HETATM    9  O   UNL     1      74.021   0.503  16.777  1.00  0.00    -0.646 OA
HETATM   10  O   UNL     1      74.560   1.242  18.817  1.00  0.00    -0.646 OA
ENDBRANCH   1   8
TORSDOF 1
ENDMDL
MODEL 3
REMARK VINA RESULT:      -3.8     20.378     21.147
REMARK  1 active torsions:
REMARK  status: ('A' for Active; 'I' for Inactive)
REMARK    1  A    between atoms: C_1  and  C_2 
ROOT
HETATM    1  C   UNL     1      72.903  22.841  15.100  1.00  0.00     0.347 C 
HETATM    2  N   UNL     1      72.772  24.291  15.349  1.00  0.00    -0.051 N 
HETATM    3  S   UNL     1      71.921  22.497  13.626  1.00  0.00    -0.124 SA
HETATM    4  C   UNL     1      71.376  24.662  15.089  1.00  0.00     0.244 C 
HETATM    5  C   UNL     1      70.726  23.788  14.014  1.00  0.00     0.104 C 
HETATM    6  H   UNL     1      73.392  24.808  14.725  1.00  0.00     0.279 HD
HETATM    7  H   UNL     1      73.028  24.513  16.311  1.00  0.00     0.279 HD
ENDROOT
BRANCH   1   8
HETATM    8  C   UNL     1      74.369  22.437  14.877  1.00  0.00     0.215 C 
HETATM    9  O   UNL     1      75.167  22.096  15.748  1.00  0.00    -0.646 OA
HETATM   10  O   UNL     1      74.744  22.420  13.576  1.00  0.00    -0.646 OA
ENDBRANCH   1   8
TORSDOF 1
ENDMDL
MODEL 4
REMARK VINA RESULT:      -3.8     22.118     22.478
REMARK  1 active torsions:
REMARK  status: ('A' for Active; 'I' for Inactive)
REMARK    1  A    between atoms: C_1  and  C_2 
ROOT
HETATM    1  C   UNL     1      61.938   9.729   2.976  1.00  0.00     0.347 C 
HETATM    2  N   UNL     1      60.707   9.089   3.482  1.00  0.00    -0.051 N 
HETATM    3  S   UNL     1      62.039   9.300   1.226  1.00  0.00    -0.124 SA
HETATM    4  C   UNL     1      60.616   7.756   2.874  1.00  0.00     0.244 C 
HETATM    5  C   UNL     1      61.248   7.701   1.482  1.00  0.00     0.104 C 
HETATM    6  H   UNL     1      59.893   9.647   3.223  1.00  0.00     0.279 HD
HETATM    7  H   UNL     1      60.734   9.017   4.500  1.00  0.00     0.279 HD
ENDROOT
BRANCH   1   8
HETATM    8  C   UNL     1      61.896  11.254   3.155  1.00  0.00     0.215 C 
HETATM    9  O   UNL     1      61.853  11.857   4.225  1.00  0.00    -0.646 OA
HETATM   10  O   UNL     1      61.972  11.948   1.994  1.00  0.00    -0.646 OA
ENDBRANCH   1   8
TORSDOF 1
ENDMDL
MODEL 5
REMARK VINA RESULT:      -3.6     20.883     21.692
REMARK  1 active torsions:
REMARK  status: ('A' for Active; 'I' for Inactive)
REMARK    1  A    between atoms: C_1  and  C_2 
ROOT
HETATM    1  C   UNL     1      61.888   9.793   3.322  1.00  0.00     0.347 C 
HETATM    2  N   UNL     1      62.230   9.289   1.976  1.00  0.00    -0.051 N 
HETATM    3  S   UNL     1      63.135   9.118   4.438  1.00  0.00    -0.124 SA
HETATM    4  C   UNL     1      62.649   7.890   2.119  1.00  0.00     0.244 C 
HETATM    5  C   UNL     1      63.313   7.610   3.468  1.00  0.00     0.104 C 
HETATM    6  H   UNL     1      62.990   9.842   1.580  1.00  0.00     0.279 HD
HETATM    7  H   UNL     1      61.425   9.360   1.353  1.00  0.00     0.279 HD
ENDROOT
BRANCH   1   8
HETATM    8  C   UNL     1      61.899  11.329   3.368  1.00  0.00     0.215 C 
HETATM    9  O   UNL     1      61.885  12.023   4.382  1.00  0.00    -0.646 OA
HETATM   10  O   UNL     1      61.988  11.917   2.151  1.00  0.00    -0.646 OA
ENDBRANCH   1   8
TORSDOF 1
ENDMDL
MODEL 6
REMARK VINA RESULT:      -3.6      2.755      3.173
REMARK  1 active torsions:
REMARK  status: ('A' for Active; 'I' for Inactive)
REMARK    1  A    between atoms: C_1  and  C_2 
ROOT
HETATM    1  C   UNL     1      77.015   1.707  17.974  1.00  0.00     0.347 C 
HETATM    2  N   UNL     1      77.626   2.271  19.194  1.00  0.00    -0.051 N 
HETATM    3  S   UNL     1      76.940  -0.077  18.232  1.00  0.00    -0.124 SA
HETATM    4  C   UNL     1      78.713   1.372  19.603  1.00  0.00     0.244 C 
HETATM    5  C   UNL     1      78.444  -0.085  19.224  1.00  0.00     0.104 C 
HETATM    6  H   UNL     1      76.929   2.333  19.936  1.00  0.00     0.279 HD
HETATM    7  H   UNL     1      77.986   3.208  19.014  1.00  0.00     0.279 HD
ENDROOT
BRANCH   1   8
HETATM    8  C   UNL     1      75.608   2.276  17.733  1.00  0.00     0.215 C 
HETATM    9  O   UNL     1      75.315   3.176  16.949  1.00  0.00    -0.646 OA
HETATM   10  O   UNL     1      74.633   1.652  18.436  1.00  0.00    -0.646 OA
ENDBRANCH   1   8
TORSDOF 1
ENDMDL
MODEL 7
REMARK VINA RESULT:      -3.5      1.971      2.366
REMARK  1 active torsions:
REMARK  status: ('A' for Active; 'I' for Inactive)
REMARK    1  A    between atoms: C_1  and  C_2 
ROOT
HETATM    1  C   UNL     1      77.315   1.432  18.337  1.00  0.00     0.347 C 
HETATM    2  N   UNL     1      76.145   0.639  18.766  1.00  0.00    -0.051 N 
HETATM    3  S   UNL     1      76.678   3.062  17.895  1.00  0.00    -0.124 SA
HETATM    4  C   UNL     1      75.035   0.958  17.860  1.00  0.00     0.244 C 
HETATM    5  C   UNL     1      75.107   2.390  17.324  1.00  0.00     0.104 C 
HETATM    6  H   UNL     1      75.893   0.882  19.724  1.00  0.00     0.279 HD
HETATM    7  H   UNL     1      76.358  -0.358  18.734  1.00  0.00     0.279 HD
ENDROOT
BRANCH   1   8
HETATM    8  C   UNL     1      78.360   1.548  19.457  1.00  0.00     0.215 C 
HETATM    9  O   UNL     1      79.387   0.882  19.562  1.00  0.00    -0.646 OA
HETATM   10  O   UNL     1      78.101   2.529  20.354  1.00  0.00    -0.646 OA
ENDBRANCH   1   8
TORSDOF 1
ENDMDL
MODEL 8
REMARK VINA RESULT:      -3.5     10.950     11.844
REMARK  1 active torsions:
REMARK  status: ('A' for Active; 'I' for Inactive)
REMARK    1  A    between atoms: C_1  and  C_2 
ROOT
HETATM    1  C   UNL     1      68.652   2.672   9.229  1.00  0.00     0.347 C 
HETATM    2  N   UNL     1      67.306   3.252   9.045  1.00  0.00    -0.051 N 
HETATM    3  S   UNL     1      69.790   4.070   9.307  1.00  0.00    -0.124 SA
HETATM    4  C   UNL     1      67.428   4.369   8.101  1.00  0.00     0.244 C 
HETATM    5  C   UNL     1      68.791   5.060   8.181  1.00  0.00     0.104 C 
HETATM    6  H   UNL     1      66.947   3.589   9.939  1.00  0.00     0.279 HD
HETATM    7  H   UNL     1      66.660   2.549   8.686  1.00  0.00     0.279 HD
ENDROOT
BRANCH   1   8
HETATM    8  C   UNL     1      68.736   1.836  10.516  1.00  0.00     0.215 C 
HETATM    9  O   UNL     1      67.807   1.235  11.051  1.00  0.00    -0.646 OA
HETATM   10  O   UNL     1      69.984   1.745  11.033  1.00  0.00    -0.646 OA
ENDBRANCH   1   8
TORSDOF 1
ENDMDL
MODEL 9
REMARK VINA RESULT:      -3.4     13.965     14.715
REMARK  1 active torsions:
REMARK  status: ('A' for Active; 'I' for Inactive)
REMARK    1  A    between atoms: C_1  and  C_2 
ROOT
HETATM    1  C   UNL     1      67.043   6.469   7.348  1.00  0.00     0.347 C 
HETATM    2  N   UNL     1      67.677   6.782   8.645  1.00  0.00    -0.051 N 
HETATM    3  S   UNL     1      66.276   4.848   7.546  1.00  0.00    -0.124 SA
HETATM    4  C   UNL     1      68.293   5.549   9.148  1.00  0.00     0.244 C 
HETATM    5  C   UNL     1      67.543   4.292   8.701  1.00  0.00     0.104 C 
HETATM    6  H   UNL     1      66.973   7.114   9.305  1.00  0.00     0.279 HD
HETATM    7  H   UNL     1      68.380   7.513   8.533  1.00  0.00     0.279 HD
ENDROOT
BRANCH   1   8
HETATM    8  C   UNL     1      65.990   7.521   6.966  1.00  0.00     0.215 C 
HETATM    9  O   UNL     1      66.204   8.585   6.391  1.00  0.00    -0.646 OA
HETATM   10  O   UNL     1      64.719   7.162   7.267  1.00  0.00    -0.646 OA
ENDBRANCH   1   8
TORSDOF 1
ENDMDL
