MODEL 1
REMARK VINA RESULT:      -5.7      0.000      0.000
REMARK  0 active torsions:
REMARK  status: ('A' for Active; 'I' for Inactive)
ROOT
HETATM    1  O   UNL     1      65.382   7.309   7.168  1.00  0.00    -0.336 OA
HETATM    2  C   UNL     1      66.431   6.555   7.610  1.00  0.00     0.080 A 
HETATM    3  C   UNL     1      67.141   5.663   6.802  1.00  0.00    -0.002 A 
HETATM    4  C   UNL     1      66.774   5.496   5.407  1.00  0.00     0.013 A 
HETATM    5  N   UNL     1      70.564   3.773   9.662  1.00  0.00    -0.191 NA
HETATM    6  C   UNL     1      64.915   7.130   5.814  1.00  0.00     0.078 A 
HETATM    7  C   UNL     1      65.729   6.192   4.952  1.00  0.00     0.011 A 
HETATM    8  C   UNL     1      69.669   4.374   9.229  1.00  0.00     0.099 C 
HETATM    9  C   UNL     1      68.210   4.942   7.344  1.00  0.00     0.037 A 
HETATM   10  C   UNL     1      66.786   6.726   8.949  1.00  0.00     0.039 A 
HETATM   11  C   UNL     1      68.569   5.113   8.686  1.00  0.00     0.045 A 
HETATM   12  C   UNL     1      67.853   6.006   9.489  1.00  0.00     0.025 A 
HETATM   13  C   UNL     1      63.484   6.589   5.913  1.00  0.00     0.051 C 
HETATM   14  C   UNL     1      64.917   8.523   5.174  1.00  0.00     0.051 C 
ENDROOT
TORSDOF 0
ENDMDL
MODEL 2
REMARK VINA RESULT:      -5.7     12.851     14.583
REMARK  0 active torsions:
REMARK  status: ('A' for Active; 'I' for Inactive)
ROOT
HETATM    1  O   UNL     1      74.613   1.230  16.940  1.00  0.00    -0.336 OA
HETATM    2  C   UNL     1      75.183   2.455  17.135  1.00  0.00     0.080 A 
HETATM    3  C   UNL     1      76.424   2.646  17.748  1.00  0.00    -0.002 A 
HETATM    4  C   UNL     1      77.184   1.502  18.221  1.00  0.00     0.013 A 
HETATM    5  N   UNL     1      77.172   7.432  17.694  1.00  0.00    -0.191 NA
HETATM    6  C   UNL     1      75.279   0.060  17.461  1.00  0.00     0.078 A 
HETATM    7  C   UNL     1      76.639   0.292  18.078  1.00  0.00     0.011 A 
HETATM    8  C   UNL     1      76.733   6.363  17.573  1.00  0.00     0.099 C 
HETATM    9  C   UNL     1      76.931   3.942  17.893  1.00  0.00     0.037 A 
HETATM   10  C   UNL     1      74.453   3.550  16.670  1.00  0.00     0.039 A 
HETATM   11  C   UNL     1      76.202   5.041  17.426  1.00  0.00     0.045 A 
HETATM   12  C   UNL     1      74.960   4.843  16.815  1.00  0.00     0.025 A 
HETATM   13  C   UNL     1      74.350  -0.533  18.526  1.00  0.00     0.051 C 
HETATM   14  C   UNL     1      75.426  -0.908  16.281  1.00  0.00     0.051 C 
ENDROOT
TORSDOF 0
ENDMDL
MODEL 3
REMARK VINA RESULT:      -5.6      1.702      2.899
REMARK  0 active torsions:
REMARK  status: ('A' for Active; 'I' for Inactive)
ROOT
HETATM    1  O   UNL     1      67.380   5.436   5.909  1.00  0.00    -0.336 OA
HETATM    2  C   UNL     1      67.894   4.756   6.975  1.00  0.00     0.080 A 
HETATM    3  C   UNL     1      67.879   5.240   8.286  1.00  0.00    -0.002 A 
HETATM    4  C   UNL     1      67.294   6.538   8.574  1.00  0.00     0.013 A 
HETATM    5  N   UNL     1      69.959   1.782  10.966  1.00  0.00    -0.191 NA
HETATM    6  C   UNL     1      66.859   6.766   6.115  1.00  0.00     0.078 A 
HETATM    7  C   UNL     1      66.814   7.245   7.548  1.00  0.00     0.011 A 
HETATM    8  C   UNL     1      69.520   2.418  10.099  1.00  0.00     0.099 C 
HETATM    9  C   UNL     1      68.421   4.463   9.316  1.00  0.00     0.037 A 
HETATM   10  C   UNL     1      68.447   3.505   6.695  1.00  0.00     0.039 A 
HETATM   11  C   UNL     1      68.973   3.208   9.037  1.00  0.00     0.045 A 
HETATM   12  C   UNL     1      68.987   2.730   7.723  1.00  0.00     0.025 A 
HETATM   13  C   UNL     1      67.751   7.715   5.307  1.00  0.00     0.051 C 
HETATM   14  C   UNL     1      65.435   6.759   5.548  1.00  0.00     0.051 C 
ENDROOT
TORSDOF 0
ENDMDL
MODEL 4
REMARK VINA RESULT:      -5.6      1.566      2.108
REMARK  0 active torsions:
REMARK  status: ('A' for Active; 'I' for Inactive)
ROOT
HETATM    1  O   UNL     1      67.513   6.591   7.092  1.00  0.00    -0.336 OA
HETATM    2  C   UNL     1      68.027   5.481   7.700  1.00  0.00     0.080 A 
HETATM    3  C   UNL     1      68.161   4.242   7.069  1.00  0.00    -0.002 A 
HETATM    4  C   UNL     1      67.739   4.079   5.689  1.00  0.00     0.013 A 
HETATM    5  N   UNL     1      70.155   1.318  10.377  1.00  0.00    -0.191 NA
HETATM    6  C   UNL     1      67.001   6.475   5.747  1.00  0.00     0.078 A 
HETATM    7  C   UNL     1      67.199   5.135   5.076  1.00  0.00     0.011 A 
HETATM    8  C   UNL     1      69.693   2.220   9.809  1.00  0.00     0.099 C 
HETATM    9  C   UNL     1      68.710   3.164   7.773  1.00  0.00     0.037 A 
HETATM   10  C   UNL     1      68.439   5.645   9.023  1.00  0.00     0.039 A 
HETATM   11  C   UNL     1      69.126   3.327   9.099  1.00  0.00     0.045 A 
HETATM   12  C   UNL     1      68.988   4.570   9.725  1.00  0.00     0.025 A 
HETATM   13  C   UNL     1      65.498   6.768   5.826  1.00  0.00     0.051 C 
HETATM   14  C   UNL     1      67.713   7.554   4.924  1.00  0.00     0.051 C 
ENDROOT
TORSDOF 0
ENDMDL
MODEL 5
REMARK VINA RESULT:      -5.4      3.596      5.866
REMARK  0 active torsions:
REMARK  status: ('A' for Active; 'I' for Inactive)
ROOT
HETATM    1  O   UNL     1      65.674   5.730   6.734  1.00  0.00    -0.336 OA
HETATM    2  C   UNL     1      64.958   6.756   6.187  1.00  0.00     0.080 A 
HETATM    3  C   UNL     1      65.526   7.774   5.416  1.00  0.00    -0.002 A 
HETATM    4  C   UNL     1      66.955   7.781   5.160  1.00  0.00     0.013 A 
HETATM    5  N   UNL     1      61.831  10.630   4.126  1.00  0.00    -0.191 NA
HETATM    6  C   UNL     1      67.110   5.723   6.585  1.00  0.00     0.078 A 
HETATM    7  C   UNL     1      67.690   6.811   5.710  1.00  0.00     0.011 A 
HETATM    8  C   UNL     1      62.498   9.793   4.578  1.00  0.00     0.099 C 
HETATM    9  C   UNL     1      64.707   8.779   4.889  1.00  0.00     0.037 A 
HETATM   10  C   UNL     1      63.584   6.740   6.429  1.00  0.00     0.039 A 
HETATM   11  C   UNL     1      63.329   8.764   5.128  1.00  0.00     0.045 A 
HETATM   12  C   UNL     1      62.767   7.743   5.902  1.00  0.00     0.025 A 
HETATM   13  C   UNL     1      67.696   5.861   7.994  1.00  0.00     0.051 C 
HETATM   14  C   UNL     1      67.470   4.359   5.986  1.00  0.00     0.051 C 
ENDROOT
TORSDOF 0
ENDMDL
MODEL 6
REMARK VINA RESULT:      -5.4      3.005      5.466
REMARK  0 active torsions:
REMARK  status: ('A' for Active; 'I' for Inactive)
ROOT
HETATM    1  O   UNL     1      68.577   4.946   7.095  1.00  0.00    -0.336 OA
HETATM    2  C   UNL     1      67.595   5.759   6.607  1.00  0.00     0.080 A 
HETATM    3  C   UNL     1      66.834   6.620   7.401  1.00  0.00    -0.002 A 
HETATM    4  C   UNL     1      67.066   6.685   8.833  1.00  0.00     0.013 A 
HETATM    5  N   UNL     1      63.830   8.879   4.344  1.00  0.00    -0.191 NA
HETATM    6  C   UNL     1      68.802   4.902   8.520  1.00  0.00     0.078 A 
HETATM    7  C   UNL     1      67.996   5.877   9.349  1.00  0.00     0.011 A 
HETATM    8  C   UNL     1      64.641   8.199   4.824  1.00  0.00     0.099 C 
HETATM    9  C   UNL     1      65.855   7.424   6.806  1.00  0.00     0.037 A 
HETATM   10  C   UNL     1      67.381   5.700   5.229  1.00  0.00     0.039 A 
HETATM   11  C   UNL     1      65.641   7.368   5.424  1.00  0.00     0.045 A 
HETATM   12  C   UNL     1      66.405   6.502   4.636  1.00  0.00     0.025 A 
HETATM   13  C   UNL     1      68.466   3.477   8.972  1.00  0.00     0.051 C 
HETATM   14  C   UNL     1      70.294   5.191   8.726  1.00  0.00     0.051 C 
ENDROOT
TORSDOF 0
ENDMDL
MODEL 7
REMARK VINA RESULT:      -5.3      3.046      5.572
REMARK  0 active torsions:
REMARK  status: ('A' for Active; 'I' for Inactive)
ROOT
HETATM    1  O   UNL     1      67.485   2.359   8.530  1.00  0.00    -0.336 OA
HETATM    2  C   UNL     1      67.326   3.672   8.192  1.00  0.00     0.080 A 
HETATM    3  C   UNL     1      68.160   4.697   8.644  1.00  0.00    -0.002 A 
HETATM    4  C   UNL     1      69.273   4.394   9.526  1.00  0.00     0.013 A 
HETATM    5  N   UNL     1      66.444   8.748   6.614  1.00  0.00    -0.191 NA
HETATM    6  C   UNL     1      68.522   2.002   9.469  1.00  0.00     0.078 A 
HETATM    7  C   UNL     1      69.437   3.124   9.905  1.00  0.00     0.011 A 
HETATM    8  C   UNL     1      66.624   7.651   6.953  1.00  0.00     0.099 C 
HETATM    9  C   UNL     1      67.922   6.013   8.232  1.00  0.00     0.037 A 
HETATM   10  C   UNL     1      66.260   3.958   7.337  1.00  0.00     0.039 A 
HETATM   11  C   UNL     1      66.856   6.302   7.373  1.00  0.00     0.045 A 
HETATM   12  C   UNL     1      66.023   5.271   6.927  1.00  0.00     0.025 A 
HETATM   13  C   UNL     1      67.816   1.435  10.706  1.00  0.00     0.051 C 
HETATM   14  C   UNL     1      69.360   0.914   8.786  1.00  0.00     0.051 C 
ENDROOT
TORSDOF 0
ENDMDL
MODEL 8
REMARK VINA RESULT:      -5.2      3.043      5.219
REMARK  0 active torsions:
REMARK  status: ('A' for Active; 'I' for Inactive)
ROOT
HETATM    1  O   UNL     1      67.544   3.491   9.459  1.00  0.00    -0.336 OA
HETATM    2  C   UNL     1      67.349   4.479   8.537  1.00  0.00     0.080 A 
HETATM    3  C   UNL     1      67.847   4.433   7.232  1.00  0.00    -0.002 A 
HETATM    4  C   UNL     1      68.623   3.287   6.791  1.00  0.00     0.013 A 
HETATM    5  N   UNL     1      66.346   8.531   5.130  1.00  0.00    -0.191 NA
HETATM    6  C   UNL     1      68.375   2.364   9.109  1.00  0.00     0.078 A 
HETATM    7  C   UNL     1      68.862   2.319   7.678  1.00  0.00     0.011 A 
HETATM    8  C   UNL     1      66.561   7.664   5.873  1.00  0.00     0.099 C 
HETATM    9  C   UNL     1      67.586   5.491   6.355  1.00  0.00     0.037 A 
HETATM   10  C   UNL     1      66.596   5.573   8.963  1.00  0.00     0.039 A 
HETATM   11  C   UNL     1      66.829   6.588   6.780  1.00  0.00     0.045 A 
HETATM   12  C   UNL     1      66.335   6.629   8.088  1.00  0.00     0.025 A 
HETATM   13  C   UNL     1      69.590   2.411  10.041  1.00  0.00     0.051 C 
HETATM   14  C   UNL     1      67.535   1.111   9.388  1.00  0.00     0.051 C 
ENDROOT
TORSDOF 0
ENDMDL
MODEL 9
REMARK VINA RESULT:      -5.0      3.647      5.637
REMARK  0 active torsions:
REMARK  status: ('A' for Active; 'I' for Inactive)
ROOT
HETATM    1  O   UNL     1      62.709   7.349   2.146  1.00  0.00    -0.336 OA
HETATM    2  C   UNL     1      63.539   7.469   3.223  1.00  0.00     0.080 A 
HETATM    3  C   UNL     1      63.510   8.548   4.110  1.00  0.00    -0.002 A 
HETATM    4  C   UNL     1      62.559   9.627   3.910  1.00  0.00     0.013 A 
HETATM    5  N   UNL     1      66.922   7.597   7.415  1.00  0.00    -0.191 NA
HETATM    6  C   UNL     1      61.797   8.427   1.845  1.00  0.00     0.078 A 
HETATM    7  C   UNL     1      61.757   9.559   2.846  1.00  0.00     0.011 A 
HETATM    8  C   UNL     1      66.200   7.563   6.505  1.00  0.00     0.099 C 
HETATM    9  C   UNL     1      64.395   8.575   5.193  1.00  0.00     0.037 A 
HETATM   10  C   UNL     1      64.445   6.424   3.416  1.00  0.00     0.039 A 
HETATM   11  C   UNL     1      65.302   7.529   5.390  1.00  0.00     0.045 A 
HETATM   12  C   UNL     1      65.327   6.452   4.497  1.00  0.00     0.025 A 
HETATM   13  C   UNL     1      62.220   8.989   0.483  1.00  0.00     0.051 C 
HETATM   14  C   UNL     1      60.404   7.794   1.753  1.00  0.00     0.051 C 
ENDROOT
TORSDOF 0
ENDMDL
