MODEL 1
REMARK VINA RESULT:      -5.4      0.000      0.000
REMARK  0 active torsions:
REMARK  status: ('A' for Active; 'I' for Inactive)
ROOT
HETATM    1  C   UNL     1      77.644   9.178  15.294  1.00  0.00     0.086 A 
HETATM    2  C   UNL     1      77.245   7.776  15.341  1.00  0.00     0.085 A 
HETATM    3  C   UNL     1      77.773   9.968  16.449  1.00  0.00     0.057 A 
HETATM    4  O   UNL     1      77.580   8.369  13.279  1.00  0.00    -0.156 OA
HETATM    5  N   UNL     1      77.843   9.513  14.014  1.00  0.00    -0.239 N 
ATOM      6  HN  UNL     1      78.128  10.423  13.653  1.00  0.00     0.197 HD
HETATM    7  N   UNL     1      77.214   7.306  14.090  1.00  0.00    -0.240 N 
ATOM      8  HN  UNL     1      76.971   6.361  13.793  1.00  0.00     0.197 HD
HETATM    9  C   UNL     1      76.961   7.115  16.550  1.00  0.00     0.035 A 
HETATM   10  C   UNL     1      77.483   9.286  17.644  1.00  0.00     0.036 A 
HETATM   11  C   UNL     1      77.094   7.920  17.698  1.00  0.00     0.026 A 
HETATM   12 CL   UNL     1      77.607  10.159  19.131  1.00  0.00    -0.084 Cl
ENDROOT
TORSDOF 0
ENDMDL
MODEL 2
REMARK VINA RESULT:      -5.3      1.692      2.531
REMARK  0 active torsions:
REMARK  status: ('A' for Active; 'I' for Inactive)
ROOT
HETATM    1  C   UNL     1      77.264   7.791  14.739  1.00  0.00     0.086 A 
HETATM    2  C   UNL     1      77.587   9.073  15.355  1.00  0.00     0.085 A 
HETATM    3  C   UNL     1      76.901   6.660  15.491  1.00  0.00     0.057 A 
HETATM    4  O   UNL     1      77.760   9.238  13.197  1.00  0.00    -0.156 OA
HETATM    5  N   UNL     1      77.379   7.924  13.413  1.00  0.00    -0.239 N 
ATOM      6  HN  UNL     1      77.220   7.206  12.706  1.00  0.00     0.197 HD
HETATM    7  N   UNL     1      77.888   9.942  14.383  1.00  0.00    -0.240 N 
ATOM      8  HN  UNL     1      78.156  10.919  14.493  1.00  0.00     0.197 HD
HETATM    9  C   UNL     1      77.558   9.267  16.748  1.00  0.00     0.035 A 
HETATM   10  C   UNL     1      76.882   6.878  16.879  1.00  0.00     0.036 A 
HETATM   11  C   UNL     1      77.195   8.125  17.486  1.00  0.00     0.026 A 
HETATM   12 CL   UNL     1      76.452   5.556  17.905  1.00  0.00    -0.084 Cl
ENDROOT
TORSDOF 0
ENDMDL
MODEL 3
REMARK VINA RESULT:      -5.1     19.274     19.859
REMARK  0 active torsions:
REMARK  status: ('A' for Active; 'I' for Inactive)
ROOT
HETATM    1  C   UNL     1      62.847   9.541   4.281  1.00  0.00     0.086 A 
HETATM    2  C   UNL     1      62.349  10.889   4.031  1.00  0.00     0.085 A 
HETATM    3  C   UNL     1      62.839   8.537   3.298  1.00  0.00     0.057 A 
HETATM    4  O   UNL     1      63.060  10.744   6.077  1.00  0.00    -0.156 OA
HETATM    5  N   UNL     1      63.277   9.483   5.547  1.00  0.00    -0.239 N 
ATOM      6  HN  UNL     1      63.681   8.676   6.023  1.00  0.00     0.197 HD
HETATM    7  N   UNL     1      62.492  11.604   5.152  1.00  0.00    -0.240 N 
ATOM      8  HN  UNL     1      62.237  12.581   5.296  1.00  0.00     0.197 HD
HETATM    9  C   UNL     1      61.824  11.279   2.785  1.00  0.00     0.035 A 
HETATM   10  C   UNL     1      62.308   8.949   2.063  1.00  0.00     0.036 A 
HETATM   11  C   UNL     1      61.822  10.261   1.812  1.00  0.00     0.026 A 
HETATM   12 CL   UNL     1      62.245   7.795   0.778  1.00  0.00    -0.084 Cl
ENDROOT
TORSDOF 0
ENDMDL
MODEL 4
REMARK VINA RESULT:      -5.0      7.190      7.966
REMARK  0 active torsions:
REMARK  status: ('A' for Active; 'I' for Inactive)
ROOT
HETATM    1  C   UNL     1      76.388   2.683  18.204  1.00  0.00     0.086 A 
HETATM    2  C   UNL     1      77.420   1.732  18.600  1.00  0.00     0.085 A 
HETATM    3  C   UNL     1      75.469   2.418  17.174  1.00  0.00     0.057 A 
HETATM    4  O   UNL     1      77.565   3.517  19.828  1.00  0.00    -0.156 OA
HETATM    5  N   UNL     1      76.502   3.769  18.977  1.00  0.00    -0.239 N 
ATOM      6  HN  UNL     1      75.926   4.611  18.945  1.00  0.00     0.197 HD
HETATM    7  N   UNL     1      78.128   2.272  19.598  1.00  0.00    -0.240 N 
ATOM      8  HN  UNL     1      78.918   1.853  20.089  1.00  0.00     0.197 HD
HETATM    9  C   UNL     1      77.569   0.480  17.976  1.00  0.00     0.035 A 
HETATM   10  C   UNL     1      75.639   1.162  16.565  1.00  0.00     0.036 A 
HETATM   11  C   UNL     1      76.642   0.230  16.946  1.00  0.00     0.026 A 
HETATM   12 CL   UNL     1      74.565   0.727  15.282  1.00  0.00    -0.084 Cl
ENDROOT
TORSDOF 0
ENDMDL
MODEL 5
REMARK VINA RESULT:      -4.9     19.993     20.527
REMARK  0 active torsions:
REMARK  status: ('A' for Active; 'I' for Inactive)
ROOT
HETATM    1  C   UNL     1      61.992  10.319   2.323  1.00  0.00     0.086 A 
HETATM    2  C   UNL     1      62.412   9.882   3.649  1.00  0.00     0.085 A 
HETATM    3  C   UNL     1      61.982   9.461   1.210  1.00  0.00     0.057 A 
HETATM    4  O   UNL     1      61.841  11.975   3.720  1.00  0.00    -0.156 OA
HETATM    5  N   UNL     1      61.646  11.610   2.398  1.00  0.00    -0.239 N 
ATOM      6  HN  UNL     1      61.310  12.202   1.639  1.00  0.00     0.197 HD
HETATM    7  N   UNL     1      62.309  10.920   4.486  1.00  0.00    -0.240 N 
ATOM      8  HN  UNL     1      62.530  10.933   5.481  1.00  0.00     0.197 HD
HETATM    9  C   UNL     1      62.839   8.567   3.907  1.00  0.00     0.035 A 
HETATM   10  C   UNL     1      62.414   8.153   1.492  1.00  0.00     0.036 A 
HETATM   11  C   UNL     1      62.824   7.720   2.782  1.00  0.00     0.026 A 
HETATM   12 CL   UNL     1      62.446   7.008   0.198  1.00  0.00    -0.084 Cl
ENDROOT
TORSDOF 0
ENDMDL
MODEL 6
REMARK VINA RESULT:      -4.8     19.744     20.310
REMARK  0 active torsions:
REMARK  status: ('A' for Active; 'I' for Inactive)
ROOT
HETATM    1  C   UNL     1      62.413   9.845   3.581  1.00  0.00     0.086 A 
HETATM    2  C   UNL     1      61.975  10.288   2.262  1.00  0.00     0.085 A 
HETATM    3  C   UNL     1      62.847   8.533   3.833  1.00  0.00     0.057 A 
HETATM    4  O   UNL     1      61.838  11.938   3.666  1.00  0.00    -0.156 OA
HETATM    5  N   UNL     1      62.318  10.881   4.422  1.00  0.00    -0.239 N 
ATOM      6  HN  UNL     1      62.550  10.891   5.415  1.00  0.00     0.197 HD
HETATM    7  N   UNL     1      61.628  11.577   2.345  1.00  0.00    -0.240 N 
ATOM      8  HN  UNL     1      61.280  12.171   1.593  1.00  0.00     0.197 HD
HETATM    9  C   UNL     1      61.957   9.430   1.148  1.00  0.00     0.035 A 
HETATM   10  C   UNL     1      62.818   7.693   2.706  1.00  0.00     0.036 A 
HETATM   11  C   UNL     1      62.394   8.118   1.418  1.00  0.00     0.026 A 
HETATM   12 CL   UNL     1      63.329   6.054   2.897  1.00  0.00    -0.084 Cl
ENDROOT
TORSDOF 0
ENDMDL
MODEL 7
REMARK VINA RESULT:      -4.8     18.947     19.475
REMARK  0 active torsions:
REMARK  status: ('A' for Active; 'I' for Inactive)
ROOT
HETATM    1  C   UNL     1      62.240  10.124   3.293  1.00  0.00     0.086 A 
HETATM    2  C   UNL     1      62.907  10.165   4.588  1.00  0.00     0.085 A 
HETATM    3  C   UNL     1      62.316   9.011   2.437  1.00  0.00     0.057 A 
HETATM    4  O   UNL     1      61.842  12.028   4.258  1.00  0.00    -0.156 OA
HETATM    5  N   UNL     1      61.594  11.282   3.118  1.00  0.00    -0.239 N 
ATOM      6  HN  UNL     1      61.034  11.560   2.312  1.00  0.00     0.197 HD
HETATM    7  N   UNL     1      62.646  11.347   5.158  1.00  0.00    -0.240 N 
ATOM      8  HN  UNL     1      62.971  11.678   6.066  1.00  0.00     0.197 HD
HETATM    9  C   UNL     1      63.677   9.092   5.074  1.00  0.00     0.035 A 
HETATM   10  C   UNL     1      63.091   7.953   2.942  1.00  0.00     0.036 A 
HETATM   11  C   UNL     1      63.744   7.986   4.204  1.00  0.00     0.026 A 
HETATM   12 CL   UNL     1      63.258   6.531   1.974  1.00  0.00    -0.084 Cl
ENDROOT
TORSDOF 0
ENDMDL
MODEL 8
REMARK VINA RESULT:      -4.8     11.858     12.720
REMARK  0 active torsions:
REMARK  status: ('A' for Active; 'I' for Inactive)
ROOT
HETATM    1  C   UNL     1      68.061   2.928   9.395  1.00  0.00     0.086 A 
HETATM    2  C   UNL     1      69.396   3.165   9.931  1.00  0.00     0.085 A 
HETATM    3  C   UNL     1      67.494   3.734   8.393  1.00  0.00     0.057 A 
HETATM    4  O   UNL     1      68.511   1.441  10.912  1.00  0.00    -0.156 OA
HETATM    5  N   UNL     1      67.543   1.863  10.017  1.00  0.00    -0.239 N 
ATOM      6  HN  UNL     1      66.624   1.447   9.864  1.00  0.00     0.197 HD
HETATM    7  N   UNL     1      69.645   2.236  10.862  1.00  0.00    -0.240 N 
ATOM      8  HN  UNL     1      70.493   2.135  11.419  1.00  0.00     0.197 HD
HETATM    9  C   UNL     1      70.212   4.219   9.483  1.00  0.00     0.035 A 
HETATM   10  C   UNL     1      68.327   4.782   7.962  1.00  0.00     0.036 A 
HETATM   11  C   UNL     1      69.629   5.018   8.480  1.00  0.00     0.026 A 
HETATM   12 CL   UNL     1      67.734   5.841   6.732  1.00  0.00    -0.084 Cl
ENDROOT
TORSDOF 0
ENDMDL
MODEL 9
REMARK VINA RESULT:      -4.6     18.944     19.479
REMARK  0 active torsions:
REMARK  status: ('A' for Active; 'I' for Inactive)
ROOT
HETATM    1  C   UNL     1      62.673   9.692   4.719  1.00  0.00     0.086 A 
HETATM    2  C   UNL     1      62.781   8.426   4.005  1.00  0.00     0.085 A 
HETATM    3  C   UNL     1      62.279  10.885   4.090  1.00  0.00     0.057 A 
HETATM    4  O   UNL     1      63.312   8.133   6.090  1.00  0.00    -0.156 OA
HETATM    5  N   UNL     1      63.006   9.480   5.998  1.00  0.00    -0.239 N 
ATOM      6  HN  UNL     1      63.030  10.169   6.750  1.00  0.00     0.197 HD
HETATM    7  N   UNL     1      63.175   7.486   4.872  1.00  0.00    -0.240 N 
ATOM      8  HN  UNL     1      63.341   6.499   4.677  1.00  0.00     0.197 HD
HETATM    9  C   UNL     1      62.496   8.309   2.632  1.00  0.00     0.035 A 
HETATM   10  C   UNL     1      62.001  10.745   2.718  1.00  0.00     0.036 A 
HETATM   11  C   UNL     1      62.103   9.513   2.016  1.00  0.00     0.026 A 
HETATM   12 CL   UNL     1      61.508  12.148   1.839  1.00  0.00    -0.084 Cl
ENDROOT
TORSDOF 0
ENDMDL
