MODEL 1
REMARK VINA RESULT:      -3.6      0.000      0.000
REMARK  2 active torsions:
REMARK  status: ('A' for Active; 'I' for Inactive)
REMARK    1  A    between atoms: C_2  and  C_8 
REMARK    2  A    between atoms: C_8  and  O_10 
ROOT
HETATM    1  N   UNL     1      77.223   3.392  17.931  1.00  0.00    -0.065 N 
HETATM    2  C   UNL     1      76.404   2.246  17.455  1.00  0.00     0.237 C 
HETATM    3  N   UNL     1      77.414   0.770  19.222  1.00  0.00    -0.071 N 
HETATM    4  C   UNL     1      77.188   0.936  17.770  1.00  0.00     0.269 C 
HETATM    5  C   UNL     1      77.496   3.292  19.371  1.00  0.00     0.262 C 
HETATM    6  C   UNL     1      78.159   1.940  19.736  1.00  0.00     0.262 C 
HETATM    7  C   UNL     1      76.739   4.702  17.530  1.00  0.00     0.270 C 
HETATM    8  C   UNL     1      78.135  -0.468  19.502  1.00  0.00     0.269 C 
HETATM    9  H   UNL     1      78.113   3.312  17.441  1.00  0.00     0.280 HD
HETATM   10  H   UNL     1      76.513   0.711  19.697  1.00  0.00     0.279 HD
ENDROOT
BRANCH   2  11
HETATM   11  C   UNL     1      74.964   2.102  18.019  1.00  0.00     0.199 C 
BRANCH  11  12
HETATM   12  O   UNL     1      74.702   0.809  18.558  1.00  0.00    -0.399 OA
HETATM   13  H   UNL     1      75.366   0.182  18.231  1.00  0.00     0.209 HD
ENDBRANCH  11  12
ENDBRANCH   2  11
TORSDOF 2
ENDMDL
MODEL 2
REMARK VINA RESULT:      -3.6      8.880     10.596
REMARK  2 active torsions:
REMARK  status: ('A' for Active; 'I' for Inactive)
REMARK    1  A    between atoms: C_2  and  C_8 
REMARK    2  A    between atoms: C_8  and  O_10 
ROOT
HETATM    1  N   UNL     1      78.081  10.468  19.840  1.00  0.00    -0.065 N 
HETATM    2  C   UNL     1      77.195  11.597  20.227  1.00  0.00     0.237 C 
HETATM    3  N   UNL     1      79.036  12.582  21.628  1.00  0.00    -0.071 N 
HETATM    4  C   UNL     1      77.641  12.092  21.636  1.00  0.00     0.269 C 
HETATM    5  C   UNL     1      79.491  10.878  19.817  1.00  0.00     0.262 C 
HETATM    6  C   UNL     1      79.930  11.498  21.167  1.00  0.00     0.262 C 
HETATM    7  C   UNL     1      77.674   9.749  18.645  1.00  0.00     0.270 C 
HETATM    8  C   UNL     1      79.433  13.055  22.950  1.00  0.00     0.269 C 
HETATM    9  H   UNL     1      77.973   9.773  20.578  1.00  0.00     0.280 HD
HETATM   10  H   UNL     1      79.109  13.373  20.987  1.00  0.00     0.279 HD
ENDROOT
BRANCH   2  11
HETATM   11  C   UNL     1      77.130  12.824  19.276  1.00  0.00     0.199 C 
BRANCH  11  12
HETATM   12  O   UNL     1      76.831  14.041  19.955  1.00  0.00    -0.399 OA
HETATM   13  H   UNL     1      76.154  13.877  20.630  1.00  0.00     0.209 HD
ENDBRANCH  11  12
ENDBRANCH   2  11
TORSDOF 2
ENDMDL
MODEL 3
REMARK VINA RESULT:      -3.5     15.111     16.417
REMARK  2 active torsions:
REMARK  status: ('A' for Active; 'I' for Inactive)
REMARK    1  A    between atoms: C_2  and  C_8 
REMARK    2  A    between atoms: C_8  and  O_10 
ROOT
HETATM    1  N   UNL     1      65.981   5.658   5.529  1.00  0.00    -0.065 N 
HETATM    2  C   UNL     1      65.698   6.832   6.394  1.00  0.00     0.237 C 
HETATM    3  N   UNL     1      67.656   6.246   7.858  1.00  0.00    -0.071 N 
HETATM    4  C   UNL     1      66.199   6.498   7.831  1.00  0.00     0.269 C 
HETATM    5  C   UNL     1      67.415   5.340   5.511  1.00  0.00     0.262 C 
HETATM    6  C   UNL     1      67.974   5.131   6.941  1.00  0.00     0.262 C 
HETATM    7  C   UNL     1      65.391   5.714   4.202  1.00  0.00     0.270 C 
HETATM    8  C   UNL     1      68.112   5.950   9.213  1.00  0.00     0.269 C 
HETATM    9  H   UNL     1      65.496   4.875   5.966  1.00  0.00     0.280 HD
HETATM   10  H   UNL     1      68.146   7.086   7.550  1.00  0.00     0.279 HD
ENDROOT
BRANCH   2  11
HETATM   11  C   UNL     1      66.298   8.202   5.973  1.00  0.00     0.199 C 
BRANCH  11  12
HETATM   12  O   UNL     1      66.873   8.918   7.063  1.00  0.00    -0.399 OA
HETATM   13  H   UNL     1      67.744   8.545   7.272  1.00  0.00     0.209 HD
ENDBRANCH  11  12
ENDBRANCH   2  11
TORSDOF 2
ENDMDL
MODEL 4
REMARK VINA RESULT:      -3.4     15.856     17.176
REMARK  2 active torsions:
REMARK  status: ('A' for Active; 'I' for Inactive)
REMARK    1  A    between atoms: C_2  and  C_8 
REMARK    2  A    between atoms: C_8  and  O_10 
ROOT
HETATM    1  N   UNL     1      64.893   7.948   6.023  1.00  0.00    -0.065 N 
HETATM    2  C   UNL     1      66.351   8.146   6.235  1.00  0.00     0.237 C 
HETATM    3  N   UNL     1      66.537   5.841   7.220  1.00  0.00    -0.071 N 
HETATM    4  C   UNL     1      66.778   7.280   7.458  1.00  0.00     0.269 C 
HETATM    5  C   UNL     1      64.575   6.534   5.787  1.00  0.00     0.262 C 
HETATM    6  C   UNL     1      65.104   5.628   6.927  1.00  0.00     0.262 C 
HETATM    7  C   UNL     1      64.285   8.842   5.053  1.00  0.00     0.270 C 
HETATM    8  C   UNL     1      66.956   5.043   8.368  1.00  0.00     0.269 C 
HETATM    9  H   UNL     1      64.452   8.222   6.901  1.00  0.00     0.280 HD
HETATM   10  H   UNL     1      67.093   5.537   6.420  1.00  0.00     0.279 HD
ENDROOT
BRANCH   2  11
HETATM   11  C   UNL     1      67.304   7.823   5.051  1.00  0.00     0.199 C 
BRANCH  11  12
HETATM   12  O   UNL     1      68.645   7.577   5.465  1.00  0.00    -0.399 OA
HETATM   13  H   UNL     1      69.139   7.172   4.735  1.00  0.00     0.209 HD
ENDBRANCH  11  12
ENDBRANCH   2  11
TORSDOF 2
ENDMDL
MODEL 5
REMARK VINA RESULT:      -3.4     12.359     13.895
REMARK  2 active torsions:
REMARK  status: ('A' for Active; 'I' for Inactive)
REMARK    1  A    between atoms: C_2  and  C_8 
REMARK    2  A    between atoms: C_8  and  O_10 
ROOT
HETATM    1  N   UNL     1      68.539   3.264   7.014  1.00  0.00    -0.065 N 
HETATM    2  C   UNL     1      69.371   3.738   8.152  1.00  0.00     0.237 C 
HETATM    3  N   UNL     1      67.483   5.199   8.943  1.00  0.00    -0.071 N 
HETATM    4  C   UNL     1      68.901   5.177   8.519  1.00  0.00     0.269 C 
HETATM    5  C   UNL     1      67.112   3.265   7.359  1.00  0.00     0.262 C 
HETATM    6  C   UNL     1      66.642   4.655   7.855  1.00  0.00     0.262 C 
HETATM    7  C   UNL     1      68.981   2.021   6.406  1.00  0.00     0.270 C 
HETATM    8  C   UNL     1      67.063   6.551   9.298  1.00  0.00     0.269 C 
HETATM    9  H   UNL     1      68.679   3.949   6.272  1.00  0.00     0.280 HD
HETATM   10  H   UNL     1      67.374   4.619   9.775  1.00  0.00     0.279 HD
ENDROOT
BRANCH   2  11
HETATM   11  C   UNL     1      69.380   2.881   9.447  1.00  0.00     0.199 C 
BRANCH  11  12
HETATM   12  O   UNL     1      69.709   3.633  10.612  1.00  0.00    -0.399 OA
HETATM   13  H   UNL     1      70.347   3.136  11.148  1.00  0.00     0.209 HD
ENDBRANCH  11  12
ENDBRANCH   2  11
TORSDOF 2
ENDMDL
MODEL 6
REMARK VINA RESULT:      -3.2     11.994     13.074
REMARK  2 active torsions:
REMARK  status: ('A' for Active; 'I' for Inactive)
REMARK    1  A    between atoms: C_2  and  C_8 
REMARK    2  A    between atoms: C_8  and  O_10 
ROOT
HETATM    1  N   UNL     1      69.696   4.009   8.740  1.00  0.00    -0.065 N 
HETATM    2  C   UNL     1      68.393   4.117   8.035  1.00  0.00     0.237 C 
HETATM    3  N   UNL     1      67.512   2.150   9.331  1.00  0.00    -0.071 N 
HETATM    4  C   UNL     1      67.762   2.693   7.978  1.00  0.00     0.269 C 
HETATM    5  C   UNL     1      69.529   3.468  10.094  1.00  0.00     0.262 C 
HETATM    6  C   UNL     1      68.785   2.109  10.082  1.00  0.00     0.262 C 
HETATM    7  C   UNL     1      70.518   5.207   8.699  1.00  0.00     0.270 C 
HETATM    8  C   UNL     1      66.907   0.824   9.260  1.00  0.00     0.269 C 
HETATM    9  H   UNL     1      70.241   3.335   8.202  1.00  0.00     0.280 HD
HETATM   10  H   UNL     1      66.853   2.759   9.818  1.00  0.00     0.279 HD
ENDROOT
BRANCH   2  11
HETATM   11  C   UNL     1      67.335   5.097   8.615  1.00  0.00     0.199 C 
BRANCH  11  12
HETATM   12  O   UNL     1      66.007   4.583   8.559  1.00  0.00    -0.399 OA
HETATM   13  H   UNL     1      65.478   5.121   7.950  1.00  0.00     0.209 HD
ENDBRANCH  11  12
ENDBRANCH   2  11
TORSDOF 2
ENDMDL
MODEL 7
REMARK VINA RESULT:      -3.2     37.131     38.172
REMARK  2 active torsions:
REMARK  status: ('A' for Active; 'I' for Inactive)
REMARK    1  A    between atoms: C_2  and  C_8 
REMARK    2  A    between atoms: C_8  and  O_10 
ROOT
HETATM    1  N   UNL     1      47.842  23.047   2.217  1.00  0.00    -0.065 N 
HETATM    2  C   UNL     1      48.964  23.660   2.974  1.00  0.00     0.237 C 
HETATM    3  N   UNL     1      48.469  22.174   4.941  1.00  0.00    -0.071 N 
HETATM    4  C   UNL     1      48.619  23.575   4.491  1.00  0.00     0.269 C 
HETATM    5  C   UNL     1      47.627  21.650   2.616  1.00  0.00     0.262 C 
HETATM    6  C   UNL     1      47.410  21.517   4.144  1.00  0.00     0.262 C 
HETATM    7  C   UNL     1      47.901  23.228   0.776  1.00  0.00     0.270 C 
HETATM    8  C   UNL     1      48.161  22.111   6.366  1.00  0.00     0.269 C 
HETATM    9  H   UNL     1      47.012  23.576   2.484  1.00  0.00     0.280 HD
HETATM   10  H   UNL     1      49.351  21.681   4.799  1.00  0.00     0.279 HD
ENDROOT
BRANCH   2  11
HETATM   11  C   UNL     1      50.386  23.071   2.763  1.00  0.00     0.199 C 
BRANCH  11  12
HETATM   12  O   UNL     1      51.044  22.749   3.985  1.00  0.00    -0.399 OA
HETATM   13  H   UNL     1      50.485  23.013   4.733  1.00  0.00     0.209 HD
ENDBRANCH  11  12
ENDBRANCH   2  11
TORSDOF 2
ENDMDL
MODEL 8
REMARK VINA RESULT:      -3.2     16.596     18.141
REMARK  2 active torsions:
REMARK  status: ('A' for Active; 'I' for Inactive)
REMARK    1  A    between atoms: C_2  and  C_8 
REMARK    2  A    between atoms: C_8  and  O_10 
ROOT
HETATM    1  N   UNL     1      65.591   5.537   5.949  1.00  0.00    -0.065 N 
HETATM    2  C   UNL     1      66.358   6.803   5.823  1.00  0.00     0.237 C 
HETATM    3  N   UNL     1      64.213   8.113   5.737  1.00  0.00    -0.071 N 
HETATM    4  C   UNL     1      65.479   7.817   5.031  1.00  0.00     0.269 C 
HETATM    5  C   UNL     1      64.311   5.753   6.637  1.00  0.00     0.262 C 
HETATM    6  C   UNL     1      63.467   6.853   5.947  1.00  0.00     0.262 C 
HETATM    7  C   UNL     1      66.343   4.412   6.479  1.00  0.00     0.270 C 
HETATM    8  C   UNL     1      63.409   9.074   4.990  1.00  0.00     0.269 C 
HETATM    9  H   UNL     1      65.383   5.248   4.994  1.00  0.00     0.280 HD
HETATM   10  H   UNL     1      64.426   8.532   6.642  1.00  0.00     0.279 HD
ENDROOT
BRANCH   2  11
HETATM   11  C   UNL     1      66.839   7.491   7.131  1.00  0.00     0.199 C 
BRANCH  11  12
HETATM   12  O   UNL     1      66.941   8.907   7.012  1.00  0.00    -0.399 OA
HETATM   13  H   UNL     1      67.775   9.135   6.572  1.00  0.00     0.209 HD
ENDBRANCH  11  12
ENDBRANCH   2  11
TORSDOF 2
ENDMDL
MODEL 9
REMARK VINA RESULT:      -3.2      8.098      9.618
REMARK  2 active torsions:
REMARK  status: ('A' for Active; 'I' for Inactive)
REMARK    1  A    between atoms: C_2  and  C_8 
REMARK    2  A    between atoms: C_8  and  O_10 
ROOT
HETATM    1  N   UNL     1      76.736  11.959  19.917  1.00  0.00    -0.065 N 
HETATM    2  C   UNL     1      77.780  10.936  20.186  1.00  0.00     0.237 C 
HETATM    3  N   UNL     1      77.730  10.228  17.774  1.00  0.00    -0.071 N 
HETATM    4  C   UNL     1      77.579   9.770  19.172  1.00  0.00     0.269 C 
HETATM    5  C   UNL     1      76.819  12.459  18.539  1.00  0.00     0.262 C 
HETATM    6  C   UNL     1      76.753  11.306  17.506  1.00  0.00     0.262 C 
HETATM    7  C   UNL     1      76.646  13.020  20.906  1.00  0.00     0.270 C 
HETATM    8  C   UNL     1      77.553   9.123  16.838  1.00  0.00     0.269 C 
HETATM    9  H   UNL     1      75.846  11.472  20.017  1.00  0.00     0.280 HD
HETATM   10  H   UNL     1      78.674  10.591  17.641  1.00  0.00     0.279 HD
ENDROOT
BRANCH   2  11
HETATM   11  C   UNL     1      79.266  11.385  20.124  1.00  0.00     0.199 C 
BRANCH  11  12
HETATM   12  O   UNL     1      80.152  10.336  19.744  1.00  0.00    -0.399 OA
HETATM   13  H   UNL     1      80.688  10.624  18.988  1.00  0.00     0.209 HD
ENDBRANCH  11  12
ENDBRANCH   2  11
TORSDOF 2
ENDMDL
