MODEL 1
REMARK VINA RESULT:      -6.2      0.000      0.000
REMARK  3 active torsions:
REMARK  status: ('A' for Active; 'I' for Inactive)
REMARK    1  A    between atoms: C_1  and  C_4 
REMARK    2  A    between atoms: C_2  and  C_9 
REMARK    3  A    between atoms: C_3  and  C_11 
ROOT
HETATM    1  C   UNL     1      63.221   9.442   4.509  1.00  0.00     0.057 A 
HETATM    2  N   UNL     1      63.187   7.633   2.899  1.00  0.00    -0.373 N 
ATOM      3  HN  UNL     1      62.811   7.210   2.050  1.00  0.00     0.164 HD
HETATM    4  C   UNL     1      64.219   8.792   5.241  1.00  0.00     0.041 A 
HETATM    5  C   UNL     1      64.699   7.563   4.791  1.00  0.00     0.034 A 
HETATM    6  C   UNL     1      62.744   8.831   3.355  1.00  0.00     0.106 A 
HETATM    7  C   UNL     1      64.153   7.029   3.630  1.00  0.00     0.108 A 
ENDROOT
BRANCH   5   8
HETATM    8  C   UNL     1      65.733   6.867   5.489  1.00  0.00    -0.060 C 
HETATM    9  C   UNL     1      66.568   6.230   6.070  1.00  0.00    -0.061 C 
BRANCH   9  10
HETATM   10  C   UNL     1      67.517   5.418   6.768  1.00  0.00     0.018 A 
HETATM   11  C   UNL     1      67.859   4.161   6.261  1.00  0.00     0.020 A 
HETATM   12  C   UNL     1      68.753   3.345   6.956  1.00  0.00     0.001 A 
HETATM   13  C   UNL     1      69.310   3.787   8.156  1.00  0.00     0.000 A 
HETATM   14  C   UNL     1      68.979   5.046   8.658  1.00  0.00     0.001 A 
HETATM   15  C   UNL     1      68.083   5.862   7.964  1.00  0.00     0.020 A 
ENDBRANCH   9  10
ENDBRANCH   5   8
BRANCH   1  16
HETATM   16  C   UNL     1      62.653  10.747   4.895  1.00  0.00     0.210 C 
HETATM   17  O   UNL     1      61.901  11.422   4.219  1.00  0.00    -0.644 OA
HETATM   18  O   UNL     1      63.056  11.147   6.113  1.00  0.00    -0.644 OA
ENDBRANCH   1  16
TORSDOF 3
ENDMDL
MODEL 2
REMARK VINA RESULT:      -5.8      2.299      3.081
REMARK  3 active torsions:
REMARK  status: ('A' for Active; 'I' for Inactive)
REMARK    1  A    between atoms: C_1  and  C_4 
REMARK    2  A    between atoms: C_2  and  C_9 
REMARK    3  A    between atoms: C_3  and  C_11 
ROOT
HETATM    1  C   UNL     1      62.231   9.320   2.790  1.00  0.00     0.057 A 
HETATM    2  N   UNL     1      62.338  10.936   4.590  1.00  0.00    -0.373 N 
ATOM      3  HN  UNL     1      62.043  11.819   5.007  1.00  0.00     0.164 HD
HETATM    4  C   UNL     1      63.158   8.504   3.446  1.00  0.00     0.041 A 
HETATM    5  C   UNL     1      63.667   8.912   4.677  1.00  0.00     0.034 A 
HETATM    6  C   UNL     1      61.853  10.512   3.397  1.00  0.00     0.106 A 
HETATM    7  C   UNL     1      63.235  10.124   5.201  1.00  0.00     0.108 A 
ENDROOT
BRANCH   5   8
HETATM    8  C   UNL     1      64.600   8.106   5.400  1.00  0.00    -0.060 C 
HETATM    9  C   UNL     1      65.374   7.465   6.057  1.00  0.00    -0.061 C 
BRANCH   9  10
HETATM   10  C   UNL     1      66.292   6.751   6.891  1.00  0.00     0.018 A 
HETATM   11  C   UNL     1      66.134   6.780   8.279  1.00  0.00     0.020 A 
HETATM   12  C   UNL     1      67.048   6.120   9.102  1.00  0.00     0.001 A 
HETATM   13  C   UNL     1      68.119   5.426   8.537  1.00  0.00     0.000 A 
HETATM   14  C   UNL     1      68.272   5.386   7.151  1.00  0.00     0.001 A 
HETATM   15  C   UNL     1      67.358   6.049   6.327  1.00  0.00     0.020 A 
ENDBRANCH   9  10
ENDBRANCH   5   8
BRANCH   1  16
HETATM   16  C   UNL     1      61.627   8.977   1.490  1.00  0.00     0.210 C 
HETATM   17  O   UNL     1      60.481   8.610   1.313  1.00  0.00    -0.644 OA
HETATM   18  O   UNL     1      62.490   9.107   0.467  1.00  0.00    -0.644 OA
ENDBRANCH   1  16
TORSDOF 3
ENDMDL
MODEL 3
REMARK VINA RESULT:      -5.8      4.042      7.702
REMARK  3 active torsions:
REMARK  status: ('A' for Active; 'I' for Inactive)
REMARK    1  A    between atoms: C_1  and  C_4 
REMARK    2  A    between atoms: C_2  and  C_9 
REMARK    3  A    between atoms: C_3  and  C_11 
ROOT
HETATM    1  C   UNL     1      67.718   4.759   7.089  1.00  0.00     0.057 A 
HETATM    2  N   UNL     1      67.839   6.622   8.631  1.00  0.00    -0.373 N 
ATOM      3  HN  UNL     1      68.238   7.061   9.461  1.00  0.00     0.164 HD
HETATM    4  C   UNL     1      66.731   5.417   6.347  1.00  0.00     0.041 A 
HETATM    5  C   UNL     1      66.307   6.680   6.754  1.00  0.00     0.034 A 
HETATM    6  C   UNL     1      68.238   5.397   8.209  1.00  0.00     0.106 A 
HETATM    7  C   UNL     1      66.882   7.233   7.892  1.00  0.00     0.108 A 
ENDROOT
BRANCH   5   8
HETATM    8  C   UNL     1      65.318   7.405   6.020  1.00  0.00    -0.060 C 
HETATM    9  C   UNL     1      64.530   8.059   5.394  1.00  0.00    -0.061 C 
BRANCH   9  10
HETATM   10  C   UNL     1      63.636   8.892   4.649  1.00  0.00     0.018 A 
HETATM   11  C   UNL     1      63.229  10.119   5.179  1.00  0.00     0.020 A 
HETATM   12  C   UNL     1      62.327  10.920   4.478  1.00  0.00     0.001 A 
HETATM   13  C   UNL     1      61.833  10.497   3.243  1.00  0.00     0.000 A 
HETATM   14  C   UNL     1      62.248   9.277   2.707  1.00  0.00     0.001 A 
HETATM   15  C   UNL     1      63.150   8.474   3.409  1.00  0.00     0.020 A 
ENDBRANCH   9  10
ENDBRANCH   5   8
BRANCH   1  16
HETATM   16  C   UNL     1      68.240   3.426   6.739  1.00  0.00     0.210 C 
HETATM   17  O   UNL     1      68.244   2.933   5.627  1.00  0.00    -0.644 OA
HETATM   18  O   UNL     1      68.734   2.767   7.802  1.00  0.00    -0.644 OA
ENDBRANCH   1  16
TORSDOF 3
ENDMDL
MODEL 4
REMARK VINA RESULT:      -5.4      3.894      7.468
REMARK  3 active torsions:
REMARK  status: ('A' for Active; 'I' for Inactive)
REMARK    1  A    between atoms: C_1  and  C_4 
REMARK    2  A    between atoms: C_2  and  C_9 
REMARK    3  A    between atoms: C_3  and  C_11 
ROOT
HETATM    1  C   UNL     1      68.187   4.864   7.358  1.00  0.00     0.057 A 
HETATM    2  N   UNL     1      67.437   3.523   5.486  1.00  0.00    -0.373 N 
ATOM      3  HN  UNL     1      67.480   2.664   4.939  1.00  0.00     0.164 HD
HETATM    4  C   UNL     1      67.318   5.895   6.988  1.00  0.00     0.041 A 
HETATM    5  C   UNL     1      66.507   5.728   5.867  1.00  0.00     0.034 A 
HETATM    6  C   UNL     1      68.209   3.709   6.586  1.00  0.00     0.106 A 
HETATM    7  C   UNL     1      66.605   4.539   5.154  1.00  0.00     0.108 A 
ENDROOT
BRANCH   5   8
HETATM    8  C   UNL     1      65.585   6.740   5.458  1.00  0.00    -0.060 C 
HETATM    9  C   UNL     1      64.799   7.557   5.063  1.00  0.00    -0.061 C 
BRANCH   9  10
HETATM   10  C   UNL     1      63.862   8.497   4.529  1.00  0.00     0.018 A 
HETATM   11  C   UNL     1      63.540   9.645   5.257  1.00  0.00     0.020 A 
HETATM   12  C   UNL     1      62.597  10.547   4.763  1.00  0.00     0.001 A 
HETATM   13  C   UNL     1      61.977  10.305   3.537  1.00  0.00     0.000 A 
HETATM   14  C   UNL     1      62.306   9.165   2.802  1.00  0.00     0.001 A 
HETATM   15  C   UNL     1      63.248   8.260   3.298  1.00  0.00     0.020 A 
ENDBRANCH   9  10
ENDBRANCH   5   8
BRANCH   1  16
HETATM   16  C   UNL     1      69.079   4.938   8.530  1.00  0.00     0.210 C 
HETATM   17  O   UNL     1      70.097   5.598   8.608  1.00  0.00    -0.644 OA
HETATM   18  O   UNL     1      68.653   4.177   9.553  1.00  0.00    -0.644 OA
ENDBRANCH   1  16
TORSDOF 3
ENDMDL
MODEL 5
REMARK VINA RESULT:      -5.3     11.571     13.340
REMARK  3 active torsions:
REMARK  status: ('A' for Active; 'I' for Inactive)
REMARK    1  A    between atoms: C_1  and  C_4 
REMARK    2  A    between atoms: C_2  and  C_9 
REMARK    3  A    between atoms: C_3  and  C_11 
ROOT
HETATM    1  C   UNL     1      65.767  -1.773  14.285  1.00  0.00     0.057 A 
HETATM    2  N   UNL     1      65.456  -3.073  12.266  1.00  0.00    -0.373 N 
ATOM      3  HN  UNL     1      65.780  -3.788  11.614  1.00  0.00     0.164 HD
HETATM    4  C   UNL     1      64.562  -1.101  14.056  1.00  0.00     0.041 A 
HETATM    5  C   UNL     1      63.809  -1.426  12.930  1.00  0.00     0.034 A 
HETATM    6  C   UNL     1      66.166  -2.743  13.373  1.00  0.00     0.106 A 
HETATM    7  C   UNL     1      64.295  -2.405  12.072  1.00  0.00     0.108 A 
ENDROOT
BRANCH   5   8
HETATM    8  C   UNL     1      62.560  -0.785  12.660  1.00  0.00    -0.060 C 
HETATM    9  C   UNL     1      61.518  -0.215  12.487  1.00  0.00    -0.061 C 
BRANCH   9  10
HETATM   10  C   UNL     1      60.280   0.489  12.347  1.00  0.00     0.018 A 
HETATM   11  C   UNL     1      59.620   0.493  11.116  1.00  0.00     0.020 A 
HETATM   12  C   UNL     1      58.433   1.209  10.960  1.00  0.00     0.001 A 
HETATM   13  C   UNL     1      57.902   1.920  12.036  1.00  0.00     0.000 A 
HETATM   14  C   UNL     1      58.553   1.909  13.270  1.00  0.00     0.001 A 
HETATM   15  C   UNL     1      59.743   1.193  13.427  1.00  0.00     0.020 A 
ENDBRANCH   9  10
ENDBRANCH   5   8
BRANCH   1  16
HETATM   16  C   UNL     1      66.633  -1.510  15.449  1.00  0.00     0.210 C 
HETATM   17  O   UNL     1      67.522  -0.682  15.501  1.00  0.00    -0.644 OA
HETATM   18  O   UNL     1      66.345  -2.300  16.498  1.00  0.00    -0.644 OA
ENDBRANCH   1  16
TORSDOF 3
ENDMDL
MODEL 6
REMARK VINA RESULT:      -5.3      5.083      8.208
REMARK  3 active torsions:
REMARK  status: ('A' for Active; 'I' for Inactive)
REMARK    1  A    between atoms: C_1  and  C_4 
REMARK    2  A    between atoms: C_2  and  C_9 
REMARK    3  A    between atoms: C_3  and  C_11 
ROOT
HETATM    1  C   UNL     1      68.676   3.104   9.491  1.00  0.00     0.057 A 
HETATM    2  N   UNL     1      70.179   4.884   8.830  1.00  0.00    -0.373 N 
ATOM      3  HN  UNL     1      71.116   5.286   8.800  1.00  0.00     0.164 HD
HETATM    4  C   UNL     1      67.596   3.781   8.916  1.00  0.00     0.041 A 
HETATM    5  C   UNL     1      67.819   5.009   8.295  1.00  0.00     0.034 A 
HETATM    6  C   UNL     1      69.935   3.688   9.421  1.00  0.00     0.106 A 
HETATM    7  C   UNL     1      69.114   5.515   8.282  1.00  0.00     0.108 A 
ENDROOT
BRANCH   5   8
HETATM    8  C   UNL     1      66.756   5.732   7.672  1.00  0.00    -0.060 C 
HETATM    9  C   UNL     1      65.894   6.336   7.095  1.00  0.00    -0.061 C 
BRANCH   9  10
HETATM   10  C   UNL     1      64.910   7.061   6.351  1.00  0.00     0.018 A 
HETATM   11  C   UNL     1      63.565   6.694   6.438  1.00  0.00     0.020 A 
HETATM   12  C   UNL     1      62.604   7.370   5.686  1.00  0.00     0.001 A 
HETATM   13  C   UNL     1      62.986   8.417   4.847  1.00  0.00     0.000 A 
HETATM   14  C   UNL     1      64.327   8.793   4.767  1.00  0.00     0.001 A 
HETATM   15  C   UNL     1      65.290   8.116   5.519  1.00  0.00     0.020 A 
ENDBRANCH   9  10
ENDBRANCH   5   8
BRANCH   1  16
HETATM   16  C   UNL     1      68.547   1.798  10.164  1.00  0.00     0.210 C 
HETATM   17  O   UNL     1      67.659   0.988   9.980  1.00  0.00    -0.644 OA
HETATM   18  O   UNL     1      69.540   1.567  11.040  1.00  0.00    -0.644 OA
ENDBRANCH   1  16
TORSDOF 3
ENDMDL
MODEL 7
REMARK VINA RESULT:      -5.2      4.626      7.781
REMARK  3 active torsions:
REMARK  status: ('A' for Active; 'I' for Inactive)
REMARK    1  A    between atoms: C_1  and  C_4 
REMARK    2  A    between atoms: C_2  and  C_9 
REMARK    3  A    between atoms: C_3  and  C_11 
ROOT
HETATM    1  C   UNL     1      62.949   9.384   4.110  1.00  0.00     0.057 A 
HETATM    2  N   UNL     1      61.578  11.008   2.949  1.00  0.00    -0.373 N 
ATOM      3  HN  UNL     1      61.070  11.892   2.939  1.00  0.00     0.164 HD
HETATM    4  C   UNL     1      62.974   8.569   2.974  1.00  0.00     0.041 A 
HETATM    5  C   UNL     1      62.301   8.985   1.827  1.00  0.00     0.034 A 
HETATM    6  C   UNL     1      62.248  10.582   4.049  1.00  0.00     0.106 A 
HETATM    7  C   UNL     1      61.621  10.197   1.865  1.00  0.00     0.108 A 
ENDROOT
BRANCH   5   8
HETATM    8  C   UNL     1      62.313   8.202   0.632  1.00  0.00    -0.060 C 
HETATM    9  C   UNL     1      62.385   7.537  -0.365  1.00  0.00    -0.061 C 
BRANCH   9  10
HETATM   10  C   UNL     1      62.541   6.749  -1.549  1.00  0.00     0.018 A 
HETATM   11  C   UNL     1      61.823   5.559  -1.690  1.00  0.00     0.020 A 
HETATM   12  C   UNL     1      61.999   4.764  -2.823  1.00  0.00     0.001 A 
HETATM   13  C   UNL     1      62.891   5.160  -3.820  1.00  0.00     0.000 A 
HETATM   14  C   UNL     1      63.602   6.354  -3.687  1.00  0.00     0.001 A 
HETATM   15  C   UNL     1      63.427   7.150  -2.551  1.00  0.00     0.020 A 
ENDBRANCH   9  10
ENDBRANCH   5   8
BRANCH   1  16
HETATM   16  C   UNL     1      63.634   9.039   5.369  1.00  0.00     0.210 C 
HETATM   17  O   UNL     1      64.780   9.328   5.658  1.00  0.00    -0.644 OA
HETATM   18  O   UNL     1      62.851   8.344   6.212  1.00  0.00    -0.644 OA
ENDBRANCH   1  16
TORSDOF 3
ENDMDL
MODEL 8
REMARK VINA RESULT:      -5.1     18.314     21.493
REMARK  3 active torsions:
REMARK  status: ('A' for Active; 'I' for Inactive)
REMARK    1  A    between atoms: C_1  and  C_4 
REMARK    2  A    between atoms: C_2  and  C_9 
REMARK    3  A    between atoms: C_3  and  C_11 
ROOT
HETATM    1  C   UNL     1      49.979  16.220   0.426  1.00  0.00     0.057 A 
HETATM    2  N   UNL     1      48.264  16.204   2.135  1.00  0.00    -0.373 N 
ATOM      3  HN  UNL     1      47.589  15.697   2.707  1.00  0.00     0.164 HD
HETATM    4  C   UNL     1      50.119  17.605   0.557  1.00  0.00     0.041 A 
HETATM    5  C   UNL     1      49.328  18.281   1.484  1.00  0.00     0.034 A 
HETATM    6  C   UNL     1      49.051  15.570   1.230  1.00  0.00     0.106 A 
HETATM    7  C   UNL     1      48.422  17.545   2.238  1.00  0.00     0.108 A 
ENDROOT
BRANCH   5   8
HETATM    8  C   UNL     1      49.446  19.692   1.674  1.00  0.00    -0.060 C 
HETATM    9  C   UNL     1      49.497  20.875   1.873  1.00  0.00    -0.061 C 
BRANCH   9  10
HETATM   10  C   UNL     1      49.494  22.280   2.143  1.00  0.00     0.018 A 
HETATM   11  C   UNL     1      48.948  22.755   3.338  1.00  0.00     0.020 A 
HETATM   12  C   UNL     1      48.905  24.127   3.592  1.00  0.00     0.001 A 
HETATM   13  C   UNL     1      49.412  25.025   2.653  1.00  0.00     0.000 A 
HETATM   14  C   UNL     1      49.968  24.553   1.464  1.00  0.00     0.001 A 
HETATM   15  C   UNL     1      50.010  23.180   1.208  1.00  0.00     0.020 A 
ENDBRANCH   9  10
ENDBRANCH   5   8
BRANCH   1  16
HETATM   16  C   UNL     1      50.772  15.411  -0.519  1.00  0.00     0.210 C 
HETATM   17  O   UNL     1      51.912  15.026  -0.342  1.00  0.00    -0.644 OA
HETATM   18  O   UNL     1      50.099  15.123  -1.646  1.00  0.00    -0.644 OA
ENDBRANCH   1  16
TORSDOF 3
ENDMDL
MODEL 9
REMARK VINA RESULT:      -5.1     13.566     13.773
REMARK  3 active torsions:
REMARK  status: ('A' for Active; 'I' for Inactive)
REMARK    1  A    between atoms: C_1  and  C_4 
REMARK    2  A    between atoms: C_2  and  C_9 
REMARK    3  A    between atoms: C_3  and  C_11 
ROOT
HETATM    1  C   UNL     1      53.093   5.881  14.471  1.00  0.00     0.057 A 
HETATM    2  N   UNL     1      51.899   4.476  12.902  1.00  0.00    -0.373 N 
ATOM      3  HN  UNL     1      51.061   4.268  12.359  1.00  0.00     0.164 HD
HETATM    4  C   UNL     1      54.209   5.042  14.398  1.00  0.00     0.041 A 
HETATM    5  C   UNL     1      54.162   3.923  13.570  1.00  0.00     0.034 A 
HETATM    6  C   UNL     1      51.975   5.562  13.710  1.00  0.00     0.106 A 
HETATM    7  C   UNL     1      52.996   3.683  12.853  1.00  0.00     0.108 A 
ENDROOT
BRANCH   5   8
HETATM    8  C   UNL     1      55.282   3.044  13.441  1.00  0.00    -0.060 C 
HETATM    9  C   UNL     1      56.229   2.309  13.395  1.00  0.00    -0.061 C 
BRANCH   9  10
HETATM   10  C   UNL     1      57.372   1.448  13.409  1.00  0.00     0.018 A 
HETATM   11  C   UNL     1      58.615   1.938  13.000  1.00  0.00     0.020 A 
HETATM   12  C   UNL     1      59.726   1.095  12.972  1.00  0.00     0.001 A 
HETATM   13  C   UNL     1      59.597  -0.240  13.357  1.00  0.00     0.000 A 
HETATM   14  C   UNL     1      58.360  -0.729  13.777  1.00  0.00     0.001 A 
HETATM   15  C   UNL     1      57.246   0.115  13.804  1.00  0.00     0.020 A 
ENDBRANCH   9  10
ENDBRANCH   5   8
BRANCH   1  16
HETATM   16  C   UNL     1      53.044   7.093  15.310  1.00  0.00     0.210 C 
HETATM   17  O   UNL     1      52.468   7.198  16.376  1.00  0.00    -0.644 OA
HETATM   18  O   UNL     1      53.720   8.123  14.772  1.00  0.00    -0.644 OA
ENDBRANCH   1  16
TORSDOF 3
ENDMDL
