MODEL 1
REMARK VINA RESULT:      -5.4      0.000      0.000
REMARK  2 active torsions:
REMARK  status: ('A' for Active; 'I' for Inactive)
REMARK    1  A    between atoms: C_1  and  C_2 
REMARK    2  A    between atoms: C_1  and  O_9 
ROOT
HETATM    1  C   UNL     1      62.872   8.895   4.754  1.00  0.00     0.040 A 
HETATM    2  C   UNL     1      62.640   8.538   3.419  1.00  0.00     0.025 A 
HETATM    3  C   UNL     1      62.237   9.498   2.468  1.00  0.00    -0.055 A 
HETATM    4  C   UNL     1      62.034  10.831   2.876  1.00  0.00    -0.056 A 
HETATM    5  C   UNL     1      62.696  10.225   5.141  1.00  0.00     0.018 A 
HETATM    6  C   UNL     1      62.273  11.179   4.215  1.00  0.00     0.008 A 
HETATM    7  C   UNL     1      62.044   9.071   1.037  1.00  0.00     0.049 C 
HETATM    8  C   UNL     1      61.551  11.916   1.949  1.00  0.00     0.049 C 
ENDROOT
BRANCH   1   9
HETATM    9  C   UNL     1      63.315   7.921   5.793  1.00  0.00     0.292 C 
HETATM   10  O   UNL     1      62.707   7.734   6.834  1.00  0.00    -0.259 OA
BRANCH   9  11
HETATM   11  O   UNL     1      64.451   7.283   5.412  1.00  0.00    -0.323 OA
HETATM   12  C   UNL     1      65.662   8.009   5.649  1.00  0.00     0.213 C 
ENDBRANCH   9  11
ENDBRANCH   1   9
TORSDOF 2
ENDMDL
MODEL 2
REMARK VINA RESULT:      -4.9      1.264      2.397
REMARK  2 active torsions:
REMARK  status: ('A' for Active; 'I' for Inactive)
REMARK    1  A    between atoms: C_1  and  C_2 
REMARK    2  A    between atoms: C_1  and  O_9 
ROOT
HETATM    1  C   UNL     1      63.897   8.225   4.856  1.00  0.00     0.040 A 
HETATM    2  C   UNL     1      63.243   9.438   4.602  1.00  0.00     0.025 A 
HETATM    3  C   UNL     1      62.551   9.654   3.392  1.00  0.00    -0.055 A 
HETATM    4  C   UNL     1      62.546   8.644   2.410  1.00  0.00    -0.056 A 
HETATM    5  C   UNL     1      63.861   7.219   3.887  1.00  0.00     0.018 A 
HETATM    6  C   UNL     1      63.202   7.430   2.675  1.00  0.00     0.008 A 
HETATM    7  C   UNL     1      61.828  10.958   3.188  1.00  0.00     0.049 C 
HETATM    8  C   UNL     1      61.885   8.799   1.066  1.00  0.00     0.049 C 
ENDROOT
BRANCH   1   9
HETATM    9  C   UNL     1      64.627   7.943   6.125  1.00  0.00     0.292 C 
HETATM   10  O   UNL     1      64.223   7.157   6.966  1.00  0.00    -0.259 OA
BRANCH   9  11
HETATM   11  O   UNL     1      65.779   8.659   6.194  1.00  0.00    -0.323 OA
HETATM   12  C   UNL     1      66.967   7.929   5.869  1.00  0.00     0.213 C 
ENDBRANCH   9  11
ENDBRANCH   1   9
TORSDOF 2
ENDMDL
MODEL 3
REMARK VINA RESULT:      -4.8      4.020      7.755
REMARK  2 active torsions:
REMARK  status: ('A' for Active; 'I' for Inactive)
REMARK    1  A    between atoms: C_1  and  C_2 
REMARK    2  A    between atoms: C_1  and  O_9 
ROOT
HETATM    1  C   UNL     1      66.758   6.520   7.471  1.00  0.00     0.040 A 
HETATM    2  C   UNL     1      67.218   5.399   6.769  1.00  0.00     0.025 A 
HETATM    3  C   UNL     1      68.128   4.494   7.355  1.00  0.00    -0.055 A 
HETATM    4  C   UNL     1      68.606   4.742   8.657  1.00  0.00    -0.056 A 
HETATM    5  C   UNL     1      67.216   6.741   8.773  1.00  0.00     0.018 A 
HETATM    6  C   UNL     1      68.136   5.868   9.354  1.00  0.00     0.008 A 
HETATM    7  C   UNL     1      68.557   3.281   6.574  1.00  0.00     0.049 C 
HETATM    8  C   UNL     1      69.620   3.868   9.347  1.00  0.00     0.049 C 
ENDROOT
BRANCH   1   9
HETATM    9  C   UNL     1      65.785   7.496   6.902  1.00  0.00     0.292 C 
HETATM   10  O   UNL     1      66.123   8.485   6.271  1.00  0.00    -0.259 OA
BRANCH   9  11
HETATM   11  O   UNL     1      64.508   7.124   7.170  1.00  0.00    -0.323 OA
HETATM   12  C   UNL     1      63.621   7.146   6.045  1.00  0.00     0.213 C 
ENDBRANCH   9  11
ENDBRANCH   1   9
TORSDOF 2
ENDMDL
MODEL 4
REMARK VINA RESULT:      -4.7      2.256      3.765
REMARK  2 active torsions:
REMARK  status: ('A' for Active; 'I' for Inactive)
REMARK    1  A    between atoms: C_1  and  C_2 
REMARK    2  A    between atoms: C_1  and  O_9 
ROOT
HETATM    1  C   UNL     1      62.342   9.675   2.986  1.00  0.00     0.040 A 
HETATM    2  C   UNL     1      62.909   8.428   3.282  1.00  0.00     0.025 A 
HETATM    3  C   UNL     1      63.007   7.421   2.300  1.00  0.00    -0.055 A 
HETATM    4  C   UNL     1      62.496   7.663   1.009  1.00  0.00    -0.056 A 
HETATM    5  C   UNL     1      61.864   9.914   1.695  1.00  0.00     0.018 A 
HETATM    6  C   UNL     1      61.932   8.917   0.722  1.00  0.00     0.008 A 
HETATM    7  C   UNL     1      63.666   6.115   2.656  1.00  0.00     0.049 C 
HETATM    8  C   UNL     1      62.502   6.633  -0.090  1.00  0.00     0.049 C 
ENDROOT
BRANCH   1   9
HETATM    9  C   UNL     1      62.231  10.777   3.984  1.00  0.00     0.292 C 
HETATM   10  O   UNL     1      61.875  11.908   3.693  1.00  0.00    -0.259 OA
BRANCH   9  11
HETATM   11  O   UNL     1      62.560  10.344   5.228  1.00  0.00    -0.323 OA
HETATM   12  C   UNL     1      63.263  11.295   6.035  1.00  0.00     0.213 C 
ENDBRANCH   9  11
ENDBRANCH   1   9
TORSDOF 2
ENDMDL
MODEL 5
REMARK VINA RESULT:      -4.6     18.277     20.102
REMARK  2 active torsions:
REMARK  status: ('A' for Active; 'I' for Inactive)
REMARK    1  A    between atoms: C_1  and  C_2 
REMARK    2  A    between atoms: C_1  and  O_9 
ROOT
HETATM    1  C   UNL     1      76.239   3.676  17.450  1.00  0.00     0.040 A 
HETATM    2  C   UNL     1      75.264   2.871  16.848  1.00  0.00     0.025 A 
HETATM    3  C   UNL     1      75.284   1.468  16.996  1.00  0.00    -0.055 A 
HETATM    4  C   UNL     1      76.322   0.867  17.735  1.00  0.00    -0.056 A 
HETATM    5  C   UNL     1      77.248   3.072  18.205  1.00  0.00     0.018 A 
HETATM    6  C   UNL     1      77.294   1.683  18.337  1.00  0.00     0.008 A 
HETATM    7  C   UNL     1      74.187   0.652  16.367  1.00  0.00     0.049 C 
HETATM    8  C   UNL     1      76.462  -0.623  17.903  1.00  0.00     0.049 C 
ENDROOT
BRANCH   1   9
HETATM    9  C   UNL     1      76.252   5.163  17.337  1.00  0.00     0.292 C 
HETATM   10  O   UNL     1      76.577   5.899  18.254  1.00  0.00    -0.259 OA
BRANCH   9  11
HETATM   11  O   UNL     1      75.874   5.561  16.096  1.00  0.00    -0.323 OA
HETATM   12  C   UNL     1      76.779   6.460  15.445  1.00  0.00     0.213 C 
ENDBRANCH   9  11
ENDBRANCH   1   9
TORSDOF 2
ENDMDL
MODEL 6
REMARK VINA RESULT:      -4.5      7.599      9.691
REMARK  2 active torsions:
REMARK  status: ('A' for Active; 'I' for Inactive)
REMARK    1  A    between atoms: C_1  and  C_2 
REMARK    2  A    between atoms: C_1  and  O_9 
ROOT
HETATM    1  C   UNL     1      68.987   2.967   9.255  1.00  0.00     0.040 A 
HETATM    2  C   UNL     1      68.546   2.700   7.952  1.00  0.00     0.025 A 
HETATM    3  C   UNL     1      68.209   3.747   7.068  1.00  0.00    -0.055 A 
HETATM    4  C   UNL     1      68.288   5.080   7.515  1.00  0.00    -0.056 A 
HETATM    5  C   UNL     1      69.088   4.295   9.678  1.00  0.00     0.018 A 
HETATM    6  C   UNL     1      68.733   5.338   8.822  1.00  0.00     0.008 A 
HETATM    7  C   UNL     1      67.785   3.408   5.664  1.00  0.00     0.049 C 
HETATM    8  C   UNL     1      67.898   6.262   6.667  1.00  0.00     0.049 C 
ENDROOT
BRANCH   1   9
HETATM    9  C   UNL     1      69.369   1.898  10.221  1.00  0.00     0.292 C 
HETATM   10  O   UNL     1      68.568   1.350  10.961  1.00  0.00    -0.259 OA
BRANCH   9  11
HETATM   11  O   UNL     1      70.696   1.624  10.146  1.00  0.00    -0.323 OA
HETATM   12  C   UNL     1      71.024   0.236  10.021  1.00  0.00     0.213 C 
ENDBRANCH   9  11
ENDBRANCH   1   9
TORSDOF 2
ENDMDL
MODEL 7
REMARK VINA RESULT:      -4.5      1.719      2.345
REMARK  2 active torsions:
REMARK  status: ('A' for Active; 'I' for Inactive)
REMARK    1  A    between atoms: C_1  and  C_2 
REMARK    2  A    between atoms: C_1  and  O_9 
ROOT
HETATM    1  C   UNL     1      64.418   8.196   4.742  1.00  0.00     0.040 A 
HETATM    2  C   UNL     1      64.256   7.269   3.703  1.00  0.00     0.025 A 
HETATM    3  C   UNL     1      63.277   7.458   2.705  1.00  0.00    -0.055 A 
HETATM    4  C   UNL     1      62.429   8.581   2.774  1.00  0.00    -0.056 A 
HETATM    5  C   UNL     1      63.591   9.321   4.784  1.00  0.00     0.018 A 
HETATM    6  C   UNL     1      62.602   9.505   3.818  1.00  0.00     0.008 A 
HETATM    7  C   UNL     1      63.174   6.457   1.586  1.00  0.00     0.049 C 
HETATM    8  C   UNL     1      61.319   8.841   1.790  1.00  0.00     0.049 C 
ENDROOT
BRANCH   1   9
HETATM    9  C   UNL     1      65.448   8.049   5.811  1.00  0.00     0.292 C 
HETATM   10  O   UNL     1      66.008   9.000   6.333  1.00  0.00    -0.259 OA
BRANCH   9  11
HETATM   11  O   UNL     1      65.653   6.743   6.115  1.00  0.00    -0.323 OA
HETATM   12  C   UNL     1      65.644   6.437   7.514  1.00  0.00     0.213 C 
ENDBRANCH   9  11
ENDBRANCH   1   9
TORSDOF 2
ENDMDL
MODEL 8
REMARK VINA RESULT:      -4.3     18.696     20.489
REMARK  2 active torsions:
REMARK  status: ('A' for Active; 'I' for Inactive)
REMARK    1  A    between atoms: C_1  and  C_2 
REMARK    2  A    between atoms: C_1  and  O_9 
ROOT
HETATM    1  C   UNL     1      76.364   1.090  17.134  1.00  0.00     0.040 A 
HETATM    2  C   UNL     1      77.210   0.297  16.348  1.00  0.00     0.025 A 
HETATM    3  C   UNL     1      76.779  -0.223  15.109  1.00  0.00    -0.055 A 
HETATM    4  C   UNL     1      75.463   0.034  14.674  1.00  0.00    -0.056 A 
HETATM    5  C   UNL     1      75.071   1.361  16.679  1.00  0.00     0.018 A 
HETATM    6  C   UNL     1      74.624   0.831  15.468  1.00  0.00     0.008 A 
HETATM    7  C   UNL     1      77.742  -1.031  14.282  1.00  0.00     0.049 C 
HETATM    8  C   UNL     1      74.891  -0.522  13.396  1.00  0.00     0.049 C 
ENDROOT
BRANCH   1   9
HETATM    9  C   UNL     1      76.778   1.675  18.442  1.00  0.00     0.292 C 
HETATM   10  O   UNL     1      76.570   2.838  18.748  1.00  0.00    -0.259 OA
BRANCH   9  11
HETATM   11  O   UNL     1      77.390   0.747  19.220  1.00  0.00    -0.323 OA
HETATM   12  C   UNL     1      78.707   1.097  19.660  1.00  0.00     0.213 C 
ENDBRANCH   9  11
ENDBRANCH   1   9
TORSDOF 2
ENDMDL
MODEL 9
REMARK VINA RESULT:      -4.1      1.747      2.418
REMARK  2 active torsions:
REMARK  status: ('A' for Active; 'I' for Inactive)
REMARK    1  A    between atoms: C_1  and  C_2 
REMARK    2  A    between atoms: C_1  and  O_9 
ROOT
HETATM    1  C   UNL     1      62.347   8.264   4.470  1.00  0.00     0.040 A 
HETATM    2  C   UNL     1      61.313   7.342   4.263  1.00  0.00     0.025 A 
HETATM    3  C   UNL     1      60.598   7.310   3.048  1.00  0.00    -0.055 A 
HETATM    4  C   UNL     1      60.910   8.242   2.039  1.00  0.00    -0.056 A 
HETATM    5  C   UNL     1      62.667   9.165   3.452  1.00  0.00     0.018 A 
HETATM    6  C   UNL     1      61.950   9.160   2.255  1.00  0.00     0.008 A 
HETATM    7  C   UNL     1      59.526   6.270   2.859  1.00  0.00     0.049 C 
HETATM    8  C   UNL     1      60.168   8.325   0.730  1.00  0.00     0.049 C 
ENDROOT
BRANCH   1   9
HETATM    9  C   UNL     1      63.142   8.327   5.730  1.00  0.00     0.292 C 
HETATM   10  O   UNL     1      62.768   7.832   6.781  1.00  0.00    -0.259 OA
BRANCH   9  11
HETATM   11  O   UNL     1      64.313   8.986   5.536  1.00  0.00    -0.323 OA
HETATM   12  C   UNL     1      65.488   8.172   5.617  1.00  0.00     0.213 C 
ENDBRANCH   9  11
ENDBRANCH   1   9
TORSDOF 2
ENDMDL
