MODEL 1
REMARK VINA RESULT:      -4.5      0.000      0.000
REMARK  3 active torsions:
REMARK  status: ('A' for Active; 'I' for Inactive)
REMARK    1  A    between atoms: C_3  and  C_8 
REMARK    2  A    between atoms: O_5  and  C_7 
REMARK    3  A    between atoms: C_7  and  C_8 
ROOT
HETATM    1  N   UNL     1      62.603   8.250   1.870  1.00  0.00    -0.375 N 
ATOM      2  HN  UNL     1      62.793   7.365   1.401  1.00  0.00     0.164 HD
HETATM    3  C   UNL     1      62.679   9.633   3.861  1.00  0.00    -0.041 A 
HETATM    4  C   UNL     1      62.923   8.450   3.169  1.00  0.00     0.094 A 
HETATM    5  C   UNL     1      62.019   9.282   1.225  1.00  0.00     0.087 A 
HETATM    6  C   UNL     1      62.068  10.675   3.162  1.00  0.00     0.010 A 
HETATM    7  C   UNL     1      61.734  10.500   1.820  1.00  0.00     0.018 A 
ENDROOT
BRANCH   3   8
HETATM    8  C   UNL     1      63.046   9.758   5.317  1.00  0.00     0.066 C 
BRANCH   8   9
HETATM    9  C   UNL     1      63.084  11.208   5.800  1.00  0.00     0.168 C 
BRANCH   9  10
HETATM   10  O   UNL     1      64.317  11.512   6.442  1.00  0.00    -0.401 OA
HETATM   11  H   UNL     1      64.140  11.902   7.313  1.00  0.00     0.209 HD
ENDBRANCH   9  10
ENDBRANCH   8   9
ENDBRANCH   3   8
TORSDOF 3
ENDMDL
MODEL 2
REMARK VINA RESULT:      -4.5     19.518     20.389
REMARK  3 active torsions:
REMARK  status: ('A' for Active; 'I' for Inactive)
REMARK    1  A    between atoms: C_3  and  C_8 
REMARK    2  A    between atoms: O_5  and  C_7 
REMARK    3  A    between atoms: C_7  and  C_8 
ROOT
HETATM    1  N   UNL     1      71.317  25.827  15.311  1.00  0.00    -0.375 N 
ATOM      2  HN  UNL     1      71.388  26.742  15.756  1.00  0.00     0.164 HD
HETATM    3  C   UNL     1      72.370  23.926  14.234  1.00  0.00    -0.041 A 
HETATM    4  C   UNL     1      72.409  25.171  14.856  1.00  0.00     0.094 A 
HETATM    5  C   UNL     1      70.128  25.211  15.145  1.00  0.00     0.087 A 
HETATM    6  C   UNL     1      71.121  23.323  14.076  1.00  0.00     0.010 A 
HETATM    7  C   UNL     1      69.979  23.973  14.541  1.00  0.00     0.018 A 
ENDROOT
BRANCH   3   8
HETATM    8  C   UNL     1      73.636  23.279  13.735  1.00  0.00     0.066 C 
BRANCH   8   9
HETATM    9  C   UNL     1      74.346  22.452  14.807  1.00  0.00     0.168 C 
BRANCH   9  10
HETATM   10  O   UNL     1      73.425  21.926  15.755  1.00  0.00    -0.401 OA
HETATM   11  H   UNL     1      73.370  22.523  16.518  1.00  0.00     0.209 HD
ENDBRANCH   9  10
ENDBRANCH   8   9
ENDBRANCH   3   8
TORSDOF 3
ENDMDL
MODEL 3
REMARK VINA RESULT:      -4.4     21.393     23.045
REMARK  3 active torsions:
REMARK  status: ('A' for Active; 'I' for Inactive)
REMARK    1  A    between atoms: C_3  and  C_8 
REMARK    2  A    between atoms: O_5  and  C_7 
REMARK    3  A    between atoms: C_7  and  C_8 
ROOT
HETATM    1  N   UNL     1      76.537  13.384  18.964  1.00  0.00    -0.375 N 
ATOM      2  HN  UNL     1      75.967  14.129  18.564  1.00  0.00     0.164 HD
HETATM    3  C   UNL     1      78.119  12.614  20.633  1.00  0.00    -0.041 A 
HETATM    4  C   UNL     1      77.315  13.590  20.050  1.00  0.00     0.094 A 
HETATM    5  C   UNL     1      76.553  12.143  18.435  1.00  0.00     0.087 A 
HETATM    6  C   UNL     1      78.114  11.345  20.054  1.00  0.00     0.010 A 
HETATM    7  C   UNL     1      77.315  11.101  18.938  1.00  0.00     0.018 A 
ENDROOT
BRANCH   3   8
HETATM    8  C   UNL     1      78.976  12.941  21.828  1.00  0.00     0.066 C 
BRANCH   8   9
HETATM    9  C   UNL     1      80.171  12.000  21.980  1.00  0.00     0.168 C 
BRANCH   9  10
HETATM   10  O   UNL     1      81.403  12.713  21.958  1.00  0.00    -0.401 OA
HETATM   11  H   UNL     1      82.121  12.125  22.240  1.00  0.00     0.209 HD
ENDBRANCH   9  10
ENDBRANCH   8   9
ENDBRANCH   3   8
TORSDOF 3
ENDMDL
MODEL 4
REMARK VINA RESULT:      -4.3     19.596     20.568
REMARK  3 active torsions:
REMARK  status: ('A' for Active; 'I' for Inactive)
REMARK    1  A    between atoms: C_3  and  C_8 
REMARK    2  A    between atoms: O_5  and  C_7 
REMARK    3  A    between atoms: C_7  and  C_8 
ROOT
HETATM    1  N   UNL     1      77.285   4.036  18.274  1.00  0.00    -0.375 N 
ATOM      2  HN  UNL     1      78.116   4.014  18.865  1.00  0.00     0.164 HD
HETATM    3  C   UNL     1      75.400   2.900  17.257  1.00  0.00    -0.041 A 
HETATM    4  C   UNL     1      76.536   2.931  18.061  1.00  0.00     0.094 A 
HETATM    5  C   UNL     1      76.880   5.169  17.664  1.00  0.00     0.087 A 
HETATM    6  C   UNL     1      75.015   4.090  16.638  1.00  0.00     0.010 A 
HETATM    7  C   UNL     1      75.764   5.247  16.846  1.00  0.00     0.018 A 
ENDROOT
BRANCH   3   8
HETATM    8  C   UNL     1      74.639   1.615  17.054  1.00  0.00     0.066 C 
BRANCH   8   9
HETATM    9  C   UNL     1      75.112   0.491  17.976  1.00  0.00     0.168 C 
BRANCH   9  10
HETATM   10  O   UNL     1      74.257   0.346  19.104  1.00  0.00    -0.401 OA
HETATM   11  H   UNL     1      74.662   0.778  19.874  1.00  0.00     0.209 HD
ENDBRANCH   9  10
ENDBRANCH   8   9
ENDBRANCH   3   8
TORSDOF 3
ENDMDL
MODEL 5
REMARK VINA RESULT:      -4.1      8.870      9.951
REMARK  3 active torsions:
REMARK  status: ('A' for Active; 'I' for Inactive)
REMARK    1  A    between atoms: C_3  and  C_8 
REMARK    2  A    between atoms: O_5  and  C_7 
REMARK    3  A    between atoms: C_7  and  C_8 
ROOT
HETATM    1  N   UNL     1      66.289   4.307   8.278  1.00  0.00    -0.375 N 
ATOM      2  HN  UNL     1      65.522   3.736   7.923  1.00  0.00     0.164 HD
HETATM    3  C   UNL     1      68.539   4.486   9.164  1.00  0.00    -0.041 A 
HETATM    4  C   UNL     1      67.463   3.758   8.665  1.00  0.00     0.094 A 
HETATM    5  C   UNL     1      66.183   5.648   8.385  1.00  0.00     0.087 A 
HETATM    6  C   UNL     1      68.390   5.870   9.266  1.00  0.00     0.010 A 
HETATM    7  C   UNL     1      67.194   6.464   8.867  1.00  0.00     0.018 A 
ENDROOT
BRANCH   3   8
HETATM    8  C   UNL     1      69.802   3.787   9.597  1.00  0.00     0.066 C 
BRANCH   8   9
HETATM    9  C   UNL     1      69.576   2.321   9.964  1.00  0.00     0.168 C 
BRANCH   9  10
HETATM   10  O   UNL     1      69.821   2.085  11.346  1.00  0.00    -0.401 OA
HETATM   11  H   UNL     1      69.569   2.870  11.857  1.00  0.00     0.209 HD
ENDBRANCH   9  10
ENDBRANCH   8   9
ENDBRANCH   3   8
TORSDOF 3
ENDMDL
MODEL 6
REMARK VINA RESULT:      -4.0      8.827      9.820
REMARK  3 active torsions:
REMARK  status: ('A' for Active; 'I' for Inactive)
REMARK    1  A    between atoms: C_3  and  C_8 
REMARK    2  A    between atoms: O_5  and  C_7 
REMARK    3  A    between atoms: C_7  and  C_8 
ROOT
HETATM    1  N   UNL     1      67.474   6.625   8.403  1.00  0.00    -0.375 N 
ATOM      2  HN  UNL     1      67.063   7.500   8.728  1.00  0.00     0.164 HD
HETATM    3  C   UNL     1      68.858   4.676   8.810  1.00  0.00    -0.041 A 
HETATM    4  C   UNL     1      68.264   5.872   9.202  1.00  0.00     0.094 A 
HETATM    5  C   UNL     1      67.258   6.161   7.155  1.00  0.00     0.087 A 
HETATM    6  C   UNL     1      68.616   4.231   7.510  1.00  0.00     0.010 A 
HETATM    7  C   UNL     1      67.799   4.983   6.667  1.00  0.00     0.018 A 
ENDROOT
BRANCH   3   8
HETATM    8  C   UNL     1      69.746   3.914   9.760  1.00  0.00     0.066 C 
BRANCH   8   9
HETATM    9  C   UNL     1      69.210   2.522  10.090  1.00  0.00     0.168 C 
BRANCH   9  10
HETATM   10  O   UNL     1      69.775   2.017  11.295  1.00  0.00    -0.401 OA
HETATM   11  H   UNL     1      70.160   2.750  11.803  1.00  0.00     0.209 HD
ENDBRANCH   9  10
ENDBRANCH   8   9
ENDBRANCH   3   8
TORSDOF 3
ENDMDL
MODEL 7
REMARK VINA RESULT:      -4.0      8.450      9.505
REMARK  3 active torsions:
REMARK  status: ('A' for Active; 'I' for Inactive)
REMARK    1  A    between atoms: C_3  and  C_8 
REMARK    2  A    between atoms: O_5  and  C_7 
REMARK    3  A    between atoms: C_7  and  C_8 
ROOT
HETATM    1  N   UNL     1      66.385   4.003   8.109  1.00  0.00    -0.375 N 
ATOM      2  HN  UNL     1      65.774   3.282   7.726  1.00  0.00     0.164 HD
HETATM    3  C   UNL     1      68.536   4.676   9.003  1.00  0.00    -0.041 A 
HETATM    4  C   UNL     1      67.661   3.735   8.468  1.00  0.00     0.094 A 
HETATM    5  C   UNL     1      65.960   5.272   8.284  1.00  0.00     0.087 A 
HETATM    6  C   UNL     1      68.059   5.976   9.175  1.00  0.00     0.010 A 
HETATM    7  C   UNL     1      66.750   6.283   8.807  1.00  0.00     0.018 A 
ENDROOT
BRANCH   3   8
HETATM    8  C   UNL     1      69.936   4.283   9.400  1.00  0.00     0.066 C 
BRANCH   8   9
HETATM    9  C   UNL     1      71.010   5.117   8.702  1.00  0.00     0.168 C 
BRANCH   9  10
HETATM   10  O   UNL     1      72.267   5.006   9.361  1.00  0.00    -0.401 OA
HETATM   11  H   UNL     1      72.740   4.228   9.025  1.00  0.00     0.209 HD
ENDBRANCH   9  10
ENDBRANCH   8   9
ENDBRANCH   3   8
TORSDOF 3
ENDMDL
MODEL 8
REMARK VINA RESULT:      -3.8      1.818      2.437
REMARK  3 active torsions:
REMARK  status: ('A' for Active; 'I' for Inactive)
REMARK    1  A    between atoms: C_3  and  C_8 
REMARK    2  A    between atoms: O_5  and  C_7 
REMARK    3  A    between atoms: C_7  and  C_8 
ROOT
HETATM    1  N   UNL     1      62.207   9.556   2.588  1.00  0.00    -0.375 N 
ATOM      2  HN  UNL     1      61.909   9.325   1.640  1.00  0.00     0.164 HD
HETATM    3  C   UNL     1      63.356   8.949   4.635  1.00  0.00    -0.041 A 
HETATM    4  C   UNL     1      62.929   8.691   3.336  1.00  0.00     0.094 A 
HETATM    5  C   UNL     1      61.901  10.739   3.159  1.00  0.00     0.087 A 
HETATM    6  C   UNL     1      63.014  10.181   5.194  1.00  0.00     0.010 A 
HETATM    7  C   UNL     1      62.277  11.095   4.443  1.00  0.00     0.018 A 
ENDROOT
BRANCH   3   8
HETATM    8  C   UNL     1      64.135   7.914   5.405  1.00  0.00     0.066 C 
BRANCH   8   9
HETATM    9  C   UNL     1      65.647   8.131   5.334  1.00  0.00     0.168 C 
BRANCH   9  10
HETATM   10  O   UNL     1      66.113   8.917   6.425  1.00  0.00    -0.401 OA
HETATM   11  H   UNL     1      66.439   9.769   6.093  1.00  0.00     0.209 HD
ENDBRANCH   9  10
ENDBRANCH   8   9
ENDBRANCH   3   8
TORSDOF 3
ENDMDL
MODEL 9
REMARK VINA RESULT:      -3.7      7.939      9.217
REMARK  3 active torsions:
REMARK  status: ('A' for Active; 'I' for Inactive)
REMARK    1  A    between atoms: C_3  and  C_8 
REMARK    2  A    between atoms: O_5  and  C_7 
REMARK    3  A    between atoms: C_7  and  C_8 
ROOT
HETATM    1  N   UNL     1      67.468   2.949   9.111  1.00  0.00    -0.375 N 
ATOM      2  HN  UNL     1      66.795   2.193   9.241  1.00  0.00     0.164 HD
HETATM    3  C   UNL     1      68.118   5.021   8.031  1.00  0.00    -0.041 A 
HETATM    4  C   UNL     1      67.233   3.969   8.254  1.00  0.00     0.094 A 
HETATM    5  C   UNL     1      68.637   2.981   9.785  1.00  0.00     0.087 A 
HETATM    6  C   UNL     1      69.319   5.016   8.742  1.00  0.00     0.010 A 
HETATM    7  C   UNL     1      69.583   3.981   9.637  1.00  0.00     0.018 A 
ENDROOT
BRANCH   3   8
HETATM    8  C   UNL     1      67.785   6.103   7.037  1.00  0.00     0.066 C 
BRANCH   8   9
HETATM    9  C   UNL     1      66.782   7.122   7.578  1.00  0.00     0.168 C 
BRANCH   9  10
HETATM   10  O   UNL     1      67.089   8.440   7.138  1.00  0.00    -0.401 OA
HETATM   11  H   UNL     1      67.010   8.485   6.172  1.00  0.00     0.209 HD
ENDBRANCH   9  10
ENDBRANCH   8   9
ENDBRANCH   3   8
TORSDOF 3
ENDMDL
