MODEL 1
REMARK VINA RESULT:      -4.4      0.000      0.000
REMARK  3 active torsions:
REMARK  status: ('A' for Active; 'I' for Inactive)
REMARK    1  A    between atoms: C_1  and  C_2 
REMARK    2  A    between atoms: C_1  and  O_11 
REMARK    3  A    between atoms: C_2  and  N_4 
ROOT
HETATM    1  C   UNL     1      68.552   3.957   8.198  1.00  0.00     0.156 C 
HETATM    2  N   UNL     1      66.127   4.679   8.023  1.00  0.00    -0.067 N 
HETATM    3  C   UNL     1      67.055   3.534   8.250  1.00  0.00     0.287 C 
HETATM    4  C   UNL     1      68.600   5.488   7.935  1.00  0.00     0.038 C 
HETATM    5  C   UNL     1      67.807   6.230   9.031  1.00  0.00     0.036 C 
HETATM    6  C   UNL     1      67.873   5.780   6.608  1.00  0.00     0.036 C 
HETATM    7  C   UNL     1      66.364   5.697   9.070  1.00  0.00     0.235 C 
HETATM    8  C   UNL     1      66.423   5.275   6.699  1.00  0.00     0.235 C 
HETATM    9  H   UNL     1      65.159   4.361   8.054  1.00  0.00     0.280 HD
ENDROOT
BRANCH   1  10
HETATM   10  C   UNL     1      69.236   3.644   9.518  1.00  0.00    -0.037 C 
BRANCH  10  11
HETATM   11  N   UNL     1      69.804   3.384  10.614  1.00  0.00    -0.367 N 
ATOM     12  HN2 UNL     1      69.322   3.614   9.744  1.00  0.00     0.165 HD
ATOM     13  HN1 UNL     1      70.263   3.174  11.500  1.00  0.00     0.165 HD
ENDBRANCH  10  11
ENDBRANCH   1  10
BRANCH   1  14
HETATM   14  O   UNL     1      69.227   3.287   7.122  1.00  0.00    -0.374 OA
HETATM   15  H   UNL     1      69.023   3.732   6.286  1.00  0.00     0.212 HD
ENDBRANCH   1  14
TORSDOF 3
ENDMDL
MODEL 2
REMARK VINA RESULT:      -4.3      1.951      2.741
REMARK  3 active torsions:
REMARK  status: ('A' for Active; 'I' for Inactive)
REMARK    1  A    between atoms: C_1  and  C_2 
REMARK    2  A    between atoms: C_1  and  O_11 
REMARK    3  A    between atoms: C_2  and  N_4 
ROOT
HETATM    1  C   UNL     1      67.182   5.350   7.992  1.00  0.00     0.156 C 
HETATM    2  N   UNL     1      65.675   7.268   7.296  1.00  0.00    -0.067 N 
HETATM    3  C   UNL     1      66.366   6.599   8.436  1.00  0.00     0.287 C 
HETATM    4  C   UNL     1      67.024   5.208   6.452  1.00  0.00     0.038 C 
HETATM    5  C   UNL     1      67.491   6.505   5.759  1.00  0.00     0.036 C 
HETATM    6  C   UNL     1      65.525   5.062   6.125  1.00  0.00     0.036 C 
HETATM    7  C   UNL     1      66.692   7.698   6.311  1.00  0.00     0.235 C 
HETATM    8  C   UNL     1      64.766   6.292   6.652  1.00  0.00     0.235 C 
HETATM    9  H   UNL     1      65.145   8.073   7.628  1.00  0.00     0.280 HD
ENDROOT
BRANCH   1  10
HETATM   10  C   UNL     1      68.650   5.527   8.340  1.00  0.00    -0.037 C 
BRANCH  10  11
HETATM   11  N   UNL     1      69.869   5.673   8.630  1.00  0.00    -0.367 N 
ATOM     12  HN2 UNL     1      68.891   5.528   8.377  1.00  0.00     0.165 HD
ATOM     13  HN1 UNL     1      70.855   5.792   8.864  1.00  0.00     0.165 HD
ENDBRANCH  10  11
ENDBRANCH   1  10
BRANCH   1  14
HETATM   14  O   UNL     1      66.666   4.164   8.616  1.00  0.00    -0.374 OA
HETATM   15  H   UNL     1      67.055   4.068   9.498  1.00  0.00     0.212 HD
ENDBRANCH   1  14
TORSDOF 3
ENDMDL
MODEL 3
REMARK VINA RESULT:      -4.0      3.619      5.642
REMARK  3 active torsions:
REMARK  status: ('A' for Active; 'I' for Inactive)
REMARK    1  A    between atoms: C_1  and  C_2 
REMARK    2  A    between atoms: C_1  and  O_11 
REMARK    3  A    between atoms: C_2  and  N_4 
ROOT
HETATM    1  C   UNL     1      65.579   8.005   5.603  1.00  0.00     0.156 C 
HETATM    2  N   UNL     1      66.056   5.594   6.228  1.00  0.00    -0.067 N 
HETATM    3  C   UNL     1      65.191   6.782   6.483  1.00  0.00     0.287 C 
HETATM    4  C   UNL     1      66.769   7.576   4.699  1.00  0.00     0.038 C 
HETATM    5  C   UNL     1      66.370   6.341   3.865  1.00  0.00     0.036 C 
HETATM    6  C   UNL     1      67.933   7.126   5.603  1.00  0.00     0.036 C 
HETATM    7  C   UNL     1      65.925   5.209   4.805  1.00  0.00     0.235 C 
HETATM    8  C   UNL     1      67.464   5.965   6.497  1.00  0.00     0.235 C 
HETATM    9  H   UNL     1      65.777   4.819   6.829  1.00  0.00     0.280 HD
ENDROOT
BRANCH   1  10
HETATM   10  C   UNL     1      64.404   8.425   4.735  1.00  0.00    -0.037 C 
BRANCH  10  11
HETATM   11  N   UNL     1      63.430   8.774   4.015  1.00  0.00    -0.367 N 
ATOM     12  HN2 UNL     1      64.223   8.465   4.578  1.00  0.00     0.165 HD
ATOM     13  HN1 UNL     1      62.642   9.057   3.432  1.00  0.00     0.165 HD
ENDBRANCH  10  11
ENDBRANCH   1  10
BRANCH   1  14
HETATM   14  O   UNL     1      66.002   9.103   6.425  1.00  0.00    -0.374 OA
HETATM   15  H   UNL     1      65.346   9.257   7.122  1.00  0.00     0.212 HD
ENDBRANCH   1  14
TORSDOF 3
ENDMDL
MODEL 4
REMARK VINA RESULT:      -4.0      6.499      7.653
REMARK  3 active torsions:
REMARK  status: ('A' for Active; 'I' for Inactive)
REMARK    1  A    between atoms: C_1  and  C_2 
REMARK    2  A    between atoms: C_1  and  O_11 
REMARK    3  A    between atoms: C_2  and  N_4 
ROOT
HETATM    1  C   UNL     1      63.643   8.963   5.135  1.00  0.00     0.156 C 
HETATM    2  N   UNL     1      62.224   6.865   5.264  1.00  0.00    -0.067 N 
HETATM    3  C   UNL     1      62.816   7.997   6.033  1.00  0.00     0.287 C 
HETATM    4  C   UNL     1      63.569   8.429   3.676  1.00  0.00     0.038 C 
HETATM    5  C   UNL     1      62.094   8.318   3.237  1.00  0.00     0.036 C 
HETATM    6  C   UNL     1      64.133   6.995   3.651  1.00  0.00     0.036 C 
HETATM    7  C   UNL     1      61.331   7.415   4.220  1.00  0.00     0.235 C 
HETATM    8  C   UNL     1      63.319   6.111   4.611  1.00  0.00     0.235 C 
HETATM    9  H   UNL     1      61.700   6.251   5.888  1.00  0.00     0.280 HD
ENDROOT
BRANCH   1  10
HETATM   10  C   UNL     1      63.064  10.367   5.195  1.00  0.00    -0.037 C 
BRANCH  10  11
HETATM   11  N   UNL     1      62.582  11.531   5.244  1.00  0.00    -0.367 N 
ATOM     12  HN2 UNL     1      62.998  10.599   5.222  1.00  0.00     0.165 HD
ATOM     13  HN1 UNL     1      62.192  12.473   5.284  1.00  0.00     0.165 HD
ENDBRANCH  10  11
ENDBRANCH   1  10
BRANCH   1  14
HETATM   14  O   UNL     1      65.018   8.979   5.546  1.00  0.00    -0.374 OA
HETATM   15  H   UNL     1      65.067   9.113   6.505  1.00  0.00     0.212 HD
ENDBRANCH   1  14
TORSDOF 3
ENDMDL
MODEL 5
REMARK VINA RESULT:      -3.8      1.570      1.722
REMARK  3 active torsions:
REMARK  status: ('A' for Active; 'I' for Inactive)
REMARK    1  A    between atoms: C_1  and  C_2 
REMARK    2  A    between atoms: C_1  and  O_11 
REMARK    3  A    between atoms: C_2  and  N_4 
ROOT
HETATM    1  C   UNL     1      67.115   4.202   7.426  1.00  0.00     0.156 C 
HETATM    2  N   UNL     1      65.808   6.321   7.910  1.00  0.00    -0.067 N 
HETATM    3  C   UNL     1      65.718   4.860   7.624  1.00  0.00     0.287 C 
HETATM    4  C   UNL     1      68.188   5.310   7.614  1.00  0.00     0.038 C 
HETATM    5  C   UNL     1      68.026   5.963   9.002  1.00  0.00     0.036 C 
HETATM    6  C   UNL     1      67.926   6.425   6.582  1.00  0.00     0.036 C 
HETATM    7  C   UNL     1      66.597   6.515   9.146  1.00  0.00     0.235 C 
HETATM    8  C   UNL     1      66.507   6.983   6.785  1.00  0.00     0.235 C 
HETATM    9  H   UNL     1      64.874   6.716   8.023  1.00  0.00     0.280 HD
ENDROOT
BRANCH   1  10
HETATM   10  C   UNL     1      67.331   3.103   8.452  1.00  0.00    -0.037 C 
BRANCH  10  11
HETATM   11  N   UNL     1      67.509   2.190   9.304  1.00  0.00    -0.367 N 
ATOM     12  HN2 UNL     1      67.386   2.913   8.594  1.00  0.00     0.165 HD
ATOM     13  HN1 UNL     1      67.654   1.452   9.994  1.00  0.00     0.165 HD
ENDBRANCH  10  11
ENDBRANCH   1  10
BRANCH   1  14
HETATM   14  O   UNL     1      67.236   3.668   6.099  1.00  0.00    -0.374 OA
HETATM   15  H   UNL     1      67.314   2.703   6.144  1.00  0.00     0.212 HD
ENDBRANCH   1  14
TORSDOF 3
ENDMDL
MODEL 6
REMARK VINA RESULT:      -3.7      7.447      8.808
REMARK  3 active torsions:
REMARK  status: ('A' for Active; 'I' for Inactive)
REMARK    1  A    between atoms: C_1  and  C_2 
REMARK    2  A    between atoms: C_1  and  O_11 
REMARK    3  A    between atoms: C_2  and  N_4 
ROOT
HETATM    1  C   UNL     1      61.858   8.930   3.327  1.00  0.00     0.156 C 
HETATM    2  N   UNL     1      61.777   6.739   4.601  1.00  0.00    -0.067 N 
HETATM    3  C   UNL     1      61.021   7.681   3.727  1.00  0.00     0.287 C 
HETATM    4  C   UNL     1      63.265   8.780   3.972  1.00  0.00     0.038 C 
HETATM    5  C   UNL     1      63.910   7.456   3.514  1.00  0.00     0.036 C 
HETATM    6  C   UNL     1      63.092   8.668   5.500  1.00  0.00     0.036 C 
HETATM    7  C   UNL     1      62.983   6.282   3.874  1.00  0.00     0.235 C 
HETATM    8  C   UNL     1      62.198   7.459   5.824  1.00  0.00     0.235 C 
HETATM    9  H   UNL     1      61.193   5.940   4.848  1.00  0.00     0.280 HD
ENDROOT
BRANCH   1  10
HETATM   10  C   UNL     1      61.996   9.012   1.816  1.00  0.00    -0.037 C 
BRANCH  10  11
HETATM   11  N   UNL     1      62.111   9.079   0.562  1.00  0.00    -0.367 N 
ATOM     12  HN2 UNL     1      61.988   9.040   1.574  1.00  0.00     0.165 HD
ATOM     13  HN1 UNL     1      62.204   9.133  -0.453  1.00  0.00     0.165 HD
ENDBRANCH  10  11
ENDBRANCH   1  10
BRANCH   1  14
HETATM   14  O   UNL     1      61.248  10.127   3.832  1.00  0.00    -0.374 OA
HETATM   15  H   UNL     1      60.522   9.893   4.429  1.00  0.00     0.212 HD
ENDBRANCH   1  14
TORSDOF 3
ENDMDL
MODEL 7
REMARK VINA RESULT:      -3.7      9.439     10.902
REMARK  3 active torsions:
REMARK  status: ('A' for Active; 'I' for Inactive)
REMARK    1  A    between atoms: C_1  and  C_2 
REMARK    2  A    between atoms: C_1  and  O_11 
REMARK    3  A    between atoms: C_2  and  N_4 
ROOT
HETATM    1  C   UNL     1      70.031  11.159   0.765  1.00  0.00     0.156 C 
HETATM    2  N   UNL     1      71.695  10.758  -1.106  1.00  0.00    -0.067 N 
HETATM    3  C   UNL     1      71.514  11.228   0.297  1.00  0.00     0.287 C 
HETATM    4  C   UNL     1      69.192  10.587  -0.412  1.00  0.00     0.038 C 
HETATM    5  C   UNL     1      69.752   9.212  -0.831  1.00  0.00     0.036 C 
HETATM    6  C   UNL     1      69.368  11.512  -1.632  1.00  0.00     0.036 C 
HETATM    7  C   UNL     1      71.239   9.354  -1.199  1.00  0.00     0.235 C 
HETATM    8  C   UNL     1      70.860  11.594  -1.999  1.00  0.00     0.235 C 
HETATM    9  H   UNL     1      72.676  10.828  -1.378  1.00  0.00     0.280 HD
ENDROOT
BRANCH   1  10
HETATM   10  C   UNL     1      69.901  10.248   1.975  1.00  0.00    -0.037 C 
BRANCH  10  11
HETATM   11  N   UNL     1      69.794   9.492   2.978  1.00  0.00    -0.367 N 
ATOM     12  HN2 UNL     1      69.906  10.120   2.182  1.00  0.00     0.165 HD
ATOM     13  HN1 UNL     1      69.707   8.881   3.790  1.00  0.00     0.165 HD
ENDBRANCH  10  11
ENDBRANCH   1  10
BRANCH   1  14
HETATM   14  O   UNL     1      69.542  12.471   1.081  1.00  0.00    -0.374 OA
HETATM   15  H   UNL     1      69.948  12.778   1.907  1.00  0.00     0.212 HD
ENDBRANCH   1  14
TORSDOF 3
ENDMDL
MODEL 8
REMARK VINA RESULT:      -3.7      2.867      4.642
REMARK  3 active torsions:
REMARK  status: ('A' for Active; 'I' for Inactive)
REMARK    1  A    between atoms: C_1  and  C_2 
REMARK    2  A    between atoms: C_1  and  O_11 
REMARK    3  A    between atoms: C_2  and  N_4 
ROOT
HETATM    1  C   UNL     1      65.223   6.567   6.459  1.00  0.00     0.156 C 
HETATM    2  N   UNL     1      66.454   4.590   7.463  1.00  0.00    -0.067 N 
HETATM    3  C   UNL     1      65.188   5.055   6.826  1.00  0.00     0.287 C 
HETATM    4  C   UNL     1      66.616   7.120   6.871  1.00  0.00     0.038 C 
HETATM    5  C   UNL     1      67.726   6.309   6.171  1.00  0.00     0.036 C 
HETATM    6  C   UNL     1      66.806   6.890   8.384  1.00  0.00     0.036 C 
HETATM    7  C   UNL     1      67.572   4.819   6.520  1.00  0.00     0.235 C 
HETATM    8  C   UNL     1      66.689   5.387   8.689  1.00  0.00     0.235 C 
HETATM    9  H   UNL     1      66.388   3.600   7.696  1.00  0.00     0.280 HD
ENDROOT
BRANCH   1  10
HETATM   10  C   UNL     1      65.022   6.753   4.964  1.00  0.00    -0.037 C 
BRANCH  10  11
HETATM   11  N   UNL     1      64.855   6.908   3.724  1.00  0.00    -0.367 N 
ATOM     12  HN2 UNL     1      64.967   6.807   4.733  1.00  0.00     0.165 HD
ATOM     13  HN1 UNL     1      64.720   7.033   2.720  1.00  0.00     0.165 HD
ENDBRANCH  10  11
ENDBRANCH   1  10
BRANCH   1  14
HETATM   14  O   UNL     1      64.213   7.284   7.185  1.00  0.00    -0.374 OA
HETATM   15  H   UNL     1      64.355   8.237   7.080  1.00  0.00     0.212 HD
ENDBRANCH   1  14
TORSDOF 3
ENDMDL
MODEL 9
REMARK VINA RESULT:      -3.7      5.432      6.866
REMARK  3 active torsions:
REMARK  status: ('A' for Active; 'I' for Inactive)
REMARK    1  A    between atoms: C_1  and  C_2 
REMARK    2  A    between atoms: C_1  and  O_11 
REMARK    3  A    between atoms: C_2  and  N_4 
ROOT
HETATM    1  C   UNL     1      62.785   7.240   5.988  1.00  0.00     0.156 C 
HETATM    2  N   UNL     1      65.139   6.865   5.123  1.00  0.00    -0.067 N 
HETATM    3  C   UNL     1      64.121   6.455   6.131  1.00  0.00     0.287 C 
HETATM    4  C   UNL     1      62.941   8.219   4.790  1.00  0.00     0.038 C 
HETATM    5  C   UNL     1      63.310   7.429   3.517  1.00  0.00     0.036 C 
HETATM    6  C   UNL     1      64.132   9.155   5.074  1.00  0.00     0.036 C 
HETATM    7  C   UNL     1      64.593   6.619   3.769  1.00  0.00     0.235 C 
HETATM    8  C   UNL     1      65.404   8.314   5.277  1.00  0.00     0.235 C 
HETATM    9  H   UNL     1      66.001   6.336   5.256  1.00  0.00     0.280 HD
ENDROOT
BRANCH   1  10
HETATM   10  C   UNL     1      61.635   6.283   5.719  1.00  0.00    -0.037 C 
BRANCH  10  11
HETATM   11  N   UNL     1      60.682   5.489   5.496  1.00  0.00    -0.367 N 
ATOM     12  HN2 UNL     1      61.435   6.157   5.664  1.00  0.00     0.165 HD
ATOM     13  HN1 UNL     1      59.911   4.845   5.316  1.00  0.00     0.165 HD
ENDBRANCH  10  11
ENDBRANCH   1  10
BRANCH   1  14
HETATM   14  O   UNL     1      62.522   8.006   7.173  1.00  0.00    -0.374 OA
HETATM   15  H   UNL     1      61.617   7.835   7.474  1.00  0.00     0.212 HD
ENDBRANCH   1  14
TORSDOF 3
ENDMDL
