MODEL 1
REMARK VINA RESULT:      -6.4      0.000      0.000
REMARK  1 active torsions:
REMARK  status: ('A' for Active; 'I' for Inactive)
REMARK    1  A    between atoms: N_3  and  O_6 
ROOT
HETATM    1  C   UNL     1      77.455   8.780  16.116  1.00  0.00    -0.005 A 
HETATM    2  C   UNL     1      77.293   8.682  17.596  1.00  0.00     0.042 C 
HETATM    3  N   UNL     1      77.776   9.622  18.359  1.00  0.00    -0.273 N 
ATOM      4  HN  UNL     1      78.270  10.442  18.008  1.00  0.00     0.194 HD
HETATM    5  C   UNL     1      77.203   7.661  15.304  1.00  0.00    -0.046 A 
HETATM    6  C   UNL     1      76.538   7.465  18.102  1.00  0.00     0.060 C 
HETATM    7  C   UNL     1      77.041   6.229  17.373  1.00  0.00     0.011 C 
HETATM    8  C   UNL     1      77.856   9.993  15.537  1.00  0.00     0.014 A 
HETATM    9  C   UNL     1      76.759   6.341  15.880  1.00  0.00     0.040 C 
HETATM   10  C   UNL     1      77.329   7.787  13.912  1.00  0.00     0.008 A 
HETATM   11  C   UNL     1      77.985  10.100  14.154  1.00  0.00     0.001 A 
HETATM   12  C   UNL     1      77.718   9.000  13.340  1.00  0.00     0.001 A 
ENDROOT
BRANCH   3  13
HETATM   13  O   UNL     1      77.537   9.374  19.713  1.00  0.00    -0.290 OA
HETATM   14  H   UNL     1      77.262   8.523  19.991  1.00  0.00     0.244 HD
ENDBRANCH   3  13
TORSDOF 1
ENDMDL
MODEL 2
REMARK VINA RESULT:      -6.3      3.974      5.355
REMARK  1 active torsions:
REMARK  status: ('A' for Active; 'I' for Inactive)
REMARK    1  A    between atoms: N_3  and  O_6 
ROOT
HETATM    1  C   UNL     1      78.268  11.229  19.668  1.00  0.00    -0.005 A 
HETATM    2  C   UNL     1      78.641  12.035  20.867  1.00  0.00     0.042 C 
HETATM    3  N   UNL     1      79.562  11.594  21.677  1.00  0.00    -0.273 N 
ATOM      4  HN  UNL     1      80.060  10.714  21.546  1.00  0.00     0.194 HD
HETATM    5  C   UNL     1      77.100  11.536  18.950  1.00  0.00    -0.046 A 
HETATM    6  C   UNL     1      77.904  13.353  21.038  1.00  0.00     0.060 C 
HETATM    7  C   UNL     1      76.422  13.130  20.782  1.00  0.00     0.011 C 
HETATM    8  C   UNL     1      79.089  10.170  19.257  1.00  0.00     0.014 A 
HETATM    9  C   UNL     1      76.194  12.673  19.345  1.00  0.00     0.040 C 
HETATM   10  C   UNL     1      76.788  10.786  17.805  1.00  0.00     0.008 A 
HETATM   11  C   UNL     1      78.762   9.429  18.124  1.00  0.00     0.001 A 
HETATM   12  C   UNL     1      77.615   9.738  17.395  1.00  0.00     0.001 A 
ENDROOT
BRANCH   3  13
HETATM   13  O   UNL     1      79.786  12.467  22.744  1.00  0.00    -0.290 OA
HETATM   14  H   UNL     1      80.550  12.367  23.277  1.00  0.00     0.244 HD
ENDBRANCH   3  13
TORSDOF 1
ENDMDL
MODEL 3
REMARK VINA RESULT:      -6.3      2.753      4.495
REMARK  1 active torsions:
REMARK  status: ('A' for Active; 'I' for Inactive)
REMARK    1  A    between atoms: N_3  and  O_6 
ROOT
HETATM    1  C   UNL     1      77.091   7.621  15.614  1.00  0.00    -0.005 A 
HETATM    2  C   UNL     1      77.461   8.455  14.434  1.00  0.00     0.042 C 
HETATM    3  N   UNL     1      77.621   7.889  13.271  1.00  0.00    -0.273 N 
ATOM      4  HN  UNL     1      77.507   6.889  13.105  1.00  0.00     0.194 HD
HETATM    5  C   UNL     1      77.193   8.151  16.912  1.00  0.00    -0.046 A 
HETATM    6  C   UNL     1      77.609   9.945  14.693  1.00  0.00     0.060 C 
HETATM    7  C   UNL     1      78.407  10.150  15.970  1.00  0.00     0.011 C 
HETATM    8  C   UNL     1      76.636   6.308  15.425  1.00  0.00     0.014 A 
HETATM    9  C   UNL     1      77.664   9.560  17.163  1.00  0.00     0.040 C 
HETATM   10  C   UNL     1      76.806   7.359  18.004  1.00  0.00     0.008 A 
HETATM   11  C   UNL     1      76.263   5.531  16.519  1.00  0.00     0.001 A 
HETATM   12  C   UNL     1      76.344   6.056  17.809  1.00  0.00     0.001 A 
ENDROOT
BRANCH   3  13
HETATM   13  O   UNL     1      77.965   8.810  12.280  1.00  0.00    -0.290 OA
HETATM   14  H   UNL     1      78.867   8.997  12.108  1.00  0.00     0.244 HD
ENDBRANCH   3  13
TORSDOF 1
ENDMDL
MODEL 4
REMARK VINA RESULT:      -5.8     18.577     19.511
REMARK  1 active torsions:
REMARK  status: ('A' for Active; 'I' for Inactive)
REMARK    1  A    between atoms: N_3  and  O_6 
ROOT
HETATM    1  C   UNL     1      62.458   9.275   3.831  1.00  0.00    -0.005 A 
HETATM    2  C   UNL     1      62.780   8.234   4.851  1.00  0.00     0.042 C 
HETATM    3  N   UNL     1      63.077   8.595   6.067  1.00  0.00    -0.273 N 
ATOM      4  HN  UNL     1      63.105   9.565   6.382  1.00  0.00     0.194 HD
HETATM    5  C   UNL     1      62.418   8.937   2.468  1.00  0.00    -0.046 A 
HETATM    6  C   UNL     1      62.715   6.793   4.373  1.00  0.00     0.060 C 
HETATM    7  C   UNL     1      63.407   6.685   3.024  1.00  0.00     0.011 C 
HETATM    8  C   UNL     1      62.192  10.590   4.238  1.00  0.00     0.014 A 
HETATM    9  C   UNL     1      62.684   7.535   1.985  1.00  0.00     0.040 C 
HETATM   10  C   UNL     1      62.079   9.925   1.531  1.00  0.00     0.008 A 
HETATM   11  C   UNL     1      61.865  11.563   3.296  1.00  0.00     0.001 A 
HETATM   12  C   UNL     1      61.804  11.231   1.943  1.00  0.00     0.001 A 
ENDROOT
BRANCH   3  13
HETATM   13  O   UNL     1      63.351   7.500   6.889  1.00  0.00    -0.290 OA
HETATM   14  H   UNL     1      62.911   6.685   6.745  1.00  0.00     0.244 HD
ENDBRANCH   3  13
TORSDOF 1
ENDMDL
MODEL 5
REMARK VINA RESULT:      -5.7      4.647      6.559
REMARK  1 active torsions:
REMARK  status: ('A' for Active; 'I' for Inactive)
REMARK    1  A    between atoms: N_3  and  O_6 
ROOT
HETATM    1  C   UNL     1      78.744  11.557  20.332  1.00  0.00    -0.005 A 
HETATM    2  C   UNL     1      78.498  10.743  19.105  1.00  0.00     0.042 C 
HETATM    3  N   UNL     1      79.477  10.064  18.578  1.00  0.00    -0.273 N 
ATOM      4  HN  UNL     1      80.426  10.047  18.954  1.00  0.00     0.194 HD
HETATM    5  C   UNL     1      77.797  12.509  20.746  1.00  0.00    -0.046 A 
HETATM    6  C   UNL     1      77.077  10.763  18.569  1.00  0.00     0.060 C 
HETATM    7  C   UNL     1      76.565  12.194  18.569  1.00  0.00     0.011 C 
HETATM    8  C   UNL     1      79.920  11.367  21.071  1.00  0.00     0.014 A 
HETATM    9  C   UNL     1      76.514  12.740  19.992  1.00  0.00     0.040 C 
HETATM   10  C   UNL     1      78.034  13.239  21.922  1.00  0.00     0.008 A 
HETATM   11  C   UNL     1      80.146  12.104  22.231  1.00  0.00     0.001 A 
HETATM   12  C   UNL     1      79.202  13.037  22.660  1.00  0.00     0.001 A 
ENDROOT
BRANCH   3  13
HETATM   13  O   UNL     1      79.077   9.361  17.440  1.00  0.00    -0.290 OA
HETATM   14  H   UNL     1      79.648   8.723  17.059  1.00  0.00     0.244 HD
ENDBRANCH   3  13
TORSDOF 1
ENDMDL
MODEL 6
REMARK VINA RESULT:      -5.6      3.888      5.371
REMARK  1 active torsions:
REMARK  status: ('A' for Active; 'I' for Inactive)
REMARK    1  A    between atoms: N_3  and  O_6 
ROOT
HETATM    1  C   UNL     1      77.936  11.658  19.708  1.00  0.00    -0.005 A 
HETATM    2  C   UNL     1      78.881  10.520  19.512  1.00  0.00     0.042 C 
HETATM    3  N   UNL     1      80.019  10.514  20.147  1.00  0.00    -0.273 N 
ATOM      4  HN  UNL     1      80.318  11.250  20.787  1.00  0.00     0.194 HD
HETATM    5  C   UNL     1      76.850  11.830  18.832  1.00  0.00    -0.046 A 
HETATM    6  C   UNL     1      78.414   9.422  18.572  1.00  0.00     0.060 C 
HETATM    7  C   UNL     1      77.819  10.055  17.325  1.00  0.00     0.011 C 
HETATM    8  C   UNL     1      78.131  12.552  20.770  1.00  0.00     0.014 A 
HETATM    9  C   UNL     1      76.593  10.888  17.685  1.00  0.00     0.040 C 
HETATM   10  C   UNL     1      75.954  12.887  19.057  1.00  0.00     0.008 A 
HETATM   11  C   UNL     1      77.238  13.602  20.976  1.00  0.00     0.001 A 
HETATM   12  C   UNL     1      76.148  13.768  20.122  1.00  0.00     0.001 A 
ENDROOT
BRANCH   3  13
HETATM   13  O   UNL     1      80.781   9.381  19.851  1.00  0.00    -0.290 OA
HETATM   14  H   UNL     1      81.581   9.222  20.312  1.00  0.00     0.244 HD
ENDBRANCH   3  13
TORSDOF 1
ENDMDL
MODEL 7
REMARK VINA RESULT:      -5.6     19.097     20.049
REMARK  1 active torsions:
REMARK  status: ('A' for Active; 'I' for Inactive)
REMARK    1  A    between atoms: N_3  and  O_6 
ROOT
HETATM    1  C   UNL     1      62.323   9.138   2.654  1.00  0.00    -0.005 A 
HETATM    2  C   UNL     1      62.301  10.211   3.691  1.00  0.00     0.042 C 
HETATM    3  N   UNL     1      61.848  11.393   3.382  1.00  0.00    -0.273 N 
ATOM      4  HN  UNL     1      61.497  11.645   2.458  1.00  0.00     0.194 HD
HETATM    5  C   UNL     1      63.059   7.961   2.875  1.00  0.00    -0.046 A 
HETATM    6  C   UNL     1      62.807   9.816   5.067  1.00  0.00     0.060 C 
HETATM    7  C   UNL     1      64.095   9.022   4.914  1.00  0.00     0.011 C 
HETATM    8  C   UNL     1      61.605   9.305   1.462  1.00  0.00     0.014 A 
HETATM    9  C   UNL     1      63.836   7.732   4.145  1.00  0.00     0.040 C 
HETATM   10  C   UNL     1      63.038   6.951   1.900  1.00  0.00     0.008 A 
HETATM   11  C   UNL     1      61.599   8.298   0.500  1.00  0.00     0.001 A 
HETATM   12  C   UNL     1      62.312   7.119   0.719  1.00  0.00     0.001 A 
ENDROOT
BRANCH   3  13
HETATM   13  O   UNL     1      61.897  12.275   4.464  1.00  0.00    -0.290 OA
HETATM   14  H   UNL     1      61.126  12.739   4.725  1.00  0.00     0.244 HD
ENDBRANCH   3  13
TORSDOF 1
ENDMDL
MODEL 8
REMARK VINA RESULT:      -5.5      2.186      2.909
REMARK  1 active torsions:
REMARK  status: ('A' for Active; 'I' for Inactive)
REMARK    1  A    between atoms: N_3  and  O_6 
ROOT
HETATM    1  C   UNL     1      77.170   7.827  15.597  1.00  0.00    -0.005 A 
HETATM    2  C   UNL     1      76.731   6.773  16.557  1.00  0.00     0.042 C 
HETATM    3  N   UNL     1      76.141   5.701  16.108  1.00  0.00    -0.273 N 
ATOM      4  HN  UNL     1      75.954   5.525  15.121  1.00  0.00     0.194 HD
HETATM    5  C   UNL     1      77.541   9.098  16.068  1.00  0.00    -0.046 A 
HETATM    6  C   UNL     1      77.034   7.039  18.022  1.00  0.00     0.060 C 
HETATM    7  C   UNL     1      76.669   8.477  18.351  1.00  0.00     0.011 C 
HETATM    8  C   UNL     1      77.217   7.545  14.224  1.00  0.00     0.014 A 
HETATM    9  C   UNL     1      77.520   9.443  17.535  1.00  0.00     0.040 C 
HETATM   10  C   UNL     1      77.984  10.063  15.150  1.00  0.00     0.008 A 
HETATM   11  C   UNL     1      77.650   8.515  13.324  1.00  0.00     0.001 A 
HETATM   12  C   UNL     1      78.038   9.773  13.785  1.00  0.00     0.001 A 
ENDROOT
BRANCH   3  13
HETATM   13  O   UNL     1      75.797   4.820  17.137  1.00  0.00    -0.290 OA
HETATM   14  H   UNL     1      75.379   5.145  17.910  1.00  0.00     0.244 HD
ENDBRANCH   3  13
TORSDOF 1
ENDMDL
MODEL 9
REMARK VINA RESULT:      -5.5      2.168      3.602
REMARK  1 active torsions:
REMARK  status: ('A' for Active; 'I' for Inactive)
REMARK    1  A    between atoms: N_3  and  O_6 
ROOT
HETATM    1  C   UNL     1      77.201   8.613  16.192  1.00  0.00    -0.005 A 
HETATM    2  C   UNL     1      77.363  10.088  16.029  1.00  0.00     0.042 C 
HETATM    3  N   UNL     1      77.645  10.578  14.856  1.00  0.00    -0.273 N 
ATOM      4  HN  UNL     1      77.767  10.011  14.016  1.00  0.00     0.194 HD
HETATM    5  C   UNL     1      77.182   8.045  17.477  1.00  0.00    -0.046 A 
HETATM    6  C   UNL     1      77.159  10.921  17.283  1.00  0.00     0.060 C 
HETATM    7  C   UNL     1      77.892  10.263  18.441  1.00  0.00     0.011 C 
HETATM    8  C   UNL     1      77.065   7.798  15.059  1.00  0.00     0.014 A 
HETATM    9  C   UNL     1      77.312   8.882  18.723  1.00  0.00     0.040 C 
HETATM   10  C   UNL     1      76.994   6.660  17.606  1.00  0.00     0.008 A 
HETATM   11  C   UNL     1      76.887   6.424  15.203  1.00  0.00     0.001 A 
HETATM   12  C   UNL     1      76.848   5.854  16.475  1.00  0.00     0.001 A 
ENDROOT
BRANCH   3  13
HETATM   13  O   UNL     1      77.762  11.970  14.880  1.00  0.00    -0.290 OA
HETATM   14  H   UNL     1      77.140  12.483  15.357  1.00  0.00     0.244 HD
ENDBRANCH   3  13
TORSDOF 1
ENDMDL
