MODEL 1
REMARK VINA RESULT:      -4.8      0.000      0.000
REMARK  6 active torsions:
REMARK  status: ('A' for Active; 'I' for Inactive)
REMARK    1  A    between atoms: N_1  and  C_4 
REMARK    2  A    between atoms: C_4  and  C_6 
REMARK    3  A    between atoms: C_6  and  C_9 
REMARK    4  A    between atoms: N_7  and  C_9 
REMARK    5  A    between atoms: N_7  and  C_11 
REMARK    6  A    between atoms: C_8  and  C_11 
ROOT
HETATM    1  N   UNL     1      72.063  22.100  13.894  1.00  0.00    -0.072 N 
HETATM    2  H   UNL     1      71.105  21.750  13.927  1.00  0.00     0.277 HD
HETATM    3  H   UNL     1      72.741  21.342  13.966  1.00  0.00     0.277 HD
ENDROOT
BRANCH   1   4
HETATM    4  C   UNL     1      72.275  23.000  15.035  1.00  0.00     0.245 C 
BRANCH   4   5
HETATM    5  C   UNL     1      73.763  23.255  15.283  1.00  0.00     0.131 C 
BRANCH   5   6
HETATM    6  C   UNL     1      74.490  21.944  15.535  1.00  0.00    -0.076 C 
BRANCH   6   7
HETATM    7  N   UNL     1      75.092  20.857  15.746  1.00  0.00    -0.370 N 
ATOM      8  HN2 UNL     1      74.555  21.715  15.621  1.00  0.00     0.165 HD
ATOM      9  HN1 UNL     1      75.580  19.977  15.915  1.00  0.00     0.165 HD
ENDBRANCH   6   7
ENDBRANCH   5   6
ENDBRANCH   4   5
ENDBRANCH   1   4
BRANCH   1  10
HETATM   10  C   UNL     1      72.277  22.773  12.596  1.00  0.00     0.264 C 
BRANCH  10  11
HETATM   11  C   UNL     1      71.727  22.015  11.372  1.00  0.00     0.147 C 
HETATM   12  O   UNL     1      72.812  21.515  10.566  1.00  0.00    -0.384 OA
HETATM   13  C   UNL     1      72.497  20.182  10.154  1.00  0.00     0.168 C 
HETATM   14  C   UNL     1      71.060  19.907  10.552  1.00  0.00     0.029 C 
HETATM   15  C   UNL     1      70.871  20.815  11.743  1.00  0.00     0.036 C 
ENDBRANCH  10  11
ENDBRANCH   1  10
TORSDOF 6
ENDMDL
MODEL 2
REMARK VINA RESULT:      -4.8     12.422     14.127
REMARK  6 active torsions:
REMARK  status: ('A' for Active; 'I' for Inactive)
REMARK    1  A    between atoms: N_1  and  C_4 
REMARK    2  A    between atoms: C_4  and  C_6 
REMARK    3  A    between atoms: C_6  and  C_9 
REMARK    4  A    between atoms: N_7  and  C_9 
REMARK    5  A    between atoms: N_7  and  C_11 
REMARK    6  A    between atoms: C_8  and  C_11 
ROOT
HETATM    1  N   UNL     1      79.573  11.820  22.113  1.00  0.00    -0.072 N 
HETATM    2  H   UNL     1      79.316  10.942  22.565  1.00  0.00     0.277 HD
HETATM    3  H   UNL     1      79.951  11.664  21.179  1.00  0.00     0.277 HD
ENDROOT
BRANCH   1   4
HETATM    4  C   UNL     1      80.616  12.475  22.914  1.00  0.00     0.245 C 
BRANCH   4   5
HETATM    5  C   UNL     1      80.336  12.355  24.413  1.00  0.00     0.131 C 
BRANCH   5   6
HETATM    6  C   UNL     1      80.458  13.713  25.085  1.00  0.00    -0.076 C 
BRANCH   6   7
HETATM    7  N   UNL     1      80.559  14.838  25.644  1.00  0.00    -0.370 N 
ATOM      8  HN2 UNL     1      80.419  13.916  25.231  1.00  0.00     0.165 HD
ATOM      9  HN1 UNL     1      80.642  15.749  26.096  1.00  0.00     0.165 HD
ENDBRANCH   6   7
ENDBRANCH   5   6
ENDBRANCH   4   5
ENDBRANCH   1   4
BRANCH   1  10
HETATM   10  C   UNL     1      78.361  12.653  21.974  1.00  0.00     0.264 C 
BRANCH  10  11
HETATM   11  C   UNL     1      77.930  12.938  20.521  1.00  0.00     0.147 C 
HETATM   12  O   UNL     1      78.199  11.794  19.687  1.00  0.00    -0.384 OA
HETATM   13  C   UNL     1      77.082  11.593  18.817  1.00  0.00     0.168 C 
HETATM   14  C   UNL     1      76.159  12.785  18.973  1.00  0.00     0.029 C 
HETATM   15  C   UNL     1      76.446  13.240  20.383  1.00  0.00     0.036 C 
ENDBRANCH  10  11
ENDBRANCH   1  10
TORSDOF 6
ENDMDL
MODEL 3
REMARK VINA RESULT:      -4.5     16.552     17.669
REMARK  6 active torsions:
REMARK  status: ('A' for Active; 'I' for Inactive)
REMARK    1  A    between atoms: N_1  and  C_4 
REMARK    2  A    between atoms: C_4  and  C_6 
REMARK    3  A    between atoms: C_6  and  C_9 
REMARK    4  A    between atoms: N_7  and  C_9 
REMARK    5  A    between atoms: N_7  and  C_11 
REMARK    6  A    between atoms: C_8  and  C_11 
ROOT
HETATM    1  N   UNL     1      62.856   8.662   5.989  1.00  0.00    -0.072 N 
HETATM    2  H   UNL     1      62.890   8.936   6.971  1.00  0.00     0.277 HD
HETATM    3  H   UNL     1      61.960   8.239   5.749  1.00  0.00     0.277 HD
ENDROOT
BRANCH   1   4
HETATM    4  C   UNL     1      63.904   7.662   5.741  1.00  0.00     0.245 C 
BRANCH   4   5
HETATM    5  C   UNL     1      65.180   8.305   5.197  1.00  0.00     0.131 C 
BRANCH   5   6
HETATM    6  C   UNL     1      66.316   8.155   6.196  1.00  0.00    -0.076 C 
BRANCH   6   7
HETATM    7  N   UNL     1      67.259   8.031   7.024  1.00  0.00    -0.370 N 
ATOM      8  HN2 UNL     1      66.543   8.158   6.309  1.00  0.00     0.165 HD
ATOM      9  HN1 UNL     1      68.021   7.931   7.695  1.00  0.00     0.165 HD
ENDBRANCH   6   7
ENDBRANCH   5   6
ENDBRANCH   4   5
ENDBRANCH   1   4
BRANCH   1  10
HETATM   10  C   UNL     1      63.021   9.870   5.154  1.00  0.00     0.264 C 
BRANCH  10  11
HETATM   11  C   UNL     1      62.012  10.003   3.996  1.00  0.00     0.147 C 
HETATM   12  O   UNL     1      61.815  11.391   3.662  1.00  0.00    -0.384 OA
HETATM   13  C   UNL     1      61.794  11.518   2.238  1.00  0.00     0.168 C 
HETATM   14  C   UNL     1      61.775  10.119   1.654  1.00  0.00     0.029 C 
HETATM   15  C   UNL     1      62.466   9.308   2.722  1.00  0.00     0.036 C 
ENDBRANCH  10  11
ENDBRANCH   1  10
TORSDOF 6
ENDMDL
MODEL 4
REMARK VINA RESULT:      -4.3     12.878     14.358
REMARK  6 active torsions:
REMARK  status: ('A' for Active; 'I' for Inactive)
REMARK    1  A    between atoms: N_1  and  C_4 
REMARK    2  A    between atoms: C_4  and  C_6 
REMARK    3  A    between atoms: C_6  and  C_9 
REMARK    4  A    between atoms: N_7  and  C_9 
REMARK    5  A    between atoms: N_7  and  C_11 
REMARK    6  A    between atoms: C_8  and  C_11 
ROOT
HETATM    1  N   UNL     1      77.327  12.191  19.004  1.00  0.00    -0.072 N 
HETATM    2  H   UNL     1      77.210  13.029  18.435  1.00  0.00     0.277 HD
HETATM    3  H   UNL     1      78.295  12.073  19.302  1.00  0.00     0.277 HD
ENDROOT
BRANCH   1   4
HETATM    4  C   UNL     1      76.961  11.018  18.198  1.00  0.00     0.245 C 
BRANCH   4   5
HETATM    5  C   UNL     1      77.648   9.748  18.706  1.00  0.00     0.131 C 
BRANCH   5   6
HETATM    6  C   UNL     1      79.030  10.075  19.248  1.00  0.00    -0.076 C 
BRANCH   6   7
HETATM    7  N   UNL     1      80.177  10.345  19.695  1.00  0.00    -0.370 N 
ATOM      8  HN2 UNL     1      79.240  10.196  19.322  1.00  0.00     0.165 HD
ATOM      9  HN1 UNL     1      81.105  10.563  20.058  1.00  0.00     0.165 HD
ENDBRANCH   6   7
ENDBRANCH   5   6
ENDBRANCH   4   5
ENDBRANCH   1   4
BRANCH   1  10
HETATM   10  C   UNL     1      76.496  12.323  20.219  1.00  0.00     0.264 C 
BRANCH  10  11
HETATM   11  C   UNL     1      77.253  12.787  21.478  1.00  0.00     0.147 C 
HETATM   12  O   UNL     1      77.331  11.715  22.438  1.00  0.00    -0.384 OA
HETATM   13  C   UNL     1      78.649  11.695  22.992  1.00  0.00     0.168 C 
HETATM   14  C   UNL     1      79.369  12.937  22.506  1.00  0.00     0.029 C 
HETATM   15  C   UNL     1      78.682  13.222  21.194  1.00  0.00     0.036 C 
ENDBRANCH  10  11
ENDBRANCH   1  10
TORSDOF 6
ENDMDL
MODEL 5
REMARK VINA RESULT:      -4.2     16.838     17.392
REMARK  6 active torsions:
REMARK  status: ('A' for Active; 'I' for Inactive)
REMARK    1  A    between atoms: N_1  and  C_4 
REMARK    2  A    between atoms: C_4  and  C_6 
REMARK    3  A    between atoms: C_6  and  C_9 
REMARK    4  A    between atoms: N_7  and  C_9 
REMARK    5  A    between atoms: N_7  and  C_11 
REMARK    6  A    between atoms: C_8  and  C_11 
ROOT
HETATM    1  N   UNL     1      67.568   7.007   8.374  1.00  0.00    -0.072 N 
HETATM    2  H   UNL     1      68.449   7.521   8.416  1.00  0.00     0.277 HD
HETATM    3  H   UNL     1      66.827   7.493   8.879  1.00  0.00     0.277 HD
ENDROOT
BRANCH   1   4
HETATM    4  C   UNL     1      67.756   5.696   9.010  1.00  0.00     0.245 C 
BRANCH   4   5
HETATM    5  C   UNL     1      69.163   5.146   8.764  1.00  0.00     0.131 C 
BRANCH   5   6
HETATM    6  C   UNL     1      69.490   4.058   9.773  1.00  0.00    -0.076 C 
BRANCH   6   7
HETATM    7  N   UNL     1      69.762   3.156  10.611  1.00  0.00    -0.370 N 
ATOM      8  HN2 UNL     1      69.562   3.933   9.981  1.00  0.00     0.165 HD
ATOM      9  HN1 UNL     1      69.982   2.425  11.288  1.00  0.00     0.165 HD
ENDBRANCH   6   7
ENDBRANCH   5   6
ENDBRANCH   4   5
ENDBRANCH   1   4
BRANCH   1  10
HETATM   10  C   UNL     1      67.151   6.895   6.961  1.00  0.00     0.264 C 
BRANCH  10  11
HETATM   11  C   UNL     1      65.700   7.328   6.675  1.00  0.00     0.147 C 
HETATM   12  O   UNL     1      65.675   8.657   6.120  1.00  0.00    -0.384 OA
HETATM   13  C   UNL     1      64.732   8.684   5.044  1.00  0.00     0.168 C 
HETATM   14  C   UNL     1      63.985   7.365   5.057  1.00  0.00     0.029 C 
HETATM   15  C   UNL     1      64.989   6.426   5.678  1.00  0.00     0.036 C 
ENDBRANCH  10  11
ENDBRANCH   1  10
TORSDOF 6
ENDMDL
MODEL 6
REMARK VINA RESULT:      -4.1     12.257     14.692
REMARK  6 active torsions:
REMARK  status: ('A' for Active; 'I' for Inactive)
REMARK    1  A    between atoms: N_1  and  C_4 
REMARK    2  A    between atoms: C_4  and  C_6 
REMARK    3  A    between atoms: C_6  and  C_9 
REMARK    4  A    between atoms: N_7  and  C_9 
REMARK    5  A    between atoms: N_7  and  C_11 
REMARK    6  A    between atoms: C_8  and  C_11 
ROOT
HETATM    1  N   UNL     1      78.502  12.394  20.628  1.00  0.00    -0.072 N 
HETATM    2  H   UNL     1      78.392  13.332  20.241  1.00  0.00     0.277 HD
HETATM    3  H   UNL     1      79.368  11.958  20.315  1.00  0.00     0.277 HD
ENDROOT
BRANCH   1   4
HETATM    4  C   UNL     1      77.386  11.558  20.162  1.00  0.00     0.245 C 
BRANCH   4   5
HETATM    5  C   UNL     1      76.338  12.383  19.413  1.00  0.00     0.131 C 
BRANCH   5   6
HETATM    6  C   UNL     1      76.924  13.716  18.980  1.00  0.00    -0.076 C 
BRANCH   6   7
HETATM    7  N   UNL     1      77.410  14.824  18.622  1.00  0.00    -0.370 N 
ATOM      8  HN2 UNL     1      77.081  13.911  18.937  1.00  0.00     0.165 HD
ATOM      9  HN1 UNL     1      77.802  15.719  18.332  1.00  0.00     0.165 HD
ENDBRANCH   6   7
ENDBRANCH   5   6
ENDBRANCH   4   5
ENDBRANCH   1   4
BRANCH   1  10
HETATM   10  C   UNL     1      78.555  12.493  22.101  1.00  0.00     0.264 C 
BRANCH  10  11
HETATM   11  C   UNL     1      79.949  12.265  22.718  1.00  0.00     0.147 C 
HETATM   12  O   UNL     1      80.960  12.907  21.918  1.00  0.00    -0.384 OA
HETATM   13  C   UNL     1      81.890  13.554  22.792  1.00  0.00     0.168 C 
HETATM   14  C   UNL     1      81.559  13.128  24.209  1.00  0.00     0.029 C 
HETATM   15  C   UNL     1      80.083  12.829  24.125  1.00  0.00     0.036 C 
ENDBRANCH  10  11
ENDBRANCH   1  10
TORSDOF 6
ENDMDL
MODEL 7
REMARK VINA RESULT:      -4.1     16.504     17.365
REMARK  6 active torsions:
REMARK  status: ('A' for Active; 'I' for Inactive)
REMARK    1  A    between atoms: N_1  and  C_4 
REMARK    2  A    between atoms: C_4  and  C_6 
REMARK    3  A    between atoms: C_6  and  C_9 
REMARK    4  A    between atoms: N_7  and  C_9 
REMARK    5  A    between atoms: N_7  and  C_11 
REMARK    6  A    between atoms: C_8  and  C_11 
ROOT
HETATM    1  N   UNL     1      65.057   7.810   6.150  1.00  0.00    -0.072 N 
HETATM    2  H   UNL     1      64.683   6.862   6.105  1.00  0.00     0.277 HD
HETATM    3  H   UNL     1      64.536   8.387   6.810  1.00  0.00     0.277 HD
ENDROOT
BRANCH   1   4
HETATM    4  C   UNL     1      64.936   8.429   4.823  1.00  0.00     0.245 C 
BRANCH   4   5
HETATM    5  C   UNL     1      63.534   8.996   4.590  1.00  0.00     0.131 C 
BRANCH   5   6
HETATM    6  C   UNL     1      63.338  10.270   5.395  1.00  0.00    -0.076 C 
BRANCH   6   7
HETATM    7  N   UNL     1      63.177  11.326   6.065  1.00  0.00    -0.370 N 
ATOM      8  HN2 UNL     1      63.250  10.445   5.555  1.00  0.00     0.165 HD
ATOM      9  HN1 UNL     1      63.047  12.180   6.606  1.00  0.00     0.165 HD
ENDBRANCH   6   7
ENDBRANCH   5   6
ENDBRANCH   4   5
ENDBRANCH   1   4
BRANCH   1  10
HETATM   10  C   UNL     1      66.457   7.746   6.618  1.00  0.00     0.264 C 
BRANCH  10  11
HETATM   11  C   UNL     1      66.806   6.501   7.456  1.00  0.00     0.147 C 
HETATM   12  O   UNL     1      67.998   5.873   6.945  1.00  0.00    -0.384 OA
HETATM   13  C   UNL     1      68.823   5.493   8.050  1.00  0.00     0.168 C 
HETATM   14  C   UNL     1      68.020   5.712   9.317  1.00  0.00     0.029 C 
HETATM   15  C   UNL     1      67.074   6.818   8.919  1.00  0.00     0.036 C 
ENDBRANCH  10  11
ENDBRANCH   1  10
TORSDOF 6
ENDMDL
MODEL 8
REMARK VINA RESULT:      -4.1     16.865     17.671
REMARK  6 active torsions:
REMARK  status: ('A' for Active; 'I' for Inactive)
REMARK    1  A    between atoms: N_1  and  C_4 
REMARK    2  A    between atoms: C_4  and  C_6 
REMARK    3  A    between atoms: C_6  and  C_9 
REMARK    4  A    between atoms: N_7  and  C_9 
REMARK    5  A    between atoms: N_7  and  C_11 
REMARK    6  A    between atoms: C_8  and  C_11 
ROOT
HETATM    1  N   UNL     1      66.708   7.746   7.426  1.00  0.00    -0.072 N 
HETATM    2  H   UNL     1      66.687   8.577   8.018  1.00  0.00     0.277 HD
HETATM    3  H   UNL     1      67.657   7.523   7.128  1.00  0.00     0.277 HD
ENDROOT
BRANCH   1   4
HETATM    4  C   UNL     1      65.910   8.006   6.220  1.00  0.00     0.245 C 
BRANCH   4   5
HETATM    5  C   UNL     1      66.615   7.506   4.958  1.00  0.00     0.131 C 
BRANCH   5   6
HETATM    6  C   UNL     1      68.062   7.970   4.941  1.00  0.00    -0.076 C 
BRANCH   6   7
HETATM    7  N   UNL     1      69.262   8.356   4.925  1.00  0.00    -0.370 N 
ATOM      8  HN2 UNL     1      68.312   7.985   4.904  1.00  0.00     0.165 HD
ATOM      9  HN1 UNL     1      70.233   8.669   4.913  1.00  0.00     0.165 HD
ENDBRANCH   6   7
ENDBRANCH   5   6
ENDBRANCH   4   5
ENDBRANCH   1   4
BRANCH   1  10
HETATM   10  C   UNL     1      66.199   6.597   8.203  1.00  0.00     0.264 C 
BRANCH  10  11
HETATM   11  C   UNL     1      67.287   5.684   8.802  1.00  0.00     0.147 C 
HETATM   12  O   UNL     1      66.802   4.331   8.904  1.00  0.00    -0.384 OA
HETATM   13  C   UNL     1      67.841   3.443   8.482  1.00  0.00     0.168 C 
HETATM   14  C   UNL     1      69.101   4.265   8.299  1.00  0.00     0.029 C 
HETATM   15  C   UNL     1      68.555   5.632   7.965  1.00  0.00     0.036 C 
ENDBRANCH  10  11
ENDBRANCH   1  10
TORSDOF 6
ENDMDL
MODEL 9
REMARK VINA RESULT:      -4.0     13.594     14.330
REMARK  6 active torsions:
REMARK  status: ('A' for Active; 'I' for Inactive)
REMARK    1  A    between atoms: N_1  and  C_4 
REMARK    2  A    between atoms: C_4  and  C_6 
REMARK    3  A    between atoms: C_6  and  C_9 
REMARK    4  A    between atoms: N_7  and  C_9 
REMARK    5  A    between atoms: N_7  and  C_11 
REMARK    6  A    between atoms: C_8  and  C_11 
ROOT
HETATM    1  N   UNL     1      79.175  12.801  21.498  1.00  0.00    -0.072 N 
HETATM    2  H   UNL     1      79.992  12.277  21.182  1.00  0.00     0.277 HD
HETATM    3  H   UNL     1      79.207  13.770  21.183  1.00  0.00     0.277 HD
ENDROOT
BRANCH   1   4
HETATM    4  C   UNL     1      79.160  12.810  22.968  1.00  0.00     0.245 C 
BRANCH   4   5
HETATM    5  C   UNL     1      80.510  12.385  23.549  1.00  0.00     0.131 C 
BRANCH   5   6
HETATM    6  C   UNL     1      81.603  13.343  23.103  1.00  0.00    -0.076 C 
BRANCH   6   7
HETATM    7  N   UNL     1      82.509  14.138  22.732  1.00  0.00    -0.370 N 
ATOM      8  HN2 UNL     1      81.736  13.519  22.979  1.00  0.00     0.165 HD
ATOM      9  HN1 UNL     1      83.242  14.780  22.433  1.00  0.00     0.165 HD
ENDBRANCH   6   7
ENDBRANCH   5   6
ENDBRANCH   4   5
ENDBRANCH   1   4
BRANCH   1  10
HETATM   10  C   UNL     1      77.963  12.180  20.925  1.00  0.00     0.264 C 
BRANCH  10  11
HETATM   11  C   UNL     1      78.134  11.614  19.502  1.00  0.00     0.147 C 
HETATM   12  O   UNL     1      79.336  10.823  19.419  1.00  0.00    -0.384 OA
HETATM   13  C   UNL     1      79.051   9.638  18.671  1.00  0.00     0.168 C 
HETATM   14  C   UNL     1      77.660   9.789  18.086  1.00  0.00     0.029 C 
HETATM   15  C   UNL     1      76.988  10.711  19.073  1.00  0.00     0.036 C 
ENDBRANCH  10  11
ENDBRANCH   1  10
TORSDOF 6
ENDMDL
