MODEL 1
REMARK VINA RESULT:      -4.5      0.000      0.000
REMARK  6 active torsions:
REMARK  status: ('A' for Active; 'I' for Inactive)
REMARK    1  A    between atoms: N_1  and  C_4 
REMARK    2  A    between atoms: C_4  and  C_10 
REMARK    3  A    between atoms: C_5  and  C_12 
REMARK    4  A    between atoms: C_10  and  C_13 
REMARK    5  A    between atoms: N_11  and  C_13 
REMARK    6  A    between atoms: N_11  and  C_12 
ROOT
HETATM    1  N   UNL     1      76.267   2.831  18.656  1.00  0.00    -0.069 N 
HETATM    2  H   UNL     1      75.635   2.862  19.456  1.00  0.00     0.277 HD
HETATM    3  H   UNL     1      76.960   2.093  18.786  1.00  0.00     0.277 HD
ENDROOT
BRANCH   1   4
HETATM    4  C   UNL     1      76.962   4.123  18.535  1.00  0.00     0.245 C 
BRANCH   4   5
HETATM    5  C   UNL     1      76.483   4.936  17.322  1.00  0.00     0.131 C 
BRANCH   5   6
HETATM    6  C   UNL     1      76.689   6.418  17.589  1.00  0.00    -0.076 C 
BRANCH   6   7
HETATM    7  N   UNL     1      76.859   7.648  17.809  1.00  0.00    -0.370 N 
ATOM      8  HN2 UNL     1      76.705   6.650  17.670  1.00  0.00     0.165 HD
ATOM      9  HN1 UNL     1      76.998   8.643  17.987  1.00  0.00     0.165 HD
ENDBRANCH   6   7
ENDBRANCH   5   6
ENDBRANCH   4   5
ENDBRANCH   1   4
BRANCH   1  10
HETATM   10  C   UNL     1      75.492   2.548  17.436  1.00  0.00     0.296 C 
BRANCH  10  11
HETATM   11  C   UNL     1      74.735   1.268  17.540  1.00  0.00     0.078 A 
HETATM   12  O   UNL     1      74.565   0.756  18.798  1.00  0.00    -0.325 OA
HETATM   13  C   UNL     1      73.927  -0.435  18.663  1.00  0.00     0.142 A 
HETATM   14  C   UNL     1      73.671  -0.698  17.339  1.00  0.00     0.027 A 
HETATM   15  C   UNL     1      74.182   0.406  16.612  1.00  0.00     0.036 A 
ENDBRANCH  10  11
ENDBRANCH   1  10
TORSDOF 6
ENDMDL
MODEL 2
REMARK VINA RESULT:      -4.3     13.035     13.885
REMARK  6 active torsions:
REMARK  status: ('A' for Active; 'I' for Inactive)
REMARK    1  A    between atoms: N_1  and  C_4 
REMARK    2  A    between atoms: C_4  and  C_10 
REMARK    3  A    between atoms: C_5  and  C_12 
REMARK    4  A    between atoms: C_10  and  C_13 
REMARK    5  A    between atoms: N_11  and  C_13 
REMARK    6  A    between atoms: N_11  and  C_12 
ROOT
HETATM    1  N   UNL     1      67.996   6.415   9.032  1.00  0.00    -0.069 N 
HETATM    2  H   UNL     1      68.344   7.298   8.661  1.00  0.00     0.277 HD
HETATM    3  H   UNL     1      68.306   6.294   9.997  1.00  0.00     0.277 HD
ENDROOT
BRANCH   1   4
HETATM    4  C   UNL     1      68.521   5.305   8.219  1.00  0.00     0.245 C 
BRANCH   4   5
HETATM    5  C   UNL     1      69.918   4.853   8.673  1.00  0.00     0.131 C 
BRANCH   5   6
HETATM    6  C   UNL     1      69.786   3.846   9.804  1.00  0.00    -0.076 C 
BRANCH   6   7
HETATM    7  N   UNL     1      69.675   3.010  10.741  1.00  0.00    -0.370 N 
ATOM      8  HN2 UNL     1      69.775   3.716  10.012  1.00  0.00     0.165 HD
ATOM      9  HN1 UNL     1      69.586   2.333  11.499  1.00  0.00     0.165 HD
ENDBRANCH   6   7
ENDBRANCH   5   6
ENDBRANCH   4   5
ENDBRANCH   1   4
BRANCH   1  10
HETATM   10  C   UNL     1      66.524   6.422   9.002  1.00  0.00     0.296 C 
BRANCH  10  11
HETATM   11  C   UNL     1      65.995   6.778   7.654  1.00  0.00     0.078 A 
HETATM   12  O   UNL     1      66.458   7.941   7.102  1.00  0.00    -0.325 OA
HETATM   13  C   UNL     1      65.802   8.115   5.925  1.00  0.00     0.142 A 
HETATM   14  C   UNL     1      64.928   7.078   5.703  1.00  0.00     0.027 A 
HETATM   15  C   UNL     1      65.059   6.207   6.813  1.00  0.00     0.036 A 
ENDBRANCH  10  11
ENDBRANCH   1  10
TORSDOF 6
ENDMDL
MODEL 3
REMARK VINA RESULT:      -4.2     16.309     17.006
REMARK  6 active torsions:
REMARK  status: ('A' for Active; 'I' for Inactive)
REMARK    1  A    between atoms: N_1  and  C_4 
REMARK    2  A    between atoms: C_4  and  C_10 
REMARK    3  A    between atoms: C_5  and  C_12 
REMARK    4  A    between atoms: C_10  and  C_13 
REMARK    5  A    between atoms: N_11  and  C_13 
REMARK    6  A    between atoms: N_11  and  C_12 
ROOT
HETATM    1  N   UNL     1      65.227   7.643   6.729  1.00  0.00    -0.069 N 
HETATM    2  H   UNL     1      64.943   8.433   7.307  1.00  0.00     0.277 HD
HETATM    3  H   UNL     1      64.575   6.867   6.850  1.00  0.00     0.277 HD
ENDROOT
BRANCH   1   4
HETATM    4  C   UNL     1      66.573   7.203   7.132  1.00  0.00     0.245 C 
BRANCH   4   5
HETATM    5  C   UNL     1      66.604   6.641   8.563  1.00  0.00     0.131 C 
BRANCH   5   6
HETATM    6  C   UNL     1      67.918   5.914   8.796  1.00  0.00    -0.076 C 
BRANCH   6   7
HETATM    7  N   UNL     1      69.008   5.312   8.991  1.00  0.00    -0.370 N 
ATOM      8  HN2 UNL     1      68.119   5.772   8.801  1.00  0.00     0.165 HD
ATOM      9  HN1 UNL     1      69.891   4.825   9.149  1.00  0.00     0.165 HD
ENDBRANCH   6   7
ENDBRANCH   5   6
ENDBRANCH   4   5
ENDBRANCH   1   4
BRANCH   1  10
HETATM   10  C   UNL     1      65.224   8.051   5.313  1.00  0.00     0.296 C 
BRANCH  10  11
HETATM   11  C   UNL     1      64.139   9.031   5.018  1.00  0.00     0.078 A 
HETATM   12  O   UNL     1      64.105  10.159   5.791  1.00  0.00    -0.325 OA
HETATM   13  C   UNL     1      63.011  10.870   5.415  1.00  0.00     0.142 A 
HETATM   14  C   UNL     1      62.341  10.225   4.403  1.00  0.00     0.027 A 
HETATM   15  C   UNL     1      63.075   9.041   4.137  1.00  0.00     0.036 A 
ENDBRANCH  10  11
ENDBRANCH   1  10
TORSDOF 6
ENDMDL
MODEL 4
REMARK VINA RESULT:      -4.2     15.729     16.320
REMARK  6 active torsions:
REMARK  status: ('A' for Active; 'I' for Inactive)
REMARK    1  A    between atoms: N_1  and  C_4 
REMARK    2  A    between atoms: C_4  and  C_10 
REMARK    3  A    between atoms: C_5  and  C_12 
REMARK    4  A    between atoms: C_10  and  C_13 
REMARK    5  A    between atoms: N_11  and  C_13 
REMARK    6  A    between atoms: N_11  and  C_12 
ROOT
HETATM    1  N   UNL     1      64.872   8.306   5.947  1.00  0.00    -0.069 N 
HETATM    2  H   UNL     1      64.360   7.610   6.487  1.00  0.00     0.277 HD
HETATM    3  H   UNL     1      64.803   9.219   6.397  1.00  0.00     0.277 HD
ENDROOT
BRANCH   1   4
HETATM    4  C   UNL     1      64.295   8.395   4.595  1.00  0.00     0.245 C 
BRANCH   4   5
HETATM    5  C   UNL     1      63.038   9.278   4.550  1.00  0.00     0.131 C 
BRANCH   5   6
HETATM    6  C   UNL     1      63.235  10.492   5.443  1.00  0.00    -0.076 C 
BRANCH   6   7
HETATM    7  N   UNL     1      63.399  11.498   6.185  1.00  0.00    -0.370 N 
ATOM      8  HN2 UNL     1      63.285  10.706   5.553  1.00  0.00     0.165 HD
ATOM      9  HN1 UNL     1      63.531  12.312   6.786  1.00  0.00     0.165 HD
ENDBRANCH   6   7
ENDBRANCH   5   6
ENDBRANCH   4   5
ENDBRANCH   1   4
BRANCH   1  10
HETATM   10  C   UNL     1      66.291   7.917   5.874  1.00  0.00     0.296 C 
BRANCH  10  11
HETATM   11  C   UNL     1      66.681   7.018   6.998  1.00  0.00     0.078 A 
HETATM   12  O   UNL     1      65.863   7.018   8.095  1.00  0.00    -0.325 OA
HETATM   13  C   UNL     1      66.432   6.202   9.020  1.00  0.00     0.142 A 
HETATM   14  C   UNL     1      67.601   5.667   8.535  1.00  0.00     0.027 A 
HETATM   15  C   UNL     1      67.758   6.183   7.224  1.00  0.00     0.036 A 
ENDBRANCH  10  11
ENDBRANCH   1  10
TORSDOF 6
ENDMDL
MODEL 5
REMARK VINA RESULT:      -4.1     19.895     20.577
REMARK  6 active torsions:
REMARK  status: ('A' for Active; 'I' for Inactive)
REMARK    1  A    between atoms: N_1  and  C_4 
REMARK    2  A    between atoms: C_4  and  C_10 
REMARK    3  A    between atoms: C_5  and  C_12 
REMARK    4  A    between atoms: C_10  and  C_13 
REMARK    5  A    between atoms: N_11  and  C_13 
REMARK    6  A    between atoms: N_11  and  C_12 
ROOT
HETATM    1  N   UNL     1      61.499  10.131   3.657  1.00  0.00    -0.069 N 
HETATM    2  H   UNL     1      61.405   9.126   3.514  1.00  0.00     0.277 HD
HETATM    3  H   UNL     1      60.620  10.520   3.997  1.00  0.00     0.277 HD
ENDROOT
BRANCH   1   4
HETATM    4  C   UNL     1      61.843  10.773   2.377  1.00  0.00     0.245 C 
BRANCH   4   5
HETATM    5  C   UNL     1      62.128   9.752   1.264  1.00  0.00     0.131 C 
BRANCH   5   6
HETATM    6  C   UNL     1      60.971   8.772   1.164  1.00  0.00    -0.076 C 
BRANCH   6   7
HETATM    7  N   UNL     1      60.011   7.959   1.080  1.00  0.00    -0.370 N 
ATOM      8  HN2 UNL     1      60.815   8.583   1.151  1.00  0.00     0.165 HD
ATOM      9  HN1 UNL     1      59.233   7.302   1.013  1.00  0.00     0.165 HD
ENDBRANCH   6   7
ENDBRANCH   5   6
ENDBRANCH   4   5
ENDBRANCH   1   4
BRANCH   1  10
HETATM   10  C   UNL     1      62.551  10.384   4.656  1.00  0.00     0.296 C 
BRANCH  10  11
HETATM   11  C   UNL     1      63.524   9.257   4.740  1.00  0.00     0.078 A 
HETATM   12  O   UNL     1      64.600   9.436   5.566  1.00  0.00    -0.325 OA
HETATM   13  C   UNL     1      65.391   8.339   5.437  1.00  0.00     0.142 A 
HETATM   14  C   UNL     1      64.838   7.448   4.549  1.00  0.00     0.027 A 
HETATM   15  C   UNL     1      63.626   8.034   4.105  1.00  0.00     0.036 A 
ENDBRANCH  10  11
ENDBRANCH   1  10
TORSDOF 6
ENDMDL
MODEL 6
REMARK VINA RESULT:      -4.1     12.962     13.603
REMARK  6 active torsions:
REMARK  status: ('A' for Active; 'I' for Inactive)
REMARK    1  A    between atoms: N_1  and  C_4 
REMARK    2  A    between atoms: C_4  and  C_10 
REMARK    3  A    between atoms: C_5  and  C_12 
REMARK    4  A    between atoms: C_10  and  C_13 
REMARK    5  A    between atoms: N_11  and  C_13 
REMARK    6  A    between atoms: N_11  and  C_12 
ROOT
HETATM    1  N   UNL     1      67.110   7.436   7.969  1.00  0.00    -0.069 N 
HETATM    2  H   UNL     1      66.928   8.403   8.237  1.00  0.00     0.277 HD
HETATM    3  H   UNL     1      68.013   7.367   7.498  1.00  0.00     0.277 HD
ENDROOT
BRANCH   1   4
HETATM    4  C   UNL     1      66.055   6.980   7.049  1.00  0.00     0.245 C 
BRANCH   4   5
HETATM    5  C   UNL     1      65.937   7.871   5.801  1.00  0.00     0.131 C 
BRANCH   5   6
HETATM    6  C   UNL     1      67.285   7.953   5.104  1.00  0.00    -0.076 C 
BRANCH   6   7
HETATM    7  N   UNL     1      68.403   8.021   4.525  1.00  0.00    -0.370 N 
ATOM      8  HN2 UNL     1      67.482   7.950   4.957  1.00  0.00     0.165 HD
ATOM      9  HN1 UNL     1      69.308   8.076   4.057  1.00  0.00     0.165 HD
ENDBRANCH   6   7
ENDBRANCH   5   6
ENDBRANCH   4   5
ENDBRANCH   1   4
BRANCH   1  10
HETATM   10  C   UNL     1      67.136   6.594   9.177  1.00  0.00     0.296 C 
BRANCH  10  11
HETATM   11  C   UNL     1      67.947   5.359   8.979  1.00  0.00     0.078 A 
HETATM   12  O   UNL     1      67.273   4.169   9.032  1.00  0.00    -0.325 OA
HETATM   13  C   UNL     1      68.196   3.180   8.906  1.00  0.00     0.142 A 
HETATM   14  C   UNL     1      69.455   3.711   8.763  1.00  0.00     0.027 A 
HETATM   15  C   UNL     1      69.295   5.119   8.797  1.00  0.00     0.036 A 
ENDBRANCH  10  11
ENDBRANCH   1  10
TORSDOF 6
ENDMDL
MODEL 7
REMARK VINA RESULT:      -4.0     17.272     17.988
REMARK  6 active torsions:
REMARK  status: ('A' for Active; 'I' for Inactive)
REMARK    1  A    between atoms: N_1  and  C_4 
REMARK    2  A    between atoms: C_4  and  C_10 
REMARK    3  A    between atoms: C_5  and  C_12 
REMARK    4  A    between atoms: C_10  and  C_13 
REMARK    5  A    between atoms: N_11  and  C_13 
REMARK    6  A    between atoms: N_11  and  C_12 
ROOT
HETATM    1  N   UNL     1      64.724   7.607   6.295  1.00  0.00    -0.069 N 
HETATM    2  H   UNL     1      65.199   8.450   5.972  1.00  0.00     0.277 HD
HETATM    3  H   UNL     1      64.681   7.598   7.314  1.00  0.00     0.277 HD
ENDROOT
BRANCH   1   4
HETATM    4  C   UNL     1      65.469   6.423   5.837  1.00  0.00     0.245 C 
BRANCH   4   5
HETATM    5  C   UNL     1      66.863   6.321   6.477  1.00  0.00     0.131 C 
BRANCH   5   6
HETATM    6  C   UNL     1      67.830   7.233   5.739  1.00  0.00    -0.076 C 
BRANCH   6   7
HETATM    7  N   UNL     1      68.633   7.989   5.128  1.00  0.00    -0.370 N 
ATOM      8  HN2 UNL     1      68.013   7.372   5.653  1.00  0.00     0.165 HD
ATOM      9  HN1 UNL     1      69.282   8.600   4.632  1.00  0.00     0.165 HD
ENDBRANCH   6   7
ENDBRANCH   5   6
ENDBRANCH   4   5
ENDBRANCH   1   4
BRANCH   1  10
HETATM   10  C   UNL     1      63.352   7.589   5.759  1.00  0.00     0.296 C 
BRANCH  10  11
HETATM   11  C   UNL     1      62.961   8.908   5.183  1.00  0.00     0.078 A 
HETATM   12  O   UNL     1      63.237  10.014   5.940  1.00  0.00    -0.325 OA
HETATM   13  C   UNL     1      62.736  11.088   5.277  1.00  0.00     0.142 A 
HETATM   14  C   UNL     1      62.149  10.696   4.098  1.00  0.00     0.027 A 
HETATM   15  C   UNL     1      62.303   9.289   4.029  1.00  0.00     0.036 A 
ENDBRANCH  10  11
ENDBRANCH   1  10
TORSDOF 6
ENDMDL
MODEL 8
REMARK VINA RESULT:      -3.7     14.265     14.954
REMARK  6 active torsions:
REMARK  status: ('A' for Active; 'I' for Inactive)
REMARK    1  A    between atoms: N_1  and  C_4 
REMARK    2  A    between atoms: C_4  and  C_10 
REMARK    3  A    between atoms: C_5  and  C_12 
REMARK    4  A    between atoms: C_10  and  C_13 
REMARK    5  A    between atoms: N_11  and  C_13 
REMARK    6  A    between atoms: N_11  and  C_12 
ROOT
HETATM    1  N   UNL     1      67.069   6.013   7.333  1.00  0.00    -0.069 N 
HETATM    2  H   UNL     1      66.142   5.605   7.456  1.00  0.00     0.277 HD
HETATM    3  H   UNL     1      67.608   5.461   6.665  1.00  0.00     0.277 HD
ENDROOT
BRANCH   1   4
HETATM    4  C   UNL     1      67.773   6.021   8.625  1.00  0.00     0.245 C 
BRANCH   4   5
HETATM    5  C   UNL     1      68.576   4.732   8.866  1.00  0.00     0.131 C 
BRANCH   5   6
HETATM    6  C   UNL     1      70.062   5.050   8.861  1.00  0.00    -0.076 C 
BRANCH   6   7
HETATM    7  N   UNL     1      71.295   5.313   8.855  1.00  0.00    -0.370 N 
ATOM      8  HN2 UNL     1      70.290   5.142   8.868  1.00  0.00     0.165 HD
ATOM      9  HN1 UNL     1      72.293   5.525   8.850  1.00  0.00     0.165 HD
ENDBRANCH   6   7
ENDBRANCH   5   6
ENDBRANCH   4   5
ENDBRANCH   1   4
BRANCH   1  10
HETATM   10  C   UNL     1      66.930   7.385   6.815  1.00  0.00     0.296 C 
BRANCH  10  11
HETATM   11  C   UNL     1      65.592   7.616   6.199  1.00  0.00     0.078 A 
HETATM   12  O   UNL     1      64.508   7.152   6.895  1.00  0.00    -0.325 OA
HETATM   13  C   UNL     1      63.410   7.393   6.133  1.00  0.00     0.142 A 
HETATM   14  C   UNL     1      63.764   8.014   4.960  1.00  0.00     0.027 A 
HETATM   15  C   UNL     1      65.172   8.170   5.005  1.00  0.00     0.036 A 
ENDBRANCH  10  11
ENDBRANCH   1  10
TORSDOF 6
ENDMDL
MODEL 9
REMARK VINA RESULT:      -3.6     17.435     18.128
REMARK  6 active torsions:
REMARK  status: ('A' for Active; 'I' for Inactive)
REMARK    1  A    between atoms: N_1  and  C_4 
REMARK    2  A    between atoms: C_4  and  C_10 
REMARK    3  A    between atoms: C_5  and  C_12 
REMARK    4  A    between atoms: C_10  and  C_13 
REMARK    5  A    between atoms: N_11  and  C_13 
REMARK    6  A    between atoms: N_11  and  C_12 
ROOT
HETATM    1  N   UNL     1      63.493   8.408   5.812  1.00  0.00    -0.069 N 
HETATM    2  H   UNL     1      63.499   7.563   6.382  1.00  0.00     0.277 HD
HETATM    3  H   UNL     1      63.283   9.220   6.393  1.00  0.00     0.277 HD
ENDROOT
BRANCH   1   4
HETATM    4  C   UNL     1      62.459   8.286   4.771  1.00  0.00     0.245 C 
BRANCH   4   5
HETATM    5  C   UNL     1      62.972   8.694   3.381  1.00  0.00     0.131 C 
BRANCH   5   6
HETATM    6  C   UNL     1      61.793   9.013   2.476  1.00  0.00    -0.076 C 
BRANCH   6   7
HETATM    7  N   UNL     1      60.816   9.277   1.725  1.00  0.00    -0.370 N 
ATOM      8  HN2 UNL     1      61.624   9.041   2.300  1.00  0.00     0.165 HD
ATOM      9  HN1 UNL     1      60.025   9.491   1.117  1.00  0.00     0.165 HD
ENDBRANCH   6   7
ENDBRANCH   5   6
ENDBRANCH   4   5
ENDBRANCH   1   4
BRANCH   1  10
HETATM   10  C   UNL     1      64.819   8.590   5.199  1.00  0.00     0.296 C 
BRANCH  10  11
HETATM   11  C   UNL     1      65.851   7.719   5.830  1.00  0.00     0.078 A 
HETATM   12  O   UNL     1      65.682   7.433   7.158  1.00  0.00    -0.325 OA
HETATM   13  C   UNL     1      66.757   6.701   7.550  1.00  0.00     0.142 A 
HETATM   14  C   UNL     1      67.614   6.500   6.495  1.00  0.00     0.027 A 
HETATM   15  C   UNL     1      67.025   7.147   5.379  1.00  0.00     0.036 A 
ENDBRANCH  10  11
ENDBRANCH   1  10
TORSDOF 6
ENDMDL
