MODEL 1
REMARK VINA RESULT:      -6.1      0.000      0.000
REMARK  4 active torsions:
REMARK  status: ('A' for Active; 'I' for Inactive)
REMARK    1  A    between atoms: N_1  and  C_6 
REMARK    2  A    between atoms: C_2  and  C_5 
REMARK    3  A    between atoms: C_6  and  C_8 
REMARK    4  A    between atoms: C_6  and  C_9 
ROOT
HETATM    1  C   UNL     1      63.054   7.743   4.632  1.00  0.00     0.254 C 
ENDROOT
BRANCH   1   2
HETATM    2  N   UNL     1      62.176   6.546   4.586  1.00  0.00    -0.057 N 
HETATM    3  C   UNL     1      60.752   6.844   4.837  1.00  0.00     0.253 C 
HETATM    4  C   UNL     1      60.665   5.517   5.626  1.00  0.00     0.138 C 
HETATM    5  C   UNL     1      62.194   5.671   5.772  1.00  0.00     0.253 C 
HETATM    6  H   UNL     1      62.497   6.178   3.691  1.00  0.00     0.281 HD
BRANCH   4   7
HETATM    7  C   UNL     1      59.814   5.509   6.903  1.00  0.00     0.180 C 
HETATM    8  O   UNL     1      60.017   6.126   7.945  1.00  0.00    -0.648 OA
HETATM    9  O   UNL     1      58.717   4.717   6.828  1.00  0.00    -0.648 OA
ENDBRANCH   4   7
ENDBRANCH   1   2
BRANCH   1  10
HETATM   10  C   UNL     1      64.578   7.543   4.622  1.00  0.00    -0.023 A 
HETATM   11  C   UNL     1      65.424   8.235   5.507  1.00  0.00     0.009 A 
HETATM   12  C   UNL     1      66.801   7.993   5.527  1.00  0.00     0.001 A 
HETATM   13  C   UNL     1      67.357   7.053   4.663  1.00  0.00     0.000 A 
HETATM   14  C   UNL     1      66.539   6.360   3.775  1.00  0.00     0.001 A 
HETATM   15  C   UNL     1      65.163   6.602   3.754  1.00  0.00     0.009 A 
ENDBRANCH   1  10
BRANCH   1  16
HETATM   16  C   UNL     1      62.607   8.840   3.647  1.00  0.00    -0.023 A 
HETATM   17  C   UNL     1      62.322  10.127   4.137  1.00  0.00     0.009 A 
HETATM   18  C   UNL     1      61.927  11.155   3.276  1.00  0.00     0.001 A 
HETATM   19  C   UNL     1      61.815  10.915   1.908  1.00  0.00     0.000 A 
HETATM   20  C   UNL     1      62.108   9.654   1.402  1.00  0.00     0.001 A 
HETATM   21  C   UNL     1      62.503   8.627   2.261  1.00  0.00     0.009 A 
ENDBRANCH   1  16
TORSDOF 4
ENDMDL
MODEL 2
REMARK VINA RESULT:      -5.8      3.071      5.028
REMARK  4 active torsions:
REMARK  status: ('A' for Active; 'I' for Inactive)
REMARK    1  A    between atoms: N_1  and  C_6 
REMARK    2  A    between atoms: C_2  and  C_5 
REMARK    3  A    between atoms: C_6  and  C_8 
REMARK    4  A    between atoms: C_6  and  C_9 
ROOT
HETATM    1  C   UNL     1      63.818   7.594   5.060  1.00  0.00     0.254 C 
ENDROOT
BRANCH   1   2
HETATM    2  N   UNL     1      64.897   7.872   6.042  1.00  0.00    -0.057 N 
HETATM    3  C   UNL     1      66.257   7.739   5.484  1.00  0.00     0.253 C 
HETATM    4  C   UNL     1      66.696   7.125   6.833  1.00  0.00     0.138 C 
HETATM    5  C   UNL     1      65.197   6.802   7.009  1.00  0.00     0.253 C 
HETATM    6  H   UNL     1      64.542   8.766   6.383  1.00  0.00     0.281 HD
BRANCH   4   7
HETATM    7  C   UNL     1      67.687   5.954   6.786  1.00  0.00     0.180 C 
HETATM    8  O   UNL     1      67.823   5.119   5.898  1.00  0.00    -0.648 OA
HETATM    9  O   UNL     1      68.492   5.871   7.874  1.00  0.00    -0.648 OA
ENDBRANCH   4   7
ENDBRANCH   1   2
BRANCH   1  10
HETATM   10  C   UNL     1      62.776   6.514   5.391  1.00  0.00    -0.023 A 
HETATM   11  C   UNL     1      61.762   6.726   6.342  1.00  0.00     0.009 A 
HETATM   12  C   UNL     1      60.785   5.756   6.583  1.00  0.00     0.001 A 
HETATM   13  C   UNL     1      60.802   4.557   5.875  1.00  0.00     0.000 A 
HETATM   14  C   UNL     1      61.798   4.324   4.932  1.00  0.00     0.001 A 
HETATM   15  C   UNL     1      62.777   5.292   4.691  1.00  0.00     0.009 A 
ENDBRANCH   1  10
BRANCH   1  16
HETATM   16  C   UNL     1      63.165   8.882   4.521  1.00  0.00    -0.023 A 
HETATM   17  C   UNL     1      62.616   8.883   3.227  1.00  0.00     0.009 A 
HETATM   18  C   UNL     1      62.002  10.025   2.705  1.00  0.00     0.001 A 
HETATM   19  C   UNL     1      61.922  11.186   3.471  1.00  0.00     0.000 A 
HETATM   20  C   UNL     1      62.445  11.201   4.760  1.00  0.00     0.001 A 
HETATM   21  C   UNL     1      63.058  10.061   5.281  1.00  0.00     0.009 A 
ENDBRANCH   1  16
TORSDOF 4
ENDMDL
MODEL 3
REMARK VINA RESULT:      -5.8      2.762      5.485
REMARK  4 active torsions:
REMARK  status: ('A' for Active; 'I' for Inactive)
REMARK    1  A    between atoms: N_1  and  C_6 
REMARK    2  A    between atoms: C_2  and  C_5 
REMARK    3  A    between atoms: C_6  and  C_8 
REMARK    4  A    between atoms: C_6  and  C_9 
ROOT
HETATM    1  C   UNL     1      61.856   7.722   4.438  1.00  0.00     0.254 C 
ENDROOT
BRANCH   1   2
HETATM    2  N   UNL     1      63.094   6.936   4.672  1.00  0.00    -0.057 N 
HETATM    3  C   UNL     1      63.666   7.117   6.021  1.00  0.00     0.253 C 
HETATM    4  C   UNL     1      65.070   7.067   5.377  1.00  0.00     0.138 C 
HETATM    5  C   UNL     1      64.334   7.472   4.083  1.00  0.00     0.253 C 
HETATM    6  H   UNL     1      62.742   6.033   4.355  1.00  0.00     0.281 HD
BRANCH   4   7
HETATM    7  C   UNL     1      66.136   8.023   5.931  1.00  0.00     0.180 C 
HETATM    8  O   UNL     1      65.968   9.143   6.403  1.00  0.00    -0.648 OA
HETATM    9  O   UNL     1      67.398   7.530   5.877  1.00  0.00    -0.648 OA
ENDBRANCH   4   7
ENDBRANCH   1   2
BRANCH   1  10
HETATM   10  C   UNL     1      61.923   8.954   3.522  1.00  0.00    -0.023 A 
HETATM   11  C   UNL     1      61.948   8.838   2.121  1.00  0.00     0.009 A 
HETATM   12  C   UNL     1      61.944   9.971   1.302  1.00  0.00     0.001 A 
HETATM   13  C   UNL     1      61.911  11.241   1.869  1.00  0.00     0.000 A 
HETATM   14  C   UNL     1      61.890  11.381   3.254  1.00  0.00     0.001 A 
HETATM   15  C   UNL     1      61.895  10.249   4.073  1.00  0.00     0.009 A 
ENDBRANCH   1  10
BRANCH   1  16
HETATM   16  C   UNL     1      60.642   6.828   4.118  1.00  0.00    -0.023 A 
HETATM   17  C   UNL     1      60.825   5.438   4.005  1.00  0.00     0.009 A 
HETATM   18  C   UNL     1      59.749   4.590   3.730  1.00  0.00     0.001 A 
HETATM   19  C   UNL     1      58.469   5.116   3.569  1.00  0.00     0.000 A 
HETATM   20  C   UNL     1      58.264   6.485   3.693  1.00  0.00     0.001 A 
HETATM   21  C   UNL     1      59.338   7.333   3.968  1.00  0.00     0.009 A 
ENDBRANCH   1  16
TORSDOF 4
ENDMDL
MODEL 4
REMARK VINA RESULT:      -5.7      0.987      4.221
REMARK  4 active torsions:
REMARK  status: ('A' for Active; 'I' for Inactive)
REMARK    1  A    between atoms: N_1  and  C_6 
REMARK    2  A    between atoms: C_2  and  C_5 
REMARK    3  A    between atoms: C_6  and  C_8 
REMARK    4  A    between atoms: C_6  and  C_9 
ROOT
HETATM    1  C   UNL     1      63.028   7.343   4.250  1.00  0.00     0.254 C 
ENDROOT
BRANCH   1   2
HETATM    2  N   UNL     1      62.352   7.049   5.539  1.00  0.00    -0.057 N 
HETATM    3  C   UNL     1      62.781   5.779   6.159  1.00  0.00     0.253 C 
HETATM    4  C   UNL     1      61.316   5.560   6.603  1.00  0.00     0.138 C 
HETATM    5  C   UNL     1      60.973   6.534   5.455  1.00  0.00     0.253 C 
HETATM    6  H   UNL     1      62.521   7.949   5.988  1.00  0.00     0.281 HD
BRANCH   4   7
HETATM    7  C   UNL     1      60.761   4.131   6.528  1.00  0.00     0.180 C 
HETATM    8  O   UNL     1      60.519   3.471   5.522  1.00  0.00    -0.648 OA
HETATM    9  O   UNL     1      60.529   3.567   7.738  1.00  0.00    -0.648 OA
ENDBRANCH   4   7
ENDBRANCH   1   2
BRANCH   1  10
HETATM   10  C   UNL     1      62.571   8.563   3.435  1.00  0.00    -0.023 A 
HETATM   11  C   UNL     1      62.283   9.797   4.044  1.00  0.00     0.009 A 
HETATM   12  C   UNL     1      61.930  10.914   3.280  1.00  0.00     0.001 A 
HETATM   13  C   UNL     1      61.862  10.817   1.893  1.00  0.00     0.000 A 
HETATM   14  C   UNL     1      62.138   9.605   1.269  1.00  0.00     0.001 A 
HETATM   15  C   UNL     1      62.489   8.487   2.031  1.00  0.00     0.009 A 
ENDBRANCH   1  10
BRANCH   1  16
HETATM   16  C   UNL     1      64.563   7.261   4.357  1.00  0.00    -0.023 A 
HETATM   17  C   UNL     1      65.234   8.110   5.256  1.00  0.00     0.009 A 
HETATM   18  C   UNL     1      66.624   8.058   5.396  1.00  0.00     0.001 A 
HETATM   19  C   UNL     1      67.367   7.153   4.642  1.00  0.00     0.000 A 
HETATM   20  C   UNL     1      66.722   6.294   3.759  1.00  0.00     0.001 A 
HETATM   21  C   UNL     1      65.334   6.345   3.620  1.00  0.00     0.009 A 
ENDBRANCH   1  16
TORSDOF 4
ENDMDL
MODEL 5
REMARK VINA RESULT:      -5.6      2.857      5.141
REMARK  4 active torsions:
REMARK  status: ('A' for Active; 'I' for Inactive)
REMARK    1  A    between atoms: N_1  and  C_6 
REMARK    2  A    between atoms: C_2  and  C_5 
REMARK    3  A    between atoms: C_6  and  C_8 
REMARK    4  A    between atoms: C_6  and  C_9 
ROOT
HETATM    1  C   UNL     1      62.802   7.615   4.688  1.00  0.00     0.254 C 
ENDROOT
BRANCH   1   2
HETATM    2  N   UNL     1      63.864   7.984   5.658  1.00  0.00    -0.057 N 
HETATM    3  C   UNL     1      65.016   8.673   5.043  1.00  0.00     0.253 C 
HETATM    4  C   UNL     1      65.935   7.894   6.012  1.00  0.00     0.138 C 
HETATM    5  C   UNL     1      64.758   6.899   6.099  1.00  0.00     0.253 C 
HETATM    6  H   UNL     1      63.266   8.446   6.343  1.00  0.00     0.281 HD
BRANCH   4   7
HETATM    7  C   UNL     1      67.273   7.384   5.460  1.00  0.00     0.180 C 
HETATM    8  O   UNL     1      68.265   8.043   5.165  1.00  0.00    -0.648 OA
HETATM    9  O   UNL     1      67.324   6.039   5.298  1.00  0.00    -0.648 OA
ENDBRANCH   4   7
ENDBRANCH   1   2
BRANCH   1  10
HETATM   10  C   UNL     1      61.531   6.927   5.210  1.00  0.00    -0.023 A 
HETATM   11  C   UNL     1      60.432   6.663   4.373  1.00  0.00     0.009 A 
HETATM   12  C   UNL     1      59.309   5.979   4.849  1.00  0.00     0.001 A 
HETATM   13  C   UNL     1      59.266   5.544   6.170  1.00  0.00     0.000 A 
HETATM   14  C   UNL     1      60.340   5.797   7.018  1.00  0.00     0.001 A 
HETATM   15  C   UNL     1      61.462   6.482   6.544  1.00  0.00     0.009 A 
ENDBRANCH   1  10
BRANCH   1  16
HETATM   16  C   UNL     1      62.481   8.756   3.703  1.00  0.00    -0.023 A 
HETATM   17  C   UNL     1      62.157  10.028   4.209  1.00  0.00     0.009 A 
HETATM   18  C   UNL     1      61.873  11.094   3.350  1.00  0.00     0.001 A 
HETATM   19  C   UNL     1      61.913  10.907   1.970  1.00  0.00     0.000 A 
HETATM   20  C   UNL     1      62.247   9.662   1.450  1.00  0.00     0.001 A 
HETATM   21  C   UNL     1      62.530   8.597   2.307  1.00  0.00     0.009 A 
ENDBRANCH   1  16
TORSDOF 4
ENDMDL
MODEL 6
REMARK VINA RESULT:      -5.6     17.304     19.047
REMARK  4 active torsions:
REMARK  status: ('A' for Active; 'I' for Inactive)
REMARK    1  A    between atoms: N_1  and  C_6 
REMARK    2  A    between atoms: C_2  and  C_5 
REMARK    3  A    between atoms: C_6  and  C_8 
REMARK    4  A    between atoms: C_6  and  C_9 
ROOT
HETATM    1  C   UNL     1      77.105   8.466  16.935  1.00  0.00     0.254 C 
ENDROOT
BRANCH   1   2
HETATM    2  N   UNL     1      77.367   7.010  17.074  1.00  0.00    -0.057 N 
HETATM    3  C   UNL     1      76.821   6.200  15.967  1.00  0.00     0.253 C 
HETATM    4  C   UNL     1      76.458   5.116  17.007  1.00  0.00     0.138 C 
HETATM    5  C   UNL     1      76.511   6.276  18.023  1.00  0.00     0.253 C 
HETATM    6  H   UNL     1      78.369   7.071  17.252  1.00  0.00     0.281 HD
BRANCH   4   7
HETATM    7  C   UNL     1      75.124   4.378  16.822  1.00  0.00     0.180 C 
HETATM    8  O   UNL     1      74.033   4.860  16.535  1.00  0.00    -0.648 OA
HETATM    9  O   UNL     1      75.208   3.037  17.003  1.00  0.00    -0.648 OA
ENDBRANCH   4   7
ENDBRANCH   1   2
BRANCH   1  10
HETATM   10  C   UNL     1      77.651   9.422  18.007  1.00  0.00    -0.023 A 
HETATM   11  C   UNL     1      78.986   9.362  18.444  1.00  0.00     0.009 A 
HETATM   12  C   UNL     1      79.483  10.282  19.373  1.00  0.00     0.001 A 
HETATM   13  C   UNL     1      78.655  11.280  19.879  1.00  0.00     0.000 A 
HETATM   14  C   UNL     1      77.329  11.355  19.463  1.00  0.00     0.001 A 
HETATM   15  C   UNL     1      76.831  10.436  18.536  1.00  0.00     0.009 A 
ENDBRANCH   1  10
BRANCH   1  16
HETATM   16  C   UNL     1      77.376   8.979  15.508  1.00  0.00    -0.023 A 
HETATM   17  C   UNL     1      77.537  10.360  15.295  1.00  0.00     0.009 A 
HETATM   18  C   UNL     1      77.799  10.867  14.019  1.00  0.00     0.001 A 
HETATM   19  C   UNL     1      77.909  10.001  12.933  1.00  0.00     0.000 A 
HETATM   20  C   UNL     1      77.770   8.631  13.125  1.00  0.00     0.001 A 
HETATM   21  C   UNL     1      77.509   8.124  14.400  1.00  0.00     0.009 A 
ENDBRANCH   1  16
TORSDOF 4
ENDMDL
MODEL 7
REMARK VINA RESULT:      -5.4     17.739     18.971
REMARK  4 active torsions:
REMARK  status: ('A' for Active; 'I' for Inactive)
REMARK    1  A    between atoms: N_1  and  C_6 
REMARK    2  A    between atoms: C_2  and  C_5 
REMARK    3  A    between atoms: C_6  and  C_8 
REMARK    4  A    between atoms: C_6  and  C_9 
ROOT
HETATM    1  C   UNL     1      75.195   0.224  16.258  1.00  0.00     0.254 C 
ENDROOT
BRANCH   1   2
HETATM    2  N   UNL     1      74.809  -0.922  17.120  1.00  0.00    -0.057 N 
HETATM    3  C   UNL     1      74.033  -1.961  16.414  1.00  0.00     0.253 C 
HETATM    4  C   UNL     1      73.189  -2.131  17.697  1.00  0.00     0.138 C 
HETATM    5  C   UNL     1      73.672  -0.704  18.032  1.00  0.00     0.253 C 
HETATM    6  H   UNL     1      75.731  -1.113  17.510  1.00  0.00     0.281 HD
BRANCH   4   7
HETATM    7  C   UNL     1      71.681  -2.362  17.526  1.00  0.00     0.180 C 
HETATM    8  O   UNL     1      70.962  -1.977  16.609  1.00  0.00    -0.648 OA
HETATM    9  O   UNL     1      71.117  -3.083  18.526  1.00  0.00    -0.648 OA
ENDBRANCH   4   7
ENDBRANCH   1   2
BRANCH   1  10
HETATM   10  C   UNL     1      75.664   1.527  16.925  1.00  0.00    -0.023 A 
HETATM   11  C   UNL     1      76.745   1.554  17.824  1.00  0.00     0.009 A 
HETATM   12  C   UNL     1      77.198   2.758  18.370  1.00  0.00     0.001 A 
HETATM   13  C   UNL     1      76.580   3.958  18.027  1.00  0.00     0.000 A 
HETATM   14  C   UNL     1      75.506   3.954  17.143  1.00  0.00     0.001 A 
HETATM   15  C   UNL     1      75.051   2.751  16.596  1.00  0.00     0.009 A 
ENDBRANCH   1  10
BRANCH   1  16
HETATM   16  C   UNL     1      76.117  -0.196  15.097  1.00  0.00    -0.023 A 
HETATM   17  C   UNL     1      75.718   0.067  13.774  1.00  0.00     0.009 A 
HETATM   18  C   UNL     1      76.530  -0.284  12.692  1.00  0.00     0.001 A 
HETATM   19  C   UNL     1      77.759  -0.901  12.915  1.00  0.00     0.000 A 
HETATM   20  C   UNL     1      78.180  -1.156  14.215  1.00  0.00     0.001 A 
HETATM   21  C   UNL     1      77.369  -0.805  15.296  1.00  0.00     0.009 A 
ENDBRANCH   1  16
TORSDOF 4
ENDMDL
MODEL 8
REMARK VINA RESULT:      -5.3      2.688      5.193
REMARK  4 active torsions:
REMARK  status: ('A' for Active; 'I' for Inactive)
REMARK    1  A    between atoms: N_1  and  C_6 
REMARK    2  A    between atoms: C_2  and  C_5 
REMARK    3  A    between atoms: C_6  and  C_8 
REMARK    4  A    between atoms: C_6  and  C_9 
ROOT
HETATM    1  C   UNL     1      62.294   7.484   3.144  1.00  0.00     0.254 C 
ENDROOT
BRANCH   1   2
HETATM    2  N   UNL     1      61.045   6.680   3.183  1.00  0.00    -0.057 N 
HETATM    3  C   UNL     1      60.493   6.375   1.848  1.00  0.00     0.253 C 
HETATM    4  C   UNL     1      59.080   6.574   2.443  1.00  0.00     0.138 C 
HETATM    5  C   UNL     1      59.808   7.405   3.521  1.00  0.00     0.253 C 
HETATM    6  H   UNL     1      61.379   5.945   3.807  1.00  0.00     0.281 HD
BRANCH   4   7
HETATM    7  C   UNL     1      58.038   7.281   1.567  1.00  0.00     0.180 C 
HETATM    8  O   UNL     1      56.823   7.109   1.556  1.00  0.00    -0.648 OA
HETATM    9  O   UNL     1      58.563   8.200   0.720  1.00  0.00    -0.648 OA
ENDBRANCH   4   7
ENDBRANCH   1   2
BRANCH   1  10
HETATM   10  C   UNL     1      62.186   9.013   3.035  1.00  0.00    -0.023 A 
HETATM   11  C   UNL     1      61.970   9.657   1.803  1.00  0.00     0.009 A 
HETATM   12  C   UNL     1      61.811  11.044   1.733  1.00  0.00     0.001 A 
HETATM   13  C   UNL     1      61.862  11.813   2.892  1.00  0.00     0.000 A 
HETATM   14  C   UNL     1      62.080  11.198   4.121  1.00  0.00     0.001 A 
HETATM   15  C   UNL     1      62.240   9.811   4.193  1.00  0.00     0.009 A 
ENDBRANCH   1  10
BRANCH   1  16
HETATM   16  C   UNL     1      63.308   7.050   4.220  1.00  0.00    -0.023 A 
HETATM   17  C   UNL     1      62.851   6.354   5.353  1.00  0.00     0.009 A 
HETATM   18  C   UNL     1      63.739   5.930   6.345  1.00  0.00     0.001 A 
HETATM   19  C   UNL     1      65.102   6.189   6.219  1.00  0.00     0.000 A 
HETATM   20  C   UNL     1      65.576   6.861   5.098  1.00  0.00     0.001 A 
HETATM   21  C   UNL     1      64.690   7.285   4.107  1.00  0.00     0.009 A 
ENDBRANCH   1  16
TORSDOF 4
ENDMDL
MODEL 9
REMARK VINA RESULT:      -5.2      3.183      5.861
REMARK  4 active torsions:
REMARK  status: ('A' for Active; 'I' for Inactive)
REMARK    1  A    between atoms: N_1  and  C_6 
REMARK    2  A    between atoms: C_2  and  C_5 
REMARK    3  A    between atoms: C_6  and  C_8 
REMARK    4  A    between atoms: C_6  and  C_9 
ROOT
HETATM    1  C   UNL     1      64.792   6.307   6.107  1.00  0.00     0.254 C 
ENDROOT
BRANCH   1   2
HETATM    2  N   UNL     1      64.318   7.711   6.201  1.00  0.00    -0.057 N 
HETATM    3  C   UNL     1      62.885   7.877   5.886  1.00  0.00     0.253 C 
HETATM    4  C   UNL     1      63.245   9.204   5.181  1.00  0.00     0.138 C 
HETATM    5  C   UNL     1      64.660   8.597   5.074  1.00  0.00     0.253 C 
HETATM    6  H   UNL     1      64.690   7.917   7.128  1.00  0.00     0.281 HD
BRANCH   4   7
HETATM    7  C   UNL     1      62.501   9.538   3.880  1.00  0.00     0.180 C 
HETATM    8  O   UNL     1      62.628   9.001   2.784  1.00  0.00    -0.648 OA
HETATM    9  O   UNL     1      61.606  10.548   4.001  1.00  0.00    -0.648 OA
ENDBRANCH   4   7
ENDBRANCH   1   2
BRANCH   1  10
HETATM   10  C   UNL     1      65.179   5.747   4.730  1.00  0.00    -0.023 A 
HETATM   11  C   UNL     1      66.506   5.771   4.263  1.00  0.00     0.009 A 
HETATM   12  C   UNL     1      66.849   5.198   3.035  1.00  0.00     0.001 A 
HETATM   13  C   UNL     1      65.873   4.589   2.251  1.00  0.00     0.000 A 
HETATM   14  C   UNL     1      64.553   4.558   2.690  1.00  0.00     0.001 A 
HETATM   15  C   UNL     1      64.208   5.131   3.917  1.00  0.00     0.009 A 
ENDBRANCH   1  10
BRANCH   1  16
HETATM   16  C   UNL     1      65.838   5.965   7.186  1.00  0.00    -0.023 A 
HETATM   17  C   UNL     1      66.148   4.617   7.438  1.00  0.00     0.009 A 
HETATM   18  C   UNL     1      67.101   4.263   8.398  1.00  0.00     0.001 A 
HETATM   19  C   UNL     1      67.765   5.253   9.118  1.00  0.00     0.000 A 
HETATM   20  C   UNL     1      67.486   6.593   8.872  1.00  0.00     0.001 A 
HETATM   21  C   UNL     1      66.534   6.946   7.914  1.00  0.00     0.009 A 
ENDBRANCH   1  16
TORSDOF 4
ENDMDL
