MODEL 1
REMARK VINA RESULT:      -5.4      0.000      0.000
REMARK  2 active torsions:
REMARK  status: ('A' for Active; 'I' for Inactive)
REMARK    1  A    between atoms: C_1  and  C_2 
REMARK    2  A    between atoms: C_1  and  O_11 
ROOT
HETATM    1  C   UNL     1      68.474   5.034   8.744  1.00  0.00     0.040 A 
HETATM    2  C   UNL     1      68.415   5.049   7.345  1.00  0.00     0.031 A 
HETATM    3  C   UNL     1      67.635   6.005   6.669  1.00  0.00    -0.008 A 
HETATM    4  N   UNL     1      66.127   7.886   6.791  1.00  0.00    -0.365 N 
ATOM      5  HN  UNL     1      65.597   8.566   7.336  1.00  0.00     0.165 HD
HETATM    6  C   UNL     1      66.895   6.962   7.395  1.00  0.00     0.042 A 
HETATM    7  C   UNL     1      67.751   5.989   9.462  1.00  0.00     0.020 A 
HETATM    8  C   UNL     1      66.972   6.934   8.782  1.00  0.00     0.031 A 
HETATM    9  C   UNL     1      66.079   7.887   5.440  1.00  0.00     0.088 A 
HETATM   10  C   UNL     1      67.565   6.042   5.270  1.00  0.00     0.015 A 
HETATM   11  C   UNL     1      66.775   6.999   4.643  1.00  0.00     0.018 A 
ENDROOT
BRANCH   1  12
HETATM   12  C   UNL     1      69.304   3.988   9.401  1.00  0.00     0.292 C 
HETATM   13  O   UNL     1      70.509   4.103   9.572  1.00  0.00    -0.259 OA
BRANCH  12  14
HETATM   14  O   UNL     1      68.548   2.922   9.759  1.00  0.00    -0.323 OA
HETATM   15  C   UNL     1      69.260   1.873  10.422  1.00  0.00     0.213 C 
ENDBRANCH  12  14
ENDBRANCH   1  12
TORSDOF 2
ENDMDL
MODEL 2
REMARK VINA RESULT:      -5.3      4.993      6.814
REMARK  2 active torsions:
REMARK  status: ('A' for Active; 'I' for Inactive)
REMARK    1  A    between atoms: C_1  and  C_2 
REMARK    2  A    between atoms: C_1  and  O_11 
ROOT
HETATM    1  C   UNL     1      64.105   8.572   4.830  1.00  0.00     0.040 A 
HETATM    2  C   UNL     1      63.912   7.771   3.697  1.00  0.00     0.031 A 
HETATM    3  C   UNL     1      62.906   8.079   2.763  1.00  0.00    -0.008 A 
HETATM    4  N   UNL     1      61.092   9.526   2.097  1.00  0.00    -0.365 N 
ATOM      5  HN  UNL     1      60.499  10.340   2.259  1.00  0.00     0.165 HD
HETATM    6  C   UNL     1      62.073   9.201   2.958  1.00  0.00     0.042 A 
HETATM    7  C   UNL     1      63.288   9.689   5.015  1.00  0.00     0.020 A 
HETATM    8  C   UNL     1      62.286   9.986   4.083  1.00  0.00     0.031 A 
HETATM    9  C   UNL     1      60.917   8.742   1.009  1.00  0.00     0.088 A 
HETATM   10  C   UNL     1      62.698   7.295   1.620  1.00  0.00     0.015 A 
HETATM   11  C   UNL     1      61.687   7.631   0.727  1.00  0.00     0.018 A 
ENDROOT
BRANCH   1  12
HETATM   12  C   UNL     1      65.175   8.185   5.790  1.00  0.00     0.292 C 
HETATM   13  O   UNL     1      66.339   8.534   5.667  1.00  0.00    -0.259 OA
BRANCH  12  14
HETATM   14  O   UNL     1      64.678   7.406   6.781  1.00  0.00    -0.323 OA
HETATM   15  C   UNL     1      65.651   6.618   7.473  1.00  0.00     0.213 C 
ENDBRANCH  12  14
ENDBRANCH   1  12
TORSDOF 2
ENDMDL
MODEL 3
REMARK VINA RESULT:      -5.3      1.726      2.688
REMARK  2 active torsions:
REMARK  status: ('A' for Active; 'I' for Inactive)
REMARK    1  A    between atoms: C_1  and  C_2 
REMARK    2  A    between atoms: C_1  and  O_11 
ROOT
HETATM    1  C   UNL     1      68.902   3.030   9.651  1.00  0.00     0.040 A 
HETATM    2  C   UNL     1      67.698   3.211   8.960  1.00  0.00     0.031 A 
HETATM    3  C   UNL     1      67.498   4.344   8.150  1.00  0.00    -0.008 A 
HETATM    4  N   UNL     1      68.358   6.422   7.274  1.00  0.00    -0.365 N 
ATOM      5  HN  UNL     1      69.102   7.116   7.202  1.00  0.00     0.165 HD
HETATM    6  C   UNL     1      68.510   5.318   8.027  1.00  0.00     0.042 A 
HETATM    7  C   UNL     1      69.909   3.988   9.519  1.00  0.00     0.020 A 
HETATM    8  C   UNL     1      69.700   5.117   8.715  1.00  0.00     0.031 A 
HETATM    9  C   UNL     1      67.189   6.584   6.614  1.00  0.00     0.088 A 
HETATM   10  C   UNL     1      66.302   4.544   7.446  1.00  0.00     0.015 A 
HETATM   11  C   UNL     1      66.144   5.682   6.664  1.00  0.00     0.018 A 
ENDROOT
BRANCH   1  12
HETATM   12  C   UNL     1      69.047   1.819  10.504  1.00  0.00     0.292 C 
HETATM   13  O   UNL     1      68.097   1.249  11.021  1.00  0.00    -0.259 OA
BRANCH  12  14
HETATM   14  O   UNL     1      70.349   1.462  10.622  1.00  0.00    -0.323 OA
HETATM   15  C   UNL     1      70.733   0.316   9.856  1.00  0.00     0.213 C 
ENDBRANCH  12  14
ENDBRANCH   1  12
TORSDOF 2
ENDMDL
MODEL 4
REMARK VINA RESULT:      -5.2      3.296      5.426
REMARK  2 active torsions:
REMARK  status: ('A' for Active; 'I' for Inactive)
REMARK    1  A    between atoms: C_1  and  C_2 
REMARK    2  A    between atoms: C_1  and  O_11 
ROOT
HETATM    1  C   UNL     1      66.636   6.650   6.618  1.00  0.00     0.040 A 
HETATM    2  C   UNL     1      67.884   6.467   7.227  1.00  0.00     0.031 A 
HETATM    3  C   UNL     1      68.137   5.332   8.019  1.00  0.00    -0.008 A 
HETATM    4  N   UNL     1      67.327   3.268   8.971  1.00  0.00    -0.365 N 
ATOM      5  HN  UNL     1      66.585   2.580   9.102  1.00  0.00     0.165 HD
HETATM    6  C   UNL     1      67.132   4.362   8.214  1.00  0.00     0.042 A 
HETATM    7  C   UNL     1      65.646   5.683   6.801  1.00  0.00     0.020 A 
HETATM    8  C   UNL     1      65.904   4.558   7.595  1.00  0.00     0.031 A 
HETATM    9  C   UNL     1      68.536   3.106   9.555  1.00  0.00     0.088 A 
HETATM   10  C   UNL     1      69.379   5.126   8.634  1.00  0.00     0.015 A 
HETATM   11  C   UNL     1      69.584   3.995   9.415  1.00  0.00     0.018 A 
ENDROOT
BRANCH   1  12
HETATM   12  C   UNL     1      66.424   7.879   5.806  1.00  0.00     0.292 C 
HETATM   13  O   UNL     1      67.228   8.276   4.974  1.00  0.00    -0.259 OA
BRANCH  12  14
HETATM   14  O   UNL     1      65.250   8.474   6.124  1.00  0.00    -0.323 OA
HETATM   15  C   UNL     1      64.405   8.776   5.009  1.00  0.00     0.213 C 
ENDBRANCH  12  14
ENDBRANCH   1  12
TORSDOF 2
ENDMDL
MODEL 5
REMARK VINA RESULT:      -5.0      4.441      6.471
REMARK  2 active torsions:
REMARK  status: ('A' for Active; 'I' for Inactive)
REMARK    1  A    between atoms: C_1  and  C_2 
REMARK    2  A    between atoms: C_1  and  O_11 
ROOT
HETATM    1  C   UNL     1      64.058   7.290   5.119  1.00  0.00     0.040 A 
HETATM    2  C   UNL     1      63.524   8.582   5.197  1.00  0.00     0.031 A 
HETATM    3  C   UNL     1      62.934   9.184   4.070  1.00  0.00    -0.008 A 
HETATM    4  N   UNL     1      62.334   9.034   1.737  1.00  0.00    -0.365 N 
ATOM      5  HN  UNL     1      62.307   8.517   0.857  1.00  0.00     0.165 HD
HETATM    6  C   UNL     1      62.878   8.493   2.842  1.00  0.00     0.042 A 
HETATM    7  C   UNL     1      63.991   6.602   3.906  1.00  0.00     0.020 A 
HETATM    8  C   UNL     1      63.407   7.210   2.788  1.00  0.00     0.031 A 
HETATM    9  C   UNL     1      61.824  10.282   1.826  1.00  0.00     0.088 A 
HETATM   10  C   UNL     1      62.389  10.474   4.125  1.00  0.00     0.015 A 
HETATM   11  C   UNL     1      61.823  11.034   2.986  1.00  0.00     0.018 A 
ENDROOT
BRANCH   1  12
HETATM   12  C   UNL     1      64.683   6.714   6.342  1.00  0.00     0.292 C 
HETATM   13  O   UNL     1      64.449   5.582   6.740  1.00  0.00    -0.259 OA
BRANCH  12  14
HETATM   14  O   UNL     1      65.514   7.608   6.929  1.00  0.00    -0.323 OA
HETATM   15  C   UNL     1      66.654   7.036   7.578  1.00  0.00     0.213 C 
ENDBRANCH  12  14
ENDBRANCH   1  12
TORSDOF 2
ENDMDL
MODEL 6
REMARK VINA RESULT:      -4.9      3.039      5.336
REMARK  2 active torsions:
REMARK  status: ('A' for Active; 'I' for Inactive)
REMARK    1  A    between atoms: C_1  and  C_2 
REMARK    2  A    between atoms: C_1  and  O_11 
ROOT
HETATM    1  C   UNL     1      68.095   5.201   7.549  1.00  0.00     0.040 A 
HETATM    2  C   UNL     1      68.285   3.842   7.268  1.00  0.00     0.031 A 
HETATM    3  C   UNL     1      68.822   2.976   8.238  1.00  0.00    -0.008 A 
HETATM    4  N   UNL     1      69.709   2.680  10.463  1.00  0.00    -0.365 N 
ATOM      5  HN  UNL     1      69.966   3.058  11.375  1.00  0.00     0.165 HD
HETATM    6  C   UNL     1      69.182   3.468   9.510  1.00  0.00     0.042 A 
HETATM    7  C   UNL     1      68.441   5.685   8.812  1.00  0.00     0.020 A 
HETATM    8  C   UNL     1      68.980   4.818   9.771  1.00  0.00     0.031 A 
HETATM    9  C   UNL     1      69.888   1.371  10.177  1.00  0.00     0.088 A 
HETATM   10  C   UNL     1      69.016   1.612   7.981  1.00  0.00     0.015 A 
HETATM   11  C   UNL     1      69.557   0.794   8.966  1.00  0.00     0.018 A 
ENDROOT
BRANCH   1  12
HETATM   12  C   UNL     1      67.538   6.069   6.475  1.00  0.00     0.292 C 
HETATM   13  O   UNL     1      67.778   5.900   5.289  1.00  0.00    -0.259 OA
BRANCH  12  14
HETATM   14  O   UNL     1      66.758   7.045   6.998  1.00  0.00    -0.323 OA
HETATM   15  C   UNL     1      65.359   6.746   7.033  1.00  0.00     0.213 C 
ENDBRANCH  12  14
ENDBRANCH   1  12
TORSDOF 2
ENDMDL
MODEL 7
REMARK VINA RESULT:      -4.7      7.521      8.795
REMARK  2 active torsions:
REMARK  status: ('A' for Active; 'I' for Inactive)
REMARK    1  A    between atoms: C_1  and  C_2 
REMARK    2  A    between atoms: C_1  and  O_11 
ROOT
HETATM    1  C   UNL     1      62.694   7.230   1.609  1.00  0.00     0.040 A 
HETATM    2  C   UNL     1      63.066   7.603   2.906  1.00  0.00     0.031 A 
HETATM    3  C   UNL     1      62.757   8.883   3.402  1.00  0.00    -0.008 A 
HETATM    4  N   UNL     1      61.764  11.050   3.021  1.00  0.00    -0.365 N 
ATOM      5  HN  UNL     1      61.270  11.708   2.417  1.00  0.00     0.165 HD
HETATM    6  C   UNL     1      62.070   9.812   2.593  1.00  0.00     0.042 A 
HETATM    7  C   UNL     1      62.003   8.146   0.813  1.00  0.00     0.020 A 
HETATM    8  C   UNL     1      61.704   9.420   1.311  1.00  0.00     0.031 A 
HETATM    9  C   UNL     1      62.131  11.397   4.275  1.00  0.00     0.088 A 
HETATM   10  C   UNL     1      63.114   9.277   4.698  1.00  0.00     0.015 A 
HETATM   11  C   UNL     1      62.796  10.554   5.144  1.00  0.00     0.018 A 
ENDROOT
BRANCH   1  12
HETATM   12  C   UNL     1      63.064   5.867   1.137  1.00  0.00     0.292 C 
HETATM   13  O   UNL     1      64.186   5.399   1.263  1.00  0.00    -0.259 OA
BRANCH  12  14
HETATM   14  O   UNL     1      62.005   5.251   0.559  1.00  0.00    -0.323 OA
HETATM   15  C   UNL     1      61.149   4.546   1.464  1.00  0.00     0.213 C 
ENDBRANCH  12  14
ENDBRANCH   1  12
TORSDOF 2
ENDMDL
MODEL 8
REMARK VINA RESULT:      -4.3      5.230      7.568
REMARK  2 active torsions:
REMARK  status: ('A' for Active; 'I' for Inactive)
REMARK    1  A    between atoms: C_1  and  C_2 
REMARK    2  A    between atoms: C_1  and  O_11 
ROOT
HETATM    1  C   UNL     1      62.696   7.833   4.168  1.00  0.00     0.040 A 
HETATM    2  C   UNL     1      64.072   8.079   4.091  1.00  0.00     0.031 A 
HETATM    3  C   UNL     1      64.921   7.752   5.164  1.00  0.00    -0.008 A 
HETATM    4  N   UNL     1      65.166   6.855   7.392  1.00  0.00    -0.365 N 
ATOM      5  HN  UNL     1      64.763   6.441   8.233  1.00  0.00     0.165 HD
HETATM    6  C   UNL     1      64.394   7.173   6.338  1.00  0.00     0.042 A 
HETATM    7  C   UNL     1      62.176   7.249   5.325  1.00  0.00     0.020 A 
HETATM    8  C   UNL     1      63.027   6.931   6.391  1.00  0.00     0.031 A 
HETATM    9  C   UNL     1      66.493   7.099   7.304  1.00  0.00     0.088 A 
HETATM   10  C   UNL     1      66.302   7.984   5.108  1.00  0.00     0.015 A 
HETATM   11  C   UNL     1      67.103   7.653   6.194  1.00  0.00     0.018 A 
ENDROOT
BRANCH   1  12
HETATM   12  C   UNL     1      61.848   8.217   3.006  1.00  0.00     0.292 C 
HETATM   13  O   UNL     1      60.654   8.461   3.103  1.00  0.00    -0.259 OA
BRANCH  12  14
HETATM   14  O   UNL     1      62.575   8.245   1.864  1.00  0.00    -0.323 OA
HETATM   15  C   UNL     1      61.986   8.988   0.792  1.00  0.00     0.213 C 
ENDBRANCH  12  14
ENDBRANCH   1  12
TORSDOF 2
ENDMDL
MODEL 9
REMARK VINA RESULT:      -4.1     21.216     23.517
REMARK  2 active torsions:
REMARK  status: ('A' for Active; 'I' for Inactive)
REMARK    1  A    between atoms: C_1  and  C_2 
REMARK    2  A    between atoms: C_1  and  O_11 
ROOT
HETATM    1  C   UNL     1      48.989  16.963   2.993  1.00  0.00     0.040 A 
HETATM    2  C   UNL     1      48.193  18.063   3.337  1.00  0.00     0.031 A 
HETATM    3  C   UNL     1      48.291  19.271   2.624  1.00  0.00    -0.008 A 
HETATM    4  N   UNL     1      49.334  20.534   0.851  1.00  0.00    -0.365 N 
ATOM      5  HN  UNL     1      50.000  20.602   0.081  1.00  0.00     0.165 HD
HETATM    6  C   UNL     1      49.199  19.394   1.552  1.00  0.00     0.042 A 
HETATM    7  C   UNL     1      49.880  17.081   1.924  1.00  0.00     0.020 A 
HETATM    8  C   UNL     1      49.975  18.290   1.222  1.00  0.00     0.031 A 
HETATM    9  C   UNL     1      48.560  21.587   1.196  1.00  0.00     0.088 A 
HETATM   10  C   UNL     1      47.501  20.383   2.948  1.00  0.00     0.015 A 
HETATM   11  C   UNL     1      47.636  21.561   2.223  1.00  0.00     0.018 A 
ENDROOT
BRANCH   1  12
HETATM   12  C   UNL     1      48.851  15.717   3.795  1.00  0.00     0.292 C 
HETATM   13  O   UNL     1      48.219  14.744   3.412  1.00  0.00    -0.259 OA
BRANCH  12  14
HETATM   14  O   UNL     1      49.503  15.827   4.978  1.00  0.00    -0.323 OA
HETATM   15  C   UNL     1      49.493  14.645   5.784  1.00  0.00     0.213 C 
ENDBRANCH  12  14
ENDBRANCH   1  12
TORSDOF 2
ENDMDL
