MODEL 1
REMARK VINA RESULT:      -5.2      0.000      0.000
REMARK  1 active torsions:
REMARK  status: ('A' for Active; 'I' for Inactive)
REMARK    1  A    between atoms: C_7  and  O_10 
ROOT
HETATM    1  N   UNL     1      76.832   5.199  18.181  1.00  0.00    -0.191 NA
HETATM    2  C   UNL     1      77.143   7.429  16.900  1.00  0.00     0.083 A 
HETATM    3  C   UNL     1      76.964   6.189  17.592  1.00  0.00     0.102 C 
HETATM    4  C   UNL     1      77.155   7.464  15.505  1.00  0.00     0.139 A 
HETATM    5  C   UNL     1      77.365   8.655  14.813  1.00  0.00     0.080 A 
HETATM    6  C   UNL     1      77.332   8.618  17.614  1.00  0.00     0.028 A 
HETATM    7  C   UNL     1      77.585   9.822  15.535  1.00  0.00     0.068 A 
HETATM    8  F   UNL     1      76.973   6.339  14.798  1.00  0.00    -0.204 F 
HETATM    9  C   UNL     1      77.561   9.814  16.928  1.00  0.00     0.038 A 
ENDROOT
BRANCH   7  10
HETATM   10  O   UNL     1      77.840  11.008  14.915  1.00  0.00    -0.361 OA
HETATM   11  H   UNL     1      77.903  11.796  15.418  1.00  0.00     0.217 HD
ENDBRANCH   7  10
TORSDOF 1
ENDMDL
MODEL 2
REMARK VINA RESULT:      -5.1      5.518      6.386
REMARK  1 active torsions:
REMARK  status: ('A' for Active; 'I' for Inactive)
REMARK    1  A    between atoms: C_7  and  O_10 
ROOT
HETATM    1  N   UNL     1      80.686  12.244  22.526  1.00  0.00    -0.191 NA
HETATM    2  C   UNL     1      78.575  12.328  21.027  1.00  0.00     0.083 A 
HETATM    3  C   UNL     1      79.745  12.263  21.849  1.00  0.00     0.102 C 
HETATM    4  C   UNL     1      78.430  11.468  19.938  1.00  0.00     0.139 A 
HETATM    5  C   UNL     1      77.315  11.540  19.104  1.00  0.00     0.080 A 
HETATM    6  C   UNL     1      77.574  13.268  21.293  1.00  0.00     0.028 A 
HETATM    7  C   UNL     1      76.345  12.502  19.359  1.00  0.00     0.068 A 
HETATM    8  F   UNL     1      79.373  10.555  19.664  1.00  0.00    -0.204 F 
HETATM    9  C   UNL     1      76.461  13.359  20.451  1.00  0.00     0.038 A 
ENDROOT
BRANCH   7  10
HETATM   10  O   UNL     1      75.257  12.649  18.555  1.00  0.00    -0.361 OA
HETATM   11  H   UNL     1      74.397  12.670  18.927  1.00  0.00     0.217 HD
ENDBRANCH   7  10
TORSDOF 1
ENDMDL
MODEL 3
REMARK VINA RESULT:      -4.8     19.384     20.104
REMARK  1 active torsions:
REMARK  status: ('A' for Active; 'I' for Inactive)
REMARK    1  A    between atoms: C_7  and  O_10 
ROOT
HETATM    1  N   UNL     1      61.712   8.521   0.430  1.00  0.00    -0.191 NA
HETATM    2  C   UNL     1      62.198   9.618   2.726  1.00  0.00     0.083 A 
HETATM    3  C   UNL     1      61.916   9.025   1.454  1.00  0.00     0.102 C 
HETATM    4  C   UNL     1      61.865  10.951   2.973  1.00  0.00     0.139 A 
HETATM    5  C   UNL     1      62.165  11.556   4.192  1.00  0.00     0.080 A 
HETATM    6  C   UNL     1      62.830   8.875   3.729  1.00  0.00     0.028 A 
HETATM    7  C   UNL     1      62.824  10.816   5.166  1.00  0.00     0.068 A 
HETATM    8  F   UNL     1      61.255  11.683   2.030  1.00  0.00    -0.204 F 
HETATM    9  C   UNL     1      63.150   9.480   4.948  1.00  0.00     0.038 A 
ENDROOT
BRANCH   7  10
HETATM   10  O   UNL     1      63.182  11.366   6.360  1.00  0.00    -0.361 OA
HETATM   11  H   UNL     1      63.918  11.027   6.831  1.00  0.00     0.217 HD
ENDBRANCH   7  10
TORSDOF 1
ENDMDL
MODEL 4
REMARK VINA RESULT:      -4.6     18.958     19.676
REMARK  1 active torsions:
REMARK  status: ('A' for Active; 'I' for Inactive)
REMARK    1  A    between atoms: C_7  and  O_10 
ROOT
HETATM    1  N   UNL     1      61.290   8.556   0.707  1.00  0.00    -0.191 NA
HETATM    2  C   UNL     1      62.174   9.642   2.887  1.00  0.00     0.083 A 
HETATM    3  C   UNL     1      61.700   9.029   1.683  1.00  0.00     0.102 C 
HETATM    4  C   UNL     1      63.017   8.941   3.750  1.00  0.00     0.139 A 
HETATM    5  C   UNL     1      63.460   9.507   4.945  1.00  0.00     0.080 A 
HETATM    6  C   UNL     1      61.780  10.942   3.222  1.00  0.00     0.028 A 
HETATM    7  C   UNL     1      63.033  10.786   5.282  1.00  0.00     0.068 A 
HETATM    8  F   UNL     1      63.413   7.696   3.449  1.00  0.00    -0.204 F 
HETATM    9  C   UNL     1      62.205  11.510   4.427  1.00  0.00     0.038 A 
ENDROOT
BRANCH   7  10
HETATM   10  O   UNL     1      63.396  11.373   6.456  1.00  0.00    -0.361 OA
HETATM   11  H   UNL     1      64.302  11.464   6.674  1.00  0.00     0.217 HD
ENDBRANCH   7  10
TORSDOF 1
ENDMDL
MODEL 5
REMARK VINA RESULT:      -4.6     19.590     20.274
REMARK  1 active torsions:
REMARK  status: ('A' for Active; 'I' for Inactive)
REMARK    1  A    between atoms: C_7  and  O_10 
ROOT
HETATM    1  N   UNL     1      63.097   6.221   1.342  1.00  0.00    -0.191 NA
HETATM    2  C   UNL     1      62.581   8.459   2.540  1.00  0.00     0.083 A 
HETATM    3  C   UNL     1      62.855   7.228   1.863  1.00  0.00     0.102 C 
HETATM    4  C   UNL     1      62.131   9.571   1.828  1.00  0.00     0.139 A 
HETATM    5  C   UNL     1      61.894  10.789   2.463  1.00  0.00     0.080 A 
HETATM    6  C   UNL     1      62.783   8.568   3.921  1.00  0.00     0.028 A 
HETATM    7  C   UNL     1      62.132  10.893   3.829  1.00  0.00     0.068 A 
HETATM    8  F   UNL     1      61.926   9.491   0.505  1.00  0.00    -0.204 F 
HETATM    9  C   UNL     1      62.565   9.791   4.562  1.00  0.00     0.038 A 
ENDROOT
BRANCH   7  10
HETATM   10  O   UNL     1      61.961  12.067   4.496  1.00  0.00    -0.361 OA
HETATM   11  H   UNL     1      61.155  12.241   4.941  1.00  0.00     0.217 HD
ENDBRANCH   7  10
TORSDOF 1
ENDMDL
MODEL 6
REMARK VINA RESULT:      -4.4     16.246     17.032
REMARK  1 active torsions:
REMARK  status: ('A' for Active; 'I' for Inactive)
REMARK    1  A    between atoms: C_7  and  O_10 
ROOT
HETATM    1  N   UNL     1      70.531  25.828  15.761  1.00  0.00    -0.191 NA
HETATM    2  C   UNL     1      71.126  23.997  14.028  1.00  0.00     0.083 A 
HETATM    3  C   UNL     1      70.779  25.010  14.978  1.00  0.00     0.102 C 
HETATM    4  C   UNL     1      70.129  23.273  13.373  1.00  0.00     0.139 A 
HETATM    5  C   UNL     1      70.446  22.258  12.473  1.00  0.00     0.080 A 
HETATM    6  C   UNL     1      72.468  23.705  13.763  1.00  0.00     0.028 A 
HETATM    7  C   UNL     1      71.783  21.955  12.244  1.00  0.00     0.068 A 
HETATM    8  F   UNL     1      68.835  23.537  13.607  1.00  0.00    -0.204 F 
HETATM    9  C   UNL     1      72.795  22.676  12.875  1.00  0.00     0.038 A 
ENDROOT
BRANCH   7  10
HETATM   10  O   UNL     1      72.154  20.945  11.410  1.00  0.00    -0.361 OA
HETATM   11  H   UNL     1      72.728  21.119  10.689  1.00  0.00     0.217 HD
ENDBRANCH   7  10
TORSDOF 1
ENDMDL
MODEL 7
REMARK VINA RESULT:      -4.3     12.093     12.926
REMARK  1 active torsions:
REMARK  status: ('A' for Active; 'I' for Inactive)
REMARK    1  A    between atoms: C_7  and  O_10 
ROOT
HETATM    1  N   UNL     1      67.585   5.048   5.638  1.00  0.00    -0.191 NA
HETATM    2  C   UNL     1      68.399   3.880   7.803  1.00  0.00     0.083 A 
HETATM    3  C   UNL     1      67.948   4.542   6.616  1.00  0.00     0.102 C 
HETATM    4  C   UNL     1      68.974   4.610   8.844  1.00  0.00     0.139 A 
HETATM    5  C   UNL     1      69.452   3.979   9.991  1.00  0.00     0.080 A 
HETATM    6  C   UNL     1      68.287   2.490   7.924  1.00  0.00     0.028 A 
HETATM    7  C   UNL     1      69.367   2.595  10.082  1.00  0.00     0.068 A 
HETATM    8  F   UNL     1      69.088   5.943   8.754  1.00  0.00    -0.204 F 
HETATM    9  C   UNL     1      68.781   1.848   9.063  1.00  0.00     0.038 A 
ENDROOT
BRANCH   7  10
HETATM   10  O   UNL     1      69.856   1.919  11.158  1.00  0.00    -0.361 OA
HETATM   11  H   UNL     1      70.030   2.374  11.959  1.00  0.00     0.217 HD
ENDBRANCH   7  10
TORSDOF 1
ENDMDL
MODEL 8
REMARK VINA RESULT:      -4.3      5.981      6.935
REMARK  1 active torsions:
REMARK  status: ('A' for Active; 'I' for Inactive)
REMARK    1  A    between atoms: C_7  and  O_10 
ROOT
HETATM    1  N   UNL     1      76.467  13.236  16.290  1.00  0.00    -0.191 NA
HETATM    2  C   UNL     1      76.982  12.653  18.761  1.00  0.00     0.083 A 
HETATM    3  C   UNL     1      76.689  12.992  17.401  1.00  0.00     0.102 C 
HETATM    4  C   UNL     1      77.037  13.647  19.740  1.00  0.00     0.139 A 
HETATM    5  C   UNL     1      77.356  13.342  21.061  1.00  0.00     0.080 A 
HETATM    6  C   UNL     1      77.238  11.325  19.121  1.00  0.00     0.028 A 
HETATM    7  C   UNL     1      77.642  12.024  21.398  1.00  0.00     0.068 A 
HETATM    8  F   UNL     1      76.791  14.926  19.421  1.00  0.00    -0.204 F 
HETATM    9  C   UNL     1      77.576  11.014  20.441  1.00  0.00     0.038 A 
ENDROOT
BRANCH   7  10
HETATM   10  O   UNL     1      78.003  11.672  22.662  1.00  0.00    -0.361 OA
HETATM   11  H   UNL     1      78.049  10.768  22.903  1.00  0.00     0.217 HD
ENDBRANCH   7  10
TORSDOF 1
ENDMDL
MODEL 9
REMARK VINA RESULT:      -4.1     12.470     13.192
REMARK  1 active torsions:
REMARK  status: ('A' for Active; 'I' for Inactive)
REMARK    1  A    between atoms: C_7  and  O_10 
ROOT
HETATM    1  N   UNL     1      67.043   5.905   5.044  1.00  0.00    -0.191 NA
HETATM    2  C   UNL     1      68.145   4.941   7.182  1.00  0.00     0.083 A 
HETATM    3  C   UNL     1      67.546   5.461   5.990  1.00  0.00     0.102 C 
HETATM    4  C   UNL     1      68.689   3.656   7.195  1.00  0.00     0.139 A 
HETATM    5  C   UNL     1      69.243   3.119   8.356  1.00  0.00     0.080 A 
HETATM    6  C   UNL     1      68.171   5.706   8.353  1.00  0.00     0.028 A 
HETATM    7  C   UNL     1      69.232   3.877   9.520  1.00  0.00     0.068 A 
HETATM    8  F   UNL     1      68.680   2.905   6.085  1.00  0.00    -0.204 F 
HETATM    9  C   UNL     1      68.708   5.168   9.525  1.00  0.00     0.038 A 
ENDROOT
BRANCH   7  10
HETATM   10  O   UNL     1      69.718   3.389  10.695  1.00  0.00    -0.361 OA
HETATM   11  H   UNL     1      70.113   3.968  11.316  1.00  0.00     0.217 HD
ENDBRANCH   7  10
TORSDOF 1
ENDMDL
