MODEL 1
REMARK VINA RESULT:      -5.5      0.000      0.000
REMARK  3 active torsions:
REMARK  status: ('A' for Active; 'I' for Inactive)
REMARK    1  A    between atoms: C_1  and  C_6 
REMARK    2  A    between atoms: C_6  and  O_11 
REMARK    3  A    between atoms: C_10  and  N_12 
ROOT
HETATM    1  C   UNL     1      77.542   9.800  18.092  1.00  0.00     0.081 A 
HETATM    2  S   UNL     1      77.755   9.593  16.410  1.00  0.00    -0.084 SA
HETATM    3  C   UNL     1      76.997   8.666  18.664  1.00  0.00     0.038 A 
HETATM    4  C   UNL     1      76.755   7.611  17.724  1.00  0.00    -0.015 A 
HETATM    5  C   UNL     1      77.131   7.990  16.436  1.00  0.00     0.016 A 
HETATM    6  C   UNL     1      76.234   6.306  17.913  1.00  0.00     0.041 A 
HETATM    7  C   UNL     1      77.003   7.108  15.347  1.00  0.00     0.022 A 
HETATM    8  C   UNL     1      76.060   5.429  16.836  1.00  0.00     0.026 A 
HETATM    9  C   UNL     1      76.488   5.827  15.573  1.00  0.00     0.030 A 
ENDROOT
BRANCH   1  10
HETATM   10  C   UNL     1      77.926  11.052  18.718  1.00  0.00     0.299 C 
HETATM   11  O   UNL     1      78.780  11.205  19.585  1.00  0.00    -0.259 OA
BRANCH  10  12
HETATM   12  O   UNL     1      77.181  12.071  18.194  1.00  0.00    -0.322 OA
HETATM   13  C   UNL     1      76.206  12.607  19.089  1.00  0.00     0.213 C 
ENDBRANCH  10  12
ENDBRANCH   1  10
BRANCH   8  14
HETATM   14  N   UNL     1      75.695   4.097  17.068  1.00  0.00    -0.399 N 
HETATM   15  H   UNL     1      75.339   3.830  17.946  1.00  0.00     0.156 HD
HETATM   16  H   UNL     1      75.794   3.428  16.352  1.00  0.00     0.156 HD
ENDBRANCH   8  14
TORSDOF 3
ENDMDL
MODEL 2
REMARK VINA RESULT:      -5.4      4.100      6.354
REMARK  3 active torsions:
REMARK  status: ('A' for Active; 'I' for Inactive)
REMARK    1  A    between atoms: C_1  and  C_6 
REMARK    2  A    between atoms: C_6  and  O_11 
REMARK    3  A    between atoms: C_10  and  N_12 
ROOT
HETATM    1  C   UNL     1      77.904  10.249  18.162  1.00  0.00     0.081 A 
HETATM    2  S   UNL     1      76.858  11.496  18.679  1.00  0.00    -0.084 SA
HETATM    3  C   UNL     1      79.010  10.158  18.985  1.00  0.00     0.038 A 
HETATM    4  C   UNL     1      79.007  11.112  20.055  1.00  0.00    -0.015 A 
HETATM    5  C   UNL     1      77.870  11.918  20.006  1.00  0.00     0.016 A 
HETATM    6  C   UNL     1      79.935  11.326  21.104  1.00  0.00     0.041 A 
HETATM    7  C   UNL     1      77.639  12.917  20.969  1.00  0.00     0.022 A 
HETATM    8  C   UNL     1      79.744  12.343  22.048  1.00  0.00     0.026 A 
HETATM    9  C   UNL     1      78.576  13.097  21.993  1.00  0.00     0.030 A 
ENDROOT
BRANCH   1  10
HETATM   10  C   UNL     1      77.557   9.456  16.996  1.00  0.00     0.299 C 
HETATM   11  O   UNL     1      77.179   8.290  16.989  1.00  0.00    -0.259 OA
BRANCH  10  12
HETATM   12  O   UNL     1      77.716  10.212  15.868  1.00  0.00    -0.322 OA
HETATM   13  C   UNL     1      77.943   9.453  14.680  1.00  0.00     0.213 C 
ENDBRANCH  10  12
ENDBRANCH   1  10
BRANCH   8  14
HETATM   14  N   UNL     1      80.587  12.433  23.163  1.00  0.00    -0.399 N 
HETATM   15  H   UNL     1      81.457  12.888  23.086  1.00  0.00     0.156 HD
HETATM   16  H   UNL     1      80.310  12.042  24.023  1.00  0.00     0.156 HD
ENDBRANCH   8  14
TORSDOF 3
ENDMDL
MODEL 3
REMARK VINA RESULT:      -5.2     13.280     14.667
REMARK  3 active torsions:
REMARK  status: ('A' for Active; 'I' for Inactive)
REMARK    1  A    between atoms: C_1  and  C_6 
REMARK    2  A    between atoms: C_6  and  O_11 
REMARK    3  A    between atoms: C_10  and  N_12 
ROOT
HETATM    1  C   UNL     1      66.695   6.759   6.666  1.00  0.00     0.081 A 
HETATM    2  S   UNL     1      67.187   5.404   5.750  1.00  0.00    -0.084 SA
HETATM    3  C   UNL     1      67.118   6.651   7.977  1.00  0.00     0.038 A 
HETATM    4  C   UNL     1      67.857   5.451   8.242  1.00  0.00    -0.015 A 
HETATM    5  C   UNL     1      67.972   4.668   7.094  1.00  0.00     0.016 A 
HETATM    6  C   UNL     1      68.467   4.986   9.434  1.00  0.00     0.041 A 
HETATM    7  C   UNL     1      68.675   3.449   7.107  1.00  0.00     0.022 A 
HETATM    8  C   UNL     1      69.135   3.756   9.477  1.00  0.00     0.026 A 
HETATM    9  C   UNL     1      69.267   3.024   8.301  1.00  0.00     0.030 A 
ENDROOT
BRANCH   1  10
HETATM   10  C   UNL     1      65.938   7.822   6.028  1.00  0.00     0.299 C 
HETATM   11  O   UNL     1      66.346   8.599   5.171  1.00  0.00    -0.259 OA
BRANCH  10  12
HETATM   12  O   UNL     1      64.667   7.840   6.530  1.00  0.00    -0.322 OA
HETATM   13  C   UNL     1      63.661   7.449   5.595  1.00  0.00     0.213 C 
ENDBRANCH  10  12
ENDBRANCH   1  10
BRANCH   8  14
HETATM   14  N   UNL     1      69.863   3.393  10.617  1.00  0.00    -0.399 N 
HETATM   15  H   UNL     1      70.845   3.469  10.619  1.00  0.00     0.156 HD
HETATM   16  H   UNL     1      69.393   3.062  11.416  1.00  0.00     0.156 HD
ENDBRANCH   8  14
TORSDOF 3
ENDMDL
MODEL 4
REMARK VINA RESULT:      -4.7      2.170      2.775
REMARK  3 active torsions:
REMARK  status: ('A' for Active; 'I' for Inactive)
REMARK    1  A    between atoms: C_1  and  C_6 
REMARK    2  A    between atoms: C_6  and  O_11 
REMARK    3  A    between atoms: C_10  and  N_12 
ROOT
HETATM    1  C   UNL     1      77.459  10.583  18.379  1.00  0.00     0.081 A 
HETATM    2  S   UNL     1      77.053   8.948  18.664  1.00  0.00    -0.084 SA
HETATM    3  C   UNL     1      77.720  10.801  17.040  1.00  0.00     0.038 A 
HETATM    4  C   UNL     1      77.582   9.625  16.231  1.00  0.00    -0.015 A 
HETATM    5  C   UNL     1      77.214   8.524  17.004  1.00  0.00     0.016 A 
HETATM    6  C   UNL     1      77.740   9.441  14.835  1.00  0.00     0.041 A 
HETATM    7  C   UNL     1      77.001   7.261  16.423  1.00  0.00     0.022 A 
HETATM    8  C   UNL     1      77.573   8.182  14.244  1.00  0.00     0.026 A 
HETATM    9  C   UNL     1      77.163   7.118  15.040  1.00  0.00     0.030 A 
ENDROOT
BRANCH   1  10
HETATM   10  C   UNL     1      77.488  11.521  19.487  1.00  0.00     0.299 C 
HETATM   11  O   UNL     1      77.553  11.243  20.680  1.00  0.00    -0.259 OA
BRANCH  10  12
HETATM   12  O   UNL     1      77.430  12.798  19.004  1.00  0.00    -0.322 OA
HETATM   13  C   UNL     1      76.748  13.718  19.858  1.00  0.00     0.213 C 
ENDBRANCH  10  12
ENDBRANCH   1  10
BRANCH   8  14
HETATM   14  N   UNL     1      77.578   8.056  12.849  1.00  0.00    -0.399 N 
HETATM   15  H   UNL     1      77.006   7.383  12.413  1.00  0.00     0.156 HD
HETATM   16  H   UNL     1      78.154   8.640  12.304  1.00  0.00     0.156 HD
ENDBRANCH   8  14
TORSDOF 3
ENDMDL
MODEL 5
REMARK VINA RESULT:      -4.6      3.975      6.139
REMARK  3 active torsions:
REMARK  status: ('A' for Active; 'I' for Inactive)
REMARK    1  A    between atoms: C_1  and  C_6 
REMARK    2  A    between atoms: C_6  and  O_11 
REMARK    3  A    between atoms: C_10  and  N_12 
ROOT
HETATM    1  C   UNL     1      77.497   9.860  17.408  1.00  0.00     0.081 A 
HETATM    2  S   UNL     1      78.606   9.804  18.706  1.00  0.00    -0.084 SA
HETATM    3  C   UNL     1      76.615  10.914  17.556  1.00  0.00     0.038 A 
HETATM    4  C   UNL     1      76.846  11.691  18.739  1.00  0.00    -0.015 A 
HETATM    5  C   UNL     1      77.922  11.187  19.469  1.00  0.00     0.016 A 
HETATM    6  C   UNL     1      76.184  12.843  19.230  1.00  0.00     0.041 A 
HETATM    7  C   UNL     1      78.348  11.800  20.661  1.00  0.00     0.022 A 
HETATM    8  C   UNL     1      76.567  13.443  20.436  1.00  0.00     0.026 A 
HETATM    9  C   UNL     1      77.672  12.939  21.114  1.00  0.00     0.030 A 
ENDROOT
BRANCH   1  10
HETATM   10  C   UNL     1      77.580   8.872  16.347  1.00  0.00     0.299 C 
HETATM   11  O   UNL     1      77.203   7.706  16.402  1.00  0.00    -0.259 OA
BRANCH  10  12
HETATM   12  O   UNL     1      78.155   9.436  15.243  1.00  0.00    -0.322 OA
HETATM   13  C   UNL     1      77.766   8.836  14.007  1.00  0.00     0.213 C 
ENDBRANCH  10  12
ENDBRANCH   1  10
BRANCH   8  14
HETATM   14  N   UNL     1      76.005  14.667  20.821  1.00  0.00    -0.399 N 
HETATM   15  H   UNL     1      75.027  14.759  20.892  1.00  0.00     0.156 HD
HETATM   16  H   UNL     1      76.587  15.435  21.020  1.00  0.00     0.156 HD
ENDBRANCH   8  14
TORSDOF 3
ENDMDL
MODEL 6
REMARK VINA RESULT:      -4.6     18.468     19.670
REMARK  3 active torsions:
REMARK  status: ('A' for Active; 'I' for Inactive)
REMARK    1  A    between atoms: C_1  and  C_6 
REMARK    2  A    between atoms: C_6  and  O_11 
REMARK    3  A    between atoms: C_10  and  N_12 
ROOT
HETATM    1  C   UNL     1      64.284   8.193   4.894  1.00  0.00     0.081 A 
HETATM    2  S   UNL     1      63.252   9.531   4.639  1.00  0.00    -0.084 SA
HETATM    3  C   UNL     1      64.174   7.280   3.863  1.00  0.00     0.038 A 
HETATM    4  C   UNL     1      63.242   7.675   2.846  1.00  0.00    -0.015 A 
HETATM    5  C   UNL     1      62.659   8.905   3.149  1.00  0.00     0.016 A 
HETATM    6  C   UNL     1      62.867   7.035   1.639  1.00  0.00     0.041 A 
HETATM    7  C   UNL     1      61.725   9.505   2.286  1.00  0.00     0.022 A 
HETATM    8  C   UNL     1      61.908   7.596   0.787  1.00  0.00     0.026 A 
HETATM    9  C   UNL     1      61.382   8.845   1.100  1.00  0.00     0.030 A 
ENDROOT
BRANCH   1  10
HETATM   10  C   UNL     1      65.120   8.145   6.080  1.00  0.00     0.299 C 
HETATM   11  O   UNL     1      66.095   8.850   6.318  1.00  0.00    -0.259 OA
BRANCH  10  12
HETATM   12  O   UNL     1      64.658   7.174   6.924  1.00  0.00    -0.322 OA
HETATM   13  C   UNL     1      65.684   6.445   7.599  1.00  0.00     0.213 C 
ENDBRANCH  10  12
ENDBRANCH   1  10
BRANCH   8  14
HETATM   14  N   UNL     1      61.671   7.029  -0.472  1.00  0.00    -0.399 N 
HETATM   15  H   UNL     1      60.857   7.266  -0.974  1.00  0.00     0.156 HD
HETATM   16  H   UNL     1      62.318   6.393  -0.855  1.00  0.00     0.156 HD
ENDBRANCH   8  14
TORSDOF 3
ENDMDL
MODEL 7
REMARK VINA RESULT:      -4.6     20.015     21.380
REMARK  3 active torsions:
REMARK  status: ('A' for Active; 'I' for Inactive)
REMARK    1  A    between atoms: C_1  and  C_6 
REMARK    2  A    between atoms: C_6  and  O_11 
REMARK    3  A    between atoms: C_10  and  N_12 
ROOT
HETATM    1  C   UNL     1      62.784   7.274   1.760  1.00  0.00     0.081 A 
HETATM    2  S   UNL     1      61.966   8.661   1.188  1.00  0.00    -0.084 SA
HETATM    3  C   UNL     1      63.266   7.476   3.039  1.00  0.00     0.038 A 
HETATM    4  C   UNL     1      62.961   8.775   3.567  1.00  0.00    -0.015 A 
HETATM    5  C   UNL     1      62.242   9.535   2.645  1.00  0.00     0.016 A 
HETATM    6  C   UNL     1      63.255   9.352   4.827  1.00  0.00     0.041 A 
HETATM    7  C   UNL     1      61.813  10.840   2.949  1.00  0.00     0.022 A 
HETATM    8  C   UNL     1      62.873  10.664   5.133  1.00  0.00     0.026 A 
HETATM    9  C   UNL     1      62.119  11.375   4.206  1.00  0.00     0.030 A 
ENDROOT
BRANCH   1  10
HETATM   10  C   UNL     1      62.888   6.100   0.913  1.00  0.00     0.299 C 
HETATM   11  O   UNL     1      62.461   4.977   1.162  1.00  0.00    -0.259 OA
BRANCH  10  12
HETATM   12  O   UNL     1      63.550   6.425  -0.238  1.00  0.00    -0.322 OA
HETATM   13  C   UNL     1      62.950   5.909  -1.426  1.00  0.00     0.213 C 
ENDBRANCH  10  12
ENDBRANCH   1  10
BRANCH   8  14
HETATM   14  N   UNL     1      63.034  11.156   6.435  1.00  0.00    -0.399 N 
HETATM   15  H   UNL     1      62.379  10.924   7.133  1.00  0.00     0.156 HD
HETATM   16  H   UNL     1      63.801  11.733   6.651  1.00  0.00     0.156 HD
ENDBRANCH   8  14
TORSDOF 3
ENDMDL
MODEL 8
REMARK VINA RESULT:      -4.6     13.105     14.607
REMARK  3 active torsions:
REMARK  status: ('A' for Active; 'I' for Inactive)
REMARK    1  A    between atoms: C_1  and  C_6 
REMARK    2  A    between atoms: C_6  and  O_11 
REMARK    3  A    between atoms: C_10  and  N_12 
ROOT
HETATM    1  C   UNL     1      66.690   6.317   7.389  1.00  0.00     0.081 A 
HETATM    2  S   UNL     1      67.437   6.316   8.925  1.00  0.00    -0.084 SA
HETATM    3  C   UNL     1      66.952   5.141   6.711  1.00  0.00     0.038 A 
HETATM    4  C   UNL     1      67.766   4.223   7.452  1.00  0.00    -0.015 A 
HETATM    5  C   UNL     1      68.106   4.746   8.699  1.00  0.00     0.016 A 
HETATM    6  C   UNL     1      68.231   2.926   7.120  1.00  0.00     0.041 A 
HETATM    7  C   UNL     1      68.887   4.014   9.612  1.00  0.00     0.022 A 
HETATM    8  C   UNL     1      69.044   2.198   7.998  1.00  0.00     0.026 A 
HETATM    9  C   UNL     1      69.325   2.735   9.250  1.00  0.00     0.030 A 
ENDROOT
BRANCH   1  10
HETATM   10  C   UNL     1      65.906   7.465   6.971  1.00  0.00     0.299 C 
HETATM   11  O   UNL     1      66.334   8.500   6.470  1.00  0.00    -0.259 OA
BRANCH  10  12
HETATM   12  O   UNL     1      64.583   7.229   7.219  1.00  0.00    -0.322 OA
HETATM   13  C   UNL     1      63.771   7.141   6.048  1.00  0.00     0.213 C 
ENDBRANCH  10  12
ENDBRANCH   1  10
BRANCH   8  14
HETATM   14  N   UNL     1      69.358   0.862   7.719  1.00  0.00    -0.399 N 
HETATM   15  H   UNL     1      69.807   0.628   6.874  1.00  0.00     0.156 HD
HETATM   16  H   UNL     1      69.131   0.157   8.367  1.00  0.00     0.156 HD
ENDBRANCH   8  14
TORSDOF 3
ENDMDL
MODEL 9
REMARK VINA RESULT:      -4.5     13.205     14.644
REMARK  3 active torsions:
REMARK  status: ('A' for Active; 'I' for Inactive)
REMARK    1  A    between atoms: C_1  and  C_6 
REMARK    2  A    between atoms: C_6  and  O_11 
REMARK    3  A    between atoms: C_10  and  N_12 
ROOT
HETATM    1  C   UNL     1      68.554   3.730   8.802  1.00  0.00     0.081 A 
HETATM    2  S   UNL     1      68.609   3.410   7.125  1.00  0.00    -0.084 SA
HETATM    3  C   UNL     1      67.963   4.954   9.052  1.00  0.00     0.038 A 
HETATM    4  C   UNL     1      67.543   5.640   7.865  1.00  0.00    -0.015 A 
HETATM    5  C   UNL     1      67.839   4.896   6.724  1.00  0.00     0.016 A 
HETATM    6  C   UNL     1      66.890   6.887   7.702  1.00  0.00     0.041 A 
HETATM    7  C   UNL     1      67.500   5.360   5.440  1.00  0.00     0.022 A 
HETATM    8  C   UNL     1      66.583   7.385   6.430  1.00  0.00     0.026 A 
HETATM    9  C   UNL     1      66.853   6.595   5.317  1.00  0.00     0.030 A 
ENDROOT
BRANCH   1  10
HETATM   10  C   UNL     1      69.091   2.759   9.738  1.00  0.00     0.299 C 
HETATM   11  O   UNL     1      70.276   2.538   9.964  1.00  0.00    -0.259 OA
BRANCH  10  12
HETATM   12  O   UNL     1      68.063   2.102  10.353  1.00  0.00    -0.322 OA
HETATM   13  C   UNL     1      67.737   0.841   9.766  1.00  0.00     0.213 C 
ENDBRANCH  10  12
ENDBRANCH   1  10
BRANCH   8  14
HETATM   14  N   UNL     1      65.800   8.539   6.299  1.00  0.00    -0.399 N 
HETATM   15  H   UNL     1      65.759   9.193   7.034  1.00  0.00     0.156 HD
HETATM   16  H   UNL     1      65.290   8.697   5.471  1.00  0.00     0.156 HD
ENDBRANCH   8  14
TORSDOF 3
ENDMDL
