MODEL 1
REMARK VINA RESULT:      -4.3      0.000      0.000
REMARK  2 active torsions:
REMARK  status: ('A' for Active; 'I' for Inactive)
REMARK    1  A    between atoms: N_3  and  C_7 
REMARK    2  A    between atoms: C_4  and  C_7 
ROOT
HETATM    1  N   UNL     1      77.240   7.499  14.291  1.00  0.00    -0.375 N 
ATOM      2  HN  UNL     1      77.202   7.136  13.338  1.00  0.00     0.164 HD
HETATM    3  C   UNL     1      77.344   8.500  16.920  1.00  0.00    -0.030 A 
HETATM    4  C   UNL     1      77.595   8.774  14.551  1.00  0.00     0.088 A 
HETATM    5  C   UNL     1      76.937   6.728  15.356  1.00  0.00     0.088 A 
HETATM    6  C   UNL     1      77.661   9.315  15.827  1.00  0.00     0.026 A 
HETATM    7  C   UNL     1      76.967   7.177  16.667  1.00  0.00     0.026 A 
ENDROOT
BRANCH   3   8
HETATM    8  C   UNL     1      77.397   9.039  18.329  1.00  0.00     0.270 C 
BRANCH   8   9
HETATM    9  N   UNL     1      77.261  10.496  18.347  1.00  0.00    -0.075 N 
HETATM   10  C   UNL     1      77.927  11.073  19.505  1.00  0.00     0.267 C 
HETATM   11  H   UNL     1      76.270  10.737  18.379  1.00  0.00     0.277 HD
HETATM   12  H   UNL     1      77.696  10.871  17.504  1.00  0.00     0.277 HD
ENDBRANCH   8   9
ENDBRANCH   3   8
TORSDOF 2
ENDMDL
MODEL 2
REMARK VINA RESULT:      -4.2     15.691     16.852
REMARK  2 active torsions:
REMARK  status: ('A' for Active; 'I' for Inactive)
REMARK    1  A    between atoms: N_3  and  C_7 
REMARK    2  A    between atoms: C_4  and  C_7 
ROOT
HETATM    1  N   UNL     1      73.123  22.798  12.880  1.00  0.00    -0.375 N 
ATOM      2  HN  UNL     1      73.783  22.257  12.320  1.00  0.00     0.164 HD
HETATM    3  C   UNL     1      71.304  24.291  14.424  1.00  0.00    -0.030 A 
HETATM    4  C   UNL     1      73.521  23.850  13.625  1.00  0.00     0.088 A 
HETATM    5  C   UNL     1      71.808  22.498  12.913  1.00  0.00     0.088 A 
HETATM    6  C   UNL     1      72.664  24.617  14.402  1.00  0.00     0.026 A 
HETATM    7  C   UNL     1      70.873  23.207  13.651  1.00  0.00     0.026 A 
ENDROOT
BRANCH   3   8
HETATM    8  C   UNL     1      70.328  25.094  15.250  1.00  0.00     0.270 C 
BRANCH   8   9
HETATM    9  N   UNL     1      68.995  25.096  14.646  1.00  0.00    -0.075 N 
HETATM   10  C   UNL     1      67.957  25.010  15.662  1.00  0.00     0.267 C 
HETATM   11  H   UNL     1      68.914  24.296  14.019  1.00  0.00     0.277 HD
HETATM   12  H   UNL     1      68.874  25.970  14.134  1.00  0.00     0.277 HD
ENDBRANCH   8   9
ENDBRANCH   3   8
TORSDOF 2
ENDMDL
MODEL 3
REMARK VINA RESULT:      -3.9      5.541      6.856
REMARK  2 active torsions:
REMARK  status: ('A' for Active; 'I' for Inactive)
REMARK    1  A    between atoms: N_3  and  C_7 
REMARK    2  A    between atoms: C_4  and  C_7 
ROOT
HETATM    1  N   UNL     1      74.913   4.267  16.847  1.00  0.00    -0.375 N 
ATOM      2  HN  UNL     1      74.287   4.983  16.475  1.00  0.00     0.164 HD
HETATM    3  C   UNL     1      76.637   2.293  17.874  1.00  0.00    -0.030 A 
HETATM    4  C   UNL     1      76.124   4.577  17.355  1.00  0.00     0.088 A 
HETATM    5  C   UNL     1      74.571   2.962  16.857  1.00  0.00     0.088 A 
HETATM    6  C   UNL     1      77.009   3.642  17.873  1.00  0.00     0.026 A 
HETATM    7  C   UNL     1      75.382   1.956  17.358  1.00  0.00     0.026 A 
ENDROOT
BRANCH   3   8
HETATM    8  C   UNL     1      77.561   1.235  18.428  1.00  0.00     0.270 C 
BRANCH   8   9
HETATM    9  N   UNL     1      78.541   1.814  19.349  1.00  0.00    -0.075 N 
HETATM   10  C   UNL     1      78.823   0.909  20.453  1.00  0.00     0.267 C 
HETATM   11  H   UNL     1      78.170   2.688  19.722  1.00  0.00     0.277 HD
HETATM   12  H   UNL     1      79.407   1.978  18.836  1.00  0.00     0.277 HD
ENDBRANCH   8   9
ENDBRANCH   3   8
TORSDOF 2
ENDMDL
MODEL 4
REMARK VINA RESULT:      -3.8     19.159     20.677
REMARK  2 active torsions:
REMARK  status: ('A' for Active; 'I' for Inactive)
REMARK    1  A    between atoms: N_3  and  C_7 
REMARK    2  A    between atoms: C_4  and  C_7 
ROOT
HETATM    1  N   UNL     1      63.367  10.055   5.627  1.00  0.00    -0.375 N 
ATOM      2  HN  UNL     1      63.773  10.147   6.559  1.00  0.00     0.164 HD
HETATM    3  C   UNL     1      62.247   9.801   3.057  1.00  0.00    -0.030 A 
HETATM    4  C   UNL     1      63.561   8.952   4.874  1.00  0.00     0.088 A 
HETATM    5  C   UNL     1      62.609  11.030   5.084  1.00  0.00     0.088 A 
HETATM    6  C   UNL     1      63.031   8.780   3.604  1.00  0.00     0.026 A 
HETATM    7  C   UNL     1      62.031  10.949   3.828  1.00  0.00     0.026 A 
ENDROOT
BRANCH   3   8
HETATM    8  C   UNL     1      61.645   9.663   1.680  1.00  0.00     0.270 C 
BRANCH   8   9
HETATM    9  N   UNL     1      60.444   8.826   1.706  1.00  0.00    -0.075 N 
HETATM   10  C   UNL     1      60.372   7.974   0.530  1.00  0.00     0.267 C 
HETATM   11  H   UNL     1      59.621   9.427   1.732  1.00  0.00     0.277 HD
HETATM   12  H   UNL     1      60.484   8.232   2.534  1.00  0.00     0.277 HD
ENDBRANCH   8   9
ENDBRANCH   3   8
TORSDOF 2
ENDMDL
MODEL 5
REMARK VINA RESULT:      -3.7     17.498     18.770
REMARK  2 active torsions:
REMARK  status: ('A' for Active; 'I' for Inactive)
REMARK    1  A    between atoms: N_3  and  C_7 
REMARK    2  A    between atoms: C_4  and  C_7 
ROOT
HETATM    1  N   UNL     1      61.554  10.524   3.047  1.00  0.00    -0.375 N 
ATOM      2  HN  UNL     1      60.869  11.129   2.593  1.00  0.00     0.164 HD
HETATM    3  C   UNL     1      63.445   8.855   4.299  1.00  0.00    -0.030 A 
HETATM    4  C   UNL     1      61.966   9.369   2.483  1.00  0.00     0.088 A 
HETATM    5  C   UNL     1      62.096  10.838   4.242  1.00  0.00     0.088 A 
HETATM    6  C   UNL     1      62.894   8.514   3.059  1.00  0.00     0.026 A 
HETATM    7  C   UNL     1      63.035  10.053   4.894  1.00  0.00     0.026 A 
ENDROOT
BRANCH   3   8
HETATM    8  C   UNL     1      64.462   7.962   4.968  1.00  0.00     0.270 C 
BRANCH   8   9
HETATM    9  N   UNL     1      65.200   8.680   6.007  1.00  0.00    -0.075 N 
HETATM   10  C   UNL     1      66.457   8.017   6.314  1.00  0.00     0.267 C 
HETATM   11  H   UNL     1      64.630   8.720   6.852  1.00  0.00     0.277 HD
HETATM   12  H   UNL     1      65.405   9.620   5.666  1.00  0.00     0.277 HD
ENDBRANCH   8   9
ENDBRANCH   3   8
TORSDOF 2
ENDMDL
MODEL 6
REMARK VINA RESULT:      -3.7     11.597     12.950
REMARK  2 active torsions:
REMARK  status: ('A' for Active; 'I' for Inactive)
REMARK    1  A    between atoms: N_3  and  C_7 
REMARK    2  A    between atoms: C_4  and  C_7 
ROOT
HETATM    1  N   UNL     1      66.543   6.300   7.671  1.00  0.00    -0.375 N 
ATOM      2  HN  UNL     1      65.726   6.800   7.319  1.00  0.00     0.164 HD
HETATM    3  C   UNL     1      68.797   4.920   8.641  1.00  0.00    -0.030 A 
HETATM    4  C   UNL     1      67.021   6.507   8.916  1.00  0.00     0.088 A 
HETATM    5  C   UNL     1      67.202   5.398   6.915  1.00  0.00     0.088 A 
HETATM    6  C   UNL     1      68.126   5.853   9.440  1.00  0.00     0.026 A 
HETATM    7  C   UNL     1      68.311   4.688   7.350  1.00  0.00     0.026 A 
ENDROOT
BRANCH   3   8
HETATM    8  C   UNL     1      70.004   4.178   9.164  1.00  0.00     0.270 C 
BRANCH   8   9
HETATM    9  N   UNL     1      69.724   3.550  10.455  1.00  0.00    -0.075 N 
HETATM   10  C   UNL     1      69.381   2.146  10.294  1.00  0.00     0.267 C 
HETATM   11  H   UNL     1      68.943   4.034  10.898  1.00  0.00     0.277 HD
HETATM   12  H   UNL     1      70.562   3.613  11.033  1.00  0.00     0.277 HD
ENDBRANCH   8   9
ENDBRANCH   3   8
TORSDOF 2
ENDMDL
MODEL 7
REMARK VINA RESULT:      -3.6      5.656      6.931
REMARK  2 active torsions:
REMARK  status: ('A' for Active; 'I' for Inactive)
REMARK    1  A    between atoms: N_3  and  C_7 
REMARK    2  A    between atoms: C_4  and  C_7 
ROOT
HETATM    1  N   UNL     1      75.089  -0.130  16.492  1.00  0.00    -0.375 N 
ATOM      2  HN  UNL     1      74.682  -0.979  16.099  1.00  0.00     0.164 HD
HETATM    3  C   UNL     1      76.214   2.212  17.578  1.00  0.00    -0.030 A 
HETATM    4  C   UNL     1      74.346   0.971  16.728  1.00  0.00     0.088 A 
HETATM    5  C   UNL     1      76.400  -0.051  16.804  1.00  0.00     0.088 A 
HETATM    6  C   UNL     1      74.852   2.148  17.261  1.00  0.00     0.026 A 
HETATM    7  C   UNL     1      76.997   1.076  17.347  1.00  0.00     0.026 A 
ENDROOT
BRANCH   3   8
HETATM    8  C   UNL     1      76.815   3.467  18.163  1.00  0.00     0.270 C 
BRANCH   8   9
HETATM    9  N   UNL     1      76.132   4.663  17.671  1.00  0.00    -0.075 N 
HETATM   10  C   UNL     1      77.057   5.776  17.528  1.00  0.00     0.267 C 
HETATM   11  H   UNL     1      75.399   4.923  18.332  1.00  0.00     0.277 HD
HETATM   12  H   UNL     1      75.734   4.454  16.756  1.00  0.00     0.277 HD
ENDBRANCH   8   9
ENDBRANCH   3   8
TORSDOF 2
ENDMDL
MODEL 8
REMARK VINA RESULT:      -3.6     17.997     19.357
REMARK  2 active torsions:
REMARK  status: ('A' for Active; 'I' for Inactive)
REMARK    1  A    between atoms: N_3  and  C_7 
REMARK    2  A    between atoms: C_4  and  C_7 
ROOT
HETATM    1  N   UNL     1      64.937   7.187   4.322  1.00  0.00    -0.375 N 
ATOM      2  HN  UNL     1      65.635   6.446   4.398  1.00  0.00     0.164 HD
HETATM    3  C   UNL     1      63.013   9.231   4.112  1.00  0.00    -0.030 A 
HETATM    4  C   UNL     1      63.974   7.161   3.377  1.00  0.00     0.088 A 
HETATM    5  C   UNL     1      64.930   8.243   5.161  1.00  0.00     0.088 A 
HETATM    6  C   UNL     1      63.005   8.143   3.233  1.00  0.00     0.026 A 
HETATM    7  C   UNL     1      64.000   9.269   5.103  1.00  0.00     0.026 A 
ENDROOT
BRANCH   3   8
HETATM    8  C   UNL     1      61.979  10.325   4.002  1.00  0.00     0.270 C 
BRANCH   8   9
HETATM    9  N   UNL     1      61.456  10.427   2.638  1.00  0.00    -0.075 N 
HETATM   10  C   UNL     1      61.786  11.713   2.044  1.00  0.00     0.267 C 
HETATM   11  H   UNL     1      60.442  10.322   2.662  1.00  0.00     0.277 HD
HETATM   12  H   UNL     1      61.882   9.692   2.074  1.00  0.00     0.277 HD
ENDBRANCH   8   9
ENDBRANCH   3   8
TORSDOF 2
ENDMDL
MODEL 9
REMARK VINA RESULT:      -3.4     11.341     13.069
REMARK  2 active torsions:
REMARK  status: ('A' for Active; 'I' for Inactive)
REMARK    1  A    between atoms: N_3  and  C_7 
REMARK    2  A    between atoms: C_4  and  C_7 
ROOT
HETATM    1  N   UNL     1      70.020   3.245   9.690  1.00  0.00    -0.375 N 
ATOM      2  HN  UNL     1      70.635   2.556  10.124  1.00  0.00     0.164 HD
HETATM    3  C   UNL     1      68.323   5.145   8.492  1.00  0.00    -0.030 A 
HETATM    4  C   UNL     1      70.488   4.422   9.226  1.00  0.00     0.088 A 
HETATM    5  C   UNL     1      68.696   3.025   9.550  1.00  0.00     0.088 A 
HETATM    6  C   UNL     1      69.693   5.390   8.629  1.00  0.00     0.026 A 
HETATM    7  C   UNL     1      67.822   3.925   8.961  1.00  0.00     0.026 A 
ENDROOT
BRANCH   3   8
HETATM    8  C   UNL     1      67.414   6.163   7.847  1.00  0.00     0.270 C 
BRANCH   8   9
HETATM    9  N   UNL     1      68.022   6.732   6.644  1.00  0.00    -0.075 N 
HETATM   10  C   UNL     1      67.551   6.056   5.446  1.00  0.00     0.267 C 
HETATM   11  H   UNL     1      69.035   6.634   6.706  1.00  0.00     0.277 HD
HETATM   12  H   UNL     1      67.758   7.716   6.584  1.00  0.00     0.277 HD
ENDBRANCH   8   9
ENDBRANCH   3   8
TORSDOF 2
ENDMDL
