MODEL 1
REMARK VINA RESULT:      -5.8      0.000      0.000
REMARK  5 active torsions:
REMARK  status: ('A' for Active; 'I' for Inactive)
REMARK    1  A    between atoms: N_1  and  C_10 
REMARK    2  A    between atoms: C_4  and  C_5 
REMARK    3  A    between atoms: C_4  and  C_7 
REMARK    4  A    between atoms: N_6  and  C_11 
REMARK    5  A    between atoms: C_10  and  C_11 
ROOT
HETATM    1  N   UNL     1      78.349  12.295  20.563  1.00  0.00    -0.070 N 
HETATM    2  C   UNL     1      79.092  11.036  20.394  1.00  0.00     0.235 C 
HETATM    3  C   UNL     1      76.951  12.141  20.122  1.00  0.00     0.235 C 
HETATM    4  C   UNL     1      77.601  10.345  18.479  1.00  0.00    -0.007 C 
HETATM    5  C   UNL     1      79.048  10.535  18.947  1.00  0.00     0.032 C 
HETATM    6  C   UNL     1      76.850  11.669  18.673  1.00  0.00     0.032 C 
HETATM    7  H   UNL     1      78.814  12.995  19.986  1.00  0.00     0.279 HD
ENDROOT
BRANCH   1   8
HETATM    8  C   UNL     1      78.364  12.751  21.973  1.00  0.00     0.262 C 
BRANCH   8   9
HETATM    9  C   UNL     1      79.524  12.172  22.811  1.00  0.00     0.257 C 
BRANCH   9  10
HETATM   10  N   UNL     1      80.120  13.189  23.683  1.00  0.00    -0.078 N 
HETATM   11  H   UNL     1      80.881  13.656  23.189  1.00  0.00     0.274 HD
HETATM   12  H   UNL     1      80.486  12.742  24.525  1.00  0.00     0.274 HD
HETATM   13  H   UNL     1      79.411  13.873  23.943  1.00  0.00     0.274 HD
ENDBRANCH   9  10
ENDBRANCH   8   9
ENDBRANCH   1   8
BRANCH   4  14
HETATM   14  C   UNL     1      77.552   9.846  17.023  1.00  0.00     0.043 C 
BRANCH  14  15
HETATM   15  C   UNL     1      77.173   8.387  16.903  1.00  0.00    -0.058 A 
HETATM   16  C   UNL     1      77.226   7.741  15.661  1.00  0.00     0.007 A 
HETATM   17  C   UNL     1      76.831   6.408  15.538  1.00  0.00     0.001 A 
HETATM   18  C   UNL     1      76.380   5.706  16.654  1.00  0.00     0.000 A 
HETATM   19  C   UNL     1      76.339   6.332  17.898  1.00  0.00     0.001 A 
HETATM   20  C   UNL     1      76.742   7.662  18.025  1.00  0.00     0.007 A 
ENDBRANCH  14  15
ENDBRANCH   4  14
TORSDOF 5
ENDMDL
MODEL 2
REMARK VINA RESULT:      -5.5     17.494     20.047
REMARK  5 active torsions:
REMARK  status: ('A' for Active; 'I' for Inactive)
REMARK    1  A    between atoms: N_1  and  C_10 
REMARK    2  A    between atoms: C_4  and  C_5 
REMARK    3  A    between atoms: C_4  and  C_7 
REMARK    4  A    between atoms: N_6  and  C_11 
REMARK    5  A    between atoms: C_10  and  C_11 
ROOT
HETATM    1  N   UNL     1      66.364   6.320   5.949  1.00  0.00    -0.070 N 
HETATM    2  C   UNL     1      65.409   6.771   6.973  1.00  0.00     0.235 C 
HETATM    3  C   UNL     1      66.305   7.187   4.758  1.00  0.00     0.235 C 
HETATM    4  C   UNL     1      63.891   7.749   5.210  1.00  0.00    -0.007 C 
HETATM    5  C   UNL     1      63.976   6.830   6.433  1.00  0.00     0.032 C 
HETATM    6  C   UNL     1      64.900   7.259   4.164  1.00  0.00     0.032 C 
HETATM    7  H   UNL     1      66.098   5.369   5.692  1.00  0.00     0.279 HD
ENDROOT
BRANCH   1   8
HETATM    8  C   UNL     1      67.752   6.304   6.467  1.00  0.00     0.262 C 
BRANCH   8   9
HETATM    9  C   UNL     1      67.941   5.454   7.741  1.00  0.00     0.257 C 
BRANCH   9  10
HETATM   10  N   UNL     1      68.374   6.272   8.878  1.00  0.00    -0.078 N 
HETATM   11  H   UNL     1      67.596   6.850   9.196  1.00  0.00     0.274 HD
HETATM   12  H   UNL     1      69.147   6.872   8.590  1.00  0.00     0.274 HD
HETATM   13  H   UNL     1      68.680   5.664   9.637  1.00  0.00     0.274 HD
ENDBRANCH   9  10
ENDBRANCH   8   9
ENDBRANCH   1   8
BRANCH   4  14
HETATM   14  C   UNL     1      62.453   7.806   4.663  1.00  0.00     0.043 C 
BRANCH  14  15
HETATM   15  C   UNL     1      62.213   8.973   3.732  1.00  0.00    -0.058 A 
HETATM   16  C   UNL     1      62.099   8.766   2.351  1.00  0.00     0.007 A 
HETATM   17  C   UNL     1      61.926   9.846   1.484  1.00  0.00     0.001 A 
HETATM   18  C   UNL     1      61.864  11.144   1.988  1.00  0.00     0.000 A 
HETATM   19  C   UNL     1      61.959  11.362   3.360  1.00  0.00     0.001 A 
HETATM   20  C   UNL     1      62.123  10.283   4.229  1.00  0.00     0.007 A 
ENDBRANCH  14  15
ENDBRANCH   4  14
TORSDOF 5
ENDMDL
MODEL 3
REMARK VINA RESULT:      -5.4      2.633      6.950
REMARK  5 active torsions:
REMARK  status: ('A' for Active; 'I' for Inactive)
REMARK    1  A    between atoms: N_1  and  C_10 
REMARK    2  A    between atoms: C_4  and  C_5 
REMARK    3  A    between atoms: C_4  and  C_7 
REMARK    4  A    between atoms: N_6  and  C_11 
REMARK    5  A    between atoms: C_10  and  C_11 
ROOT
HETATM    1  N   UNL     1      77.347   9.943  17.328  1.00  0.00    -0.070 N 
HETATM    2  C   UNL     1      78.423   9.683  18.297  1.00  0.00     0.235 C 
HETATM    3  C   UNL     1      77.027  11.382  17.273  1.00  0.00     0.235 C 
HETATM    4  C   UNL     1      77.760  11.699  19.663  1.00  0.00    -0.007 C 
HETATM    5  C   UNL     1      78.070  10.199  19.696  1.00  0.00     0.032 C 
HETATM    6  C   UNL     1      76.641  11.940  18.641  1.00  0.00     0.032 C 
HETATM    7  H   UNL     1      76.529   9.424  17.645  1.00  0.00     0.279 HD
ENDROOT
BRANCH   1   8
HETATM    8  C   UNL     1      77.713   9.478  15.970  1.00  0.00     0.262 C 
BRANCH   8   9
HETATM    9  C   UNL     1      77.280   8.029  15.661  1.00  0.00     0.257 C 
BRANCH   9  10
HETATM   10  N   UNL     1      77.327   7.744  14.224  1.00  0.00    -0.078 N 
HETATM   11  H   UNL     1      77.255   6.738  14.074  1.00  0.00     0.274 HD
HETATM   12  H   UNL     1      78.211   8.083  13.840  1.00  0.00     0.274 HD
HETATM   13  H   UNL     1      76.552   8.215  13.758  1.00  0.00     0.274 HD
ENDBRANCH   9  10
ENDBRANCH   8   9
ENDBRANCH   1   8
BRANCH   4  14
HETATM   14  C   UNL     1      77.401  12.219  21.067  1.00  0.00     0.043 C 
BRANCH  14  15
HETATM   15  C   UNL     1      78.602  12.379  21.971  1.00  0.00    -0.058 A 
HETATM   16  C   UNL     1      79.771  12.987  21.494  1.00  0.00     0.007 A 
HETATM   17  C   UNL     1      80.899  13.094  22.309  1.00  0.00     0.001 A 
HETATM   18  C   UNL     1      80.870  12.596  23.611  1.00  0.00     0.000 A 
HETATM   19  C   UNL     1      79.708  12.005  24.103  1.00  0.00     0.001 A 
HETATM   20  C   UNL     1      78.577  11.906  23.292  1.00  0.00     0.007 A 
ENDBRANCH  14  15
ENDBRANCH   4  14
TORSDOF 5
ENDMDL
MODEL 4
REMARK VINA RESULT:      -5.2     14.941     17.687
REMARK  5 active torsions:
REMARK  status: ('A' for Active; 'I' for Inactive)
REMARK    1  A    between atoms: N_1  and  C_10 
REMARK    2  A    between atoms: C_4  and  C_5 
REMARK    3  A    between atoms: C_4  and  C_7 
REMARK    4  A    between atoms: N_6  and  C_11 
REMARK    5  A    between atoms: C_10  and  C_11 
ROOT
HETATM    1  N   UNL     1      68.130   5.053   8.487  1.00  0.00    -0.070 N 
HETATM    2  C   UNL     1      68.101   4.825   7.034  1.00  0.00     0.235 C 
HETATM    3  C   UNL     1      66.887   5.704   8.941  1.00  0.00     0.235 C 
HETATM    4  C   UNL     1      66.568   6.801   6.695  1.00  0.00    -0.007 C 
HETATM    5  C   UNL     1      67.870   6.124   6.255  1.00  0.00     0.032 C 
HETATM    6  C   UNL     1      66.624   7.021   8.212  1.00  0.00     0.032 C 
HETATM    7  H   UNL     1      68.924   5.665   8.676  1.00  0.00     0.279 HD
ENDROOT
BRANCH   1   8
HETATM    8  C   UNL     1      68.313   3.787   9.234  1.00  0.00     0.262 C 
BRANCH   8   9
HETATM    9  C   UNL     1      69.729   3.597   9.816  1.00  0.00     0.257 C 
BRANCH   9  10
HETATM   10  N   UNL     1      69.736   2.629  10.918  1.00  0.00    -0.078 N 
HETATM   11  H   UNL     1      68.945   2.812  11.535  1.00  0.00     0.274 HD
HETATM   12  H   UNL     1      70.606   2.721  11.445  1.00  0.00     0.274 HD
HETATM   13  H   UNL     1      69.666   1.685  10.542  1.00  0.00     0.274 HD
ENDBRANCH   9  10
ENDBRANCH   8   9
ENDBRANCH   1   8
BRANCH   4  14
HETATM   14  C   UNL     1      66.336   8.109   5.916  1.00  0.00     0.043 C 
BRANCH  14  15
HETATM   15  C   UNL     1      65.168   8.037   4.960  1.00  0.00    -0.058 A 
HETATM   16  C   UNL     1      64.146   8.994   5.015  1.00  0.00     0.007 A 
HETATM   17  C   UNL     1      63.042   8.903   4.166  1.00  0.00     0.001 A 
HETATM   18  C   UNL     1      62.948   7.855   3.252  1.00  0.00     0.000 A 
HETATM   19  C   UNL     1      63.966   6.907   3.174  1.00  0.00     0.001 A 
HETATM   20  C   UNL     1      65.074   7.002   4.016  1.00  0.00     0.007 A 
ENDBRANCH  14  15
ENDBRANCH   4  14
TORSDOF 5
ENDMDL
MODEL 5
REMARK VINA RESULT:      -5.2     18.193     20.575
REMARK  5 active torsions:
REMARK  status: ('A' for Active; 'I' for Inactive)
REMARK    1  A    between atoms: N_1  and  C_10 
REMARK    2  A    between atoms: C_4  and  C_5 
REMARK    3  A    between atoms: C_4  and  C_7 
REMARK    4  A    between atoms: N_6  and  C_11 
REMARK    5  A    between atoms: C_10  and  C_11 
ROOT
HETATM    1  N   UNL     1      65.184   7.204   6.935  1.00  0.00    -0.070 N 
HETATM    2  C   UNL     1      65.726   7.944   5.784  1.00  0.00     0.235 C 
HETATM    3  C   UNL     1      63.940   6.503   6.570  1.00  0.00     0.235 C 
HETATM    4  C   UNL     1      63.418   8.220   4.802  1.00  0.00    -0.007 C 
HETATM    5  C   UNL     1      64.709   8.936   5.212  1.00  0.00     0.032 C 
HETATM    6  C   UNL     1      62.880   7.455   6.018  1.00  0.00     0.032 C 
HETATM    7  H   UNL     1      64.988   7.891   7.664  1.00  0.00     0.279 HD
ENDROOT
BRANCH   1   8
HETATM    8  C   UNL     1      66.159   6.219   7.457  1.00  0.00     0.262 C 
BRANCH   8   9
HETATM    9  C   UNL     1      66.770   6.597   8.823  1.00  0.00     0.257 C 
BRANCH   9  10
HETATM   10  N   UNL     1      68.210   6.325   8.867  1.00  0.00    -0.078 N 
HETATM   11  H   UNL     1      68.689   6.928   8.198  1.00  0.00     0.274 HD
HETATM   12  H   UNL     1      68.378   5.347   8.625  1.00  0.00     0.274 HD
HETATM   13  H   UNL     1      68.562   6.508   9.805  1.00  0.00     0.274 HD
ENDBRANCH   9  10
ENDBRANCH   8   9
ENDBRANCH   1   8
BRANCH   4  14
HETATM   14  C   UNL     1      62.392   9.217   4.231  1.00  0.00     0.043 C 
BRANCH  14  15
HETATM   15  C   UNL     1      61.751   8.744   2.945  1.00  0.00    -0.058 A 
HETATM   16  C   UNL     1      62.357   9.012   1.711  1.00  0.00     0.007 A 
HETATM   17  C   UNL     1      61.745   8.619   0.520  1.00  0.00     0.001 A 
HETATM   18  C   UNL     1      60.521   7.953   0.550  1.00  0.00     0.000 A 
HETATM   19  C   UNL     1      59.916   7.665   1.771  1.00  0.00     0.001 A 
HETATM   20  C   UNL     1      60.531   8.049   2.963  1.00  0.00     0.007 A 
ENDBRANCH  14  15
ENDBRANCH   4  14
TORSDOF 5
ENDMDL
MODEL 6
REMARK VINA RESULT:      -5.0     17.746     20.430
REMARK  5 active torsions:
REMARK  status: ('A' for Active; 'I' for Inactive)
REMARK    1  A    between atoms: N_1  and  C_10 
REMARK    2  A    between atoms: C_4  and  C_5 
REMARK    3  A    between atoms: C_4  and  C_7 
REMARK    4  A    between atoms: N_6  and  C_11 
REMARK    5  A    between atoms: C_10  and  C_11 
ROOT
HETATM    1  N   UNL     1      66.495   6.110   6.239  1.00  0.00    -0.070 N 
HETATM    2  C   UNL     1      66.627   7.153   5.209  1.00  0.00     0.235 C 
HETATM    3  C   UNL     1      65.149   5.510   6.208  1.00  0.00     0.235 C 
HETATM    4  C   UNL     1      64.153   7.638   5.300  1.00  0.00    -0.007 C 
HETATM    5  C   UNL     1      65.560   8.242   5.357  1.00  0.00     0.032 C 
HETATM    6  C   UNL     1      64.047   6.553   6.379  1.00  0.00     0.032 C 
HETATM    7  H   UNL     1      66.646   6.562   7.141  1.00  0.00     0.279 HD
ENDROOT
BRANCH   1   8
HETATM    8  C   UNL     1      67.506   5.041   6.064  1.00  0.00     0.262 C 
BRANCH   8   9
HETATM    9  C   UNL     1      66.973   3.779   5.353  1.00  0.00     0.257 C 
BRANCH   9  10
HETATM   10  N   UNL     1      67.479   3.678   3.980  1.00  0.00    -0.078 N 
HETATM   11  H   UNL     1      66.938   2.979   3.470  1.00  0.00     0.274 HD
HETATM   12  H   UNL     1      68.461   3.400   4.000  1.00  0.00     0.274 HD
HETATM   13  H   UNL     1      67.391   4.582   3.518  1.00  0.00     0.274 HD
ENDBRANCH   9  10
ENDBRANCH   8   9
ENDBRANCH   1   8
BRANCH   4  14
HETATM   14  C   UNL     1      63.077   8.730   5.453  1.00  0.00     0.043 C 
BRANCH  14  15
HETATM   15  C   UNL     1      62.621   9.309   4.133  1.00  0.00    -0.058 A 
HETATM   16  C   UNL     1      62.637   8.524   2.972  1.00  0.00     0.007 A 
HETATM   17  C   UNL     1      62.262   9.068   1.743  1.00  0.00     0.001 A 
HETATM   18  C   UNL     1      61.865  10.402   1.661  1.00  0.00     0.000 A 
HETATM   19  C   UNL     1      61.828  11.187   2.810  1.00  0.00     0.001 A 
HETATM   20  C   UNL     1      62.194  10.643   4.041  1.00  0.00     0.007 A 
ENDBRANCH  14  15
ENDBRANCH   4  14
TORSDOF 5
ENDMDL
MODEL 7
REMARK VINA RESULT:      -5.0      1.873      3.733
REMARK  5 active torsions:
REMARK  status: ('A' for Active; 'I' for Inactive)
REMARK    1  A    between atoms: N_1  and  C_10 
REMARK    2  A    between atoms: C_4  and  C_5 
REMARK    3  A    between atoms: C_4  and  C_7 
REMARK    4  A    between atoms: N_6  and  C_11 
REMARK    5  A    between atoms: C_10  and  C_11 
ROOT
HETATM    1  N   UNL     1      77.389   9.981  18.126  1.00  0.00    -0.070 N 
HETATM    2  C   UNL     1      78.147   9.704  16.895  1.00  0.00     0.235 C 
HETATM    3  C   UNL     1      77.132   8.736  18.873  1.00  0.00     0.235 C 
HETATM    4  C   UNL     1      77.182   7.378  16.752  1.00  0.00    -0.007 C 
HETATM    5  C   UNL     1      77.433   8.688  15.998  1.00  0.00     0.032 C 
HETATM    6  C   UNL     1      76.396   7.696  18.031  1.00  0.00     0.032 C 
HETATM    7  H   UNL     1      76.502  10.397  17.841  1.00  0.00     0.279 HD
ENDROOT
BRANCH   1   8
HETATM    8  C   UNL     1      78.105  10.934  19.005  1.00  0.00     0.262 C 
BRANCH   8   9
HETATM    9  C   UNL     1      77.183  11.751  19.934  1.00  0.00     0.257 C 
BRANCH   9  10
HETATM   10  N   UNL     1      77.542  11.575  21.344  1.00  0.00    -0.078 N 
HETATM   11  H   UNL     1      76.896  10.916  21.779  1.00  0.00     0.274 HD
HETATM   12  H   UNL     1      77.485  12.474  21.824  1.00  0.00     0.274 HD
HETATM   13  H   UNL     1      78.493  11.215  21.411  1.00  0.00     0.274 HD
ENDBRANCH   9  10
ENDBRANCH   8   9
ENDBRANCH   1   8
BRANCH   4  14
HETATM   14  C   UNL     1      76.460   6.355  15.855  1.00  0.00     0.043 C 
BRANCH  14  15
HETATM   15  C   UNL     1      76.129   5.063  16.567  1.00  0.00    -0.058 A 
HETATM   16  C   UNL     1      77.071   4.457  17.408  1.00  0.00     0.007 A 
HETATM   17  C   UNL     1      76.787   3.240  18.030  1.00  0.00     0.001 A 
HETATM   18  C   UNL     1      75.558   2.616  17.819  1.00  0.00     0.000 A 
HETATM   19  C   UNL     1      74.607   3.218  16.998  1.00  0.00     0.001 A 
HETATM   20  C   UNL     1      74.885   4.438  16.383  1.00  0.00     0.007 A 
ENDBRANCH  14  15
ENDBRANCH   4  14
TORSDOF 5
ENDMDL
MODEL 8
REMARK VINA RESULT:      -4.9     16.168     18.868
REMARK  5 active torsions:
REMARK  status: ('A' for Active; 'I' for Inactive)
REMARK    1  A    between atoms: N_1  and  C_10 
REMARK    2  A    between atoms: C_4  and  C_5 
REMARK    3  A    between atoms: C_4  and  C_7 
REMARK    4  A    between atoms: N_6  and  C_11 
REMARK    5  A    between atoms: C_10  and  C_11 
ROOT
HETATM    1  N   UNL     1      67.020   5.046   7.173  1.00  0.00    -0.070 N 
HETATM    2  C   UNL     1      65.556   5.106   7.319  1.00  0.00     0.235 C 
HETATM    3  C   UNL     1      67.541   6.301   6.603  1.00  0.00     0.235 C 
HETATM    4  C   UNL     1      65.372   6.728   5.395  1.00  0.00    -0.007 C 
HETATM    5  C   UNL     1      64.861   5.411   5.989  1.00  0.00     0.032 C 
HETATM    6  C   UNL     1      66.898   6.638   5.260  1.00  0.00     0.032 C 
HETATM    7  H   UNL     1      67.224   4.273   6.540  1.00  0.00     0.279 HD
ENDROOT
BRANCH   1   8
HETATM    8  C   UNL     1      67.687   4.790   8.471  1.00  0.00     0.262 C 
BRANCH   8   9
HETATM    9  C   UNL     1      69.066   5.468   8.617  1.00  0.00     0.257 C 
BRANCH   9  10
HETATM   10  N   UNL     1      70.092   4.518   9.056  1.00  0.00    -0.078 N 
HETATM   11  H   UNL     1      70.281   3.851   8.307  1.00  0.00     0.274 HD
HETATM   12  H   UNL     1      69.760   4.017   9.881  1.00  0.00     0.274 HD
HETATM   13  H   UNL     1      70.947   5.023   9.287  1.00  0.00     0.274 HD
ENDBRANCH   9  10
ENDBRANCH   8   9
ENDBRANCH   1   8
BRANCH   4  14
HETATM   14  C   UNL     1      64.677   7.035   4.055  1.00  0.00     0.043 C 
BRANCH  14  15
HETATM   15  C   UNL     1      63.771   8.243   4.116  1.00  0.00    -0.058 A 
HETATM   16  C   UNL     1      62.822   8.468   3.109  1.00  0.00     0.007 A 
HETATM   17  C   UNL     1      62.016   9.607   3.136  1.00  0.00     0.001 A 
HETATM   18  C   UNL     1      62.149  10.534   4.169  1.00  0.00     0.000 A 
HETATM   19  C   UNL     1      63.076  10.313   5.185  1.00  0.00     0.001 A 
HETATM   20  C   UNL     1      63.876   9.170   5.164  1.00  0.00     0.007 A 
ENDBRANCH  14  15
ENDBRANCH   4  14
TORSDOF 5
ENDMDL
MODEL 9
REMARK VINA RESULT:      -4.8     15.505     18.354
REMARK  5 active torsions:
REMARK  status: ('A' for Active; 'I' for Inactive)
REMARK    1  A    between atoms: N_1  and  C_10 
REMARK    2  A    between atoms: C_4  and  C_5 
REMARK    3  A    between atoms: C_4  and  C_7 
REMARK    4  A    between atoms: N_6  and  C_11 
REMARK    5  A    between atoms: C_10  and  C_11 
ROOT
HETATM    1  N   UNL     1      63.947   7.954   4.657  1.00  0.00    -0.070 N 
HETATM    2  C   UNL     1      65.119   8.569   5.301  1.00  0.00     0.235 C 
HETATM    3  C   UNL     1      63.715   6.595   5.179  1.00  0.00     0.235 C 
HETATM    4  C   UNL     1      66.165   6.307   5.692  1.00  0.00    -0.007 C 
HETATM    5  C   UNL     1      66.379   7.716   5.131  1.00  0.00     0.032 C 
HETATM    6  C   UNL     1      64.936   5.693   5.008  1.00  0.00     0.032 C 
HETATM    7  H   UNL     1      64.148   7.906   3.658  1.00  0.00     0.279 HD
ENDROOT
BRANCH   1   8
HETATM    8  C   UNL     1      62.724   8.765   4.861  1.00  0.00     0.262 C 
BRANCH   8   9
HETATM    9  C   UNL     1      62.999  10.234   5.249  1.00  0.00     0.257 C 
BRANCH   9  10
HETATM   10  N   UNL     1      62.249  11.167   4.402  1.00  0.00    -0.078 N 
HETATM   11  H   UNL     1      62.614  11.129   3.450  1.00  0.00     0.274 HD
HETATM   12  H   UNL     1      62.351  12.114   4.768  1.00  0.00     0.274 HD
HETATM   13  H   UNL     1      61.264  10.907   4.400  1.00  0.00     0.274 HD
ENDBRANCH   9  10
ENDBRANCH   8   9
ENDBRANCH   1   8
BRANCH   4  14
HETATM   14  C   UNL     1      67.429   5.445   5.518  1.00  0.00     0.043 C 
BRANCH  14  15
HETATM   15  C   UNL     1      67.996   4.943   6.827  1.00  0.00    -0.058 A 
HETATM   16  C   UNL     1      68.048   5.785   7.946  1.00  0.00     0.007 A 
HETATM   17  C   UNL     1      68.613   5.342   9.142  1.00  0.00     0.001 A 
HETATM   18  C   UNL     1      69.132   4.051   9.233  1.00  0.00     0.000 A 
HETATM   19  C   UNL     1      69.071   3.198   8.134  1.00  0.00     0.001 A 
HETATM   20  C   UNL     1      68.498   3.637   6.940  1.00  0.00     0.007 A 
ENDBRANCH  14  15
ENDBRANCH   4  14
TORSDOF 5
ENDMDL
