MODEL 1
REMARK VINA RESULT:      -5.4      0.000      0.000
REMARK  3 active torsions:
REMARK  status: ('A' for Active; 'I' for Inactive)
REMARK    1  A    between atoms: N_1  and  C_7 
REMARK    2  A    between atoms: C_5  and  C_10 
REMARK    3  A    between atoms: C_10  and  O_16 
ROOT
HETATM    1  N   UNL     1      67.558   6.388   6.631  1.00  0.00    -0.261 N 
HETATM    2  N   UNL     1      68.360   7.200   5.893  1.00  0.00    -0.304 N 
ATOM      3  HN  UNL     1      69.380   7.231   5.892  1.00  0.00     0.186 HD
HETATM    4  C   UNL     1      66.224   6.753   6.500  1.00  0.00     0.040 C 
HETATM    5  C   UNL     1      66.178   7.729   5.512  1.00  0.00     0.006 C 
HETATM    6  C   UNL     1      67.526   7.943   5.174  1.00  0.00     0.119 C 
HETATM    7  C   UNL     1      65.102   6.263   7.347  1.00  0.00     0.071 C 
ENDROOT
BRANCH   1   8
HETATM    8  C   UNL     1      68.147   5.339   7.393  1.00  0.00     0.056 A 
HETATM    9  C   UNL     1      68.253   4.059   6.821  1.00  0.00     0.034 A 
HETATM   10  C   UNL     1      68.850   3.020   7.538  1.00  0.00     0.044 A 
HETATM   11  C   UNL     1      69.301   3.251   8.832  1.00  0.00     0.116 A 
HETATM   12  C   UNL     1      69.165   4.502   9.425  1.00  0.00     0.044 A 
HETATM   13  F   UNL     1      69.865   2.253   9.524  1.00  0.00    -0.206 F 
HETATM   14  C   UNL     1      68.586   5.551   8.708  1.00  0.00     0.034 A 
ENDBRANCH   1   8
BRANCH   5  15
HETATM   15  C   UNL     1      64.991   8.445   4.979  1.00  0.00     0.206 C 
BRANCH  15  16
HETATM   16  O   UNL     1      64.717   9.630   5.718  1.00  0.00    -0.396 OA
HETATM   17  H   UNL     1      64.491  10.348   5.108  1.00  0.00     0.209 HD
ENDBRANCH  15  16
ENDBRANCH   5  15
TORSDOF 3
ENDMDL
MODEL 2
REMARK VINA RESULT:      -5.4      3.651      5.272
REMARK  3 active torsions:
REMARK  status: ('A' for Active; 'I' for Inactive)
REMARK    1  A    between atoms: N_1  and  C_7 
REMARK    2  A    between atoms: C_5  and  C_10 
REMARK    3  A    between atoms: C_10  and  O_16 
ROOT
HETATM    1  N   UNL     1      63.484   9.050   4.867  1.00  0.00    -0.261 N 
HETATM    2  N   UNL     1      63.108  10.137   5.590  1.00  0.00    -0.304 N 
ATOM      3  HN  UNL     1      63.285  10.317   6.579  1.00  0.00     0.186 HD
HETATM    4  C   UNL     1      62.913   9.073   3.600  1.00  0.00     0.040 C 
HETATM    5  C   UNL     1      62.288  10.307   3.472  1.00  0.00     0.006 C 
HETATM    6  C   UNL     1      62.461  10.915   4.728  1.00  0.00     0.119 C 
HETATM    7  C   UNL     1      62.891   7.938   2.637  1.00  0.00     0.071 C 
ENDROOT
BRANCH   1   8
HETATM    8  C   UNL     1      64.355   8.091   5.458  1.00  0.00     0.056 A 
HETATM    9  C   UNL     1      65.741   8.220   5.266  1.00  0.00     0.034 A 
HETATM   10  C   UNL     1      66.617   7.307   5.858  1.00  0.00     0.044 A 
HETATM   11  C   UNL     1      66.106   6.252   6.604  1.00  0.00     0.116 A 
HETATM   12  C   UNL     1      64.734   6.089   6.767  1.00  0.00     0.044 A 
HETATM   13  F   UNL     1      66.945   5.371   7.163  1.00  0.00    -0.206 F 
HETATM   14  C   UNL     1      63.853   7.008   6.195  1.00  0.00     0.034 A 
ENDBRANCH   1   8
BRANCH   5  15
HETATM   15  C   UNL     1      61.540  10.844   2.307  1.00  0.00     0.206 C 
BRANCH  15  16
HETATM   16  O   UNL     1      62.097  12.070   1.846  1.00  0.00    -0.396 OA
HETATM   17  H   UNL     1      61.387  12.714   1.702  1.00  0.00     0.209 HD
ENDBRANCH  15  16
ENDBRANCH   5  15
TORSDOF 3
ENDMDL
MODEL 3
REMARK VINA RESULT:      -5.3     13.690     16.103
REMARK  3 active torsions:
REMARK  status: ('A' for Active; 'I' for Inactive)
REMARK    1  A    between atoms: N_1  and  C_7 
REMARK    2  A    between atoms: C_5  and  C_10 
REMARK    3  A    between atoms: C_10  and  O_16 
ROOT
HETATM    1  N   UNL     1      77.406   1.790  18.570  1.00  0.00    -0.261 N 
HETATM    2  N   UNL     1      78.134   2.233  19.629  1.00  0.00    -0.304 N 
ATOM      3  HN  UNL     1      78.205   3.190  19.976  1.00  0.00     0.186 HD
HETATM    4  C   UNL     1      77.695   0.460  18.289  1.00  0.00     0.040 C 
HETATM    5  C   UNL     1      78.514   0.010  19.317  1.00  0.00     0.006 C 
HETATM    6  C   UNL     1      78.730   1.149  20.112  1.00  0.00     0.119 C 
HETATM    7  C   UNL     1      77.290  -0.276  17.060  1.00  0.00     0.071 C 
ENDROOT
BRANCH   1   8
HETATM    8  C   UNL     1      76.503   2.683  17.926  1.00  0.00     0.056 A 
HETATM    9  C   UNL     1      75.257   2.198  17.495  1.00  0.00     0.034 A 
HETATM   10  C   UNL     1      74.344   3.061  16.884  1.00  0.00     0.044 A 
HETATM   11  C   UNL     1      74.692   4.389  16.673  1.00  0.00     0.116 A 
HETATM   12  C   UNL     1      75.939   4.873  17.058  1.00  0.00     0.044 A 
HETATM   13  F   UNL     1      73.821   5.214  16.079  1.00  0.00    -0.206 F 
HETATM   14  C   UNL     1      76.850   4.021  17.686  1.00  0.00     0.034 A 
ENDBRANCH   1   8
BRANCH   5  15
HETATM   15  C   UNL     1      79.097  -1.343  19.505  1.00  0.00     0.206 C 
BRANCH  15  16
HETATM   16  O   UNL     1      80.263  -1.527  18.710  1.00  0.00    -0.396 OA
HETATM   17  H   UNL     1      80.889  -2.098  19.180  1.00  0.00     0.209 HD
ENDBRANCH  15  16
ENDBRANCH   5  15
TORSDOF 3
ENDMDL
MODEL 4
REMARK VINA RESULT:      -5.3      1.097      2.215
REMARK  3 active torsions:
REMARK  status: ('A' for Active; 'I' for Inactive)
REMARK    1  A    between atoms: N_1  and  C_7 
REMARK    2  A    between atoms: C_5  and  C_10 
REMARK    3  A    between atoms: C_10  and  O_16 
ROOT
HETATM    1  N   UNL     1      66.258   6.113   6.790  1.00  0.00    -0.261 N 
HETATM    2  N   UNL     1      64.982   5.672   6.950  1.00  0.00    -0.304 N 
ATOM      3  HN  UNL     1      64.675   4.808   7.396  1.00  0.00     0.186 HD
HETATM    4  C   UNL     1      66.296   7.243   5.981  1.00  0.00     0.040 C 
HETATM    5  C   UNL     1      64.976   7.616   5.763  1.00  0.00     0.006 C 
HETATM    6  C   UNL     1      64.223   6.615   6.400  1.00  0.00     0.119 C 
HETATM    7  C   UNL     1      67.521   7.842   5.384  1.00  0.00     0.071 C 
ENDROOT
BRANCH   1   8
HETATM    8  C   UNL     1      67.319   5.410   7.427  1.00  0.00     0.056 A 
HETATM    9  C   UNL     1      67.797   5.874   8.664  1.00  0.00     0.034 A 
HETATM   10  C   UNL     1      68.821   5.187   9.321  1.00  0.00     0.044 A 
HETATM   11  C   UNL     1      69.386   4.066   8.725  1.00  0.00     0.116 A 
HETATM   12  C   UNL     1      68.950   3.620   7.481  1.00  0.00     0.044 A 
HETATM   13  F   UNL     1      70.373   3.412   9.349  1.00  0.00    -0.206 F 
HETATM   14  C   UNL     1      67.915   4.291   6.827  1.00  0.00     0.034 A 
ENDBRANCH   1   8
BRANCH   5  15
HETATM   15  C   UNL     1      64.462   8.765   4.975  1.00  0.00     0.206 C 
BRANCH  15  16
HETATM   16  O   UNL     1      64.526   9.979   5.715  1.00  0.00    -0.396 OA
HETATM   17  H   UNL     1      63.664  10.423   5.685  1.00  0.00     0.209 HD
ENDBRANCH  15  16
ENDBRANCH   5  15
TORSDOF 3
ENDMDL
MODEL 5
REMARK VINA RESULT:      -5.2      5.575      8.356
REMARK  3 active torsions:
REMARK  status: ('A' for Active; 'I' for Inactive)
REMARK    1  A    between atoms: N_1  and  C_7 
REMARK    2  A    between atoms: C_5  and  C_10 
REMARK    3  A    between atoms: C_10  and  O_16 
ROOT
HETATM    1  N   UNL     1      62.781   8.060   4.774  1.00  0.00    -0.261 N 
HETATM    2  N   UNL     1      61.789   7.218   5.169  1.00  0.00    -0.304 N 
ATOM      3  HN  UNL     1      60.784   7.343   5.051  1.00  0.00     0.186 HD
HETATM    4  C   UNL     1      64.013   7.642   5.264  1.00  0.00     0.040 C 
HETATM    5  C   UNL     1      63.803   6.401   5.850  1.00  0.00     0.006 C 
HETATM    6  C   UNL     1      62.417   6.196   5.742  1.00  0.00     0.119 C 
HETATM    7  C   UNL     1      65.268   8.443   5.252  1.00  0.00     0.071 C 
ENDROOT
BRANCH   1   8
HETATM    8  C   UNL     1      62.453   9.185   3.966  1.00  0.00     0.056 A 
HETATM    9  C   UNL     1      62.322   9.011   2.578  1.00  0.00     0.034 A 
HETATM   10  C   UNL     1      61.977  10.095   1.767  1.00  0.00     0.044 A 
HETATM   11  C   UNL     1      61.801  11.350   2.338  1.00  0.00     0.116 A 
HETATM   12  C   UNL     1      61.968  11.544   3.706  1.00  0.00     0.044 A 
HETATM   13  F   UNL     1      61.478  12.391   1.560  1.00  0.00    -0.206 F 
HETATM   14  C   UNL     1      62.296  10.462   4.525  1.00  0.00     0.034 A 
ENDBRANCH   1   8
BRANCH   5  15
HETATM   15  C   UNL     1      64.796   5.515   6.510  1.00  0.00     0.206 C 
BRANCH  15  16
HETATM   16  O   UNL     1      65.191   4.444   5.660  1.00  0.00    -0.396 OA
HETATM   17  H   UNL     1      64.440   3.848   5.519  1.00  0.00     0.209 HD
ENDBRANCH  15  16
ENDBRANCH   5  15
TORSDOF 3
ENDMDL
MODEL 6
REMARK VINA RESULT:      -5.2      3.913      6.131
REMARK  3 active torsions:
REMARK  status: ('A' for Active; 'I' for Inactive)
REMARK    1  A    between atoms: N_1  and  C_7 
REMARK    2  A    between atoms: C_5  and  C_10 
REMARK    3  A    between atoms: C_10  and  O_16 
ROOT
HETATM    1  N   UNL     1      67.805   4.023   8.050  1.00  0.00    -0.261 N 
HETATM    2  N   UNL     1      66.871   3.070   8.308  1.00  0.00    -0.304 N 
ATOM      3  HN  UNL     1      65.882   3.086   8.061  1.00  0.00     0.186 HD
HETATM    4  C   UNL     1      69.002   3.734   8.694  1.00  0.00     0.040 C 
HETATM    5  C   UNL     1      68.859   2.466   9.242  1.00  0.00     0.006 C 
HETATM    6  C   UNL     1      67.529   2.112   8.953  1.00  0.00     0.119 C 
HETATM    7  C   UNL     1      70.151   4.668   8.851  1.00  0.00     0.071 C 
ENDROOT
BRANCH   1   8
HETATM    8  C   UNL     1      67.461   5.121   7.212  1.00  0.00     0.056 A 
HETATM    9  C   UNL     1      66.944   6.289   7.799  1.00  0.00     0.034 A 
HETATM   10  C   UNL     1      66.623   7.389   7.000  1.00  0.00     0.044 A 
HETATM   11  C   UNL     1      66.783   7.307   5.622  1.00  0.00     0.116 A 
HETATM   12  C   UNL     1      67.255   6.141   5.025  1.00  0.00     0.044 A 
HETATM   13  F   UNL     1      66.467   8.357   4.855  1.00  0.00    -0.206 F 
HETATM   14  C   UNL     1      67.595   5.044   5.818  1.00  0.00     0.034 A 
ENDBRANCH   1   8
BRANCH   5  15
HETATM   15  C   UNL     1      69.850   1.682  10.022  1.00  0.00     0.206 C 
BRANCH  15  16
HETATM   16  O   UNL     1      69.878   2.082  11.388  1.00  0.00    -0.396 OA
HETATM   17  H   UNL     1      70.055   3.034  11.443  1.00  0.00     0.209 HD
ENDBRANCH  15  16
ENDBRANCH   5  15
TORSDOF 3
ENDMDL
MODEL 7
REMARK VINA RESULT:      -5.1      3.834      5.819
REMARK  3 active torsions:
REMARK  status: ('A' for Active; 'I' for Inactive)
REMARK    1  A    between atoms: N_1  and  C_7 
REMARK    2  A    between atoms: C_5  and  C_10 
REMARK    3  A    between atoms: C_10  and  O_16 
ROOT
HETATM    1  N   UNL     1      68.185   5.042   8.017  1.00  0.00    -0.261 N 
HETATM    2  N   UNL     1      69.337   5.486   8.584  1.00  0.00    -0.304 N 
ATOM      3  HN  UNL     1      69.810   6.375   8.417  1.00  0.00     0.186 HD
HETATM    4  C   UNL     1      67.944   3.715   8.353  1.00  0.00     0.040 C 
HETATM    5  C   UNL     1      68.899   3.369   9.300  1.00  0.00     0.006 C 
HETATM    6  C   UNL     1      69.713   4.510   9.405  1.00  0.00     0.119 C 
HETATM    7  C   UNL     1      66.930   2.829   7.718  1.00  0.00     0.071 C 
ENDROOT
BRANCH   1   8
HETATM    8  C   UNL     1      67.424   5.931   7.205  1.00  0.00     0.056 A 
HETATM    9  C   UNL     1      68.005   6.450   6.036  1.00  0.00     0.034 A 
HETATM   10  C   UNL     1      67.270   7.303   5.210  1.00  0.00     0.044 A 
HETATM   11  C   UNL     1      65.978   7.664   5.572  1.00  0.00     0.116 A 
HETATM   12  C   UNL     1      65.406   7.190   6.749  1.00  0.00     0.044 A 
HETATM   13  F   UNL     1      65.276   8.489   4.786  1.00  0.00    -0.206 F 
HETATM   14  C   UNL     1      66.127   6.321   7.571  1.00  0.00     0.034 A 
ENDBRANCH   1   8
BRANCH   5  15
HETATM   15  C   UNL     1      69.078   2.069   9.995  1.00  0.00     0.206 C 
BRANCH  15  16
HETATM   16  O   UNL     1      69.728   2.231  11.251  1.00  0.00    -0.396 OA
HETATM   17  H   UNL     1      69.140   2.700  11.862  1.00  0.00     0.209 HD
ENDBRANCH  15  16
ENDBRANCH   5  15
TORSDOF 3
ENDMDL
MODEL 8
REMARK VINA RESULT:      -4.8      3.728      5.939
REMARK  3 active torsions:
REMARK  status: ('A' for Active; 'I' for Inactive)
REMARK    1  A    between atoms: N_1  and  C_7 
REMARK    2  A    between atoms: C_5  and  C_10 
REMARK    3  A    between atoms: C_10  and  O_16 
ROOT
HETATM    1  N   UNL     1      66.375   5.967   6.582  1.00  0.00    -0.261 N 
HETATM    2  N   UNL     1      66.770   4.952   5.769  1.00  0.00    -0.304 N 
ATOM      3  HN  UNL     1      66.316   4.628   4.915  1.00  0.00     0.186 HD
HETATM    4  C   UNL     1      67.139   6.000   7.743  1.00  0.00     0.040 C 
HETATM    5  C   UNL     1      68.156   5.071   7.572  1.00  0.00     0.006 C 
HETATM    6  C   UNL     1      67.876   4.474   6.330  1.00  0.00     0.119 C 
HETATM    7  C   UNL     1      66.832   6.800   8.961  1.00  0.00     0.071 C 
ENDROOT
BRANCH   1   8
HETATM    8  C   UNL     1      65.304   6.809   6.170  1.00  0.00     0.056 A 
HETATM    9  C   UNL     1      65.595   7.970   5.435  1.00  0.00     0.034 A 
HETATM   10  C   UNL     1      64.558   8.799   4.998  1.00  0.00     0.044 A 
HETATM   11  C   UNL     1      63.245   8.485   5.326  1.00  0.00     0.116 A 
HETATM   12  C   UNL     1      62.947   7.360   6.088  1.00  0.00     0.044 A 
HETATM   13  F   UNL     1      62.252   9.283   4.914  1.00  0.00    -0.206 F 
HETATM   14  C   UNL     1      63.975   6.517   6.514  1.00  0.00     0.034 A 
ENDBRANCH   1   8
BRANCH   5  15
HETATM   15  C   UNL     1      69.253   4.722   8.511  1.00  0.00     0.206 C 
BRANCH  15  16
HETATM   16  O   UNL     1      70.227   5.758   8.588  1.00  0.00    -0.396 OA
HETATM   17  H   UNL     1      70.223   6.141   9.478  1.00  0.00     0.209 HD
ENDBRANCH  15  16
ENDBRANCH   5  15
TORSDOF 3
ENDMDL
MODEL 9
REMARK VINA RESULT:      -4.7      6.200      8.589
REMARK  3 active torsions:
REMARK  status: ('A' for Active; 'I' for Inactive)
REMARK    1  A    between atoms: N_1  and  C_7 
REMARK    2  A    between atoms: C_5  and  C_10 
REMARK    3  A    between atoms: C_10  and  O_16 
ROOT
HETATM    1  N   UNL     1      62.610   7.680   4.403  1.00  0.00    -0.261 N 
HETATM    2  N   UNL     1      63.898   7.333   4.662  1.00  0.00    -0.304 N 
ATOM      3  HN  UNL     1      64.745   7.769   4.297  1.00  0.00     0.186 HD
HETATM    4  C   UNL     1      61.726   6.749   4.936  1.00  0.00     0.040 C 
HETATM    5  C   UNL     1      62.489   5.874   5.699  1.00  0.00     0.006 C 
HETATM    6  C   UNL     1      63.813   6.302   5.497  1.00  0.00     0.119 C 
HETATM    7  C   UNL     1      60.271   6.661   4.635  1.00  0.00     0.071 C 
ENDROOT
BRANCH   1   8
HETATM    8  C   UNL     1      62.347   8.870   3.667  1.00  0.00     0.056 A 
HETATM    9  C   UNL     1      62.186  10.079   4.365  1.00  0.00     0.034 A 
HETATM   10  C   UNL     1      61.954  11.265   3.664  1.00  0.00     0.044 A 
HETATM   11  C   UNL     1      61.846  11.233   2.279  1.00  0.00     0.116 A 
HETATM   12  C   UNL     1      61.962  10.036   1.579  1.00  0.00     0.044 A 
HETATM   13  F   UNL     1      61.614  12.367   1.607  1.00  0.00    -0.206 F 
HETATM   14  C   UNL     1      62.213   8.849   2.271  1.00  0.00     0.034 A 
ENDBRANCH   1   8
BRANCH   5  15
HETATM   15  C   UNL     1      62.032   4.704   6.492  1.00  0.00     0.206 C 
BRANCH  15  16
HETATM   16  O   UNL     1      62.939   3.612   6.385  1.00  0.00    -0.396 OA
HETATM   17  H   UNL     1      62.693   2.923   7.021  1.00  0.00     0.209 HD
ENDBRANCH  15  16
ENDBRANCH   5  15
TORSDOF 3
ENDMDL
