MODEL 1
REMARK VINA RESULT:      -5.9      0.000      0.000
REMARK  2 active torsions:
REMARK  status: ('A' for Active; 'I' for Inactive)
REMARK    1  A    between atoms: C_2  and  C_3 
REMARK    2  A    between atoms: C_3  and  O_8 
ROOT
HETATM    1  N   UNL     1      76.985   6.412  15.186  1.00  0.00    -0.376 N 
HETATM    2  C   UNL     1      77.209   6.179  16.642  1.00  0.00     0.186 C 
HETATM    3  C   UNL     1      77.335   7.765  15.010  1.00  0.00     0.035 A 
HETATM    4  C   UNL     1      77.114   7.552  17.346  1.00  0.00     0.076 C 
HETATM    5  C   UNL     1      77.386   8.476  16.207  1.00  0.00    -0.029 A 
HETATM    6  C   UNL     1      77.484   8.409  13.797  1.00  0.00     0.029 A 
HETATM    7  C   UNL     1      77.616   9.841  16.229  1.00  0.00     0.009 A 
HETATM    8  C   UNL     1      77.726   9.785  13.801  1.00  0.00     0.002 A 
HETATM    9  C   UNL     1      77.794  10.495  15.009  1.00  0.00     0.001 A 
HETATM   10  H   UNL     1      76.668   5.772  14.510  1.00  0.00     0.160 HD
ENDROOT
BRANCH   2  11
HETATM   11  C   UNL     1      76.215   5.181  17.236  1.00  0.00     0.281 C 
HETATM   12  O   UNL     1      75.127   4.911  16.739  1.00  0.00    -0.263 OA
BRANCH  11  13
HETATM   13  O   UNL     1      76.656   4.698  18.436  1.00  0.00    -0.325 OA
HETATM   14  C   UNL     1      76.914   3.295  18.446  1.00  0.00     0.213 C 
ENDBRANCH  11  13
ENDBRANCH   2  11
TORSDOF 2
ENDMDL
MODEL 2
REMARK VINA RESULT:      -5.8      2.200      5.832
REMARK  2 active torsions:
REMARK  status: ('A' for Active; 'I' for Inactive)
REMARK    1  A    between atoms: C_2  and  C_3 
REMARK    2  A    between atoms: C_3  and  O_8 
ROOT
HETATM    1  N   UNL     1      77.415   4.777  17.860  1.00  0.00    -0.376 N 
HETATM    2  C   UNL     1      76.866   5.730  16.852  1.00  0.00     0.186 C 
HETATM    3  C   UNL     1      76.650   3.611  17.665  1.00  0.00     0.035 A 
HETATM    4  C   UNL     1      75.426   5.272  16.525  1.00  0.00     0.076 C 
HETATM    5  C   UNL     1      75.481   3.840  16.941  1.00  0.00    -0.029 A 
HETATM    6  C   UNL     1      76.905   2.375  18.225  1.00  0.00     0.029 A 
HETATM    7  C   UNL     1      74.551   2.836  16.733  1.00  0.00     0.009 A 
HETATM    8  C   UNL     1      75.982   1.347  18.016  1.00  0.00     0.002 A 
HETATM    9  C   UNL     1      74.814   1.576  17.273  1.00  0.00     0.001 A 
HETATM   10  H   UNL     1      78.141   4.929  18.507  1.00  0.00     0.160 HD
ENDROOT
BRANCH   2  11
HETATM   11  C   UNL     1      76.889   7.178  17.340  1.00  0.00     0.281 C 
HETATM   12  O   UNL     1      76.553   7.534  18.465  1.00  0.00    -0.263 OA
BRANCH  11  13
HETATM   13  O   UNL     1      77.247   8.034  16.337  1.00  0.00    -0.325 OA
HETATM   14  C   UNL     1      77.624   9.336  16.780  1.00  0.00     0.213 C 
ENDBRANCH  11  13
ENDBRANCH   2  11
TORSDOF 2
ENDMDL
MODEL 3
REMARK VINA RESULT:      -5.4     17.162     18.274
REMARK  2 active torsions:
REMARK  status: ('A' for Active; 'I' for Inactive)
REMARK    1  A    between atoms: C_2  and  C_3 
REMARK    2  A    between atoms: C_3  and  O_8 
ROOT
HETATM    1  N   UNL     1      63.096   9.279   5.633  1.00  0.00    -0.376 N 
HETATM    2  C   UNL     1      63.140   7.798   5.468  1.00  0.00     0.186 C 
HETATM    3  C   UNL     1      62.589   9.735   4.400  1.00  0.00     0.035 A 
HETATM    4  C   UNL     1      63.213   7.507   3.952  1.00  0.00     0.076 C 
HETATM    5  C   UNL     1      62.667   8.777   3.391  1.00  0.00    -0.029 A 
HETATM    6  C   UNL     1      62.179  11.024   4.122  1.00  0.00     0.029 A 
HETATM    7  C   UNL     1      62.309   9.070   2.087  1.00  0.00     0.009 A 
HETATM    8  C   UNL     1      61.805  11.335   2.812  1.00  0.00     0.002 A 
HETATM    9  C   UNL     1      61.868  10.363   1.802  1.00  0.00     0.001 A 
HETATM   10  H   UNL     1      63.358   9.812   6.418  1.00  0.00     0.160 HD
ENDROOT
BRANCH   2  11
HETATM   11  C   UNL     1      64.312   7.160   6.213  1.00  0.00     0.281 C 
HETATM   12  O   UNL     1      64.347   5.989   6.576  1.00  0.00    -0.263 OA
BRANCH  11  13
HETATM   13  O   UNL     1      65.278   8.084   6.500  1.00  0.00    -0.325 OA
HETATM   14  C   UNL     1      66.493   7.911   5.773  1.00  0.00     0.213 C 
ENDBRANCH  11  13
ENDBRANCH   2  11
TORSDOF 2
ENDMDL
MODEL 4
REMARK VINA RESULT:      -5.3      2.542      6.019
REMARK  2 active torsions:
REMARK  status: ('A' for Active; 'I' for Inactive)
REMARK    1  A    between atoms: C_2  and  C_3 
REMARK    2  A    between atoms: C_3  and  O_8 
ROOT
HETATM    1  N   UNL     1      75.047   4.517  16.790  1.00  0.00    -0.376 N 
HETATM    2  C   UNL     1      76.007   5.151  17.740  1.00  0.00     0.186 C 
HETATM    3  C   UNL     1      75.222   3.138  17.013  1.00  0.00     0.035 A 
HETATM    4  C   UNL     1      77.106   4.108  18.044  1.00  0.00     0.076 C 
HETATM    5  C   UNL     1      76.403   2.841  17.691  1.00  0.00    -0.029 A 
HETATM    6  C   UNL     1      74.420   2.131  16.513  1.00  0.00     0.029 A 
HETATM    7  C   UNL     1      76.798   1.533  17.916  1.00  0.00     0.009 A 
HETATM    8  C   UNL     1      74.799   0.805  16.739  1.00  0.00     0.002 A 
HETATM    9  C   UNL     1      75.980   0.509  17.437  1.00  0.00     0.001 A 
HETATM   10  H   UNL     1      74.436   4.960  16.158  1.00  0.00     0.160 HD
ENDROOT
BRANCH   2  11
HETATM   11  C   UNL     1      76.607   6.445  17.191  1.00  0.00     0.281 C 
HETATM   12  O   UNL     1      76.930   6.615  16.020  1.00  0.00    -0.263 OA
BRANCH  11  13
HETATM   13  O   UNL     1      76.820   7.355  18.188  1.00  0.00    -0.325 OA
HETATM   14  C   UNL     1      77.259   8.633  17.734  1.00  0.00     0.213 C 
ENDBRANCH  11  13
ENDBRANCH   2  11
TORSDOF 2
ENDMDL
MODEL 5
REMARK VINA RESULT:      -5.2     12.858     14.205
REMARK  2 active torsions:
REMARK  status: ('A' for Active; 'I' for Inactive)
REMARK    1  A    between atoms: C_2  and  C_3 
REMARK    2  A    between atoms: C_3  and  O_8 
ROOT
HETATM    1  N   UNL     1      67.414   6.957   8.043  1.00  0.00    -0.376 N 
HETATM    2  C   UNL     1      67.077   7.151   6.603  1.00  0.00     0.186 C 
HETATM    3  C   UNL     1      68.082   5.718   8.063  1.00  0.00     0.035 A 
HETATM    4  C   UNL     1      67.045   5.752   5.948  1.00  0.00     0.076 C 
HETATM    5  C   UNL     1      67.875   4.968   6.907  1.00  0.00    -0.029 A 
HETATM    6  C   UNL     1      68.766   5.186   9.139  1.00  0.00     0.029 A 
HETATM    7  C   UNL     1      68.370   3.681   6.781  1.00  0.00     0.009 A 
HETATM    8  C   UNL     1      69.280   3.892   9.026  1.00  0.00     0.002 A 
HETATM    9  C   UNL     1      69.085   3.145   7.854  1.00  0.00     0.001 A 
HETATM   10  H   UNL     1      67.216   7.555   8.800  1.00  0.00     0.160 HD
ENDROOT
BRANCH   2  11
HETATM   11  C   UNL     1      65.753   7.888   6.405  1.00  0.00     0.281 C 
HETATM   12  O   UNL     1      65.646   8.988   5.874  1.00  0.00    -0.263 OA
BRANCH  11  13
HETATM   13  O   UNL     1      64.716   7.204   6.975  1.00  0.00    -0.325 OA
HETATM   14  C   UNL     1      63.544   7.130   6.166  1.00  0.00     0.213 C 
ENDBRANCH  11  13
ENDBRANCH   2  11
TORSDOF 2
ENDMDL
MODEL 6
REMARK VINA RESULT:      -5.1     17.404     18.405
REMARK  2 active torsions:
REMARK  status: ('A' for Active; 'I' for Inactive)
REMARK    1  A    between atoms: C_2  and  C_3 
REMARK    2  A    between atoms: C_3  and  O_8 
ROOT
HETATM    1  N   UNL     1      63.387   7.264   3.731  1.00  0.00    -0.376 N 
HETATM    2  C   UNL     1      63.821   7.827   5.042  1.00  0.00     0.186 C 
HETATM    3  C   UNL     1      62.897   8.385   3.034  1.00  0.00     0.035 A 
HETATM    4  C   UNL     1      63.025   9.133   5.265  1.00  0.00     0.076 C 
HETATM    5  C   UNL     1      62.635   9.472   3.866  1.00  0.00    -0.029 A 
HETATM    6  C   UNL     1      62.558   8.419   1.695  1.00  0.00     0.029 A 
HETATM    7  C   UNL     1      62.057  10.632   3.379  1.00  0.00     0.009 A 
HETATM    8  C   UNL     1      61.982   9.585   1.185  1.00  0.00     0.002 A 
HETATM    9  C   UNL     1      61.734  10.685   2.021  1.00  0.00     0.001 A 
HETATM   10  H   UNL     1      63.433   6.329   3.426  1.00  0.00     0.160 HD
ENDROOT
BRANCH   2  11
HETATM   11  C   UNL     1      63.615   6.849   6.197  1.00  0.00     0.281 C 
HETATM   12  O   UNL     1      62.845   5.894   6.167  1.00  0.00    -0.263 OA
BRANCH  11  13
HETATM   13  O   UNL     1      64.330   7.225   7.300  1.00  0.00    -0.325 OA
HETATM   14  C   UNL     1      65.586   6.564   7.441  1.00  0.00     0.213 C 
ENDBRANCH  11  13
ENDBRANCH   2  11
TORSDOF 2
ENDMDL
MODEL 7
REMARK VINA RESULT:      -5.0     12.599     13.838
REMARK  2 active torsions:
REMARK  status: ('A' for Active; 'I' for Inactive)
REMARK    1  A    between atoms: C_2  and  C_3 
REMARK    2  A    between atoms: C_3  and  O_8 
ROOT
HETATM    1  N   UNL     1      66.038   4.703   8.217  1.00  0.00    -0.376 N 
HETATM    2  C   UNL     1      66.005   6.186   8.069  1.00  0.00     0.186 C 
HETATM    3  C   UNL     1      67.354   4.440   8.642  1.00  0.00     0.035 A 
HETATM    4  C   UNL     1      67.461   6.656   7.848  1.00  0.00     0.076 C 
HETATM    5  C   UNL     1      68.222   5.508   8.420  1.00  0.00    -0.029 A 
HETATM    6  C   UNL     1      67.827   3.228   9.104  1.00  0.00     0.029 A 
HETATM    7  C   UNL     1      69.577   5.405   8.681  1.00  0.00     0.009 A 
HETATM    8  C   UNL     1      69.192   3.109   9.382  1.00  0.00     0.002 A 
HETATM    9  C   UNL     1      70.060   4.191   9.173  1.00  0.00     0.001 A 
HETATM   10  H   UNL     1      65.310   4.059   8.056  1.00  0.00     0.160 HD
ENDROOT
BRANCH   2  11
HETATM   11  C   UNL     1      65.096   6.642   6.929  1.00  0.00     0.281 C 
HETATM   12  O   UNL     1      64.007   7.185   7.086  1.00  0.00    -0.263 OA
BRANCH  11  13
HETATM   13  O   UNL     1      65.609   6.287   5.713  1.00  0.00    -0.325 OA
HETATM   14  C   UNL     1      65.468   7.281   4.701  1.00  0.00     0.213 C 
ENDBRANCH  11  13
ENDBRANCH   2  11
TORSDOF 2
ENDMDL
MODEL 8
REMARK VINA RESULT:      -4.7     19.792     21.011
REMARK  2 active torsions:
REMARK  status: ('A' for Active; 'I' for Inactive)
REMARK    1  A    between atoms: C_2  and  C_3 
REMARK    2  A    between atoms: C_3  and  O_8 
ROOT
HETATM    1  N   UNL     1      61.156   9.803   1.888  1.00  0.00    -0.376 N 
HETATM    2  C   UNL     1      61.743   8.690   1.086  1.00  0.00     0.186 C 
HETATM    3  C   UNL     1      61.998   9.881   3.013  1.00  0.00     0.035 A 
HETATM    4  C   UNL     1      62.538   7.794   2.062  1.00  0.00     0.076 C 
HETATM    5  C   UNL     1      62.784   8.743   3.186  1.00  0.00    -0.029 A 
HETATM    6  C   UNL     1      61.990  10.886   3.961  1.00  0.00     0.029 A 
HETATM    7  C   UNL     1      63.604   8.591   4.291  1.00  0.00     0.009 A 
HETATM    8  C   UNL     1      62.819  10.753   5.078  1.00  0.00     0.002 A 
HETATM    9  C   UNL     1      63.621   9.614   5.241  1.00  0.00     0.001 A 
HETATM   10  H   UNL     1      60.367  10.353   1.678  1.00  0.00     0.160 HD
ENDROOT
BRANCH   2  11
HETATM   11  C   UNL     1      60.682   7.887   0.335  1.00  0.00     0.281 C 
HETATM   12  O   UNL     1      60.930   6.989  -0.462  1.00  0.00    -0.263 OA
BRANCH  11  13
HETATM   13  O   UNL     1      59.425   8.358   0.597  1.00  0.00    -0.325 OA
HETATM   14  C   UNL     1      58.522   7.375   1.099  1.00  0.00     0.213 C 
ENDBRANCH  11  13
ENDBRANCH   2  11
TORSDOF 2
ENDMDL
MODEL 9
REMARK VINA RESULT:      -4.6     11.355     12.076
REMARK  2 active torsions:
REMARK  status: ('A' for Active; 'I' for Inactive)
REMARK    1  A    between atoms: C_2  and  C_3 
REMARK    2  A    between atoms: C_3  and  O_8 
ROOT
HETATM    1  N   UNL     1      67.732   2.581   8.685  1.00  0.00    -0.376 N 
HETATM    2  C   UNL     1      69.119   2.678   9.223  1.00  0.00     0.186 C 
HETATM    3  C   UNL     1      67.376   3.921   8.442  1.00  0.00     0.035 A 
HETATM    4  C   UNL     1      69.283   4.097   9.815  1.00  0.00     0.076 C 
HETATM    5  C   UNL     1      68.204   4.832   9.095  1.00  0.00    -0.029 A 
HETATM    6  C   UNL     1      66.255   4.348   7.757  1.00  0.00     0.029 A 
HETATM    7  C   UNL     1      67.953   6.193   9.057  1.00  0.00     0.009 A 
HETATM    8  C   UNL     1      65.992   5.719   7.701  1.00  0.00     0.002 A 
HETATM    9  C   UNL     1      66.837   6.635   8.345  1.00  0.00     0.001 A 
HETATM   10  H   UNL     1      67.193   1.771   8.535  1.00  0.00     0.160 HD
ENDROOT
BRANCH   2  11
HETATM   11  C   UNL     1      69.420   1.604  10.267  1.00  0.00     0.281 C 
HETATM   12  O   UNL     1      70.246   1.724  11.166  1.00  0.00    -0.263 OA
BRANCH  11  13
HETATM   13  O   UNL     1      68.716   0.459  10.017  1.00  0.00    -0.325 OA
HETATM   14  C   UNL     1      69.466  -0.562   9.361  1.00  0.00     0.213 C 
ENDBRANCH  11  13
ENDBRANCH   2  11
TORSDOF 2
ENDMDL
