MODEL 1
REMARK VINA RESULT:      -5.0      0.000      0.000
REMARK  1 active torsions:
REMARK  status: ('A' for Active; 'I' for Inactive)
REMARK    1  A    between atoms: C_1  and  C_2 
ROOT
HETATM    1  C   UNL     1      71.725  22.618  13.482  1.00  0.00     0.113 C 
HETATM    2  N   UNL     1      72.900  22.120  13.616  1.00  0.00    -0.384 N 
ATOM      3  HN  UNL     1      73.108  21.332  13.002  1.00  0.00     0.159 HD
HETATM    4  C   UNL     1      71.039  23.687  14.267  1.00  0.00     0.050 C 
HETATM    5  N   UNL     1      72.997  24.637  15.342  1.00  0.00    -0.397 N 
HETATM    6  C   UNL     1      71.669  24.597  15.016  1.00  0.00     0.085 C 
HETATM    7  C   UNL     1      73.981  22.510  14.511  1.00  0.00     0.139 C 
HETATM    8  C   UNL     1      73.674  23.397  15.711  1.00  0.00     0.138 C 
HETATM    9  H   UNL     1      73.488  25.490  15.328  1.00  0.00     0.158 HD
ENDROOT
BRANCH   1  10
HETATM   10  C   UNL     1      70.871  22.065  12.315  1.00  0.00     0.432 C 
HETATM   11  F   UNL     1      70.981  20.714  12.158  1.00  0.00    -0.165 F 
HETATM   12  F   UNL     1      71.212  22.609  11.113  1.00  0.00    -0.165 F 
HETATM   13  F   UNL     1      69.542  22.310  12.491  1.00  0.00    -0.165 F 
ENDBRANCH   1  10
TORSDOF 1
ENDMDL
MODEL 2
REMARK VINA RESULT:      -4.9      1.301      2.109
REMARK  1 active torsions:
REMARK  status: ('A' for Active; 'I' for Inactive)
REMARK    1  A    between atoms: C_1  and  C_2 
ROOT
HETATM    1  C   UNL     1      71.568  22.903  12.913  1.00  0.00     0.113 C 
HETATM    2  N   UNL     1      70.454  23.270  13.433  1.00  0.00    -0.384 N 
ATOM      3  HN  UNL     1      69.620  22.914  12.965  1.00  0.00     0.159 HD
HETATM    4  C   UNL     1      72.965  23.305  13.253  1.00  0.00     0.050 C 
HETATM    5  N   UNL     1      72.530  24.252  15.445  1.00  0.00    -0.397 N 
HETATM    6  C   UNL     1      73.337  23.833  14.423  1.00  0.00     0.085 C 
HETATM    7  C   UNL     1      70.200  24.119  14.590  1.00  0.00     0.139 C 
HETATM    8  C   UNL     1      71.318  25.001  15.129  1.00  0.00     0.138 C 
HETATM    9  H   UNL     1      72.764  24.051  16.379  1.00  0.00     0.158 HD
ENDROOT
BRANCH   1  10
HETATM   10  C   UNL     1      71.487  21.859  11.774  1.00  0.00     0.432 C 
HETATM   11  F   UNL     1      71.286  20.585  12.222  1.00  0.00    -0.165 F 
HETATM   12  F   UNL     1      72.622  21.814  11.022  1.00  0.00    -0.165 F 
HETATM   13  F   UNL     1      70.460  22.115  10.915  1.00  0.00    -0.165 F 
ENDBRANCH   1  10
TORSDOF 1
ENDMDL
MODEL 3
REMARK VINA RESULT:      -4.7     18.018     18.582
REMARK  1 active torsions:
REMARK  status: ('A' for Active; 'I' for Inactive)
REMARK    1  A    between atoms: C_1  and  C_2 
ROOT
HETATM    1  C   UNL     1      68.449   5.781   8.193  1.00  0.00     0.113 C 
HETATM    2  N   UNL     1      68.496   6.123   6.957  1.00  0.00    -0.384 N 
ATOM      3  HN  UNL     1      69.340   5.836   6.461  1.00  0.00     0.159 HD
HETATM    4  C   UNL     1      67.441   6.114   9.244  1.00  0.00     0.050 C 
HETATM    5  N   UNL     1      65.648   6.849   7.783  1.00  0.00    -0.397 N 
HETATM    6  C   UNL     1      66.191   6.513   8.993  1.00  0.00     0.085 C 
HETATM    7  C   UNL     1      67.527   6.858   6.156  1.00  0.00     0.139 C 
HETATM    8  C   UNL     1      66.432   7.655   6.853  1.00  0.00     0.138 C 
HETATM    9  H   UNL     1      64.741   6.550   7.544  1.00  0.00     0.158 HD
ENDROOT
BRANCH   1  10
HETATM   10  C   UNL     1      69.585   4.858   8.697  1.00  0.00     0.432 C 
HETATM   11  F   UNL     1      69.754   3.742   7.929  1.00  0.00    -0.165 F 
HETATM   12  F   UNL     1      69.369   4.408   9.965  1.00  0.00    -0.165 F 
HETATM   13  F   UNL     1      70.793   5.488   8.707  1.00  0.00    -0.165 F 
ENDBRANCH   1  10
TORSDOF 1
ENDMDL
MODEL 4
REMARK VINA RESULT:      -4.6     18.176     19.470
REMARK  1 active torsions:
REMARK  status: ('A' for Active; 'I' for Inactive)
REMARK    1  A    between atoms: C_1  and  C_2 
ROOT
HETATM    1  C   UNL     1      62.473   9.310   2.939  1.00  0.00     0.113 C 
HETATM    2  N   UNL     1      63.105   8.193   2.943  1.00  0.00    -0.384 N 
ATOM      3  HN  UNL     1      63.086   7.682   2.060  1.00  0.00     0.159 HD
HETATM    4  C   UNL     1      62.197  10.261   4.056  1.00  0.00     0.050 C 
HETATM    5  N   UNL     1      63.850   9.438   5.630  1.00  0.00    -0.397 N 
HETATM    6  C   UNL     1      62.892  10.312   5.195  1.00  0.00     0.085 C 
HETATM    7  C   UNL     1      63.846   7.545   4.018  1.00  0.00     0.139 C 
HETATM    8  C   UNL     1      63.633   8.005   5.454  1.00  0.00     0.138 C 
HETATM    9  H   UNL     1      64.673   9.770   6.056  1.00  0.00     0.158 HD
ENDROOT
BRANCH   1  10
HETATM   10  C   UNL     1      61.924   9.787   1.572  1.00  0.00     0.432 C 
HETATM   11  F   UNL     1      62.700   9.404   0.516  1.00  0.00    -0.165 F 
HETATM   12  F   UNL     1      61.828  11.143   1.491  1.00  0.00    -0.165 F 
HETATM   13  F   UNL     1      60.681   9.291   1.318  1.00  0.00    -0.165 F 
ENDBRANCH   1  10
TORSDOF 1
ENDMDL
MODEL 5
REMARK VINA RESULT:      -4.3     17.877     19.208
REMARK  1 active torsions:
REMARK  status: ('A' for Active; 'I' for Inactive)
REMARK    1  A    between atoms: C_1  and  C_2 
ROOT
HETATM    1  C   UNL     1      67.975   5.864   6.983  1.00  0.00     0.113 C 
HETATM    2  N   UNL     1      68.045   7.094   6.624  1.00  0.00    -0.384 N 
ATOM      3  HN  UNL     1      68.367   7.738   7.348  1.00  0.00     0.159 HD
HETATM    4  C   UNL     1      67.453   4.677   6.243  1.00  0.00     0.050 C 
HETATM    5  N   UNL     1      67.458   5.629   4.010  1.00  0.00    -0.397 N 
HETATM    6  C   UNL     1      67.316   4.613   4.915  1.00  0.00     0.085 C 
HETATM    7  C   UNL     1      67.734   7.711   5.342  1.00  0.00     0.139 C 
HETATM    8  C   UNL     1      66.900   6.941   4.326  1.00  0.00     0.138 C 
HETATM    9  H   UNL     1      67.929   5.477   3.160  1.00  0.00     0.158 HD
ENDROOT
BRANCH   1  10
HETATM   10  C   UNL     1      68.537   5.521   8.383  1.00  0.00     0.432 C 
HETATM   11  F   UNL     1      69.893   5.648   8.467  1.00  0.00    -0.165 F 
HETATM   12  F   UNL     1      68.259   4.241   8.760  1.00  0.00    -0.165 F 
HETATM   13  F   UNL     1      68.028   6.331   9.353  1.00  0.00    -0.165 F 
ENDBRANCH   1  10
TORSDOF 1
ENDMDL
MODEL 6
REMARK VINA RESULT:      -4.2     18.417     19.751
REMARK  1 active torsions:
REMARK  status: ('A' for Active; 'I' for Inactive)
REMARK    1  A    between atoms: C_1  and  C_2 
ROOT
HETATM    1  C   UNL     1      62.326   9.343   2.738  1.00  0.00     0.113 C 
HETATM    2  N   UNL     1      61.883  10.506   3.053  1.00  0.00    -0.384 N 
ATOM      3  HN  UNL     1      61.369  10.987   2.314  1.00  0.00     0.159 HD
HETATM    4  C   UNL     1      63.198   8.407   3.508  1.00  0.00     0.050 C 
HETATM    5  N   UNL     1      62.926   9.406   5.703  1.00  0.00    -0.397 N 
HETATM    6  C   UNL     1      63.364   8.445   4.833  1.00  0.00     0.085 C 
HETATM    7  C   UNL     1      62.004  11.243   4.304  1.00  0.00     0.139 C 
HETATM    8  C   UNL     1      63.047  10.811   5.326  1.00  0.00     0.138 C 
HETATM    9  H   UNL     1      62.536   9.152   6.570  1.00  0.00     0.158 HD
ENDROOT
BRANCH   1  10
HETATM   10  C   UNL     1      61.880   8.784   1.365  1.00  0.00     0.432 C 
HETATM   11  F   UNL     1      62.589   9.295   0.318  1.00  0.00    -0.165 F 
HETATM   12  F   UNL     1      60.571   9.047   1.092  1.00  0.00    -0.165 F 
HETATM   13  F   UNL     1      62.029   7.432   1.289  1.00  0.00    -0.165 F 
ENDBRANCH   1  10
TORSDOF 1
ENDMDL
MODEL 7
REMARK VINA RESULT:      -4.1     19.290     20.421
REMARK  1 active torsions:
REMARK  status: ('A' for Active; 'I' for Inactive)
REMARK    1  A    between atoms: C_1  and  C_2 
ROOT
HETATM    1  C   UNL     1      68.513   3.137   9.343  1.00  0.00     0.113 C 
HETATM    2  N   UNL     1      67.328   3.431   8.950  1.00  0.00    -0.384 N 
ATOM      3  HN  UNL     1      66.615   2.733   9.168  1.00  0.00     0.159 HD
HETATM    4  C   UNL     1      69.805   3.850   9.113  1.00  0.00     0.050 C 
HETATM    5  N   UNL     1      68.900   5.995   8.426  1.00  0.00    -0.397 N 
HETATM    6  C   UNL     1      69.908   5.139   8.777  1.00  0.00     0.085 C 
HETATM    7  C   UNL     1      66.845   4.608   8.241  1.00  0.00     0.139 C 
HETATM    8  C   UNL     1      67.843   5.518   7.538  1.00  0.00     0.138 C 
HETATM    9  H   UNL     1      68.888   6.918   8.767  1.00  0.00     0.158 HD
ENDROOT
BRANCH   1  10
HETATM   10  C   UNL     1      68.656   1.869  10.219  1.00  0.00     0.432 C 
HETATM   11  F   UNL     1      69.720   1.919  11.072  1.00  0.00    -0.165 F 
HETATM   12  F   UNL     1      68.827   0.738   9.478  1.00  0.00    -0.165 F 
HETATM   13  F   UNL     1      67.561   1.660  11.002  1.00  0.00    -0.165 F 
ENDBRANCH   1  10
TORSDOF 1
ENDMDL
MODEL 8
REMARK VINA RESULT:      -4.1     18.940     20.470
REMARK  1 active torsions:
REMARK  status: ('A' for Active; 'I' for Inactive)
REMARK    1  A    between atoms: C_1  and  C_2 
ROOT
HETATM    1  C   UNL     1      69.168   3.763   8.827  1.00  0.00     0.113 C 
HETATM    2  N   UNL     1      69.323   3.353  10.033  1.00  0.00    -0.384 N 
ATOM      3  HN  UNL     1      69.514   4.085  10.717  1.00  0.00     0.159 HD
HETATM    4  C   UNL     1      68.987   2.986   7.565  1.00  0.00     0.050 C 
HETATM    5  N   UNL     1      68.379   0.854   8.553  1.00  0.00    -0.397 N 
HETATM    6  C   UNL     1      68.564   1.720   7.510  1.00  0.00     0.085 C 
HETATM    7  C   UNL     1      69.268   2.001  10.573  1.00  0.00     0.139 C 
HETATM    8  C   UNL     1      69.371   0.814   9.624  1.00  0.00     0.138 C 
HETATM    9  H   UNL     1      67.589   0.269   8.581  1.00  0.00     0.158 HD
ENDROOT
BRANCH   1  10
HETATM   10  C   UNL     1      69.130   5.296   8.619  1.00  0.00     0.432 C 
HETATM   11  F   UNL     1      68.401   5.952   9.569  1.00  0.00    -0.165 F 
HETATM   12  F   UNL     1      68.585   5.649   7.422  1.00  0.00    -0.165 F 
HETATM   13  F   UNL     1      70.374   5.850   8.659  1.00  0.00    -0.165 F 
ENDBRANCH   1  10
TORSDOF 1
ENDMDL
MODEL 9
REMARK VINA RESULT:      -4.0     17.161     18.529
REMARK  1 active torsions:
REMARK  status: ('A' for Active; 'I' for Inactive)
REMARK    1  A    between atoms: C_1  and  C_2 
ROOT
HETATM    1  C   UNL     1      67.015   6.684   7.124  1.00  0.00     0.113 C 
HETATM    2  N   UNL     1      67.711   6.804   8.195  1.00  0.00    -0.384 N 
ATOM      3  HN  UNL     1      68.066   7.743   8.378  1.00  0.00     0.159 HD
HETATM    4  C   UNL     1      66.435   5.464   6.488  1.00  0.00     0.050 C 
HETATM    5  N   UNL     1      66.592   3.970   8.393  1.00  0.00    -0.397 N 
HETATM    6  C   UNL     1      66.207   4.313   7.126  1.00  0.00     0.085 C 
HETATM    7  C   UNL     1      68.071   5.802   9.190  1.00  0.00     0.139 C 
HETATM    8  C   UNL     1      67.934   4.325   8.846  1.00  0.00     0.138 C 
HETATM    9  H   UNL     1      65.973   3.490   8.990  1.00  0.00     0.158 HD
ENDROOT
BRANCH   1  10
HETATM   10  C   UNL     1      66.683   7.993   6.367  1.00  0.00     0.432 C 
HETATM   11  F   UNL     1      67.416   8.157   5.227  1.00  0.00    -0.165 F 
HETATM   12  F   UNL     1      66.910   9.105   7.120  1.00  0.00    -0.165 F 
HETATM   13  F   UNL     1      65.378   8.044   5.979  1.00  0.00    -0.165 F 
ENDBRANCH   1  10
TORSDOF 1
ENDMDL
