MODEL 1
REMARK VINA RESULT:      -5.2      0.000      0.000
REMARK  3 active torsions:
REMARK  status: ('A' for Active; 'I' for Inactive)
REMARK    1  A    between atoms: C_1  and  C_4 
REMARK    2  A    between atoms: C_2  and  N_9 
REMARK    3  A    between atoms: C_5  and  N_10 
ROOT
HETATM    1  C   UNL     1      76.401   5.332  17.019  1.00  0.00     0.011 A 
HETATM    2  C   UNL     1      76.752   3.330  18.339  1.00  0.00     0.053 A 
HETATM    3  C   UNL     1      77.178   4.594  17.917  1.00  0.00     0.046 A 
HETATM    4  C   UNL     1      75.597   2.722  17.772  1.00  0.00     0.054 A 
HETATM    5  C   UNL     1      75.239   4.761  16.495  1.00  0.00     0.017 A 
HETATM    6  C   UNL     1      74.842   3.473  16.867  1.00  0.00     0.032 A 
ENDROOT
BRANCH   1   7
HETATM    7  C   UNL     1      76.761   6.722  16.611  1.00  0.00     0.155 C 
HETATM    8  O   UNL     1      76.875   7.002  15.418  1.00  0.00    -0.293 OA
HETATM    9  C   UNL     1      76.958   7.771  17.675  1.00  0.00     0.096 C 
ENDBRANCH   1   7
BRANCH   2  10
HETATM   10  N   UNL     1      77.580   2.570  19.204  1.00  0.00    -0.397 N 
HETATM   11  H   UNL     1      77.185   1.873  19.777  1.00  0.00     0.156 HD
HETATM   12  H   UNL     1      78.549   2.740  19.232  1.00  0.00     0.156 HD
ENDBRANCH   2  10
BRANCH   4  13
HETATM   13  N   UNL     1      75.222   1.465  18.262  1.00  0.00    -0.392 N 
HETATM   14  C   UNL     1      74.344   0.559  17.549  1.00  0.00     0.146 C 
HETATM   15  H   UNL     1      75.573   1.183  19.139  1.00  0.00     0.159 HD
ENDBRANCH   4  13
TORSDOF 3
ENDMDL
MODEL 2
REMARK VINA RESULT:      -4.9      3.822      6.043
REMARK  3 active torsions:
REMARK  status: ('A' for Active; 'I' for Inactive)
REMARK    1  A    between atoms: C_1  and  C_4 
REMARK    2  A    between atoms: C_2  and  N_9 
REMARK    3  A    between atoms: C_5  and  N_10 
ROOT
HETATM    1  C   UNL     1      76.572   6.260  16.572  1.00  0.00     0.011 A 
HETATM    2  C   UNL     1      77.321   7.753  14.816  1.00  0.00     0.053 A 
HETATM    3  C   UNL     1      76.839   6.504  15.221  1.00  0.00     0.046 A 
HETATM    4  C   UNL     1      77.665   8.748  15.774  1.00  0.00     0.054 A 
HETATM    5  C   UNL     1      76.861   7.250  17.514  1.00  0.00     0.017 A 
HETATM    6  C   UNL     1      77.401   8.479  17.118  1.00  0.00     0.032 A 
ENDROOT
BRANCH   1   7
HETATM    7  C   UNL     1      75.967   4.980  17.045  1.00  0.00     0.155 C 
HETATM    8  O   UNL     1      74.837   4.661  16.674  1.00  0.00    -0.293 OA
HETATM    9  C   UNL     1      76.766   4.084  17.957  1.00  0.00     0.096 C 
ENDBRANCH   1   7
BRANCH   2  10
HETATM   10  N   UNL     1      77.644   7.965  13.452  1.00  0.00    -0.397 N 
HETATM   11  H   UNL     1      78.532   7.712  13.111  1.00  0.00     0.156 HD
HETATM   12  H   UNL     1      76.979   8.365  12.845  1.00  0.00     0.156 HD
ENDBRANCH   2  10
BRANCH   4  13
HETATM   13  N   UNL     1      78.120   9.981  15.289  1.00  0.00    -0.392 N 
HETATM   14  C   UNL     1      77.322  11.190  15.309  1.00  0.00     0.146 C 
HETATM   15  H   UNL     1      79.030  10.028  14.915  1.00  0.00     0.159 HD
ENDBRANCH   4  13
TORSDOF 3
ENDMDL
MODEL 3
REMARK VINA RESULT:      -4.7      2.555      3.244
REMARK  3 active torsions:
REMARK  status: ('A' for Active; 'I' for Inactive)
REMARK    1  A    between atoms: C_1  and  C_4 
REMARK    2  A    between atoms: C_2  and  N_9 
REMARK    3  A    between atoms: C_5  and  N_10 
ROOT
HETATM    1  C   UNL     1      76.422   2.662  17.718  1.00  0.00     0.011 A 
HETATM    2  C   UNL     1      76.802   0.390  16.965  1.00  0.00     0.053 A 
HETATM    3  C   UNL     1      77.252   1.541  17.621  1.00  0.00     0.046 A 
HETATM    4  C   UNL     1      75.554   0.380  16.281  1.00  0.00     0.054 A 
HETATM    5  C   UNL     1      75.174   2.642  17.091  1.00  0.00     0.017 A 
HETATM    6  C   UNL     1      74.746   1.515  16.382  1.00  0.00     0.032 A 
ENDROOT
BRANCH   1   7
HETATM    7  C   UNL     1      76.815   3.878  18.488  1.00  0.00     0.155 C 
HETATM    8  O   UNL     1      77.126   3.780  19.675  1.00  0.00    -0.293 OA
HETATM    9  C   UNL     1      76.845   5.213  17.787  1.00  0.00     0.096 C 
ENDBRANCH   1   7
BRANCH   2  10
HETATM   10  N   UNL     1      77.677  -0.717  16.824  1.00  0.00    -0.397 N 
HETATM   11  H   UNL     1      77.528  -1.534  17.354  1.00  0.00     0.156 HD
HETATM   12  H   UNL     1      78.435  -0.668  16.197  1.00  0.00     0.156 HD
ENDBRANCH   2  10
BRANCH   4  13
HETATM   13  N   UNL     1      75.163  -0.817  15.668  1.00  0.00    -0.392 N 
HETATM   14  C   UNL     1      74.132  -1.686  16.198  1.00  0.00     0.146 C 
HETATM   15  H   UNL     1      75.613  -1.081  14.833  1.00  0.00     0.159 HD
ENDBRANCH   4  13
TORSDOF 3
ENDMDL
MODEL 4
REMARK VINA RESULT:      -4.7      2.878      5.112
REMARK  3 active torsions:
REMARK  status: ('A' for Active; 'I' for Inactive)
REMARK    1  A    between atoms: C_1  and  C_4 
REMARK    2  A    between atoms: C_2  and  N_9 
REMARK    3  A    between atoms: C_5  and  N_10 
ROOT
HETATM    1  C   UNL     1      75.415   0.689  16.773  1.00  0.00     0.011 A 
HETATM    2  C   UNL     1      77.066   1.916  18.054  1.00  0.00     0.053 A 
HETATM    3  C   UNL     1      76.554   0.702  17.583  1.00  0.00     0.046 A 
HETATM    4  C   UNL     1      76.373   3.138  17.826  1.00  0.00     0.054 A 
HETATM    5  C   UNL     1      74.756   1.891  16.503  1.00  0.00     0.017 A 
HETATM    6  C   UNL     1      75.230   3.100  17.024  1.00  0.00     0.032 A 
ENDROOT
BRANCH   1   7
HETATM    7  C   UNL     1      74.884  -0.567  16.166  1.00  0.00     0.155 C 
HETATM    8  O   UNL     1      73.719  -0.614  15.771  1.00  0.00    -0.293 OA
HETATM    9  C   UNL     1      75.798  -1.758  16.027  1.00  0.00     0.096 C 
ENDBRANCH   1   7
BRANCH   2  10
HETATM   10  N   UNL     1      78.187   1.908  18.922  1.00  0.00    -0.397 N 
HETATM   11  H   UNL     1      78.621   1.056  19.157  1.00  0.00     0.156 HD
HETATM   12  H   UNL     1      78.530   2.754  19.291  1.00  0.00     0.156 HD
ENDBRANCH   2  10
BRANCH   4  13
HETATM   13  N   UNL     1      76.960   4.314  18.310  1.00  0.00    -0.392 N 
HETATM   14  C   UNL     1      76.942   5.570  17.588  1.00  0.00     0.146 C 
HETATM   15  H   UNL     1      77.409   4.284  19.186  1.00  0.00     0.159 HD
ENDBRANCH   4  13
TORSDOF 3
ENDMDL
MODEL 5
REMARK VINA RESULT:      -4.6     18.546     19.533
REMARK  3 active torsions:
REMARK  status: ('A' for Active; 'I' for Inactive)
REMARK    1  A    between atoms: C_1  and  C_4 
REMARK    2  A    between atoms: C_2  and  N_9 
REMARK    3  A    between atoms: C_5  and  N_10 
ROOT
HETATM    1  C   UNL     1      62.091   9.800   3.988  1.00  0.00     0.011 A 
HETATM    2  C   UNL     1      63.139   8.144   5.415  1.00  0.00     0.053 A 
HETATM    3  C   UNL     1      63.074   9.451   4.920  1.00  0.00     0.046 A 
HETATM    4  C   UNL     1      62.297   7.123   4.891  1.00  0.00     0.054 A 
HETATM    5  C   UNL     1      61.228   8.813   3.506  1.00  0.00     0.017 A 
HETATM    6  C   UNL     1      61.331   7.491   3.953  1.00  0.00     0.032 A 
ENDROOT
BRANCH   1   7
HETATM    7  C   UNL     1      61.917  11.200   3.502  1.00  0.00     0.155 C 
HETATM    8  O   UNL     1      61.879  12.130   4.307  1.00  0.00    -0.293 OA
HETATM    9  C   UNL     1      61.814  11.454   2.019  1.00  0.00     0.096 C 
ENDBRANCH   1   7
BRANCH   2  10
HETATM   10  N   UNL     1      64.178   7.792   6.313  1.00  0.00    -0.397 N 
HETATM   11  H   UNL     1      65.062   8.218   6.235  1.00  0.00     0.156 HD
HETATM   12  H   UNL     1      64.015   7.121   7.016  1.00  0.00     0.156 HD
ENDBRANCH   2  10
BRANCH   4  13
HETATM   13  N   UNL     1      62.406   5.845   5.454  1.00  0.00    -0.392 N 
HETATM   14  C   UNL     1      61.461   5.312   6.414  1.00  0.00     0.146 C 
HETATM   15  H   UNL     1      63.166   5.279   5.182  1.00  0.00     0.159 HD
ENDBRANCH   4  13
TORSDOF 3
ENDMDL
MODEL 6
REMARK VINA RESULT:      -4.6     10.971     12.403
REMARK  3 active torsions:
REMARK  status: ('A' for Active; 'I' for Inactive)
REMARK    1  A    between atoms: C_1  and  C_4 
REMARK    2  A    between atoms: C_2  and  N_9 
REMARK    3  A    between atoms: C_5  and  N_10 
ROOT
HETATM    1  C   UNL     1      69.190   3.028   9.432  1.00  0.00     0.011 A 
HETATM    2  C   UNL     1      67.358   4.335   8.533  1.00  0.00     0.053 A 
HETATM    3  C   UNL     1      67.843   3.139   9.073  1.00  0.00     0.046 A 
HETATM    4  C   UNL     1      68.240   5.407   8.222  1.00  0.00     0.054 A 
HETATM    5  C   UNL     1      70.054   4.096   9.175  1.00  0.00     0.017 A 
HETATM    6  C   UNL     1      69.584   5.270   8.578  1.00  0.00     0.032 A 
ENDROOT
BRANCH   1   7
HETATM    7  C   UNL     1      69.738   1.811  10.099  1.00  0.00     0.155 C 
HETATM    8  O   UNL     1      70.129   1.874  11.265  1.00  0.00    -0.293 OA
HETATM    9  C   UNL     1      69.783   0.512   9.336  1.00  0.00     0.096 C 
ENDBRANCH   1   7
BRANCH   2  10
HETATM   10  N   UNL     1      66.004   4.411   8.120  1.00  0.00    -0.397 N 
HETATM   11  H   UNL     1      65.281   4.303   8.780  1.00  0.00     0.156 HD
HETATM   12  H   UNL     1      65.786   4.572   7.173  1.00  0.00     0.156 HD
ENDBRANCH   2  10
BRANCH   4  13
HETATM   13  N   UNL     1      67.675   6.579   7.704  1.00  0.00    -0.392 N 
HETATM   14  C   UNL     1      67.631   6.886   6.289  1.00  0.00     0.146 C 
HETATM   15  H   UNL     1      67.288   7.229   8.336  1.00  0.00     0.159 HD
ENDBRANCH   4  13
TORSDOF 3
ENDMDL
MODEL 7
REMARK VINA RESULT:      -4.5     17.891     19.104
REMARK  3 active torsions:
REMARK  status: ('A' for Active; 'I' for Inactive)
REMARK    1  A    between atoms: C_1  and  C_4 
REMARK    2  A    between atoms: C_2  and  N_9 
REMARK    3  A    between atoms: C_5  and  N_10 
ROOT
HETATM    1  C   UNL     1      64.531   7.811   4.552  1.00  0.00     0.011 A 
HETATM    2  C   UNL     1      63.361   9.908   4.883  1.00  0.00     0.053 A 
HETATM    3  C   UNL     1      64.313   8.971   5.301  1.00  0.00     0.046 A 
HETATM    4  C   UNL     1      62.515   9.640   3.770  1.00  0.00     0.054 A 
HETATM    5  C   UNL     1      63.737   7.565   3.430  1.00  0.00     0.017 A 
HETATM    6  C   UNL     1      62.742   8.469   3.044  1.00  0.00     0.032 A 
ENDROOT
BRANCH   1   7
HETATM    7  C   UNL     1      65.599   6.828   4.901  1.00  0.00     0.155 C 
HETATM    8  O   UNL     1      65.540   6.207   5.962  1.00  0.00    -0.293 OA
HETATM    9  C   UNL     1      66.727   6.595   3.929  1.00  0.00     0.096 C 
ENDBRANCH   1   7
BRANCH   2  10
HETATM   10  N   UNL     1      63.111  11.050   5.684  1.00  0.00    -0.397 N 
HETATM   11  H   UNL     1      63.564  11.902   5.482  1.00  0.00     0.156 HD
HETATM   12  H   UNL     1      62.486  10.992   6.442  1.00  0.00     0.156 HD
ENDBRANCH   2  10
BRANCH   4  13
HETATM   13  N   UNL     1      61.602  10.636   3.399  1.00  0.00    -0.392 N 
HETATM   14  C   UNL     1      61.784  11.497   2.249  1.00  0.00     0.146 C 
HETATM   15  H   UNL     1      60.794  10.756   3.950  1.00  0.00     0.159 HD
ENDBRANCH   4  13
TORSDOF 3
ENDMDL
MODEL 8
REMARK VINA RESULT:      -4.5      1.125      2.065
REMARK  3 active torsions:
REMARK  status: ('A' for Active; 'I' for Inactive)
REMARK    1  A    between atoms: C_1  and  C_4 
REMARK    2  A    between atoms: C_2  and  N_9 
REMARK    3  A    between atoms: C_5  and  N_10 
ROOT
HETATM    1  C   UNL     1      76.420   5.022  17.208  1.00  0.00     0.011 A 
HETATM    2  C   UNL     1      75.280   2.892  17.016  1.00  0.00     0.053 A 
HETATM    3  C   UNL     1      75.442   4.222  16.611  1.00  0.00     0.046 A 
HETATM    4  C   UNL     1      76.013   2.371  18.118  1.00  0.00     0.054 A 
HETATM    5  C   UNL     1      77.179   4.501  18.259  1.00  0.00     0.017 A 
HETATM    6  C   UNL     1      76.977   3.191  18.707  1.00  0.00     0.032 A 
ENDROOT
BRANCH   1   7
HETATM    7  C   UNL     1      76.698   6.415  16.749  1.00  0.00     0.155 C 
HETATM    8  O   UNL     1      76.797   6.657  15.546  1.00  0.00    -0.293 OA
HETATM    9  C   UNL     1      76.832   7.513  17.774  1.00  0.00     0.096 C 
ENDBRANCH   1   7
BRANCH   2  10
HETATM   10  N   UNL     1      74.244   2.113  16.442  1.00  0.00    -0.397 N 
HETATM   11  H   UNL     1      73.369   2.051  16.889  1.00  0.00     0.156 HD
HETATM   12  H   UNL     1      74.400   1.633  15.596  1.00  0.00     0.156 HD
ENDBRANCH   2  10
BRANCH   4  13
HETATM   13  N   UNL     1      75.812   1.024  18.448  1.00  0.00    -0.392 N 
HETATM   14  C   UNL     1      76.796  -0.012  18.206  1.00  0.00     0.146 C 
HETATM   15  H   UNL     1      74.957   0.770  18.866  1.00  0.00     0.159 HD
ENDBRANCH   4  13
TORSDOF 3
ENDMDL
MODEL 9
REMARK VINA RESULT:      -4.5     12.221     13.464
REMARK  3 active torsions:
REMARK  status: ('A' for Active; 'I' for Inactive)
REMARK    1  A    between atoms: C_1  and  C_4 
REMARK    2  A    between atoms: C_2  and  N_9 
REMARK    3  A    between atoms: C_5  and  N_10 
ROOT
HETATM    1  C   UNL     1      68.695   5.357   8.509  1.00  0.00     0.011 A 
HETATM    2  C   UNL     1      67.440   6.178   6.605  1.00  0.00     0.053 A 
HETATM    3  C   UNL     1      68.559   5.521   7.127  1.00  0.00     0.046 A 
HETATM    4  C   UNL     1      66.490   6.797   7.466  1.00  0.00     0.054 A 
HETATM    5  C   UNL     1      67.740   5.919   9.359  1.00  0.00     0.017 A 
HETATM    6  C   UNL     1      66.651   6.630   8.843  1.00  0.00     0.032 A 
ENDROOT
BRANCH   1   7
HETATM    7  C   UNL     1      69.819   4.582   9.111  1.00  0.00     0.155 C 
HETATM    8  O   UNL     1      70.983   4.913   8.887  1.00  0.00    -0.293 OA
HETATM    9  C   UNL     1      69.505   3.411  10.009  1.00  0.00     0.096 C 
ENDBRANCH   1   7
BRANCH   2  10
HETATM   10  N   UNL     1      67.347   6.389   5.206  1.00  0.00    -0.397 N 
HETATM   11  H   UNL     1      66.464   6.466   4.777  1.00  0.00     0.156 HD
HETATM   12  H   UNL     1      68.165   6.457   4.663  1.00  0.00     0.156 HD
ENDBRANCH   2  10
BRANCH   4  13
HETATM   13  N   UNL     1      65.385   7.416   6.868  1.00  0.00    -0.392 N 
HETATM   14  C   UNL     1      64.142   6.727   6.584  1.00  0.00     0.146 C 
HETATM   15  H   UNL     1      65.457   8.369   6.629  1.00  0.00     0.159 HD
ENDBRANCH   4  13
TORSDOF 3
ENDMDL
