MODEL 1
REMARK VINA RESULT:      -5.7      0.000      0.000
REMARK  3 active torsions:
REMARK  status: ('A' for Active; 'I' for Inactive)
REMARK    1  A    between atoms: C_1  and  C_2 
REMARK    2  A    between atoms: C_5  and  C_11 
REMARK    3  A    between atoms: N_10  and  C_11 
ROOT
HETATM    1  C   UNL     1      77.742   9.251  16.320  1.00  0.00     0.159 A 
HETATM    2  O   UNL     1      78.367  10.169  17.120  1.00  0.00    -0.308 OA
HETATM    3  C   UNL     1      77.109   8.306  17.106  1.00  0.00     0.045 A 
HETATM    4  C   UNL     1      78.131   9.807  18.414  1.00  0.00     0.079 A 
HETATM    5  C   UNL     1      77.357   8.667  18.451  1.00  0.00     0.037 A 
ENDROOT
BRANCH   4   6
HETATM    6  C   UNL     1      78.720  10.671  19.469  1.00  0.00     0.294 C 
BRANCH   6   7
HETATM    7  N   UNL     1      80.107  10.296  19.727  1.00  0.00    -0.074 N 
HETATM    8  H   UNL     1      80.145   9.322  20.025  1.00  0.00     0.274 HD
HETATM    9  H   UNL     1      80.489  10.893  20.460  1.00  0.00     0.274 HD
HETATM   10  H   UNL     1      80.654  10.412  18.875  1.00  0.00     0.274 HD
ENDBRANCH   6   7
ENDBRANCH   4   6
BRANCH   1  11
HETATM   11  C   UNL     1      77.848   9.424  14.850  1.00  0.00     0.439 C 
HETATM   12  F   UNL     1      77.197   8.462  14.146  1.00  0.00    -0.164 F 
HETATM   13  F   UNL     1      77.334  10.617  14.448  1.00  0.00    -0.164 F 
HETATM   14  F   UNL     1      79.142   9.405  14.433  1.00  0.00    -0.164 F 
ENDBRANCH   1  11
TORSDOF 3
ENDMDL
MODEL 2
REMARK VINA RESULT:      -5.5     13.836     14.420
REMARK  3 active torsions:
REMARK  status: ('A' for Active; 'I' for Inactive)
REMARK    1  A    between atoms: C_1  and  C_2 
REMARK    2  A    between atoms: C_5  and  C_11 
REMARK    3  A    between atoms: N_10  and  C_11 
ROOT
HETATM    1  C   UNL     1      71.877  22.589  13.513  1.00  0.00     0.159 A 
HETATM    2  O   UNL     1      73.110  22.000  13.591  1.00  0.00    -0.308 OA
HETATM    3  C   UNL     1      71.710  23.457  14.577  1.00  0.00     0.045 A 
HETATM    4  C   UNL     1      73.726  22.494  14.705  1.00  0.00     0.079 A 
HETATM    5  C   UNL     1      72.900  23.398  15.338  1.00  0.00     0.037 A 
ENDROOT
BRANCH   4   6
HETATM    6  C   UNL     1      75.093  21.990  14.992  1.00  0.00     0.294 C 
BRANCH   6   7
HETATM    7  N   UNL     1      75.038  20.814  15.853  1.00  0.00    -0.074 N 
HETATM    8  H   UNL     1      75.273  21.081  16.809  1.00  0.00     0.274 HD
HETATM    9  H   UNL     1      75.705  20.117  15.520  1.00  0.00     0.274 HD
HETATM   10  H   UNL     1      74.097  20.421  15.831  1.00  0.00     0.274 HD
ENDBRANCH   6   7
ENDBRANCH   4   6
BRANCH   1  11
HETATM   11  C   UNL     1      70.999  22.216  12.376  1.00  0.00     0.439 C 
HETATM   12  F   UNL     1      70.928  20.875  12.168  1.00  0.00    -0.164 F 
HETATM   13  F   UNL     1      69.725  22.650  12.564  1.00  0.00    -0.164 F 
HETATM   14  F   UNL     1      71.425  22.770  11.210  1.00  0.00    -0.164 F 
ENDBRANCH   1  11
TORSDOF 3
ENDMDL
MODEL 3
REMARK VINA RESULT:      -5.3      3.711      4.521
REMARK  3 active torsions:
REMARK  status: ('A' for Active; 'I' for Inactive)
REMARK    1  A    between atoms: C_1  and  C_2 
REMARK    2  A    between atoms: C_5  and  C_11 
REMARK    3  A    between atoms: N_10  and  C_11 
ROOT
HETATM    1  C   UNL     1      77.085  11.130  18.538  1.00  0.00     0.159 A 
HETATM    2  O   UNL     1      77.173  11.102  17.172  1.00  0.00    -0.308 OA
HETATM    3  C   UNL     1      77.567   9.943  19.057  1.00  0.00     0.045 A 
HETATM    4  C   UNL     1      77.711   9.897  16.825  1.00  0.00     0.079 A 
HETATM    5  C   UNL     1      77.972   9.154  17.956  1.00  0.00     0.037 A 
ENDROOT
BRANCH   4   6
HETATM    6  C   UNL     1      77.902   9.643  15.374  1.00  0.00     0.294 C 
BRANCH   6   7
HETATM    7  N   UNL     1      77.527  10.816  14.592  1.00  0.00    -0.074 N 
HETATM    8  H   UNL     1      78.074  10.840  13.731  1.00  0.00     0.274 HD
HETATM    9  H   UNL     1      77.710  11.660  15.136  1.00  0.00     0.274 HD
HETATM   10  H   UNL     1      76.534  10.769  14.363  1.00  0.00     0.274 HD
ENDBRANCH   6   7
ENDBRANCH   4   6
BRANCH   1  11
HETATM   11  C   UNL     1      76.527  12.350  19.173  1.00  0.00     0.439 C 
HETATM   12  F   UNL     1      75.280  12.663  18.735  1.00  0.00    -0.164 F 
HETATM   13  F   UNL     1      76.444  12.217  20.524  1.00  0.00    -0.164 F 
HETATM   14  F   UNL     1      77.307  13.439  18.942  1.00  0.00    -0.164 F 
ENDBRANCH   1  11
TORSDOF 3
ENDMDL
MODEL 4
REMARK VINA RESULT:      -5.2      2.674      3.519
REMARK  3 active torsions:
REMARK  status: ('A' for Active; 'I' for Inactive)
REMARK    1  A    between atoms: C_1  and  C_2 
REMARK    2  A    between atoms: C_5  and  C_11 
REMARK    3  A    between atoms: N_10  and  C_11 
ROOT
HETATM    1  C   UNL     1      77.568  10.953  18.865  1.00  0.00     0.159 A 
HETATM    2  O   UNL     1      78.498  11.079  19.861  1.00  0.00    -0.308 OA
HETATM    3  C   UNL     1      76.692  12.022  18.912  1.00  0.00     0.045 A 
HETATM    4  C   UNL     1      78.212  12.228  20.541  1.00  0.00     0.079 A 
HETATM    5  C   UNL     1      77.110  12.841  19.986  1.00  0.00     0.037 A 
ENDROOT
BRANCH   4   6
HETATM    6  C   UNL     1      79.104  12.571  21.678  1.00  0.00     0.294 C 
BRANCH   6   7
HETATM    7  N   UNL     1      80.229  11.645  21.748  1.00  0.00    -0.074 N 
HETATM    8  H   UNL     1      81.041  12.126  22.136  1.00  0.00     0.274 HD
HETATM    9  H   UNL     1      80.449  11.306  20.812  1.00  0.00     0.274 HD
HETATM   10  H   UNL     1      79.983  10.857  22.346  1.00  0.00     0.274 HD
ENDBRANCH   6   7
ENDBRANCH   4   6
BRANCH   1  11
HETATM   11  C   UNL     1      77.662   9.771  17.972  1.00  0.00     0.439 C 
HETATM   12  F   UNL     1      77.263  10.026  16.699  1.00  0.00    -0.164 F 
HETATM   13  F   UNL     1      78.936   9.302  17.896  1.00  0.00    -0.164 F 
HETATM   14  F   UNL     1      76.899   8.740  18.421  1.00  0.00    -0.164 F 
ENDBRANCH   1  11
TORSDOF 3
ENDMDL
MODEL 5
REMARK VINA RESULT:      -5.1      3.560      4.423
REMARK  3 active torsions:
REMARK  status: ('A' for Active; 'I' for Inactive)
REMARK    1  A    between atoms: C_1  and  C_2 
REMARK    2  A    between atoms: C_5  and  C_11 
REMARK    3  A    between atoms: N_10  and  C_11 
ROOT
HETATM    1  C   UNL     1      77.295   7.986  17.235  1.00  0.00     0.159 A 
HETATM    2  O   UNL     1      77.026   6.812  17.887  1.00  0.00    -0.308 OA
HETATM    3  C   UNL     1      77.170   7.797  15.871  1.00  0.00     0.045 A 
HETATM    4  C   UNL     1      76.729   5.879  16.936  1.00  0.00     0.079 A 
HETATM    5  C   UNL     1      76.802   6.445  15.681  1.00  0.00     0.037 A 
ENDROOT
BRANCH   4   6
HETATM    6  C   UNL     1      76.399   4.514  17.419  1.00  0.00     0.294 C 
BRANCH   6   7
HETATM    7  N   UNL     1      77.009   4.267  18.721  1.00  0.00    -0.074 N 
HETATM    8  H   UNL     1      77.366   3.312  18.754  1.00  0.00     0.274 HD
HETATM    9  H   UNL     1      76.310   4.394  19.453  1.00  0.00     0.274 HD
HETATM   10  H   UNL     1      77.776   4.922  18.867  1.00  0.00     0.274 HD
ENDBRANCH   6   7
ENDBRANCH   4   6
BRANCH   1  11
HETATM   11  C   UNL     1      77.649   9.171  18.056  1.00  0.00     0.439 C 
HETATM   12  F   UNL     1      77.304   9.043  19.363  1.00  0.00    -0.164 F 
HETATM   13  F   UNL     1      78.985   9.419  18.026  1.00  0.00    -0.164 F 
HETATM   14  F   UNL     1      77.040  10.298  17.599  1.00  0.00    -0.164 F 
ENDBRANCH   1  11
TORSDOF 3
ENDMDL
MODEL 6
REMARK VINA RESULT:      -4.9      5.165      6.375
REMARK  3 active torsions:
REMARK  status: ('A' for Active; 'I' for Inactive)
REMARK    1  A    between atoms: C_1  and  C_2 
REMARK    2  A    between atoms: C_5  and  C_11 
REMARK    3  A    between atoms: N_10  and  C_11 
ROOT
HETATM    1  C   UNL     1      78.859  12.505  21.260  1.00  0.00     0.159 A 
HETATM    2  O   UNL     1      78.991  11.405  20.456  1.00  0.00    -0.308 OA
HETATM    3  C   UNL     1      77.669  13.148  20.974  1.00  0.00     0.045 A 
HETATM    4  C   UNL     1      77.884  11.350  19.659  1.00  0.00     0.079 A 
HETATM    5  C   UNL     1      77.042  12.403  19.948  1.00  0.00     0.037 A 
ENDROOT
BRANCH   4   6
HETATM    6  C   UNL     1      77.809  10.223  18.695  1.00  0.00     0.294 C 
BRANCH   6   7
HETATM    7  N   UNL     1      79.137   9.680  18.434  1.00  0.00    -0.074 N 
HETATM    8  H   UNL     1      79.182   8.716  18.767  1.00  0.00     0.274 HD
HETATM    9  H   UNL     1      79.836  10.241  18.921  1.00  0.00     0.274 HD
HETATM   10  H   UNL     1      79.323   9.701  17.432  1.00  0.00     0.274 HD
ENDBRANCH   6   7
ENDBRANCH   4   6
BRANCH   1  11
HETATM   11  C   UNL     1      79.945  12.789  22.232  1.00  0.00     0.439 C 
HETATM   12  F   UNL     1      80.890  13.637  21.750  1.00  0.00    -0.164 F 
HETATM   13  F   UNL     1      79.461  13.349  23.372  1.00  0.00    -0.164 F 
HETATM   14  F   UNL     1      80.593  11.654  22.607  1.00  0.00    -0.164 F 
ENDBRANCH   1  11
TORSDOF 3
ENDMDL
MODEL 7
REMARK VINA RESULT:      -4.8      4.218      4.982
REMARK  3 active torsions:
REMARK  status: ('A' for Active; 'I' for Inactive)
REMARK    1  A    between atoms: C_1  and  C_2 
REMARK    2  A    between atoms: C_5  and  C_11 
REMARK    3  A    between atoms: N_10  and  C_11 
ROOT
HETATM    1  C   UNL     1      77.175  12.465  19.233  1.00  0.00     0.159 A 
HETATM    2  O   UNL     1      78.283  11.713  19.520  1.00  0.00    -0.308 OA
HETATM    3  C   UNL     1      76.395  11.804  18.302  1.00  0.00     0.045 A 
HETATM    4  C   UNL     1      78.206  10.575  18.769  1.00  0.00     0.079 A 
HETATM    5  C   UNL     1      77.057  10.589  18.008  1.00  0.00     0.037 A 
ENDROOT
BRANCH   4   6
HETATM    6  C   UNL     1      79.315   9.599  18.920  1.00  0.00     0.294 C 
BRANCH   6   7
HETATM    7  N   UNL     1      80.340  10.119  19.818  1.00  0.00    -0.074 N 
HETATM    8  H   UNL     1      79.910  10.398  20.700  1.00  0.00     0.274 HD
HETATM    9  H   UNL     1      80.790  10.928  19.388  1.00  0.00     0.274 HD
HETATM   10  H   UNL     1      81.037   9.396  19.993  1.00  0.00     0.274 HD
ENDBRANCH   6   7
ENDBRANCH   4   6
BRANCH   1  11
HETATM   11  C   UNL     1      77.020  13.766  19.929  1.00  0.00     0.439 C 
HETATM   12  F   UNL     1      75.754  13.997  20.364  1.00  0.00    -0.164 F 
HETATM   13  F   UNL     1      77.829  13.851  21.018  1.00  0.00    -0.164 F 
HETATM   14  F   UNL     1      77.352  14.810  19.123  1.00  0.00    -0.164 F 
ENDBRANCH   1  11
TORSDOF 3
ENDMDL
MODEL 8
REMARK VINA RESULT:      -4.8      4.692      5.696
REMARK  3 active torsions:
REMARK  status: ('A' for Active; 'I' for Inactive)
REMARK    1  A    between atoms: C_1  and  C_2 
REMARK    2  A    between atoms: C_5  and  C_11 
REMARK    3  A    between atoms: N_10  and  C_11 
ROOT
HETATM    1  C   UNL     1      77.520  12.007  20.182  1.00  0.00     0.159 A 
HETATM    2  O   UNL     1      77.772  10.769  19.654  1.00  0.00    -0.308 OA
HETATM    3  C   UNL     1      76.770  12.748  19.288  1.00  0.00     0.045 A 
HETATM    4  C   UNL     1      77.182  10.726  18.424  1.00  0.00     0.079 A 
HETATM    5  C   UNL     1      76.551  11.922  18.161  1.00  0.00     0.037 A 
ENDROOT
BRANCH   4   6
HETATM    6  C   UNL     1      77.326   9.461  17.657  1.00  0.00     0.294 C 
BRANCH   6   7
HETATM    7  N   UNL     1      77.716   9.737  16.279  1.00  0.00    -0.074 N 
HETATM    8  H   UNL     1      78.643   9.346  16.104  1.00  0.00     0.274 HD
HETATM    9  H   UNL     1      77.737  10.745  16.126  1.00  0.00     0.274 HD
HETATM   10  H   UNL     1      77.042   9.311  15.643  1.00  0.00     0.274 HD
ENDBRANCH   6   7
ENDBRANCH   4   6
BRANCH   1  11
HETATM   11  C   UNL     1      78.060  12.309  21.531  1.00  0.00     0.439 C 
HETATM   12  F   UNL     1      77.358  11.724  22.536  1.00  0.00    -0.164 F 
HETATM   13  F   UNL     1      79.348  11.892  21.659  1.00  0.00    -0.164 F 
HETATM   14  F   UNL     1      78.063  13.645  21.783  1.00  0.00    -0.164 F 
ENDBRANCH   1  11
TORSDOF 3
ENDMDL
MODEL 9
REMARK VINA RESULT:      -4.7      5.733      6.561
REMARK  3 active torsions:
REMARK  status: ('A' for Active; 'I' for Inactive)
REMARK    1  A    between atoms: C_1  and  C_2 
REMARK    2  A    between atoms: C_5  and  C_11 
REMARK    3  A    between atoms: N_10  and  C_11 
ROOT
HETATM    1  C   UNL     1      76.155   4.184  17.301  1.00  0.00     0.159 A 
HETATM    2  O   UNL     1      77.112   3.418  17.909  1.00  0.00    -0.308 OA
HETATM    3  C   UNL     1      75.100   3.380  16.907  1.00  0.00     0.045 A 
HETATM    4  C   UNL     1      76.666   2.128  17.901  1.00  0.00     0.079 A 
HETATM    5  C   UNL     1      75.429   2.061  17.297  1.00  0.00     0.037 A 
ENDROOT
BRANCH   4   6
HETATM    6  C   UNL     1      77.553   1.109  18.518  1.00  0.00     0.294 C 
BRANCH   6   7
HETATM    7  N   UNL     1      78.590   1.749  19.322  1.00  0.00    -0.074 N 
HETATM    8  H   UNL     1      79.378   1.999  18.724  1.00  0.00     0.274 HD
HETATM    9  H   UNL     1      78.904   1.104  20.047  1.00  0.00     0.274 HD
HETATM   10  H   UNL     1      78.212   2.590  19.756  1.00  0.00     0.274 HD
ENDBRANCH   6   7
ENDBRANCH   4   6
BRANCH   1  11
HETATM   11  C   UNL     1      76.403   5.642  17.183  1.00  0.00     0.439 C 
HETATM   12  F   UNL     1      76.253   6.113  15.918  1.00  0.00    -0.164 F 
HETATM   13  F   UNL     1      75.557   6.359  17.970  1.00  0.00    -0.164 F 
HETATM   14  F   UNL     1      77.662   5.971  17.575  1.00  0.00    -0.164 F 
ENDBRANCH   1  11
TORSDOF 3
ENDMDL
