MODEL 1
REMARK VINA RESULT:      -4.8      0.000      0.000
REMARK  2 active torsions:
REMARK  status: ('A' for Active; 'I' for Inactive)
REMARK       I    between atoms: C_1  and  N_2 
REMARK    1  A    between atoms: C_1  and  C_3 
REMARK    2  A    between atoms: N_2  and  C_7 
ROOT
HETATM    1  C   UNL     1      64.926   7.980   5.832  1.00  0.00     0.229 C 
HETATM    2  N   UNL     1      65.185   6.730   6.373  1.00  0.00    -0.326 N 
HETATM    3  O   UNL     1      65.688   8.940   5.936  1.00  0.00    -0.272 OA
HETATM    4  H   UNL     1      64.556   6.002   6.161  1.00  0.00     0.169 HD
ENDROOT
BRANCH   2   5
HETATM    5  C   UNL     1      66.289   6.421   7.209  1.00  0.00     0.037 A 
HETATM    6  C   UNL     1      66.289   6.661   8.584  1.00  0.00     0.046 A 
HETATM    7  C   UNL     1      67.430   6.371   9.314  1.00  0.00     0.090 A 
HETATM    8  N   UNL     1      68.550   5.853   8.779  1.00  0.00    -0.375 N 
HETATM    9  C   UNL     1      68.523   5.598   7.453  1.00  0.00     0.090 A 
ATOM     10  HN  UNL     1      69.377   5.662   9.345  1.00  0.00     0.164 HD
HETATM   11  C   UNL     1      67.422   5.847   6.639  1.00  0.00     0.046 A 
ENDBRANCH   2   5
BRANCH   1  12
HETATM   12  C   UNL     1      63.596   8.129   5.055  1.00  0.00     0.030 C 
HETATM   13  C   UNL     1      63.745   7.552   3.640  1.00  0.00     0.025 C 
HETATM   14  C   UNL     1      62.514   7.321   5.805  1.00  0.00     0.025 C 
HETATM   15  C   UNL     1      63.132   9.590   4.973  1.00  0.00     0.025 C 
ENDBRANCH   1  12
TORSDOF 2
ENDMDL
MODEL 2
REMARK VINA RESULT:      -4.6      2.239      5.679
REMARK  2 active torsions:
REMARK  status: ('A' for Active; 'I' for Inactive)
REMARK       I    between atoms: C_1  and  N_2 
REMARK    1  A    between atoms: C_1  and  C_3 
REMARK    2  A    between atoms: N_2  and  C_7 
ROOT
HETATM    1  C   UNL     1      64.733   7.300   6.219  1.00  0.00     0.229 C 
HETATM    2  N   UNL     1      64.801   8.053   5.057  1.00  0.00    -0.326 N 
HETATM    3  O   UNL     1      63.708   7.163   6.885  1.00  0.00    -0.272 OA
HETATM    4  H   UNL     1      65.643   8.031   4.548  1.00  0.00     0.169 HD
ENDROOT
BRANCH   2   5
HETATM    5  C   UNL     1      63.747   8.854   4.547  1.00  0.00     0.037 A 
HETATM    6  C   UNL     1      63.399  10.089   5.097  1.00  0.00     0.046 A 
HETATM    7  C   UNL     1      62.324  10.780   4.562  1.00  0.00     0.090 A 
HETATM    8  N   UNL     1      61.591  10.340   3.524  1.00  0.00    -0.375 N 
HETATM    9  C   UNL     1      61.960   9.158   2.984  1.00  0.00     0.090 A 
ATOM     10  HN  UNL     1      60.799  10.870   3.163  1.00  0.00     0.164 HD
HETATM   11  C   UNL     1      63.029   8.396   3.445  1.00  0.00     0.046 A 
ENDBRANCH   2   5
BRANCH   1  12
HETATM   12  C   UNL     1      66.042   6.603   6.663  1.00  0.00     0.030 C 
HETATM   13  C   UNL     1      66.085   5.168   6.120  1.00  0.00     0.025 C 
HETATM   14  C   UNL     1      67.227   7.393   6.064  1.00  0.00     0.025 C 
HETATM   15  C   UNL     1      66.201   6.586   8.189  1.00  0.00     0.025 C 
ENDBRANCH   1  12
TORSDOF 2
ENDMDL
MODEL 3
REMARK VINA RESULT:      -4.6      2.202      5.718
REMARK  2 active torsions:
REMARK  status: ('A' for Active; 'I' for Inactive)
REMARK       I    between atoms: C_1  and  N_2 
REMARK    1  A    between atoms: C_1  and  C_3 
REMARK    2  A    between atoms: N_2  and  C_7 
ROOT
HETATM    1  C   UNL     1      65.403   7.832   5.448  1.00  0.00     0.229 C 
HETATM    2  N   UNL     1      64.021   7.877   5.341  1.00  0.00    -0.326 N 
HETATM    3  O   UNL     1      66.149   8.714   5.029  1.00  0.00    -0.272 OA
HETATM    4  H   UNL     1      63.505   7.165   5.785  1.00  0.00     0.169 HD
ENDROOT
BRANCH   2   5
HETATM    5  C   UNL     1      63.295   8.873   4.640  1.00  0.00     0.037 A 
HETATM    6  C   UNL     1      62.993  10.120   5.190  1.00  0.00     0.046 A 
HETATM    7  C   UNL     1      62.237  11.014   4.448  1.00  0.00     0.090 A 
HETATM    8  N   UNL     1      61.780  10.760   3.209  1.00  0.00    -0.375 N 
HETATM    9  C   UNL     1      62.106   9.562   2.680  1.00  0.00     0.090 A 
ATOM     10  HN  UNL     1      61.216  11.438   2.696  1.00  0.00     0.164 HD
HETATM   11  C   UNL     1      62.867   8.603   3.342  1.00  0.00     0.046 A 
ENDBRANCH   2   5
BRANCH   1  12
HETATM   12  C   UNL     1      65.995   6.585   6.149  1.00  0.00     0.030 C 
HETATM   13  C   UNL     1      65.683   6.627   7.652  1.00  0.00     0.025 C 
HETATM   14  C   UNL     1      65.325   5.333   5.540  1.00  0.00     0.025 C 
HETATM   15  C   UNL     1      67.511   6.466   5.938  1.00  0.00     0.025 C 
ENDBRANCH   1  12
TORSDOF 2
ENDMDL
MODEL 4
REMARK VINA RESULT:      -4.5      2.401      3.644
REMARK  2 active torsions:
REMARK  status: ('A' for Active; 'I' for Inactive)
REMARK       I    between atoms: C_1  and  N_2 
REMARK    1  A    between atoms: C_1  and  C_3 
REMARK    2  A    between atoms: N_2  and  C_7 
ROOT
HETATM    1  C   UNL     1      67.229   6.439   6.832  1.00  0.00     0.229 C 
HETATM    2  N   UNL     1      68.110   5.369   6.839  1.00  0.00    -0.326 N 
HETATM    3  O   UNL     1      66.673   6.872   7.839  1.00  0.00    -0.272 OA
HETATM    4  H   UNL     1      68.572   5.152   5.997  1.00  0.00     0.169 HD
ENDROOT
BRANCH   2   5
HETATM    5  C   UNL     1      68.397   4.563   7.970  1.00  0.00     0.037 A 
HETATM    6  C   UNL     1      69.449   4.833   8.847  1.00  0.00     0.046 A 
HETATM    7  C   UNL     1      69.684   3.964   9.900  1.00  0.00     0.090 A 
HETATM    8  N   UNL     1      68.946   2.866  10.143  1.00  0.00    -0.375 N 
HETATM    9  C   UNL     1      67.914   2.635   9.304  1.00  0.00     0.090 A 
ATOM     10  HN  UNL     1      69.155   2.241  10.922  1.00  0.00     0.164 HD
HETATM   11  C   UNL     1      67.593   3.455   8.226  1.00  0.00     0.046 A 
ENDBRANCH   2   5
BRANCH   1  12
HETATM   12  C   UNL     1      66.965   7.101   5.458  1.00  0.00     0.030 C 
HETATM   13  C   UNL     1      65.741   8.025   5.544  1.00  0.00     0.025 C 
HETATM   14  C   UNL     1      68.201   7.953   5.095  1.00  0.00     0.025 C 
HETATM   15  C   UNL     1      66.755   6.064   4.345  1.00  0.00     0.025 C 
ENDBRANCH   1  12
TORSDOF 2
ENDMDL
MODEL 5
REMARK VINA RESULT:      -4.4      1.931      2.752
REMARK  2 active torsions:
REMARK  status: ('A' for Active; 'I' for Inactive)
REMARK       I    between atoms: C_1  and  N_2 
REMARK    1  A    between atoms: C_1  and  C_3 
REMARK    2  A    between atoms: N_2  and  C_7 
ROOT
HETATM    1  C   UNL     1      63.320   9.010   4.542  1.00  0.00     0.229 C 
HETATM    2  N   UNL     1      64.230   7.984   4.337  1.00  0.00    -0.326 N 
HETATM    3  O   UNL     1      63.369   9.785   5.495  1.00  0.00    -0.272 OA
HETATM    4  H   UNL     1      64.159   7.472   3.499  1.00  0.00     0.169 HD
ENDROOT
BRANCH   2   5
HETATM    5  C   UNL     1      65.256   7.616   5.246  1.00  0.00     0.037 A 
HETATM    6  C   UNL     1      64.998   6.996   6.470  1.00  0.00     0.046 A 
HETATM    7  C   UNL     1      66.060   6.717   7.315  1.00  0.00     0.090 A 
HETATM    8  N   UNL     1      67.343   6.996   7.023  1.00  0.00    -0.375 N 
HETATM    9  C   UNL     1      67.578   7.568   5.823  1.00  0.00     0.090 A 
ATOM     10  HN  UNL     1      68.099   6.786   7.675  1.00  0.00     0.164 HD
HETATM   11  C   UNL     1      66.580   7.878   4.904  1.00  0.00     0.046 A 
ENDBRANCH   2   5
BRANCH   1  12
HETATM   12  C   UNL     1      62.202   9.156   3.482  1.00  0.00     0.030 C 
HETATM   13  C   UNL     1      61.922  10.641   3.212  1.00  0.00     0.025 C 
HETATM   14  C   UNL     1      62.698   8.501   2.174  1.00  0.00     0.025 C 
HETATM   15  C   UNL     1      60.905   8.452   3.907  1.00  0.00     0.025 C 
ENDBRANCH   1  12
TORSDOF 2
ENDMDL
MODEL 6
REMARK VINA RESULT:      -4.3      2.354      3.371
REMARK  2 active torsions:
REMARK  status: ('A' for Active; 'I' for Inactive)
REMARK       I    between atoms: C_1  and  N_2 
REMARK    1  A    between atoms: C_1  and  C_3 
REMARK    2  A    between atoms: N_2  and  C_7 
ROOT
HETATM    1  C   UNL     1      63.097   8.152   3.271  1.00  0.00     0.229 C 
HETATM    2  N   UNL     1      63.336   8.528   4.584  1.00  0.00    -0.326 N 
HETATM    3  O   UNL     1      63.689   7.235   2.705  1.00  0.00    -0.272 OA
HETATM    4  H   UNL     1      62.750   9.216   4.975  1.00  0.00     0.169 HD
ENDROOT
BRANCH   2   5
HETATM    5  C   UNL     1      64.363   7.996   5.406  1.00  0.00     0.037 A 
HETATM    6  C   UNL     1      65.679   8.459   5.371  1.00  0.00     0.046 A 
HETATM    7  C   UNL     1      66.626   7.847   6.176  1.00  0.00     0.090 A 
HETATM    8  N   UNL     1      66.353   6.829   7.011  1.00  0.00    -0.375 N 
HETATM    9  C   UNL     1      65.069   6.412   7.055  1.00  0.00     0.090 A 
ATOM     10  HN  UNL     1      67.078   6.394   7.582  1.00  0.00     0.164 HD
HETATM   11  C   UNL     1      64.047   6.969   6.293  1.00  0.00     0.046 A 
ENDBRANCH   2   5
BRANCH   1  12
HETATM   12  C   UNL     1      62.009   8.953   2.516  1.00  0.00     0.030 C 
HETATM   13  C   UNL     1      62.279   8.913   1.005  1.00  0.00     0.025 C 
HETATM   14  C   UNL     1      60.646   8.281   2.791  1.00  0.00     0.025 C 
HETATM   15  C   UNL     1      61.928  10.411   2.989  1.00  0.00     0.025 C 
ENDBRANCH   1  12
TORSDOF 2
ENDMDL
MODEL 7
REMARK VINA RESULT:      -4.2      2.346      5.627
REMARK  2 active torsions:
REMARK  status: ('A' for Active; 'I' for Inactive)
REMARK       I    between atoms: C_1  and  N_2 
REMARK    1  A    between atoms: C_1  and  C_3 
REMARK    2  A    between atoms: N_2  and  C_7 
ROOT
HETATM    1  C   UNL     1      67.309   4.790   8.146  1.00  0.00     0.229 C 
HETATM    2  N   UNL     1      67.165   5.376   6.898  1.00  0.00    -0.326 N 
HETATM    3  O   UNL     1      66.496   4.919   9.059  1.00  0.00    -0.272 OA
HETATM    4  H   UNL     1      67.824   5.142   6.205  1.00  0.00     0.169 HD
ENDROOT
BRANCH   2   5
HETATM    5  C   UNL     1      66.137   6.288   6.545  1.00  0.00     0.037 A 
HETATM    6  C   UNL     1      64.780   6.001   6.706  1.00  0.00     0.046 A 
HETATM    7  C   UNL     1      63.845   6.933   6.289  1.00  0.00     0.090 A 
HETATM    8  N   UNL     1      64.162   8.121   5.743  1.00  0.00    -0.375 N 
HETATM    9  C   UNL     1      65.479   8.396   5.622  1.00  0.00     0.090 A 
ATOM     10  HN  UNL     1      63.446   8.780   5.437  1.00  0.00     0.164 HD
HETATM   11  C   UNL     1      66.491   7.528   6.020  1.00  0.00     0.046 A 
ENDBRANCH   2   5
BRANCH   1  12
HETATM   12  C   UNL     1      68.576   3.926   8.355  1.00  0.00     0.030 C 
HETATM   13  C   UNL     1      68.936   3.194   7.054  1.00  0.00     0.025 C 
HETATM   14  C   UNL     1      69.740   4.870   8.728  1.00  0.00     0.025 C 
HETATM   15  C   UNL     1      68.404   2.908   9.491  1.00  0.00     0.025 C 
ENDBRANCH   1  12
TORSDOF 2
ENDMDL
MODEL 8
REMARK VINA RESULT:      -4.1      1.299      2.170
REMARK  2 active torsions:
REMARK  status: ('A' for Active; 'I' for Inactive)
REMARK       I    between atoms: C_1  and  N_2 
REMARK    1  A    between atoms: C_1  and  C_3 
REMARK    2  A    between atoms: N_2  and  C_7 
ROOT
HETATM    1  C   UNL     1      64.658   6.660   6.013  1.00  0.00     0.229 C 
HETATM    2  N   UNL     1      65.953   7.074   6.281  1.00  0.00    -0.326 N 
HETATM    3  O   UNL     1      64.116   5.707   6.570  1.00  0.00    -0.272 OA
HETATM    4  H   UNL     1      66.268   7.900   5.848  1.00  0.00     0.169 HD
ENDROOT
BRANCH   2   5
HETATM    5  C   UNL     1      66.860   6.395   7.135  1.00  0.00     0.037 A 
HETATM    6  C   UNL     1      67.689   5.362   6.694  1.00  0.00     0.046 A 
HETATM    7  C   UNL     1      68.509   4.724   7.610  1.00  0.00     0.090 A 
HETATM    8  N   UNL     1      68.571   5.049   8.914  1.00  0.00    -0.375 N 
HETATM    9  C   UNL     1      67.786   6.070   9.319  1.00  0.00     0.090 A 
ATOM     10  HN  UNL     1      69.179   4.550   9.563  1.00  0.00     0.164 HD
HETATM   11  C   UNL     1      66.936   6.777   8.473  1.00  0.00     0.046 A 
ENDBRANCH   2   5
BRANCH   1  12
HETATM   12  C   UNL     1      63.884   7.477   4.950  1.00  0.00     0.030 C 
HETATM   13  C   UNL     1      62.378   7.435   5.247  1.00  0.00     0.025 C 
HETATM   14  C   UNL     1      64.362   8.944   5.036  1.00  0.00     0.025 C 
HETATM   15  C   UNL     1      64.146   6.971   3.525  1.00  0.00     0.025 C 
ENDBRANCH   1  12
TORSDOF 2
ENDMDL
MODEL 9
REMARK VINA RESULT:      -4.0     14.513     16.647
REMARK  2 active torsions:
REMARK  status: ('A' for Active; 'I' for Inactive)
REMARK       I    between atoms: C_1  and  N_2 
REMARK    1  A    between atoms: C_1  and  C_3 
REMARK    2  A    between atoms: N_2  and  C_7 
ROOT
HETATM    1  C   UNL     1      75.914   0.480  17.671  1.00  0.00     0.229 C 
HETATM    2  N   UNL     1      75.635   1.653  18.356  1.00  0.00    -0.326 N 
HETATM    3  O   UNL     1      76.471   0.444  16.576  1.00  0.00    -0.272 OA
HETATM    4  H   UNL     1      75.266   1.574  19.265  1.00  0.00     0.169 HD
ENDROOT
BRANCH   2   5
HETATM    5  C   UNL     1      75.843   2.959  17.844  1.00  0.00     0.037 A 
HETATM    6  C   UNL     1      76.900   3.774  18.252  1.00  0.00     0.046 A 
HETATM    7  C   UNL     1      76.998   5.055  17.732  1.00  0.00     0.090 A 
HETATM    8  N   UNL     1      76.136   5.567  16.836  1.00  0.00    -0.375 N 
HETATM    9  C   UNL     1      75.136   4.756  16.429  1.00  0.00     0.090 A 
ATOM     10  HN  UNL     1      76.232   6.519  16.483  1.00  0.00     0.164 HD
HETATM   11  C   UNL     1      74.961   3.453  16.886  1.00  0.00     0.046 A 
ENDBRANCH   2   5
BRANCH   1  12
HETATM   12  C   UNL     1      75.488  -0.837  18.365  1.00  0.00     0.030 C 
HETATM   13  C   UNL     1      75.637  -2.017  17.395  1.00  0.00     0.025 C 
HETATM   14  C   UNL     1      76.430  -1.066  19.568  1.00  0.00     0.025 C 
HETATM   15  C   UNL     1      74.048  -0.776  18.891  1.00  0.00     0.025 C 
ENDBRANCH   1  12
TORSDOF 2
ENDMDL
