MODEL 1
REMARK VINA RESULT:      -6.2      0.000      0.000
REMARK  4 active torsions:
REMARK  status: ('A' for Active; 'I' for Inactive)
REMARK    1  A    between atoms: N_1  and  C_2 
REMARK    2  A    between atoms: C_2  and  C_3 
REMARK    3  A    between atoms: C_7  and  C_14 
REMARK    4  A    between atoms: N_8  and  C_14 
ROOT
HETATM    1  C   UNL     1      77.032   7.160  15.715  1.00  0.00    -0.032 A 
HETATM    2  C   UNL     1      77.188   7.934  16.877  1.00  0.00     0.017 A 
HETATM    3  C   UNL     1      77.498   9.299  16.806  1.00  0.00    -0.033 A 
HETATM    4  C   UNL     1      77.646   9.094  14.389  1.00  0.00     0.001 A 
HETATM    5  C   UNL     1      77.285   7.747  14.470  1.00  0.00     0.009 A 
HETATM    6  C   UNL     1      77.734   9.866  15.549  1.00  0.00     0.009 A 
ENDROOT
BRANCH   1   7
HETATM    7  C   UNL     1      76.520   5.737  15.825  1.00  0.00     0.273 C 
BRANCH   7   8
HETATM    8  N   UNL     1      75.839   5.496  17.110  1.00  0.00    -0.067 N 
HETATM    9  C   UNL     1      74.529   4.844  16.972  1.00  0.00     0.235 C 
HETATM   10  C   UNL     1      74.600   3.360  16.610  1.00  0.00     0.032 C 
HETATM   11  C   UNL     1      75.541   2.571  17.529  1.00  0.00    -0.015 C 
HETATM   12  C   UNL     1      76.874   3.300  17.736  1.00  0.00     0.032 C 
HETATM   13  C   UNL     1      75.788   1.174  16.960  1.00  0.00     0.010 C 
HETATM   14  C   UNL     1      76.675   4.777  18.072  1.00  0.00     0.235 C 
HETATM   15  H   UNL     1      75.668   6.431  17.483  1.00  0.00     0.280 HD
ENDBRANCH   7   8
ENDBRANCH   1   7
BRANCH   3  16
HETATM   16  C   UNL     1      77.448  10.144  18.053  1.00  0.00     0.268 C 
BRANCH  16  17
HETATM   17  N   UNL     1      77.678   9.374  19.267  1.00  0.00    -0.075 N 
HETATM   18  H   UNL     1      77.394   8.406  19.114  1.00  0.00     0.274 HD
HETATM   19  H   UNL     1      77.131   9.771  20.031  1.00  0.00     0.274 HD
HETATM   20  H   UNL     1      78.669   9.405  19.507  1.00  0.00     0.274 HD
ENDBRANCH  16  17
ENDBRANCH   3  16
TORSDOF 4
ENDMDL
MODEL 2
REMARK VINA RESULT:      -6.1      1.566      2.234
REMARK  4 active torsions:
REMARK  status: ('A' for Active; 'I' for Inactive)
REMARK    1  A    between atoms: N_1  and  C_2 
REMARK    2  A    between atoms: C_2  and  C_3 
REMARK    3  A    between atoms: C_7  and  C_14 
REMARK    4  A    between atoms: N_8  and  C_14 
ROOT
HETATM    1  C   UNL     1      76.874   6.747  16.592  1.00  0.00    -0.032 A 
HETATM    2  C   UNL     1      77.168   7.536  15.468  1.00  0.00     0.017 A 
HETATM    3  C   UNL     1      77.554   8.877  15.601  1.00  0.00    -0.033 A 
HETATM    4  C   UNL     1      77.208   8.692  17.999  1.00  0.00     0.001 A 
HETATM    5  C   UNL     1      76.876   7.343  17.859  1.00  0.00     0.009 A 
HETATM    6  C   UNL     1      77.560   9.447  16.878  1.00  0.00     0.009 A 
ENDROOT
BRANCH   1   7
HETATM    7  C   UNL     1      76.639   5.258  16.423  1.00  0.00     0.273 C 
BRANCH   7   8
HETATM    8  N   UNL     1      75.866   4.694  17.544  1.00  0.00    -0.067 N 
HETATM    9  C   UNL     1      74.694   3.914  17.121  1.00  0.00     0.235 C 
HETATM   10  C   UNL     1      75.030   2.546  16.525  1.00  0.00     0.032 C 
HETATM   11  C   UNL     1      75.975   1.728  17.415  1.00  0.00    -0.015 C 
HETATM   12  C   UNL     1      77.150   2.574  17.922  1.00  0.00     0.032 C 
HETATM   13  C   UNL     1      76.493   0.508  16.655  1.00  0.00     0.010 C 
HETATM   14  C   UNL     1      76.692   3.922  18.473  1.00  0.00     0.235 C 
HETATM   15  H   UNL     1      75.514   5.512  18.044  1.00  0.00     0.280 HD
ENDBRANCH   7   8
ENDBRANCH   1   7
BRANCH   3  16
HETATM   16  C   UNL     1      78.067   9.631  14.400  1.00  0.00     0.268 C 
BRANCH  16  17
HETATM   17  N   UNL     1      77.519  10.977  14.303  1.00  0.00    -0.075 N 
HETATM   18  H   UNL     1      78.148  11.561  13.751  1.00  0.00     0.274 HD
HETATM   19  H   UNL     1      77.423  11.372  15.238  1.00  0.00     0.274 HD
HETATM   20  H   UNL     1      76.605  10.940  13.853  1.00  0.00     0.274 HD
ENDBRANCH  16  17
ENDBRANCH   3  16
TORSDOF 4
ENDMDL
MODEL 3
REMARK VINA RESULT:      -6.1      1.943      6.486
REMARK  4 active torsions:
REMARK  status: ('A' for Active; 'I' for Inactive)
REMARK    1  A    between atoms: N_1  and  C_2 
REMARK    2  A    between atoms: C_2  and  C_3 
REMARK    3  A    between atoms: C_7  and  C_14 
REMARK    4  A    between atoms: N_8  and  C_14 
ROOT
HETATM    1  C   UNL     1      76.979   7.963  17.570  1.00  0.00    -0.032 A 
HETATM    2  C   UNL     1      76.587   6.660  17.921  1.00  0.00     0.017 A 
HETATM    3  C   UNL     1      76.517   5.639  16.964  1.00  0.00    -0.033 A 
HETATM    4  C   UNL     1      77.093   7.264  15.252  1.00  0.00     0.001 A 
HETATM    5  C   UNL     1      77.211   8.262  16.222  1.00  0.00     0.009 A 
HETATM    6  C   UNL     1      76.764   5.959  15.625  1.00  0.00     0.009 A 
ENDROOT
BRANCH   1   7
HETATM    7  C   UNL     1      77.219   8.993  18.657  1.00  0.00     0.273 C 
BRANCH   7   8
HETATM    8  N   UNL     1      78.024  10.127  18.170  1.00  0.00    -0.067 N 
HETATM    9  C   UNL     1      77.224  11.207  17.574  1.00  0.00     0.235 C 
HETATM   10  C   UNL     1      76.452  12.052  18.588  1.00  0.00     0.032 C 
HETATM   11  C   UNL     1      77.338  12.558  19.734  1.00  0.00    -0.015 C 
HETATM   12  C   UNL     1      78.231  11.445  20.293  1.00  0.00     0.032 C 
HETATM   13  C   UNL     1      76.476  13.151  20.846  1.00  0.00     0.010 C 
HETATM   14  C   UNL     1      78.932  10.659  19.186  1.00  0.00     0.235 C 
HETATM   15  H   UNL     1      78.592   9.729  17.421  1.00  0.00     0.280 HD
ENDBRANCH   7   8
ENDBRANCH   1   7
BRANCH   3  16
HETATM   16  C   UNL     1      76.303   4.213  17.405  1.00  0.00     0.268 C 
BRANCH  16  17
HETATM   17  N   UNL     1      76.948   3.912  18.676  1.00  0.00    -0.075 N 
HETATM   18  H   UNL     1      77.517   4.708  18.965  1.00  0.00     0.274 HD
HETATM   19  H   UNL     1      77.543   3.091  18.569  1.00  0.00     0.274 HD
HETATM   20  H   UNL     1      76.237   3.727  19.383  1.00  0.00     0.274 HD
ENDBRANCH  16  17
ENDBRANCH   3  16
TORSDOF 4
ENDMDL
MODEL 4
REMARK VINA RESULT:      -5.9     14.740     15.802
REMARK  4 active torsions:
REMARK  status: ('A' for Active; 'I' for Inactive)
REMARK    1  A    between atoms: N_1  and  C_2 
REMARK    2  A    between atoms: C_2  and  C_3 
REMARK    3  A    between atoms: C_7  and  C_14 
REMARK    4  A    between atoms: N_8  and  C_14 
ROOT
HETATM    1  C   UNL     1      65.238   7.619   4.960  1.00  0.00    -0.032 A 
HETATM    2  C   UNL     1      64.664   8.860   5.285  1.00  0.00     0.017 A 
HETATM    3  C   UNL     1      63.518   9.326   4.627  1.00  0.00    -0.033 A 
HETATM    4  C   UNL     1      63.594   7.362   3.197  1.00  0.00     0.001 A 
HETATM    5  C   UNL     1      64.705   6.883   3.895  1.00  0.00     0.009 A 
HETATM    6  C   UNL     1      62.997   8.567   3.574  1.00  0.00     0.009 A 
ENDROOT
BRANCH   1   7
HETATM    7  C   UNL     1      66.364   7.067   5.813  1.00  0.00     0.273 C 
BRANCH   7   8
HETATM    8  N   UNL     1      65.898   5.993   6.709  1.00  0.00    -0.067 N 
HETATM    9  C   UNL     1      66.530   4.691   6.450  1.00  0.00     0.235 C 
HETATM   10  C   UNL     1      67.984   4.594   6.915  1.00  0.00     0.032 C 
HETATM   11  C   UNL     1      68.171   5.046   8.369  1.00  0.00    -0.015 C 
HETATM   12  C   UNL     1      67.437   6.362   8.653  1.00  0.00     0.032 C 
HETATM   13  C   UNL     1      69.658   5.192   8.690  1.00  0.00     0.010 C 
HETATM   14  C   UNL     1      66.004   6.345   8.125  1.00  0.00     0.235 C 
HETATM   15  H   UNL     1      64.907   5.891   6.485  1.00  0.00     0.280 HD
ENDBRANCH   7   8
ENDBRANCH   1   7
BRANCH   3  16
HETATM   16  C   UNL     1      62.806  10.552   5.140  1.00  0.00     0.268 C 
BRANCH  16  17
HETATM   17  N   UNL     1      63.592  11.293   6.117  1.00  0.00    -0.075 N 
HETATM   18  H   UNL     1      64.208  11.946   5.633  1.00  0.00     0.274 HD
HETATM   19  H   UNL     1      64.153  10.641   6.666  1.00  0.00     0.274 HD
HETATM   20  H   UNL     1      62.967  11.809   6.736  1.00  0.00     0.274 HD
ENDBRANCH  16  17
ENDBRANCH   3  16
TORSDOF 4
ENDMDL
MODEL 5
REMARK VINA RESULT:      -5.7     16.534     17.687
REMARK  4 active torsions:
REMARK  status: ('A' for Active; 'I' for Inactive)
REMARK    1  A    between atoms: N_1  and  C_2 
REMARK    2  A    between atoms: C_2  and  C_3 
REMARK    3  A    between atoms: C_7  and  C_14 
REMARK    4  A    between atoms: N_8  and  C_14 
ROOT
HETATM    1  C   UNL     1      63.756   8.724   4.447  1.00  0.00    -0.032 A 
HETATM    2  C   UNL     1      63.038   8.588   3.247  1.00  0.00     0.017 A 
HETATM    3  C   UNL     1      62.152   9.583   2.813  1.00  0.00    -0.033 A 
HETATM    4  C   UNL     1      62.587  10.805   4.869  1.00  0.00     0.001 A 
HETATM    5  C   UNL     1      63.507   9.832   5.266  1.00  0.00     0.009 A 
HETATM    6  C   UNL     1      61.928  10.687   3.643  1.00  0.00     0.009 A 
ENDROOT
BRANCH   1   7
HETATM    7  C   UNL     1      64.837   7.717   4.792  1.00  0.00     0.273 C 
BRANCH   7   8
HETATM    8  N   UNL     1      65.262   7.829   6.199  1.00  0.00    -0.067 N 
HETATM    9  C   UNL     1      64.847   6.693   7.034  1.00  0.00     0.235 C 
HETATM   10  C   UNL     1      65.638   5.407   6.786  1.00  0.00     0.032 C 
HETATM   11  C   UNL     1      67.155   5.628   6.829  1.00  0.00    -0.015 C 
HETATM   12  C   UNL     1      67.570   6.866   6.025  1.00  0.00     0.032 C 
HETATM   13  C   UNL     1      67.885   4.392   6.307  1.00  0.00     0.010 C 
HETATM   14  C   UNL     1      66.696   8.078   6.343  1.00  0.00     0.235 C 
HETATM   15  H   UNL     1      64.766   8.651   6.547  1.00  0.00     0.280 HD
ENDBRANCH   7   8
ENDBRANCH   1   7
BRANCH   3  16
HETATM   16  C   UNL     1      61.563   9.509   1.428  1.00  0.00     0.268 C 
BRANCH  16  17
HETATM   17  N   UNL     1      60.341   8.718   1.376  1.00  0.00    -0.075 N 
HETATM   18  H   UNL     1      59.993   8.691   0.418  1.00  0.00     0.274 HD
HETATM   19  H   UNL     1      59.637   9.141   1.981  1.00  0.00     0.274 HD
HETATM   20  H   UNL     1      60.536   7.769   1.694  1.00  0.00     0.274 HD
ENDBRANCH  16  17
ENDBRANCH   3  16
TORSDOF 4
ENDMDL
MODEL 6
REMARK VINA RESULT:      -5.6      2.620      6.832
REMARK  4 active torsions:
REMARK  status: ('A' for Active; 'I' for Inactive)
REMARK    1  A    between atoms: N_1  and  C_2 
REMARK    2  A    between atoms: C_2  and  C_3 
REMARK    3  A    between atoms: C_7  and  C_14 
REMARK    4  A    between atoms: N_8  and  C_14 
ROOT
HETATM    1  C   UNL     1      77.376   8.958  17.981  1.00  0.00    -0.032 A 
HETATM    2  C   UNL     1      76.869   7.648  18.004  1.00  0.00     0.017 A 
HETATM    3  C   UNL     1      76.779   6.882  16.835  1.00  0.00    -0.033 A 
HETATM    4  C   UNL     1      77.573   8.799  15.570  1.00  0.00     0.001 A 
HETATM    5  C   UNL     1      77.708   9.535  16.749  1.00  0.00     0.009 A 
HETATM    6  C   UNL     1      77.128   7.476  15.618  1.00  0.00     0.009 A 
ENDROOT
BRANCH   1   7
HETATM    7  C   UNL     1      77.628   9.689  19.285  1.00  0.00     0.273 C 
BRANCH   7   8
HETATM    8  N   UNL     1      78.233  11.014  19.064  1.00  0.00    -0.067 N 
HETATM    9  C   UNL     1      77.420  12.128  19.573  1.00  0.00     0.235 C 
HETATM   10  C   UNL     1      77.422  12.264  21.097  1.00  0.00     0.032 C 
HETATM   11  C   UNL     1      78.837  12.267  21.689  1.00  0.00    -0.015 C 
HETATM   12  C   UNL     1      79.705  11.154  21.089  1.00  0.00     0.032 C 
HETATM   13  C   UNL     1      78.775  12.125  23.209  1.00  0.00     0.010 C 
HETATM   14  C   UNL     1      79.605  11.106  19.565  1.00  0.00     0.235 C 
HETATM   15  H   UNL     1      78.265  11.110  18.048  1.00  0.00     0.280 HD
ENDBRANCH   7   8
ENDBRANCH   1   7
BRANCH   3  16
HETATM   16  C   UNL     1      76.435   5.416  16.925  1.00  0.00     0.268 C 
BRANCH  16  17
HETATM   17  N   UNL     1      77.160   4.730  17.985  1.00  0.00    -0.075 N 
HETATM   18  H   UNL     1      77.452   5.406  18.690  1.00  0.00     0.274 HD
HETATM   19  H   UNL     1      77.983   4.273  17.592  1.00  0.00     0.274 HD
HETATM   20  H   UNL     1      76.555   4.030  18.413  1.00  0.00     0.274 HD
ENDBRANCH  16  17
ENDBRANCH   3  16
TORSDOF 4
ENDMDL
MODEL 7
REMARK VINA RESULT:      -5.5     15.345     16.393
REMARK  4 active torsions:
REMARK  status: ('A' for Active; 'I' for Inactive)
REMARK    1  A    between atoms: N_1  and  C_2 
REMARK    2  A    between atoms: C_2  and  C_3 
REMARK    3  A    between atoms: C_7  and  C_14 
REMARK    4  A    between atoms: N_8  and  C_14 
ROOT
HETATM    1  C   UNL     1      64.322   7.480   4.662  1.00  0.00    -0.032 A 
HETATM    2  C   UNL     1      63.985   8.764   5.120  1.00  0.00     0.017 A 
HETATM    3  C   UNL     1      63.079   9.572   4.420  1.00  0.00    -0.033 A 
HETATM    4  C   UNL     1      62.951   7.860   2.700  1.00  0.00     0.001 A 
HETATM    5  C   UNL     1      63.813   7.042   3.433  1.00  0.00     0.009 A 
HETATM    6  C   UNL     1      62.575   9.108   3.200  1.00  0.00     0.009 A 
ENDROOT
BRANCH   1   7
HETATM    7  C   UNL     1      65.160   6.567   5.536  1.00  0.00     0.273 C 
BRANCH   7   8
HETATM    8  N   UNL     1      66.554   7.034   5.640  1.00  0.00    -0.067 N 
HETATM    9  C   UNL     1      66.873   7.660   6.931  1.00  0.00     0.235 C 
HETATM   10  C   UNL     1      67.005   6.674   8.093  1.00  0.00     0.032 C 
HETATM   11  C   UNL     1      67.944   5.504   7.773  1.00  0.00    -0.015 C 
HETATM   12  C   UNL     1      67.660   4.912   6.388  1.00  0.00     0.032 C 
HETATM   13  C   UNL     1      67.824   4.421   8.844  1.00  0.00     0.010 C 
HETATM   14  C   UNL     1      67.530   5.993   5.317  1.00  0.00     0.235 C 
HETATM   15  H   UNL     1      66.629   7.764   4.930  1.00  0.00     0.280 HD
ENDBRANCH   7   8
ENDBRANCH   1   7
BRANCH   3  16
HETATM   16  C   UNL     1      62.577  10.849   5.044  1.00  0.00     0.268 C 
BRANCH  16  17
HETATM   17  N   UNL     1      63.478  11.372   6.062  1.00  0.00    -0.075 N 
HETATM   18  H   UNL     1      64.343  11.684   5.622  1.00  0.00     0.274 HD
HETATM   19  H   UNL     1      63.687  10.638   6.740  1.00  0.00     0.274 HD
HETATM   20  H   UNL     1      63.034  12.157   6.538  1.00  0.00     0.274 HD
ENDBRANCH  16  17
ENDBRANCH   3  16
TORSDOF 4
ENDMDL
MODEL 8
REMARK VINA RESULT:      -5.5      2.097      6.817
REMARK  4 active torsions:
REMARK  status: ('A' for Active; 'I' for Inactive)
REMARK    1  A    between atoms: N_1  and  C_2 
REMARK    2  A    between atoms: C_2  and  C_3 
REMARK    3  A    between atoms: C_7  and  C_14 
REMARK    4  A    between atoms: N_8  and  C_14 
ROOT
HETATM    1  C   UNL     1      77.791   9.305  17.072  1.00  0.00    -0.032 A 
HETATM    2  C   UNL     1      77.224   8.048  17.343  1.00  0.00     0.017 A 
HETATM    3  C   UNL     1      76.916   7.151  16.311  1.00  0.00    -0.033 A 
HETATM    4  C   UNL     1      77.610   8.833  14.701  1.00  0.00     0.001 A 
HETATM    5  C   UNL     1      77.962   9.699  15.739  1.00  0.00     0.009 A 
HETATM    6  C   UNL     1      77.107   7.563  14.988  1.00  0.00     0.009 A 
ENDROOT
BRANCH   1   7
HETATM    7  C   UNL     1      78.277  10.171  18.217  1.00  0.00     0.273 C 
BRANCH   7   8
HETATM    8  N   UNL     1      77.196  10.479  19.170  1.00  0.00    -0.067 N 
HETATM    9  C   UNL     1      77.654  11.181  20.378  1.00  0.00     0.235 C 
HETATM   10  C   UNL     1      78.019  12.649  20.154  1.00  0.00     0.032 C 
HETATM   11  C   UNL     1      76.920  13.427  19.419  1.00  0.00    -0.015 C 
HETATM   12  C   UNL     1      76.388  12.650  18.209  1.00  0.00     0.032 C 
HETATM   13  C   UNL     1      77.443  14.793  18.979  1.00  0.00     0.010 C 
HETATM   14  C   UNL     1      76.079  11.194  18.551  1.00  0.00     0.235 C 
HETATM   15  H   UNL     1      76.855   9.565  19.468  1.00  0.00     0.280 HD
ENDBRANCH   7   8
ENDBRANCH   1   7
BRANCH   3  16
HETATM   16  C   UNL     1      76.512   5.737  16.644  1.00  0.00     0.268 C 
BRANCH  16  17
HETATM   17  N   UNL     1      77.285   5.172  17.742  1.00  0.00    -0.075 N 
HETATM   18  H   UNL     1      76.898   4.264  17.998  1.00  0.00     0.274 HD
HETATM   19  H   UNL     1      77.241   5.799  18.546  1.00  0.00     0.274 HD
HETATM   20  H   UNL     1      78.255   5.060  17.451  1.00  0.00     0.274 HD
ENDBRANCH  16  17
ENDBRANCH   3  16
TORSDOF 4
ENDMDL
MODEL 9
REMARK VINA RESULT:      -5.5     16.881     18.092
REMARK  4 active torsions:
REMARK  status: ('A' for Active; 'I' for Inactive)
REMARK    1  A    between atoms: N_1  and  C_2 
REMARK    2  A    between atoms: C_2  and  C_3 
REMARK    3  A    between atoms: C_7  and  C_14 
REMARK    4  A    between atoms: N_8  and  C_14 
ROOT
HETATM    1  C   UNL     1      62.932   8.894   4.846  1.00  0.00    -0.032 A 
HETATM    2  C   UNL     1      62.448   8.547   3.574  1.00  0.00     0.017 A 
HETATM    3  C   UNL     1      61.977   9.521   2.684  1.00  0.00    -0.033 A 
HETATM    4  C   UNL     1      62.336  11.201   4.404  1.00  0.00     0.001 A 
HETATM    5  C   UNL     1      62.852  10.228   5.262  1.00  0.00     0.009 A 
HETATM    6  C   UNL     1      61.917  10.850   3.118  1.00  0.00     0.009 A 
ENDROOT
BRANCH   1   7
HETATM    7  C   UNL     1      63.600   7.839   5.708  1.00  0.00     0.273 C 
BRANCH   7   8
HETATM    8  N   UNL     1      64.797   7.277   5.057  1.00  0.00    -0.067 N 
HETATM    9  C   UNL     1      66.004   8.099   5.228  1.00  0.00     0.235 C 
HETATM   10  C   UNL     1      66.610   8.044   6.631  1.00  0.00     0.032 C 
HETATM   11  C   UNL     1      66.816   6.609   7.131  1.00  0.00    -0.015 C 
HETATM   12  C   UNL     1      65.583   5.735   6.871  1.00  0.00     0.032 C 
HETATM   13  C   UNL     1      67.157   6.611   8.620  1.00  0.00     0.010 C 
HETATM   14  C   UNL     1      65.058   5.891   5.446  1.00  0.00     0.235 C 
HETATM   15  H   UNL     1      64.570   7.286   4.062  1.00  0.00     0.280 HD
ENDBRANCH   7   8
ENDBRANCH   1   7
BRANCH   3  16
HETATM   16  C   UNL     1      61.666   9.146   1.258  1.00  0.00     0.268 C 
BRANCH  16  17
HETATM   17  N   UNL     1      60.270   8.778   1.062  1.00  0.00    -0.075 N 
HETATM   18  H   UNL     1      59.670   9.512   1.438  1.00  0.00     0.274 HD
HETATM   19  H   UNL     1      60.079   7.901   1.547  1.00  0.00     0.274 HD
HETATM   20  H   UNL     1      60.085   8.664   0.066  1.00  0.00     0.274 HD
ENDBRANCH  16  17
ENDBRANCH   3  16
TORSDOF 4
ENDMDL
