MODEL 1
REMARK VINA RESULT:      -6.1      0.000      0.000
REMARK  1 active torsions:
REMARK  status: ('A' for Active; 'I' for Inactive)
REMARK    1  A    between atoms: C_1  and  C_6 
ROOT
HETATM    1  C   UNL     1      63.305   7.923   4.424  1.00  0.00     0.055 A 
HETATM    2  C   UNL     1      62.796   9.108   3.825  1.00  0.00     0.011 A 
HETATM    3  N   UNL     1      62.653   7.913   1.721  1.00  0.00    -0.359 N 
ATOM      4  HN  UNL     1      62.419   7.909   0.727  1.00  0.00     0.166 HD
HETATM    5  C   UNL     1      62.483   9.026   2.449  1.00  0.00     0.043 A 
HETATM    6  C   UNL     1      63.474   6.767   3.649  1.00  0.00     0.043 A 
HETATM    7  C   UNL     1      63.135   6.801   2.310  1.00  0.00     0.006 A 
HETATM    8  C   UNL     1      62.567  10.350   4.478  1.00  0.00     0.057 A 
HETATM    9  C   UNL     1      61.965  10.135   1.792  1.00  0.00     0.033 A 
HETATM   10  C   UNL     1      62.041  11.439   3.792  1.00  0.00     0.117 A 
HETATM   11  C   UNL     1      61.734  11.342   2.450  1.00  0.00     0.044 A 
HETATM   12  F   UNL     1      61.827  12.590   4.440  1.00  0.00    -0.206 F 
HETATM   13  C   UNL     1      63.280   5.589   1.441  1.00  0.00     0.068 C 
ENDROOT
BRANCH   1  14
HETATM   14  C   UNL     1      63.653   7.857   5.876  1.00  0.00     0.210 C 
HETATM   15  O   UNL     1      62.932   7.556   6.806  1.00  0.00    -0.644 OA
HETATM   16  O   UNL     1      64.943   8.170   6.113  1.00  0.00    -0.644 OA
ENDBRANCH   1  14
TORSDOF 1
ENDMDL
MODEL 2
REMARK VINA RESULT:      -5.6      2.699      4.000
REMARK  1 active torsions:
REMARK  status: ('A' for Active; 'I' for Inactive)
REMARK    1  A    between atoms: C_1  and  C_6 
ROOT
HETATM    1  C   UNL     1      62.685   9.783   4.096  1.00  0.00     0.055 A 
HETATM    2  C   UNL     1      63.647   8.746   4.249  1.00  0.00     0.011 A 
HETATM    3  N   UNL     1      62.716   7.673   2.285  1.00  0.00    -0.359 N 
ATOM      4  HN  UNL     1      62.722   6.897   1.622  1.00  0.00     0.166 HD
HETATM    5  C   UNL     1      63.603   7.710   3.288  1.00  0.00     0.043 A 
HETATM    6  C   UNL     1      61.765   9.730   3.040  1.00  0.00     0.043 A 
HETATM    7  C   UNL     1      61.815   8.668   2.158  1.00  0.00     0.006 A 
HETATM    8  C   UNL     1      64.641   8.663   5.262  1.00  0.00     0.057 A 
HETATM    9  C   UNL     1      64.520   6.668   3.357  1.00  0.00     0.033 A 
HETATM   10  C   UNL     1      65.547   7.609   5.297  1.00  0.00     0.117 A 
HETATM   11  C   UNL     1      65.497   6.607   4.348  1.00  0.00     0.044 A 
HETATM   12  F   UNL     1      66.478   7.567   6.257  1.00  0.00    -0.206 F 
HETATM   13  C   UNL     1      60.865   8.572   1.003  1.00  0.00     0.068 C 
ENDROOT
BRANCH   1  14
HETATM   14  C   UNL     1      62.631  10.954   5.023  1.00  0.00     0.210 C 
HETATM   15  O   UNL     1      63.122  11.057   6.130  1.00  0.00    -0.644 OA
HETATM   16  O   UNL     1      61.950  11.995   4.502  1.00  0.00    -0.644 OA
ENDBRANCH   1  14
TORSDOF 1
ENDMDL
MODEL 3
REMARK VINA RESULT:      -5.6     19.180     20.562
REMARK  1 active torsions:
REMARK  status: ('A' for Active; 'I' for Inactive)
REMARK    1  A    between atoms: C_1  and  C_6 
ROOT
HETATM    1  C   UNL     1      76.927   1.844  18.457  1.00  0.00     0.055 A 
HETATM    2  C   UNL     1      76.510   3.079  17.887  1.00  0.00     0.011 A 
HETATM    3  N   UNL     1      74.645   1.913  16.868  1.00  0.00    -0.359 N 
ATOM      4  HN  UNL     1      73.810   1.935  16.282  1.00  0.00     0.166 HD
HETATM    5  C   UNL     1      75.340   3.036  17.095  1.00  0.00     0.043 A 
HETATM    6  C   UNL     1      76.187   0.679  18.211  1.00  0.00     0.043 A 
HETATM    7  C   UNL     1      75.057   0.754  17.421  1.00  0.00     0.006 A 
HETATM    8  C   UNL     1      77.151   4.338  18.046  1.00  0.00     0.057 A 
HETATM    9  C   UNL     1      74.857   4.204  16.516  1.00  0.00     0.033 A 
HETATM   10  C   UNL     1      76.637   5.488  17.457  1.00  0.00     0.117 A 
HETATM   11  C   UNL     1      75.489   5.432  16.692  1.00  0.00     0.044 A 
HETATM   12  F   UNL     1      77.258   6.659  17.638  1.00  0.00    -0.206 F 
HETATM   13  C   UNL     1      74.222  -0.458  17.141  1.00  0.00     0.068 C 
ENDROOT
BRANCH   1  14
HETATM   14  C   UNL     1      78.131   1.745  19.337  1.00  0.00     0.210 C 
HETATM   15  O   UNL     1      79.151   1.115  19.141  1.00  0.00    -0.644 OA
HETATM   16  O   UNL     1      78.009   2.476  20.463  1.00  0.00    -0.644 OA
ENDBRANCH   1  14
TORSDOF 1
ENDMDL
MODEL 4
REMARK VINA RESULT:      -5.3      2.499      3.504
REMARK  1 active torsions:
REMARK  status: ('A' for Active; 'I' for Inactive)
REMARK    1  A    between atoms: C_1  and  C_6 
ROOT
HETATM    1  C   UNL     1      63.270   9.503   4.481  1.00  0.00     0.055 A 
HETATM    2  C   UNL     1      62.750   8.817   3.348  1.00  0.00     0.011 A 
HETATM    3  N   UNL     1      64.427   7.101   3.690  1.00  0.00    -0.359 N 
ATOM      4  HN  UNL     1      64.857   6.222   3.399  1.00  0.00     0.166 HD
HETATM    5  C   UNL     1      63.387   7.602   3.009  1.00  0.00     0.043 A 
HETATM    6  C   UNL     1      64.357   8.965   5.183  1.00  0.00     0.043 A 
HETATM    7  C   UNL     1      64.902   7.767   4.762  1.00  0.00     0.006 A 
HETATM    8  C   UNL     1      61.656   9.234   2.541  1.00  0.00     0.057 A 
HETATM    9  C   UNL     1      62.929   6.862   1.926  1.00  0.00     0.033 A 
HETATM   10  C   UNL     1      61.219   8.466   1.467  1.00  0.00     0.117 A 
HETATM   11  C   UNL     1      61.847   7.277   1.153  1.00  0.00     0.044 A 
HETATM   12  F   UNL     1      60.179   8.881   0.736  1.00  0.00    -0.206 F 
HETATM   13  C   UNL     1      66.054   7.140   5.487  1.00  0.00     0.068 C 
ENDROOT
BRANCH   1  14
HETATM   14  C   UNL     1      62.678  10.786   4.969  1.00  0.00     0.210 C 
HETATM   15  O   UNL     1      61.924  11.535   4.380  1.00  0.00    -0.644 OA
HETATM   16  O   UNL     1      63.060  11.086   6.227  1.00  0.00    -0.644 OA
ENDBRANCH   1  14
TORSDOF 1
ENDMDL
MODEL 5
REMARK VINA RESULT:      -5.3      2.434      3.447
REMARK  1 active torsions:
REMARK  status: ('A' for Active; 'I' for Inactive)
REMARK    1  A    between atoms: C_1  and  C_6 
ROOT
HETATM    1  C   UNL     1      62.962   7.422   3.419  1.00  0.00     0.055 A 
HETATM    2  C   UNL     1      62.656   8.799   3.602  1.00  0.00     0.011 A 
HETATM    3  N   UNL     1      63.569   8.643   5.843  1.00  0.00    -0.359 N 
ATOM      4  HN  UNL     1      63.788   9.086   6.735  1.00  0.00     0.166 HD
HETATM    5  C   UNL     1      62.998   9.350   4.859  1.00  0.00     0.043 A 
HETATM    6  C   UNL     1      63.561   6.697   4.457  1.00  0.00     0.043 A 
HETATM    7  C   UNL     1      63.852   7.339   5.645  1.00  0.00     0.006 A 
HETATM    8  C   UNL     1      62.054   9.663   2.647  1.00  0.00     0.057 A 
HETATM    9  C   UNL     1      62.748  10.694   5.113  1.00  0.00     0.033 A 
HETATM   10  C   UNL     1      61.824  11.004   2.932  1.00  0.00     0.117 A 
HETATM   11  C   UNL     1      62.170  11.531   4.161  1.00  0.00     0.044 A 
HETATM   12  F   UNL     1      61.268  11.792   2.005  1.00  0.00    -0.206 F 
HETATM   13  C   UNL     1      64.507   6.614   6.781  1.00  0.00     0.068 C 
ENDROOT
BRANCH   1  14
HETATM   14  C   UNL     1      62.680   6.714   2.133  1.00  0.00     0.210 C 
HETATM   15  O   UNL     1      63.406   6.603   1.165  1.00  0.00    -0.644 OA
HETATM   16  O   UNL     1      61.459   6.142   2.114  1.00  0.00    -0.644 OA
ENDBRANCH   1  14
TORSDOF 1
ENDMDL
MODEL 6
REMARK VINA RESULT:      -5.2      8.034      9.416
REMARK  1 active torsions:
REMARK  status: ('A' for Active; 'I' for Inactive)
REMARK    1  A    between atoms: C_1  and  C_6 
ROOT
HETATM    1  C   UNL     1      68.946   2.035   8.971  1.00  0.00     0.055 A 
HETATM    2  C   UNL     1      68.560   3.320   8.498  1.00  0.00     0.011 A 
HETATM    3  N   UNL     1      68.640   2.448   6.238  1.00  0.00    -0.359 N 
ATOM      4  HN  UNL     1      68.533   2.598   5.234  1.00  0.00     0.166 HD
HETATM    5  C   UNL     1      68.421   3.452   7.097  1.00  0.00     0.043 A 
HETATM    6  C   UNL     1      69.170   0.995   8.058  1.00  0.00     0.043 A 
HETATM    7  C   UNL     1      69.003   1.238   6.709  1.00  0.00     0.006 A 
HETATM    8  C   UNL     1      68.297   4.467   9.296  1.00  0.00     0.057 A 
HETATM    9  C   UNL     1      68.030   4.671   6.556  1.00  0.00     0.033 A 
HETATM   10  C   UNL     1      67.902   5.669   8.722  1.00  0.00     0.117 A 
HETATM   11  C   UNL     1      67.762   5.782   7.353  1.00  0.00     0.044 A 
HETATM   12  F   UNL     1      67.650   6.726   9.503  1.00  0.00    -0.206 F 
HETATM   13  C   UNL     1      69.212   0.156   5.693  1.00  0.00     0.068 C 
ENDROOT
BRANCH   1  14
HETATM   14  C   UNL     1      69.107   1.744  10.428  1.00  0.00     0.210 C 
HETATM   15  O   UNL     1      70.113   1.832  11.103  1.00  0.00    -0.644 OA
HETATM   16  O   UNL     1      67.953   1.351  11.006  1.00  0.00    -0.644 OA
ENDBRANCH   1  14
TORSDOF 1
ENDMDL
MODEL 7
REMARK VINA RESULT:      -5.2      4.649      6.395
REMARK  1 active torsions:
REMARK  status: ('A' for Active; 'I' for Inactive)
REMARK    1  A    between atoms: C_1  and  C_6 
ROOT
HETATM    1  C   UNL     1      65.720   6.905   5.592  1.00  0.00     0.055 A 
HETATM    2  C   UNL     1      66.490   6.409   6.681  1.00  0.00     0.011 A 
HETATM    3  N   UNL     1      67.589   4.895   5.138  1.00  0.00    -0.359 N 
ATOM      4  HN  UNL     1      68.270   4.154   4.970  1.00  0.00     0.166 HD
HETATM    5  C   UNL     1      67.421   5.391   6.372  1.00  0.00     0.043 A 
HETATM    6  C   UNL     1      65.909   6.377   4.307  1.00  0.00     0.043 A 
HETATM    7  C   UNL     1      66.850   5.383   4.121  1.00  0.00     0.006 A 
HETATM    8  C   UNL     1      66.414   6.844   8.032  1.00  0.00     0.057 A 
HETATM    9  C   UNL     1      68.224   4.864   7.377  1.00  0.00     0.033 A 
HETATM   10  C   UNL     1      67.237   6.299   9.011  1.00  0.00     0.117 A 
HETATM   11  C   UNL     1      68.148   5.311   8.694  1.00  0.00     0.044 A 
HETATM   12  F   UNL     1      67.149   6.740  10.272  1.00  0.00    -0.206 F 
HETATM   13  C   UNL     1      67.102   4.796   2.766  1.00  0.00     0.068 C 
ENDROOT
BRANCH   1  14
HETATM   14  C   UNL     1      64.717   7.999   5.766  1.00  0.00     0.210 C 
HETATM   15  O   UNL     1      63.537   7.896   6.038  1.00  0.00    -0.644 OA
HETATM   16  O   UNL     1      65.254   9.224   5.600  1.00  0.00    -0.644 OA
ENDBRANCH   1  14
TORSDOF 1
ENDMDL
MODEL 8
REMARK VINA RESULT:      -5.2     19.767     21.719
REMARK  1 active torsions:
REMARK  status: ('A' for Active; 'I' for Inactive)
REMARK    1  A    between atoms: C_1  and  C_6 
ROOT
HETATM    1  C   UNL     1      75.709   1.723  17.113  1.00  0.00     0.055 A 
HETATM    2  C   UNL     1      76.707   1.088  17.904  1.00  0.00     0.011 A 
HETATM    3  N   UNL     1      77.516   3.282  18.541  1.00  0.00    -0.359 N 
ATOM      4  HN  UNL     1      78.181   3.857  19.060  1.00  0.00     0.166 HD
HETATM    5  C   UNL     1      77.586   1.946  18.604  1.00  0.00     0.043 A 
HETATM    6  C   UNL     1      75.649   3.123  17.060  1.00  0.00     0.043 A 
HETATM    7  C   UNL     1      76.561   3.863  17.787  1.00  0.00     0.006 A 
HETATM    8  C   UNL     1      76.892  -0.313  18.059  1.00  0.00     0.057 A 
HETATM    9  C   UNL     1      78.578   1.404  19.412  1.00  0.00     0.033 A 
HETATM   10  C   UNL     1      77.891  -0.821  18.881  1.00  0.00     0.117 A 
HETATM   11  C   UNL     1      78.738   0.029  19.565  1.00  0.00     0.044 A 
HETATM   12  F   UNL     1      78.030  -2.145  19.015  1.00  0.00    -0.206 F 
HETATM   13  C   UNL     1      76.529   5.361  17.778  1.00  0.00     0.068 C 
ENDROOT
BRANCH   1  14
HETATM   14  C   UNL     1      74.696   0.942  16.340  1.00  0.00     0.210 C 
HETATM   15  O   UNL     1      74.611   0.812  15.135  1.00  0.00    -0.644 OA
HETATM   16  O   UNL     1      73.804   0.322  17.138  1.00  0.00    -0.644 OA
ENDBRANCH   1  14
TORSDOF 1
ENDMDL
MODEL 9
REMARK VINA RESULT:      -5.1     21.433     23.211
REMARK  1 active torsions:
REMARK  status: ('A' for Active; 'I' for Inactive)
REMARK    1  A    between atoms: C_1  and  C_6 
ROOT
HETATM    1  C   UNL     1      77.265  12.117  19.682  1.00  0.00     0.055 A 
HETATM    2  C   UNL     1      78.306  12.179  20.650  1.00  0.00     0.011 A 
HETATM    3  N   UNL     1      79.378  10.314  19.532  1.00  0.00    -0.359 N 
ATOM      4  HN  UNL     1      80.149   9.649  19.478  1.00  0.00     0.166 HD
HETATM    5  C   UNL     1      79.347  11.234  20.507  1.00  0.00     0.043 A 
HETATM    6  C   UNL     1      77.314  11.150  18.668  1.00  0.00     0.043 A 
HETATM    7  C   UNL     1      78.382  10.275  18.624  1.00  0.00     0.006 A 
HETATM    8  C   UNL     1      78.397  13.100  21.729  1.00  0.00     0.057 A 
HETATM    9  C   UNL     1      80.410  11.239  21.402  1.00  0.00     0.033 A 
HETATM   10  C   UNL     1      79.478  13.081  22.603  1.00  0.00     0.117 A 
HETATM   11  C   UNL     1      80.492  12.157  22.447  1.00  0.00     0.044 A 
HETATM   12  F   UNL     1      79.539  13.970  23.601  1.00  0.00    -0.206 F 
HETATM   13  C   UNL     1      78.491   9.234  17.552  1.00  0.00     0.068 C 
ENDROOT
BRANCH   1  14
HETATM   14  C   UNL     1      76.115  13.071  19.695  1.00  0.00     0.210 C 
HETATM   15  O   UNL     1      75.945  14.030  20.421  1.00  0.00    -0.644 OA
HETATM   16  O   UNL     1      75.193  12.782  18.754  1.00  0.00    -0.644 OA
ENDBRANCH   1  14
TORSDOF 1
ENDMDL
