MODEL 1
REMARK VINA RESULT:      -5.9      0.000      0.000
REMARK  1 active torsions:
REMARK  status: ('A' for Active; 'I' for Inactive)
REMARK       I    between atoms: C_1  and  N_2 
REMARK    1  A    between atoms: C_1  and  C_3 
ROOT
HETATM    1  C   UNL     1      64.409   8.846   5.063  1.00  0.00     0.225 C 
HETATM    2  N   UNL     1      63.196   8.968   4.389  1.00  0.00    -0.352 N 
HETATM    3  O   UNL     1      64.801   9.752   5.808  1.00  0.00    -0.273 OA
HETATM    4  C   UNL     1      62.539  10.271   4.448  1.00  0.00     0.125 C 
HETATM    5  C   UNL     1      62.450   7.857   3.801  1.00  0.00     0.125 C 
HETATM    6  C   UNL     1      62.685   7.748   2.297  1.00  0.00     0.020 C 
HETATM    7  C   UNL     1      61.665  10.624   3.245  1.00  0.00     0.020 C 
HETATM    8  C   UNL     1      62.305  10.280   1.901  1.00  0.00     0.002 C 
HETATM    9  C   UNL     1      62.020   8.842   1.461  1.00  0.00     0.002 C 
ENDROOT
BRANCH   1  10
HETATM   10  C   UNL     1      65.250   7.579   4.849  1.00  0.00     0.103 C 
HETATM   11  C   UNL     1      66.750   7.886   4.978  1.00  0.00     0.246 C 
HETATM   12  N   UNL     1      67.218   8.063   6.349  1.00  0.00    -0.074 N 
HETATM   13  C   UNL     1      66.874   6.940   7.209  1.00  0.00     0.232 C 
HETATM   14  H   UNL     1      66.795   8.910   6.731  1.00  0.00     0.277 HD
HETATM   15  H   UNL     1      68.235   8.131   6.321  1.00  0.00     0.277 HD
HETATM   16  C   UNL     1      65.374   6.646   7.208  1.00  0.00     0.028 C 
HETATM   17  C   UNL     1      64.827   6.454   5.795  1.00  0.00     0.017 C 
ENDBRANCH   1  10
TORSDOF 1
ENDMDL
MODEL 2
REMARK VINA RESULT:      -5.2      2.475      6.517
REMARK  1 active torsions:
REMARK  status: ('A' for Active; 'I' for Inactive)
REMARK       I    between atoms: C_1  and  N_2 
REMARK    1  A    between atoms: C_1  and  C_3 
ROOT
HETATM    1  C   UNL     1      65.802   6.481   7.284  1.00  0.00     0.225 C 
HETATM    2  N   UNL     1      67.071   5.922   7.425  1.00  0.00    -0.352 N 
HETATM    3  O   UNL     1      65.317   7.161   8.195  1.00  0.00    -0.273 OA
HETATM    4  C   UNL     1      67.683   6.008   8.749  1.00  0.00     0.125 C 
HETATM    5  C   UNL     1      67.900   5.438   6.324  1.00  0.00     0.125 C 
HETATM    6  C   UNL     1      67.812   3.922   6.171  1.00  0.00     0.020 C 
HETATM    7  C   UNL     1      68.658   4.884   9.098  1.00  0.00     0.020 C 
HETATM    8  C   UNL     1      68.159   3.495   8.702  1.00  0.00     0.002 C 
HETATM    9  C   UNL     1      68.524   3.124   7.264  1.00  0.00     0.002 C 
ENDROOT
BRANCH   1  10
HETATM   10  C   UNL     1      65.021   6.223   5.988  1.00  0.00     0.103 C 
HETATM   11  C   UNL     1      63.506   6.239   6.245  1.00  0.00     0.246 C 
HETATM   12  N   UNL     1      62.934   7.570   6.421  1.00  0.00    -0.074 N 
HETATM   13  C   UNL     1      63.251   8.467   5.318  1.00  0.00     0.232 C 
HETATM   14  H   UNL     1      63.301   7.971   7.285  1.00  0.00     0.277 HD
HETATM   15  H   UNL     1      61.920   7.467   6.454  1.00  0.00     0.277 HD
HETATM   16  C   UNL     1      64.756   8.578   5.075  1.00  0.00     0.028 C 
HETATM   17  C   UNL     1      65.411   7.211   4.886  1.00  0.00     0.017 C 
ENDBRANCH   1  10
TORSDOF 1
ENDMDL
MODEL 3
REMARK VINA RESULT:      -5.2      4.010      5.813
REMARK  1 active torsions:
REMARK  status: ('A' for Active; 'I' for Inactive)
REMARK       I    between atoms: C_1  and  N_2 
REMARK    1  A    between atoms: C_1  and  C_3 
ROOT
HETATM    1  C   UNL     1      67.234   4.764   7.937  1.00  0.00     0.225 C 
HETATM    2  N   UNL     1      66.567   5.339   6.857  1.00  0.00    -0.352 N 
HETATM    3  O   UNL     1      66.642   4.577   9.005  1.00  0.00    -0.273 OA
HETATM    4  C   UNL     1      65.237   5.881   7.119  1.00  0.00     0.125 C 
HETATM    5  C   UNL     1      67.010   5.269   5.466  1.00  0.00     0.125 C 
HETATM    6  C   UNL     1      67.733   6.542   5.034  1.00  0.00     0.020 C 
HETATM    7  C   UNL     1      64.813   7.049   6.230  1.00  0.00     0.020 C 
HETATM    8  C   UNL     1      65.910   8.093   6.026  1.00  0.00     0.002 C 
HETATM    9  C   UNL     1      66.830   7.762   4.850  1.00  0.00     0.002 C 
ENDROOT
BRANCH   1  10
HETATM   10  C   UNL     1      68.714   4.387   7.775  1.00  0.00     0.103 C 
HETATM   11  C   UNL     1      69.512   4.733   9.042  1.00  0.00     0.246 C 
HETATM   12  N   UNL     1      69.314   3.812  10.155  1.00  0.00    -0.074 N 
HETATM   13  C   UNL     1      69.562   2.425   9.787  1.00  0.00     0.232 C 
HETATM   14  H   UNL     1      68.350   3.897  10.482  1.00  0.00     0.277 HD
HETATM   15  H   UNL     1      69.981   4.062  10.885  1.00  0.00     0.277 HD
HETATM   16  C   UNL     1      68.718   1.982   8.592  1.00  0.00     0.028 C 
HETATM   17  C   UNL     1      68.883   2.915   7.394  1.00  0.00     0.017 C 
ENDBRANCH   1  10
TORSDOF 1
ENDMDL
MODEL 4
REMARK VINA RESULT:      -5.1      3.742      7.707
REMARK  1 active torsions:
REMARK  status: ('A' for Active; 'I' for Inactive)
REMARK       I    between atoms: C_1  and  N_2 
REMARK    1  A    between atoms: C_1  and  C_3 
ROOT
HETATM    1  C   UNL     1      67.613   5.561   7.791  1.00  0.00     0.225 C 
HETATM    2  N   UNL     1      68.469   4.512   8.121  1.00  0.00    -0.352 N 
HETATM    3  O   UNL     1      67.515   6.542   8.536  1.00  0.00    -0.273 OA
HETATM    4  C   UNL     1      69.063   4.544   9.455  1.00  0.00     0.125 C 
HETATM    5  C   UNL     1      68.960   3.505   7.183  1.00  0.00     0.125 C 
HETATM    6  C   UNL     1      68.167   2.205   7.279  1.00  0.00     0.020 C 
HETATM    7  C   UNL     1      69.397   3.182  10.062  1.00  0.00     0.020 C 
HETATM    8  C   UNL     1      68.298   2.138   9.865  1.00  0.00     0.002 C 
HETATM    9  C   UNL     1      68.429   1.383   8.541  1.00  0.00     0.002 C 
ENDROOT
BRANCH   1  10
HETATM   10  C   UNL     1      66.788   5.462   6.499  1.00  0.00     0.103 C 
HETATM   11  C   UNL     1      65.356   5.972   6.720  1.00  0.00     0.246 C 
HETATM   12  N   UNL     1      65.232   7.424   6.786  1.00  0.00    -0.074 N 
HETATM   13  C   UNL     1      65.813   8.090   5.629  1.00  0.00     0.232 C 
HETATM   14  H   UNL     1      65.707   7.755   7.627  1.00  0.00     0.277 HD
HETATM   15  H   UNL     1      64.237   7.648   6.804  1.00  0.00     0.277 HD
HETATM   16  C   UNL     1      67.277   7.705   5.412  1.00  0.00     0.028 C 
HETATM   17  C   UNL     1      67.468   6.191   5.338  1.00  0.00     0.017 C 
ENDBRANCH   1  10
TORSDOF 1
ENDMDL
MODEL 5
REMARK VINA RESULT:      -5.1      3.538      5.512
REMARK  1 active torsions:
REMARK  status: ('A' for Active; 'I' for Inactive)
REMARK       I    between atoms: C_1  and  N_2 
REMARK    1  A    between atoms: C_1  and  C_3 
ROOT
HETATM    1  C   UNL     1      67.884   5.101   6.602  1.00  0.00     0.225 C 
HETATM    2  N   UNL     1      67.511   6.028   5.631  1.00  0.00    -0.352 N 
HETATM    3  O   UNL     1      68.053   3.915   6.298  1.00  0.00    -0.273 OA
HETATM    4  C   UNL     1      67.138   5.495   4.323  1.00  0.00     0.125 C 
HETATM    5  C   UNL     1      67.647   7.477   5.761  1.00  0.00     0.125 C 
HETATM    6  C   UNL     1      66.331   8.138   6.162  1.00  0.00     0.020 C 
HETATM    7  C   UNL     1      66.128   6.328   3.536  1.00  0.00     0.020 C 
HETATM    8  C   UNL     1      64.964   6.842   4.383  1.00  0.00     0.002 C 
HETATM    9  C   UNL     1      65.271   8.178   5.061  1.00  0.00     0.002 C 
ENDROOT
BRANCH   1  10
HETATM   10  C   UNL     1      68.065   5.579   8.050  1.00  0.00     0.103 C 
HETATM   11  C   UNL     1      67.161   4.789   9.008  1.00  0.00     0.246 C 
HETATM   12  N   UNL     1      67.628   3.439   9.309  1.00  0.00    -0.074 N 
HETATM   13  C   UNL     1      68.998   3.417   9.802  1.00  0.00     0.232 C 
HETATM   14  H   UNL     1      67.577   2.879   8.458  1.00  0.00     0.277 HD
HETATM   15  H   UNL     1      67.029   3.063  10.044  1.00  0.00     0.277 HD
HETATM   16  C   UNL     1      69.972   4.099   8.841  1.00  0.00     0.028 C 
HETATM   17  C   UNL     1      69.530   5.518   8.487  1.00  0.00     0.017 C 
ENDBRANCH   1  10
TORSDOF 1
ENDMDL
MODEL 6
REMARK VINA RESULT:      -4.7      1.995      2.586
REMARK  1 active torsions:
REMARK  status: ('A' for Active; 'I' for Inactive)
REMARK       I    between atoms: C_1  and  N_2 
REMARK    1  A    between atoms: C_1  and  C_3 
ROOT
HETATM    1  C   UNL     1      65.002   6.550   6.405  1.00  0.00     0.225 C 
HETATM    2  N   UNL     1      63.926   6.569   5.521  1.00  0.00    -0.352 N 
HETATM    3  O   UNL     1      64.902   7.078   7.518  1.00  0.00    -0.273 OA
HETATM    4  C   UNL     1      62.785   7.403   5.891  1.00  0.00     0.125 C 
HETATM    5  C   UNL     1      63.774   5.684   4.368  1.00  0.00     0.125 C 
HETATM    6  C   UNL     1      64.189   6.368   3.068  1.00  0.00     0.020 C 
HETATM    7  C   UNL     1      61.975   7.968   4.726  1.00  0.00     0.020 C 
HETATM    8  C   UNL     1      62.837   8.515   3.589  1.00  0.00     0.002 C 
HETATM    9  C   UNL     1      63.222   7.441   2.569  1.00  0.00     0.002 C 
ENDROOT
BRANCH   1  10
HETATM   10  C   UNL     1      66.310   5.878   5.963  1.00  0.00     0.103 C 
HETATM   11  C   UNL     1      67.526   6.741   6.333  1.00  0.00     0.246 C 
HETATM   12  N   UNL     1      67.889   6.704   7.746  1.00  0.00    -0.074 N 
HETATM   13  C   UNL     1      68.085   5.348   8.240  1.00  0.00     0.232 C 
HETATM   14  H   UNL     1      67.143   7.144   8.286  1.00  0.00     0.277 HD
HETATM   15  H   UNL     1      68.773   7.202   7.851  1.00  0.00     0.277 HD
HETATM   16  C   UNL     1      66.866   4.459   7.996  1.00  0.00     0.028 C 
HETATM   17  C   UNL     1      66.437   4.462   6.529  1.00  0.00     0.017 C 
ENDBRANCH   1  10
TORSDOF 1
ENDMDL
MODEL 7
REMARK VINA RESULT:      -4.4      3.341      7.297
REMARK  1 active torsions:
REMARK  status: ('A' for Active; 'I' for Inactive)
REMARK       I    between atoms: C_1  and  N_2 
REMARK    1  A    between atoms: C_1  and  C_3 
ROOT
HETATM    1  C   UNL     1      66.610   5.006   6.524  1.00  0.00     0.225 C 
HETATM    2  N   UNL     1      67.120   4.569   7.745  1.00  0.00    -0.352 N 
HETATM    3  O   UNL     1      65.857   4.278   5.869  1.00  0.00    -0.273 OA
HETATM    4  C   UNL     1      66.889   3.169   8.091  1.00  0.00     0.125 C 
HETATM    5  C   UNL     1      67.689   5.438   8.774  1.00  0.00     0.125 C 
HETATM    6  C   UNL     1      69.215   5.449   8.727  1.00  0.00     0.020 C 
HETATM    7  C   UNL     1      67.947   2.528   8.988  1.00  0.00     0.020 C 
HETATM    8  C   UNL     1      69.381   2.868   8.583  1.00  0.00     0.002 C 
HETATM    9  C   UNL     1      69.883   4.166   9.220  1.00  0.00     0.002 C 
ENDROOT
BRANCH   1  10
HETATM   10  C   UNL     1      67.015   6.394   6.008  1.00  0.00     0.103 C 
HETATM   11  C   UNL     1      67.066   6.418   4.473  1.00  0.00     0.246 C 
HETATM   12  N   UNL     1      65.760   6.467   3.823  1.00  0.00    -0.074 N 
HETATM   13  C   UNL     1      64.937   7.569   4.301  1.00  0.00     0.232 C 
HETATM   14  H   UNL     1      65.271   5.590   4.006  1.00  0.00     0.277 HD
HETATM   15  H   UNL     1      65.917   6.609   2.826  1.00  0.00     0.277 HD
HETATM   16  C   UNL     1      64.759   7.545   5.819  1.00  0.00     0.028 C 
HETATM   17  C   UNL     1      66.097   7.490   6.554  1.00  0.00     0.017 C 
ENDBRANCH   1  10
TORSDOF 1
ENDMDL
MODEL 8
REMARK VINA RESULT:      -4.3      2.941      3.845
REMARK  1 active torsions:
REMARK  status: ('A' for Active; 'I' for Inactive)
REMARK       I    between atoms: C_1  and  N_2 
REMARK    1  A    between atoms: C_1  and  C_3 
ROOT
HETATM    1  C   UNL     1      61.828   7.219   4.969  1.00  0.00     0.225 C 
HETATM    2  N   UNL     1      60.665   6.642   4.462  1.00  0.00    -0.352 N 
HETATM    3  O   UNL     1      62.111   7.099   6.166  1.00  0.00    -0.273 OA
HETATM    4  C   UNL     1      59.729   6.088   5.436  1.00  0.00     0.125 C 
HETATM    5  C   UNL     1      60.408   6.381   3.048  1.00  0.00     0.125 C 
HETATM    6  C   UNL     1      59.529   7.461   2.422  1.00  0.00     0.020 C 
HETATM    7  C   UNL     1      58.259   6.099   5.018  1.00  0.00     0.020 C 
HETATM    8  C   UNL     1      57.818   7.409   4.365  1.00  0.00     0.002 C 
HETATM    9  C   UNL     1      58.064   7.429   2.856  1.00  0.00     0.002 C 
ENDROOT
BRANCH   1  10
HETATM   10  C   UNL     1      62.734   8.014   4.017  1.00  0.00     0.103 C 
HETATM   11  C   UNL     1      63.317   9.251   4.716  1.00  0.00     0.246 C 
HETATM   12  N   UNL     1      64.405   8.967   5.647  1.00  0.00    -0.074 N 
HETATM   13  C   UNL     1      65.481   8.201   5.034  1.00  0.00     0.232 C 
HETATM   14  H   UNL     1      64.031   8.434   6.433  1.00  0.00     0.277 HD
HETATM   15  H   UNL     1      64.794   9.860   5.948  1.00  0.00     0.277 HD
HETATM   16  C   UNL     1      64.983   6.899   4.406  1.00  0.00     0.028 C 
HETATM   17  C   UNL     1      63.838   7.136   3.423  1.00  0.00     0.017 C 
ENDBRANCH   1  10
TORSDOF 1
ENDMDL
MODEL 9
REMARK VINA RESULT:      -4.2     17.024     18.242
REMARK  1 active torsions:
REMARK  status: ('A' for Active; 'I' for Inactive)
REMARK       I    between atoms: C_1  and  N_2 
REMARK    1  A    between atoms: C_1  and  C_3 
ROOT
HETATM    1  C   UNL     1      50.238  16.316  -1.691  1.00  0.00     0.225 C 
HETATM    2  N   UNL     1      49.536  16.887  -0.632  1.00  0.00    -0.352 N 
HETATM    3  O   UNL     1      51.027  15.387  -1.487  1.00  0.00    -0.273 OA
HETATM    4  C   UNL     1      49.931  16.478   0.714  1.00  0.00     0.125 C 
HETATM    5  C   UNL     1      48.330  17.700  -0.768  1.00  0.00     0.125 C 
HETATM    6  C   UNL     1      48.640  19.193  -0.692  1.00  0.00     0.020 C 
HETATM    7  C   UNL     1      49.706  17.517   1.811  1.00  0.00     0.020 C 
HETATM    8  C   UNL     1      50.128  18.931   1.412  1.00  0.00     0.002 C 
HETATM    9  C   UNL     1      49.014  19.702   0.700  1.00  0.00     0.002 C 
ENDROOT
BRANCH   1  10
HETATM   10  C   UNL     1      50.023  16.874  -3.106  1.00  0.00     0.103 C 
HETATM   11  C   UNL     1      51.324  16.825  -3.921  1.00  0.00     0.246 C 
HETATM   12  N   UNL     1      51.685  15.498  -4.410  1.00  0.00    -0.074 N 
HETATM   13  C   UNL     1      50.611  14.868  -5.167  1.00  0.00     0.232 C 
HETATM   14  H   UNL     1      51.912  14.906  -3.611  1.00  0.00     0.277 HD
HETATM   15  H   UNL     1      52.482  15.607  -5.037  1.00  0.00     0.277 HD
HETATM   16  C   UNL     1      49.308  14.790  -4.371  1.00  0.00     0.028 C 
HETATM   17  C   UNL     1      48.883  16.154  -3.830  1.00  0.00     0.017 C 
ENDBRANCH   1  10
TORSDOF 1
ENDMDL
