MODEL 1
REMARK VINA RESULT:      -4.9      0.000      0.000
REMARK  1 active torsions:
REMARK  status: ('A' for Active; 'I' for Inactive)
REMARK       I    between atoms: C_1  and  N_2 
REMARK    1  A    between atoms: C_1  and  C_5 
ROOT
HETATM    1  N   UNL     1      67.879   6.800   6.628  1.00  0.00    -0.075 N 
HETATM    2  C   UNL     1      65.468   7.133   4.992  1.00  0.00     0.081 C 
HETATM    3  C   UNL     1      66.564   6.822   7.273  1.00  0.00     0.233 C 
HETATM    4  C   UNL     1      67.904   7.708   5.482  1.00  0.00     0.233 C 
HETATM    5  C   UNL     1      65.468   6.357   6.315  1.00  0.00     0.041 C 
HETATM    6  C   UNL     1      66.883   7.291   4.430  1.00  0.00     0.041 C 
HETATM    7  H   UNL     1      68.587   7.089   7.303  1.00  0.00     0.277 HD
HETATM    8  H   UNL     1      68.069   5.852   6.302  1.00  0.00     0.277 HD
ENDROOT
BRANCH   2   9
HETATM    9  C   UNL     1      64.765   8.490   5.141  1.00  0.00     0.224 C 
HETATM   10  N   UNL     1      63.672   8.716   4.329  1.00  0.00    -0.352 N 
HETATM   11  C   UNL     1      62.963   9.978   4.360  1.00  0.00     0.126 C 
HETATM   12  C   UNL     1      63.235   7.903   3.208  1.00  0.00     0.126 C 
HETATM   13  C   UNL     1      61.652   9.672   3.656  1.00  0.00     0.021 C 
HETATM   14  C   UNL     1      62.040   8.638   2.606  1.00  0.00     0.021 C 
HETATM   15  O   UNL     1      65.137   9.319   5.973  1.00  0.00    -0.273 OA
ENDBRANCH   2   9
TORSDOF 1
ENDMDL
MODEL 2
REMARK VINA RESULT:      -4.7      3.579      5.230
REMARK  1 active torsions:
REMARK  status: ('A' for Active; 'I' for Inactive)
REMARK       I    between atoms: C_1  and  N_2 
REMARK    1  A    between atoms: C_1  and  C_5 
ROOT
HETATM    1  N   UNL     1      69.622   2.489   9.391  1.00  0.00    -0.075 N 
HETATM    2  C   UNL     1      68.638   4.608   7.619  1.00  0.00     0.081 C 
HETATM    3  C   UNL     1      68.605   2.177   8.385  1.00  0.00     0.233 C 
HETATM    4  C   UNL     1      69.424   3.838   9.921  1.00  0.00     0.233 C 
HETATM    5  C   UNL     1      68.687   3.134   7.197  1.00  0.00     0.041 C 
HETATM    6  C   UNL     1      69.550   4.883   8.817  1.00  0.00     0.041 C 
HETATM    7  H   UNL     1      69.556   1.816  10.155  1.00  0.00     0.277 HD
HETATM    8  H   UNL     1      70.543   2.438   8.956  1.00  0.00     0.277 HD
ENDROOT
BRANCH   2   9
HETATM    9  C   UNL     1      67.197   5.064   7.890  1.00  0.00     0.224 C 
HETATM   10  N   UNL     1      66.693   6.051   7.067  1.00  0.00    -0.352 N 
HETATM   11  C   UNL     1      65.360   6.582   7.264  1.00  0.00     0.126 C 
HETATM   12  C   UNL     1      67.435   6.852   6.110  1.00  0.00     0.126 C 
HETATM   13  C   UNL     1      65.067   7.309   5.963  1.00  0.00     0.021 C 
HETATM   14  C   UNL     1      66.428   7.845   5.535  1.00  0.00     0.021 C 
HETATM   15  O   UNL     1      66.514   4.545   8.774  1.00  0.00    -0.273 OA
ENDBRANCH   2   9
TORSDOF 1
ENDMDL
MODEL 3
REMARK VINA RESULT:      -4.6      1.737      5.317
REMARK  1 active torsions:
REMARK  status: ('A' for Active; 'I' for Inactive)
REMARK       I    between atoms: C_1  and  N_2 
REMARK    1  A    between atoms: C_1  and  C_5 
ROOT
HETATM    1  N   UNL     1      63.157   7.229   3.575  1.00  0.00    -0.075 N 
HETATM    2  C   UNL     1      65.579   7.324   5.225  1.00  0.00     0.081 C 
HETATM    3  C   UNL     1      63.307   8.282   4.580  1.00  0.00     0.233 C 
HETATM    4  C   UNL     1      63.760   5.981   4.044  1.00  0.00     0.233 C 
HETATM    5  C   UNL     1      64.780   8.580   4.859  1.00  0.00     0.041 C 
HETATM    6  C   UNL     1      65.254   6.155   4.291  1.00  0.00     0.041 C 
HETATM    7  H   UNL     1      62.165   7.076   3.395  1.00  0.00     0.277 HD
HETATM    8  H   UNL     1      63.629   7.522   2.719  1.00  0.00     0.277 HD
ENDROOT
BRANCH   2   9
HETATM    9  C   UNL     1      65.376   6.942   6.699  1.00  0.00     0.224 C 
HETATM   10  N   UNL     1      66.481   6.463   7.374  1.00  0.00    -0.352 N 
HETATM   11  C   UNL     1      66.387   6.037   8.755  1.00  0.00     0.126 C 
HETATM   12  C   UNL     1      67.759   6.084   6.799  1.00  0.00     0.126 C 
HETATM   13  C   UNL     1      67.835   5.976   9.211  1.00  0.00     0.021 C 
HETATM   14  C   UNL     1      68.589   5.544   7.959  1.00  0.00     0.021 C 
HETATM   15  O   UNL     1      64.290   7.095   7.258  1.00  0.00    -0.273 OA
ENDBRANCH   2   9
TORSDOF 1
ENDMDL
MODEL 4
REMARK VINA RESULT:      -4.4      3.512      6.780
REMARK  1 active torsions:
REMARK  status: ('A' for Active; 'I' for Inactive)
REMARK       I    between atoms: C_1  and  N_2 
REMARK    1  A    between atoms: C_1  and  C_5 
ROOT
HETATM    1  N   UNL     1      65.334   7.805   6.237  1.00  0.00    -0.075 N 
HETATM    2  C   UNL     1      67.256   5.626   6.634  1.00  0.00     0.081 C 
HETATM    3  C   UNL     1      66.747   8.118   6.457  1.00  0.00     0.233 C 
HETATM    4  C   UNL     1      64.941   6.628   7.013  1.00  0.00     0.233 C 
HETATM    5  C   UNL     1      67.648   6.969   6.005  1.00  0.00     0.041 C 
HETATM    6  C   UNL     1      65.742   5.402   6.590  1.00  0.00     0.041 C 
HETATM    7  H   UNL     1      64.766   8.602   6.524  1.00  0.00     0.277 HD
HETATM    8  H   UNL     1      65.191   7.609   5.246  1.00  0.00     0.277 HD
ENDROOT
BRANCH   2   9
HETATM    9  C   UNL     1      67.805   5.497   8.062  1.00  0.00     0.224 C 
HETATM   10  N   UNL     1      68.385   4.290   8.398  1.00  0.00    -0.352 N 
HETATM   11  C   UNL     1      68.897   4.050   9.731  1.00  0.00     0.126 C 
HETATM   12  C   UNL     1      68.352   3.061   7.625  1.00  0.00     0.126 C 
HETATM   13  C   UNL     1      69.773   2.821   9.563  1.00  0.00     0.021 C 
HETATM   14  C   UNL     1      69.064   2.017   8.480  1.00  0.00     0.021 C 
HETATM   15  O   UNL     1      67.764   6.439   8.854  1.00  0.00    -0.273 OA
ENDBRANCH   2   9
TORSDOF 1
ENDMDL
MODEL 5
REMARK VINA RESULT:      -4.3      1.768      2.711
REMARK  1 active torsions:
REMARK  status: ('A' for Active; 'I' for Inactive)
REMARK       I    between atoms: C_1  and  N_2 
REMARK    1  A    between atoms: C_1  and  C_5 
ROOT
HETATM    1  N   UNL     1      65.358   5.556   6.374  1.00  0.00    -0.075 N 
HETATM    2  C   UNL     1      64.377   8.089   5.269  1.00  0.00     0.081 C 
HETATM    3  C   UNL     1      66.031   6.151   5.218  1.00  0.00     0.233 C 
HETATM    4  C   UNL     1      63.918   5.808   6.315  1.00  0.00     0.233 C 
HETATM    5  C   UNL     1      65.849   7.668   5.188  1.00  0.00     0.041 C 
HETATM    6  C   UNL     1      63.623   7.304   6.345  1.00  0.00     0.041 C 
HETATM    7  H   UNL     1      65.522   4.550   6.376  1.00  0.00     0.277 HD
HETATM    8  H   UNL     1      65.731   5.977   7.225  1.00  0.00     0.277 HD
ENDROOT
BRANCH   2   9
HETATM    9  C   UNL     1      63.688   7.978   3.901  1.00  0.00     0.224 C 
HETATM   10  N   UNL     1      62.979   9.081   3.470  1.00  0.00    -0.352 N 
HETATM   11  C   UNL     1      62.258   9.065   2.215  1.00  0.00     0.126 C 
HETATM   12  C   UNL     1      62.638  10.257   4.250  1.00  0.00     0.126 C 
HETATM   13  C   UNL     1      61.978  10.533   1.943  1.00  0.00     0.021 C 
HETATM   14  C   UNL     1      61.782  11.126   3.333  1.00  0.00     0.021 C 
HETATM   15  O   UNL     1      63.797   6.966   3.207  1.00  0.00    -0.273 OA
ENDBRANCH   2   9
TORSDOF 1
ENDMDL
MODEL 6
REMARK VINA RESULT:      -4.3      2.045      2.747
REMARK  1 active torsions:
REMARK  status: ('A' for Active; 'I' for Inactive)
REMARK       I    between atoms: C_1  and  N_2 
REMARK    1  A    between atoms: C_1  and  C_5 
ROOT
HETATM    1  N   UNL     1      68.364   5.658   9.185  1.00  0.00    -0.075 N 
HETATM    2  C   UNL     1      66.130   5.803   7.291  1.00  0.00     0.081 C 
HETATM    3  C   UNL     1      67.311   6.655   9.383  1.00  0.00     0.233 C 
HETATM    4  C   UNL     1      68.613   5.449   7.758  1.00  0.00     0.233 C 
HETATM    5  C   UNL     1      65.989   6.199   8.766  1.00  0.00     0.041 C 
HETATM    6  C   UNL     1      67.364   4.928   7.056  1.00  0.00     0.041 C 
HETATM    7  H   UNL     1      69.222   5.982   9.631  1.00  0.00     0.277 HD
HETATM    8  H   UNL     1      68.063   4.775   9.599  1.00  0.00     0.277 HD
ENDROOT
BRANCH   2   9
HETATM    9  C   UNL     1      66.132   7.038   6.378  1.00  0.00     0.224 C 
HETATM   10  N   UNL     1      64.902   7.491   5.944  1.00  0.00    -0.352 N 
HETATM   11  C   UNL     1      64.796   8.623   5.047  1.00  0.00     0.126 C 
HETATM   12  C   UNL     1      63.625   6.815   6.081  1.00  0.00     0.126 C 
HETATM   13  C   UNL     1      63.334   9.024   5.146  1.00  0.00     0.021 C 
HETATM   14  C   UNL     1      62.611   7.699   5.360  1.00  0.00     0.021 C 
HETATM   15  O   UNL     1      67.178   7.617   6.083  1.00  0.00    -0.273 OA
ENDBRANCH   2   9
TORSDOF 1
ENDMDL
MODEL 7
REMARK VINA RESULT:      -4.2      2.289      5.711
REMARK  1 active torsions:
REMARK  status: ('A' for Active; 'I' for Inactive)
REMARK       I    between atoms: C_1  and  N_2 
REMARK    1  A    between atoms: C_1  and  C_5 
ROOT
HETATM    1  N   UNL     1      59.763   8.333   1.481  1.00  0.00    -0.075 N 
HETATM    2  C   UNL     1      62.239   8.813   2.977  1.00  0.00     0.081 C 
HETATM    3  C   UNL     1      60.032   7.569   2.700  1.00  0.00     0.233 C 
HETATM    4  C   UNL     1      61.006   8.595   0.754  1.00  0.00     0.233 C 
HETATM    5  C   UNL     1      60.945   8.341   3.651  1.00  0.00     0.041 C 
HETATM    6  C   UNL     1      61.969   9.422   1.598  1.00  0.00     0.041 C 
HETATM    7  H   UNL     1      59.131   7.801   0.883  1.00  0.00     0.277 HD
HETATM    8  H   UNL     1      59.338   9.224   1.738  1.00  0.00     0.277 HD
ENDROOT
BRANCH   2   9
HETATM    9  C   UNL     1      63.274   7.681   2.900  1.00  0.00     0.224 C 
HETATM   10  N   UNL     1      64.220   7.634   3.903  1.00  0.00    -0.352 N 
HETATM   11  C   UNL     1      65.265   6.632   3.902  1.00  0.00     0.126 C 
HETATM   12  C   UNL     1      64.477   8.651   4.908  1.00  0.00     0.126 C 
HETATM   13  C   UNL     1      65.810   6.678   5.320  1.00  0.00     0.021 C 
HETATM   14  C   UNL     1      65.672   8.145   5.711  1.00  0.00     0.021 C 
HETATM   15  O   UNL     1      63.234   6.833   2.006  1.00  0.00    -0.273 OA
ENDBRANCH   2   9
TORSDOF 1
ENDMDL
MODEL 8
REMARK VINA RESULT:      -4.2      1.684      5.076
REMARK  1 active torsions:
REMARK  status: ('A' for Active; 'I' for Inactive)
REMARK       I    between atoms: C_1  and  N_2 
REMARK    1  A    between atoms: C_1  and  C_5 
ROOT
HETATM    1  N   UNL     1      61.828   7.574   3.095  1.00  0.00    -0.075 N 
HETATM    2  C   UNL     1      64.388   7.840   4.501  1.00  0.00     0.081 C 
HETATM    3  C   UNL     1      61.982   8.597   4.131  1.00  0.00     0.233 C 
HETATM    4  C   UNL     1      62.590   6.373   3.441  1.00  0.00     0.233 C 
HETATM    5  C   UNL     1      63.442   9.026   4.277  1.00  0.00     0.041 C 
HETATM    6  C   UNL     1      64.079   6.682   3.548  1.00  0.00     0.041 C 
HETATM    7  H   UNL     1      60.842   7.332   3.006  1.00  0.00     0.277 HD
HETATM    8  H   UNL     1      62.181   7.944   2.212  1.00  0.00     0.277 HD
ENDROOT
BRANCH   2   9
HETATM    9  C   UNL     1      64.374   7.383   5.967  1.00  0.00     0.224 C 
HETATM   10  N   UNL     1      65.576   6.960   6.497  1.00  0.00    -0.352 N 
HETATM   11  C   UNL     1      65.664   6.470   7.857  1.00  0.00     0.126 C 
HETATM   12  C   UNL     1      66.807   6.701   5.772  1.00  0.00     0.126 C 
HETATM   13  C   UNL     1      67.153   6.499   8.154  1.00  0.00     0.021 C 
HETATM   14  C   UNL     1      67.795   6.176   6.809  1.00  0.00     0.021 C 
HETATM   15  O   UNL     1      63.347   7.431   6.645  1.00  0.00    -0.273 OA
ENDBRANCH   2   9
TORSDOF 1
ENDMDL
MODEL 9
REMARK VINA RESULT:      -4.1     18.165     20.930
REMARK  1 active torsions:
REMARK  status: ('A' for Active; 'I' for Inactive)
REMARK       I    between atoms: C_1  and  N_2 
REMARK    1  A    between atoms: C_1  and  C_5 
ROOT
HETATM    1  N   UNL     1      80.521  -1.508  21.156  1.00  0.00    -0.075 N 
HETATM    2  C   UNL     1      77.992  -0.583  19.994  1.00  0.00     0.081 C 
HETATM    3  C   UNL     1      79.831  -0.358  21.745  1.00  0.00     0.233 C 
HETATM    4  C   UNL     1      80.346  -1.523  19.704  1.00  0.00     0.233 C 
HETATM    5  C   UNL     1      78.327  -0.418  21.481  1.00  0.00     0.041 C 
HETATM    6  C   UNL     1      78.873  -1.646  19.331  1.00  0.00     0.041 C 
HETATM    7  H   UNL     1      81.515  -1.449  21.374  1.00  0.00     0.277 HD
HETATM    8  H   UNL     1      80.124  -2.364  21.545  1.00  0.00     0.277 HD
ENDROOT
BRANCH   2   9
HETATM    9  C   UNL     1      78.072   0.758  19.250  1.00  0.00     0.224 C 
HETATM   10  N   UNL     1      76.972   1.117  18.497  1.00  0.00    -0.352 N 
HETATM   11  C   UNL     1      76.960   2.342  17.724  1.00  0.00     0.126 C 
HETATM   12  C   UNL     1      75.834   0.281  18.160  1.00  0.00     0.126 C 
HETATM   13  C   UNL     1      75.492   2.547  17.397  1.00  0.00     0.021 C 
HETATM   14  C   UNL     1      74.955   1.128  17.246  1.00  0.00     0.021 C 
HETATM   15  O   UNL     1      79.054   1.494  19.355  1.00  0.00    -0.273 OA
ENDBRANCH   2   9
TORSDOF 1
ENDMDL
