MODEL 1
REMARK VINA RESULT:      -4.2      0.000      0.000
REMARK  2 active torsions:
REMARK  status: ('A' for Active; 'I' for Inactive)
REMARK    1  A    between atoms: N_1  and  C_2 
REMARK    2  A    between atoms: C_7  and  C_8 
ROOT
HETATM    1  C   UNL     1      79.144  11.831  21.421  1.00  0.00     0.183 C 
HETATM    2  C   UNL     1      78.958  11.275  20.006  1.00  0.00     0.033 C 
HETATM    3  C   UNL     1      78.263  13.059  21.685  1.00  0.00     0.033 C 
HETATM    4  C   UNL     1      76.798  12.805  21.319  1.00  0.00     0.006 C 
HETATM    5  C   UNL     1      77.482  11.021  19.700  1.00  0.00     0.006 C 
HETATM    6  C   UNL     1      76.624  12.283  19.881  1.00  0.00    -0.015 C 
ENDROOT
BRANCH   1   7
HETATM    7  N   UNL     1      80.548  12.177  21.633  1.00  0.00    -0.075 N 
HETATM    8  H   UNL     1      81.005  12.310  20.730  1.00  0.00     0.274 HD
HETATM    9  H   UNL     1      81.012  11.425  22.140  1.00  0.00     0.274 HD
HETATM   10  H   UNL     1      80.608  13.041  22.173  1.00  0.00     0.274 HD
ENDBRANCH   1   7
BRANCH   6  11
HETATM   11  C   UNL     1      76.924  13.397  18.854  1.00  0.00     0.000 C 
HETATM   12  C   UNL     1      76.526  13.048  17.426  1.00  0.00     0.005 C 
ENDBRANCH   6  11
TORSDOF 2
ENDMDL
MODEL 2
REMARK VINA RESULT:      -4.1      2.273      3.918
REMARK  2 active torsions:
REMARK  status: ('A' for Active; 'I' for Inactive)
REMARK    1  A    between atoms: N_1  and  C_2 
REMARK    2  A    between atoms: C_7  and  C_8 
ROOT
HETATM    1  C   UNL     1      76.375  12.595  18.594  1.00  0.00     0.183 C 
HETATM    2  C   UNL     1      76.523  13.825  19.494  1.00  0.00     0.033 C 
HETATM    3  C   UNL     1      77.381  11.492  18.944  1.00  0.00     0.033 C 
HETATM    4  C   UNL     1      77.369  11.157  20.439  1.00  0.00     0.006 C 
HETATM    5  C   UNL     1      76.483  13.438  20.972  1.00  0.00     0.006 C 
HETATM    6  C   UNL     1      77.556  12.398  21.331  1.00  0.00    -0.015 C 
ENDROOT
BRANCH   1   7
HETATM    7  N   UNL     1      76.542  12.987  17.195  1.00  0.00    -0.075 N 
HETATM    8  H   UNL     1      75.689  12.773  16.678  1.00  0.00     0.274 HD
HETATM    9  H   UNL     1      77.324  12.474  16.788  1.00  0.00     0.274 HD
HETATM   10  H   UNL     1      76.728  13.989  17.143  1.00  0.00     0.274 HD
ENDBRANCH   1   7
BRANCH   6  11
HETATM   11  C   UNL     1      79.003  12.930  21.231  1.00  0.00     0.000 C 
HETATM   12  C   UNL     1      79.842  12.685  22.477  1.00  0.00     0.005 C 
ENDBRANCH   6  11
TORSDOF 2
ENDMDL
MODEL 3
REMARK VINA RESULT:      -3.9     16.161     17.661
REMARK  2 active torsions:
REMARK  status: ('A' for Active; 'I' for Inactive)
REMARK    1  A    between atoms: N_1  and  C_2 
REMARK    2  A    between atoms: C_7  and  C_8 
ROOT
HETATM    1  C   UNL     1      66.737   7.161   7.184  1.00  0.00     0.183 C 
HETATM    2  C   UNL     1      66.854   6.750   8.655  1.00  0.00     0.033 C 
HETATM    3  C   UNL     1      67.775   6.460   6.298  1.00  0.00     0.033 C 
HETATM    4  C   UNL     1      67.779   4.942   6.508  1.00  0.00     0.006 C 
HETATM    5  C   UNL     1      66.832   5.229   8.809  1.00  0.00     0.006 C 
HETATM    6  C   UNL     1      67.935   4.544   7.987  1.00  0.00    -0.015 C 
ENDROOT
BRANCH   1   7
HETATM    7  N   UNL     1      66.887   8.610   7.065  1.00  0.00    -0.075 N 
HETATM    8  H   UNL     1      67.194   8.994   7.959  1.00  0.00     0.274 HD
HETATM    9  H   UNL     1      65.992   9.025   6.807  1.00  0.00     0.274 HD
HETATM   10  H   UNL     1      67.581   8.823   6.348  1.00  0.00     0.274 HD
ENDBRANCH   1   7
BRANCH   6  11
HETATM   11  C   UNL     1      69.366   4.844   8.487  1.00  0.00     0.000 C 
HETATM   12  C   UNL     1      69.822   3.954   9.634  1.00  0.00     0.005 C 
ENDBRANCH   6  11
TORSDOF 2
ENDMDL
MODEL 4
REMARK VINA RESULT:      -3.9     15.913     16.939
REMARK  2 active torsions:
REMARK  status: ('A' for Active; 'I' for Inactive)
REMARK    1  A    between atoms: N_1  and  C_2 
REMARK    2  A    between atoms: C_7  and  C_8 
ROOT
HETATM    1  C   UNL     1      68.889   2.617   9.546  1.00  0.00     0.183 C 
HETATM    2  C   UNL     1      69.713   3.821  10.010  1.00  0.00     0.033 C 
HETATM    3  C   UNL     1      67.634   3.034   8.770  1.00  0.00     0.033 C 
HETATM    4  C   UNL     1      67.954   4.022   7.645  1.00  0.00     0.006 C 
HETATM    5  C   UNL     1      70.022   4.763   8.847  1.00  0.00     0.006 C 
HETATM    6  C   UNL     1      68.750   5.246   8.134  1.00  0.00    -0.015 C 
ENDROOT
BRANCH   1   7
HETATM    7  N   UNL     1      68.508   1.807  10.701  1.00  0.00    -0.075 N 
HETATM    8  H   UNL     1      68.402   0.833  10.414  1.00  0.00     0.274 HD
HETATM    9  H   UNL     1      67.625   2.147  11.080  1.00  0.00     0.274 HD
HETATM   10  H   UNL     1      69.233   1.872  11.417  1.00  0.00     0.274 HD
ENDBRANCH   1   7
BRANCH   6  11
HETATM   11  C   UNL     1      67.860   6.168   8.997  1.00  0.00     0.000 C 
HETATM   12  C   UNL     1      66.626   6.693   8.276  1.00  0.00     0.005 C 
ENDBRANCH   6  11
TORSDOF 2
ENDMDL
MODEL 5
REMARK VINA RESULT:      -3.6     22.090     24.022
REMARK  2 active torsions:
REMARK  status: ('A' for Active; 'I' for Inactive)
REMARK    1  A    between atoms: N_1  and  C_2 
REMARK    2  A    between atoms: C_7  and  C_8 
ROOT
HETATM    1  C   UNL     1      63.033   9.394   4.132  1.00  0.00     0.183 C 
HETATM    2  C   UNL     1      61.941  10.286   3.534  1.00  0.00     0.033 C 
HETATM    3  C   UNL     1      62.954   7.951   3.618  1.00  0.00     0.033 C 
HETATM    4  C   UNL     1      62.886   7.888   2.089  1.00  0.00     0.006 C 
HETATM    5  C   UNL     1      61.930  10.202   2.008  1.00  0.00     0.006 C 
HETATM    6  C   UNL     1      61.758   8.760   1.505  1.00  0.00    -0.015 C 
ENDROOT
BRANCH   1   7
HETATM    7  N   UNL     1      62.932   9.403   5.590  1.00  0.00    -0.075 N 
HETATM    8  H   UNL     1      62.622  10.324   5.903  1.00  0.00     0.274 HD
HETATM    9  H   UNL     1      63.845   9.196   5.996  1.00  0.00     0.274 HD
HETATM   10  H   UNL     1      62.258   8.699   5.889  1.00  0.00     0.274 HD
ENDBRANCH   1   7
BRANCH   6  11
HETATM   11  C   UNL     1      60.375   8.147   1.818  1.00  0.00     0.000 C 
HETATM   12  C   UNL     1      59.438   8.086   0.619  1.00  0.00     0.005 C 
ENDBRANCH   6  11
TORSDOF 2
ENDMDL
MODEL 6
REMARK VINA RESULT:      -3.6     16.471     17.652
REMARK  2 active torsions:
REMARK  status: ('A' for Active; 'I' for Inactive)
REMARK    1  A    between atoms: N_1  and  C_2 
REMARK    2  A    between atoms: C_7  and  C_8 
ROOT
HETATM    1  C   UNL     1      67.085   6.200   7.724  1.00  0.00     0.183 C 
HETATM    2  C   UNL     1      66.855   4.857   7.025  1.00  0.00     0.033 C 
HETATM    3  C   UNL     1      67.974   6.066   8.966  1.00  0.00     0.033 C 
HETATM    4  C   UNL     1      69.270   5.307   8.666  1.00  0.00     0.006 C 
HETATM    5  C   UNL     1      68.179   4.153   6.730  1.00  0.00     0.006 C 
HETATM    6  C   UNL     1      69.022   3.942   7.998  1.00  0.00    -0.015 C 
ENDROOT
BRANCH   1   7
HETATM    7  N   UNL     1      65.799   6.785   8.100  1.00  0.00    -0.075 N 
HETATM    8  H   UNL     1      65.934   7.760   8.369  1.00  0.00     0.274 HD
HETATM    9  H   UNL     1      65.405   6.267   8.885  1.00  0.00     0.274 HD
HETATM   10  H   UNL     1      65.158   6.738   7.306  1.00  0.00     0.274 HD
ENDBRANCH   1   7
BRANCH   6  11
HETATM   11  C   UNL     1      68.404   2.945   9.003  1.00  0.00     0.000 C 
HETATM   12  C   UNL     1      69.331   2.563  10.148  1.00  0.00     0.005 C 
ENDBRANCH   6  11
TORSDOF 2
ENDMDL
MODEL 7
REMARK VINA RESULT:      -3.5     10.405     11.621
REMARK  2 active torsions:
REMARK  status: ('A' for Active; 'I' for Inactive)
REMARK    1  A    between atoms: N_1  and  C_2 
REMARK    2  A    between atoms: C_7  and  C_8 
ROOT
HETATM    1  C   UNL     1      76.353   2.893  18.023  1.00  0.00     0.183 C 
HETATM    2  C   UNL     1      77.277   1.673  17.961  1.00  0.00     0.033 C 
HETATM    3  C   UNL     1      75.224   2.823  16.987  1.00  0.00     0.033 C 
HETATM    4  C   UNL     1      74.474   1.488  17.044  1.00  0.00     0.006 C 
HETATM    5  C   UNL     1      76.481   0.371  18.042  1.00  0.00     0.006 C 
HETATM    6  C   UNL     1      75.412   0.271  16.943  1.00  0.00    -0.015 C 
ENDROOT
BRANCH   1   7
HETATM    7  N   UNL     1      77.134   4.112  17.817  1.00  0.00    -0.075 N 
HETATM    8  H   UNL     1      76.735   4.646  17.045  1.00  0.00     0.274 HD
HETATM    9  H   UNL     1      78.099   3.865  17.596  1.00  0.00     0.274 HD
HETATM   10  H   UNL     1      77.114   4.677  18.666  1.00  0.00     0.274 HD
ENDBRANCH   1   7
BRANCH   6  11
HETATM   11  C   UNL     1      75.991   0.144  15.516  1.00  0.00     0.000 C 
HETATM   12  C   UNL     1      74.936   0.119  14.418  1.00  0.00     0.005 C 
ENDBRANCH   6  11
TORSDOF 2
ENDMDL
MODEL 8
REMARK VINA RESULT:      -3.5     21.353     22.929
REMARK  2 active torsions:
REMARK  status: ('A' for Active; 'I' for Inactive)
REMARK    1  A    between atoms: N_1  and  C_2 
REMARK    2  A    between atoms: C_7  and  C_8 
ROOT
HETATM    1  C   UNL     1      62.863   8.357   5.484  1.00  0.00     0.183 C 
HETATM    2  C   UNL     1      62.205   7.409   4.478  1.00  0.00     0.033 C 
HETATM    3  C   UNL     1      63.267   9.693   4.848  1.00  0.00     0.033 C 
HETATM    4  C   UNL     1      62.111  10.334   4.074  1.00  0.00     0.006 C 
HETATM    5  C   UNL     1      61.047   8.091   3.750  1.00  0.00     0.006 C 
HETATM    6  C   UNL     1      61.484   9.382   3.040  1.00  0.00    -0.015 C 
ENDROOT
BRANCH   1   7
HETATM    7  N   UNL     1      64.039   7.714   6.068  1.00  0.00    -0.075 N 
HETATM    8  H   UNL     1      63.783   6.789   6.414  1.00  0.00     0.274 HD
HETATM    9  H   UNL     1      64.389   8.281   6.841  1.00  0.00     0.274 HD
HETATM   10  H   UNL     1      64.765   7.621   5.357  1.00  0.00     0.274 HD
ENDBRANCH   1   7
BRANCH   6  11
HETATM   11  C   UNL     1      62.448   9.150   1.855  1.00  0.00     0.000 C 
HETATM   12  C   UNL     1      61.801   8.478   0.652  1.00  0.00     0.005 C 
ENDBRANCH   6  11
TORSDOF 2
ENDMDL
MODEL 9
REMARK VINA RESULT:      -3.4     21.777     23.861
REMARK  2 active torsions:
REMARK  status: ('A' for Active; 'I' for Inactive)
REMARK    1  A    between atoms: N_1  and  C_2 
REMARK    2  A    between atoms: C_7  and  C_8 
ROOT
HETATM    1  C   UNL     1      61.553  10.591   2.135  1.00  0.00     0.183 C 
HETATM    2  C   UNL     1      61.868  10.293   3.604  1.00  0.00     0.033 C 
HETATM    3  C   UNL     1      62.149   9.543   1.187  1.00  0.00     0.033 C 
HETATM    4  C   UNL     1      61.791   8.115   1.609  1.00  0.00     0.006 C 
HETATM    5  C   UNL     1      61.473   8.865   3.977  1.00  0.00     0.006 C 
HETATM    6  C   UNL     1      62.149   7.819   3.077  1.00  0.00    -0.015 C 
ENDROOT
BRANCH   1   7
HETATM    7  N   UNL     1      62.056  11.917   1.783  1.00  0.00    -0.075 N 
HETATM    8  H   UNL     1      62.040  12.517   2.608  1.00  0.00     0.274 HD
HETATM    9  H   UNL     1      61.467  12.324   1.056  1.00  0.00     0.274 HD
HETATM   10  H   UNL     1      63.014  11.838   1.440  1.00  0.00     0.274 HD
ENDBRANCH   1   7
BRANCH   6  11
HETATM   11  C   UNL     1      63.681   7.731   3.260  1.00  0.00     0.000 C 
HETATM   12  C   UNL     1      64.129   7.653   4.713  1.00  0.00     0.005 C 
ENDBRANCH   6  11
TORSDOF 2
ENDMDL
