MODEL 1
REMARK VINA RESULT:      -5.5      0.000      0.000
REMARK  3 active torsions:
REMARK  status: ('A' for Active; 'I' for Inactive)
REMARK    1  A    between atoms: C_3  and  C_7 
REMARK    2  A    between atoms: C_5  and  C_11 
REMARK    3  A    between atoms: C_11  and  N_12 
ROOT
HETATM    1  N   UNL     1      65.175   8.143   6.063  1.00  0.00    -0.351 N 
ATOM      2  HN  UNL     1      65.716   9.001   5.955  1.00  0.00     0.166 HD
HETATM    3  C   UNL     1      63.974   7.927   5.481  1.00  0.00     0.084 A 
HETATM    4  S   UNL     1      63.392   6.391   5.852  1.00  0.00    -0.081 SA
HETATM    5  C   UNL     1      65.577   7.079   6.811  1.00  0.00     0.042 A 
HETATM    6  C   UNL     1      64.717   5.985   6.796  1.00  0.00     0.078 A 
ENDROOT
BRANCH   3   7
HETATM    7  C   UNL     1      63.267   8.931   4.660  1.00  0.00    -0.001 A 
HETATM    8  C   UNL     1      62.908   8.651   3.330  1.00  0.00     0.038 A 
HETATM    9  C   UNL     1      62.222   9.603   2.566  1.00  0.00     0.035 A 
HETATM   10 CL   UNL     1      61.734   9.227   0.922  1.00  0.00    -0.084 Cl
HETATM   11  C   UNL     1      61.917  10.851   3.115  1.00  0.00     0.024 A 
HETATM   12  C   UNL     1      62.282  11.142   4.432  1.00  0.00     0.003 A 
HETATM   13  C   UNL     1      62.940  10.184   5.208  1.00  0.00     0.014 A 
ENDBRANCH   3   7
BRANCH   5  14
HETATM   14  C   UNL     1      66.836   7.105   7.621  1.00  0.00     0.286 C 
BRANCH  14  15
HETATM   15  N   UNL     1      67.985   6.825   6.762  1.00  0.00    -0.074 N 
HETATM   16  H   UNL     1      67.663   6.402   5.892  1.00  0.00     0.274 HD
HETATM   17  H   UNL     1      68.618   6.184   7.239  1.00  0.00     0.274 HD
HETATM   18  H   UNL     1      68.474   7.696   6.556  1.00  0.00     0.274 HD
ENDBRANCH  14  15
ENDBRANCH   5  14
TORSDOF 3
ENDMDL
MODEL 2
REMARK VINA RESULT:      -5.2      3.370      5.991
REMARK  3 active torsions:
REMARK  status: ('A' for Active; 'I' for Inactive)
REMARK    1  A    between atoms: C_3  and  C_7 
REMARK    2  A    between atoms: C_5  and  C_11 
REMARK    3  A    between atoms: C_11  and  N_12 
ROOT
HETATM    1  N   UNL     1      64.364   8.985   5.732  1.00  0.00    -0.351 N 
ATOM      2  HN  UNL     1      64.785   9.365   6.580  1.00  0.00     0.166 HD
HETATM    3  C   UNL     1      64.716   7.803   5.177  1.00  0.00     0.084 A 
HETATM    4  S   UNL     1      63.789   7.480   3.809  1.00  0.00    -0.081 SA
HETATM    5  C   UNL     1      63.382   9.607   5.025  1.00  0.00     0.042 A 
HETATM    6  C   UNL     1      62.909   8.903   3.921  1.00  0.00     0.078 A 
ENDROOT
BRANCH   3   7
HETATM    7  C   UNL     1      65.795   6.940   5.699  1.00  0.00    -0.001 A 
HETATM    8  C   UNL     1      66.204   7.029   7.041  1.00  0.00     0.038 A 
HETATM    9  C   UNL     1      67.215   6.193   7.530  1.00  0.00     0.035 A 
HETATM   10 CL   UNL     1      67.687   6.276   9.219  1.00  0.00    -0.084 Cl
HETATM   11  C   UNL     1      67.845   5.284   6.675  1.00  0.00     0.024 A 
HETATM   12  C   UNL     1      67.453   5.199   5.337  1.00  0.00     0.003 A 
HETATM   13  C   UNL     1      66.423   6.010   4.852  1.00  0.00     0.014 A 
ENDBRANCH   3   7
BRANCH   5  14
HETATM   14  C   UNL     1      62.877  10.968   5.391  1.00  0.00     0.286 C 
BRANCH  14  15
HETATM   15  N   UNL     1      63.737  11.559   6.413  1.00  0.00    -0.074 N 
HETATM   16  H   UNL     1      64.588  11.005   6.503  1.00  0.00     0.274 HD
HETATM   17  H   UNL     1      63.244  11.573   7.306  1.00  0.00     0.274 HD
HETATM   18  H   UNL     1      63.979  12.513   6.144  1.00  0.00     0.274 HD
ENDBRANCH  14  15
ENDBRANCH   5  14
TORSDOF 3
ENDMDL
MODEL 3
REMARK VINA RESULT:      -5.2      1.960      2.521
REMARK  3 active torsions:
REMARK  status: ('A' for Active; 'I' for Inactive)
REMARK    1  A    between atoms: C_3  and  C_7 
REMARK    2  A    between atoms: C_5  and  C_11 
REMARK    3  A    between atoms: C_11  and  N_12 
ROOT
HETATM    1  N   UNL     1      65.429   7.477   6.820  1.00  0.00    -0.351 N 
ATOM      2  HN  UNL     1      64.630   7.730   7.401  1.00  0.00     0.166 HD
HETATM    3  C   UNL     1      65.481   7.662   5.482  1.00  0.00     0.084 A 
HETATM    4  S   UNL     1      66.963   7.162   4.860  1.00  0.00    -0.081 SA
HETATM    5  C   UNL     1      66.571   6.913   7.299  1.00  0.00     0.042 A 
HETATM    6  C   UNL     1      67.564   6.684   6.351  1.00  0.00     0.078 A 
ENDROOT
BRANCH   3   7
HETATM    7  C   UNL     1      64.361   8.203   4.684  1.00  0.00    -0.001 A 
HETATM    8  C   UNL     1      63.811   9.463   4.976  1.00  0.00     0.038 A 
HETATM    9  C   UNL     1      62.762   9.975   4.202  1.00  0.00     0.035 A 
HETATM   10 CL   UNL     1      62.113  11.570   4.541  1.00  0.00    -0.084 Cl
HETATM   11  C   UNL     1      62.236   9.218   3.151  1.00  0.00     0.024 A 
HETATM   12  C   UNL     1      62.768   7.959   2.864  1.00  0.00     0.003 A 
HETATM   13  C   UNL     1      63.835   7.457   3.615  1.00  0.00     0.014 A 
ENDBRANCH   3   7
BRANCH   5  14
HETATM   14  C   UNL     1      66.729   6.533   8.740  1.00  0.00     0.286 C 
BRANCH  14  15
HETATM   15  N   UNL     1      68.138   6.286   9.036  1.00  0.00    -0.074 N 
HETATM   16  H   UNL     1      68.240   5.364   9.460  1.00  0.00     0.274 HD
HETATM   17  H   UNL     1      68.479   6.998   9.682  1.00  0.00     0.274 HD
HETATM   18  H   UNL     1      68.679   6.325   8.172  1.00  0.00     0.274 HD
ENDBRANCH  14  15
ENDBRANCH   5  14
TORSDOF 3
ENDMDL
MODEL 4
REMARK VINA RESULT:      -5.2      1.471      2.192
REMARK  3 active torsions:
REMARK  status: ('A' for Active; 'I' for Inactive)
REMARK    1  A    between atoms: C_3  and  C_7 
REMARK    2  A    between atoms: C_5  and  C_11 
REMARK    3  A    between atoms: C_11  and  N_12 
ROOT
HETATM    1  N   UNL     1      65.044   7.791   4.777  1.00  0.00    -0.351 N 
ATOM      2  HN  UNL     1      65.718   8.206   4.133  1.00  0.00     0.166 HD
HETATM    3  C   UNL     1      63.718   7.700   4.531  1.00  0.00     0.084 A 
HETATM    4  S   UNL     1      62.922   6.929   5.798  1.00  0.00    -0.081 SA
HETATM    5  C   UNL     1      65.375   7.265   5.987  1.00  0.00     0.042 A 
HETATM    6  C   UNL     1      64.318   6.707   6.700  1.00  0.00     0.078 A 
ENDROOT
BRANCH   3   7
HETATM    7  C   UNL     1      63.069   8.241   3.320  1.00  0.00    -0.001 A 
HETATM    8  C   UNL     1      62.664   9.586   3.259  1.00  0.00     0.038 A 
HETATM    9  C   UNL     1      62.066  10.094   2.099  1.00  0.00     0.035 A 
HETATM   10 CL   UNL     1      61.609  11.786   2.012  1.00  0.00    -0.084 Cl
HETATM   11  C   UNL     1      61.842   9.255   1.004  1.00  0.00     0.024 A 
HETATM   12  C   UNL     1      62.229   7.914   1.062  1.00  0.00     0.003 A 
HETATM   13  C   UNL     1      62.853   7.410   2.207  1.00  0.00     0.014 A 
ENDBRANCH   3   7
BRANCH   5  14
HETATM   14  C   UNL     1      66.771   7.318   6.526  1.00  0.00     0.286 C 
BRANCH  14  15
HETATM   15  N   UNL     1      66.979   8.574   7.244  1.00  0.00    -0.074 N 
HETATM   16  H   UNL     1      66.240   8.697   7.936  1.00  0.00     0.274 HD
HETATM   17  H   UNL     1      66.958   9.351   6.583  1.00  0.00     0.274 HD
HETATM   18  H   UNL     1      67.884   8.551   7.713  1.00  0.00     0.274 HD
ENDBRANCH  14  15
ENDBRANCH   5  14
TORSDOF 3
ENDMDL
MODEL 5
REMARK VINA RESULT:      -4.8      5.171      8.010
REMARK  3 active torsions:
REMARK  status: ('A' for Active; 'I' for Inactive)
REMARK    1  A    between atoms: C_3  and  C_7 
REMARK    2  A    between atoms: C_5  and  C_11 
REMARK    3  A    between atoms: C_11  and  N_12 
ROOT
HETATM    1  N   UNL     1      68.105   6.290   6.623  1.00  0.00    -0.351 N 
ATOM      2  HN  UNL     1      69.039   6.031   6.305  1.00  0.00     0.166 HD
HETATM    3  C   UNL     1      67.481   5.722   7.680  1.00  0.00     0.084 A 
HETATM    4  S   UNL     1      65.971   6.422   7.935  1.00  0.00    -0.081 SA
HETATM    5  C   UNL     1      67.340   7.250   6.036  1.00  0.00     0.042 A 
HETATM    6  C   UNL     1      66.112   7.487   6.647  1.00  0.00     0.078 A 
ENDROOT
BRANCH   3   7
HETATM    7  C   UNL     1      68.051   4.613   8.471  1.00  0.00    -0.001 A 
HETATM    8  C   UNL     1      67.440   3.347   8.481  1.00  0.00     0.038 A 
HETATM    9  C   UNL     1      68.000   2.297   9.220  1.00  0.00     0.035 A 
HETATM   10 CL   UNL     1      67.260   0.706   9.189  1.00  0.00    -0.084 Cl
HETATM   11  C   UNL     1      69.155   2.513   9.977  1.00  0.00     0.024 A 
HETATM   12  C   UNL     1      69.760   3.772   9.982  1.00  0.00     0.003 A 
HETATM   13  C   UNL     1      69.222   4.815   9.222  1.00  0.00     0.014 A 
ENDBRANCH   3   7
BRANCH   5  14
HETATM   14  C   UNL     1      67.776   7.969   4.797  1.00  0.00     0.286 C 
BRANCH  14  15
HETATM   15  N   UNL     1      69.182   8.352   4.914  1.00  0.00    -0.074 N 
HETATM   16  H   UNL     1      69.772   7.564   4.648  1.00  0.00     0.274 HD
HETATM   17  H   UNL     1      69.382   8.618   5.878  1.00  0.00     0.274 HD
HETATM   18  H   UNL     1      69.371   9.142   4.296  1.00  0.00     0.274 HD
ENDBRANCH  14  15
ENDBRANCH   5  14
TORSDOF 3
ENDMDL
MODEL 6
REMARK VINA RESULT:      -4.7      3.446      6.384
REMARK  3 active torsions:
REMARK  status: ('A' for Active; 'I' for Inactive)
REMARK    1  A    between atoms: C_3  and  C_7 
REMARK    2  A    between atoms: C_5  and  C_11 
REMARK    3  A    between atoms: C_11  and  N_12 
ROOT
HETATM    1  N   UNL     1      64.656   7.734   6.340  1.00  0.00    -0.351 N 
ATOM      2  HN  UNL     1      65.275   8.512   6.568  1.00  0.00     0.166 HD
HETATM    3  C   UNL     1      64.895   6.449   6.686  1.00  0.00     0.084 A 
HETATM    4  S   UNL     1      63.645   5.444   6.175  1.00  0.00    -0.081 SA
HETATM    5  C   UNL     1      63.490   7.866   5.650  1.00  0.00     0.042 A 
HETATM    6  C   UNL     1      62.765   6.691   5.479  1.00  0.00     0.078 A 
ENDROOT
BRANCH   3   7
HETATM    7  C   UNL     1      66.114   6.003   7.390  1.00  0.00    -0.001 A 
HETATM    8  C   UNL     1      66.871   4.922   6.906  1.00  0.00     0.038 A 
HETATM    9  C   UNL     1      68.036   4.519   7.570  1.00  0.00     0.035 A 
HETATM   10 CL   UNL     1      69.003   3.200   6.932  1.00  0.00    -0.084 Cl
HETATM   11  C   UNL     1      68.435   5.172   8.740  1.00  0.00     0.024 A 
HETATM   12  C   UNL     1      67.681   6.238   9.235  1.00  0.00     0.003 A 
HETATM   13  C   UNL     1      66.534   6.664   8.558  1.00  0.00     0.014 A 
ENDBRANCH   3   7
BRANCH   5  14
HETATM   14  C   UNL     1      63.042   9.179   5.086  1.00  0.00     0.286 C 
BRANCH  14  15
HETATM   15  N   UNL     1      63.679  10.275   5.812  1.00  0.00    -0.074 N 
HETATM   16  H   UNL     1      62.966  10.921   6.149  1.00  0.00     0.274 HD
HETATM   17  H   UNL     1      64.319  10.769   5.189  1.00  0.00     0.274 HD
HETATM   18  H   UNL     1      64.200   9.900   6.605  1.00  0.00     0.274 HD
ENDBRANCH  14  15
ENDBRANCH   5  14
TORSDOF 3
ENDMDL
MODEL 7
REMARK VINA RESULT:      -4.6      4.268      7.249
REMARK  3 active torsions:
REMARK  status: ('A' for Active; 'I' for Inactive)
REMARK    1  A    between atoms: C_3  and  C_7 
REMARK    2  A    between atoms: C_5  and  C_11 
REMARK    3  A    between atoms: C_11  and  N_12 
ROOT
HETATM    1  N   UNL     1      65.393   6.225   6.617  1.00  0.00    -0.351 N 
ATOM      2  HN  UNL     1      64.898   5.477   7.104  1.00  0.00     0.166 HD
HETATM    3  C   UNL     1      66.740   6.310   6.532  1.00  0.00     0.084 A 
HETATM    4  S   UNL     1      67.204   7.652   5.627  1.00  0.00    -0.081 SA
HETATM    5  C   UNL     1      64.777   7.255   5.977  1.00  0.00     0.042 A 
HETATM    6  C   UNL     1      65.629   8.150   5.336  1.00  0.00     0.078 A 
ENDROOT
BRANCH   3   7
HETATM    7  C   UNL     1      67.665   5.360   7.182  1.00  0.00    -0.001 A 
HETATM    8  C   UNL     1      67.923   4.100   6.613  1.00  0.00     0.038 A 
HETATM    9  C   UNL     1      68.816   3.214   7.228  1.00  0.00     0.035 A 
HETATM   10 CL   UNL     1      69.170   1.664   6.486  1.00  0.00    -0.084 Cl
HETATM   11  C   UNL     1      69.435   3.569   8.431  1.00  0.00     0.024 A 
HETATM   12  C   UNL     1      69.174   4.813   9.009  1.00  0.00     0.003 A 
HETATM   13  C   UNL     1      68.306   5.712   8.383  1.00  0.00     0.014 A 
ENDBRANCH   3   7
BRANCH   5  14
HETATM   14  C   UNL     1      63.290   7.431   5.996  1.00  0.00     0.286 C 
BRANCH  14  15
HETATM   15  N   UNL     1      62.957   8.853   5.955  1.00  0.00    -0.074 N 
HETATM   16  H   UNL     1      63.115   9.266   6.874  1.00  0.00     0.274 HD
HETATM   17  H   UNL     1      61.977   8.965   5.696  1.00  0.00     0.274 HD
HETATM   18  H   UNL     1      63.547   9.320   5.266  1.00  0.00     0.274 HD
ENDBRANCH  14  15
ENDBRANCH   5  14
TORSDOF 3
ENDMDL
MODEL 8
REMARK VINA RESULT:      -4.5      5.244      6.903
REMARK  3 active torsions:
REMARK  status: ('A' for Active; 'I' for Inactive)
REMARK    1  A    between atoms: C_3  and  C_7 
REMARK    2  A    between atoms: C_5  and  C_11 
REMARK    3  A    between atoms: C_11  and  N_12 
ROOT
HETATM    1  N   UNL     1      67.423   2.862   9.044  1.00  0.00    -0.351 N 
ATOM      2  HN  UNL     1      66.468   2.717   8.715  1.00  0.00     0.166 HD
HETATM    3  C   UNL     1      68.154   3.969   8.782  1.00  0.00     0.084 A 
HETATM    4  S   UNL     1      69.668   3.878   9.513  1.00  0.00    -0.081 SA
HETATM    5  C   UNL     1      68.112   1.964   9.799  1.00  0.00     0.042 A 
HETATM    6  C   UNL     1      69.387   2.368  10.185  1.00  0.00     0.078 A 
ENDROOT
BRANCH   3   7
HETATM    7  C   UNL     1      67.681   5.084   7.938  1.00  0.00    -0.001 A 
HETATM    8  C   UNL     1      67.671   4.973   6.536  1.00  0.00     0.038 A 
HETATM    9  C   UNL     1      67.203   6.029   5.745  1.00  0.00     0.035 A 
HETATM   10 CL   UNL     1      67.148   5.865   3.999  1.00  0.00    -0.084 Cl
HETATM   11  C   UNL     1      66.769   7.214   6.347  1.00  0.00     0.024 A 
HETATM   12  C   UNL     1      66.788   7.337   7.738  1.00  0.00     0.003 A 
HETATM   13  C   UNL     1      67.226   6.274   8.533  1.00  0.00     0.014 A 
ENDBRANCH   3   7
BRANCH   5  14
HETATM   14  C   UNL     1      67.549   0.622  10.155  1.00  0.00     0.286 C 
BRANCH  14  15
HETATM   15  N   UNL     1      66.522   0.772  11.184  1.00  0.00    -0.074 N 
HETATM   16  H   UNL     1      66.459   1.751  11.462  1.00  0.00     0.274 HD
HETATM   17  H   UNL     1      66.767   0.203  11.994  1.00  0.00     0.274 HD
HETATM   18  H   UNL     1      65.622   0.466  10.813  1.00  0.00     0.274 HD
ENDBRANCH  14  15
ENDBRANCH   5  14
TORSDOF 3
ENDMDL
MODEL 9
REMARK VINA RESULT:      -4.5      4.219      5.833
REMARK  3 active torsions:
REMARK  status: ('A' for Active; 'I' for Inactive)
REMARK    1  A    between atoms: C_3  and  C_7 
REMARK    2  A    between atoms: C_5  and  C_11 
REMARK    3  A    between atoms: C_11  and  N_12 
ROOT
HETATM    1  N   UNL     1      67.234   3.816   8.637  1.00  0.00    -0.351 N 
ATOM      2  HN  UNL     1      66.281   3.500   8.455  1.00  0.00     0.166 HD
HETATM    3  C   UNL     1      67.768   4.946   8.122  1.00  0.00     0.084 A 
HETATM    4  S   UNL     1      69.347   5.167   8.662  1.00  0.00    -0.081 SA
HETATM    5  C   UNL     1      68.120   3.148   9.425  1.00  0.00     0.042 A 
HETATM    6  C   UNL     1      69.357   3.766   9.582  1.00  0.00     0.078 A 
ENDROOT
BRANCH   3   7
HETATM    7  C   UNL     1      67.055   5.839   7.185  1.00  0.00    -0.001 A 
HETATM    8  C   UNL     1      65.657   5.973   7.242  1.00  0.00     0.038 A 
HETATM    9  C   UNL     1      64.992   6.836   6.362  1.00  0.00     0.035 A 
HETATM   10 CL   UNL     1      63.252   7.037   6.471  1.00  0.00    -0.084 Cl
HETATM   11  C   UNL     1      65.716   7.547   5.400  1.00  0.00     0.024 A 
HETATM   12  C   UNL     1      67.104   7.408   5.329  1.00  0.00     0.003 A 
HETATM   13  C   UNL     1      67.775   6.571   6.225  1.00  0.00     0.014 A 
ENDBRANCH   3   7
BRANCH   5  14
HETATM   14  C   UNL     1      67.794   1.825  10.046  1.00  0.00     0.286 C 
BRANCH  14  15
HETATM   15  N   UNL     1      66.723   1.174   9.295  1.00  0.00    -0.074 N 
HETATM   16  H   UNL     1      67.095   0.807   8.420  1.00  0.00     0.274 HD
HETATM   17  H   UNL     1      65.988   1.853   9.095  1.00  0.00     0.274 HD
HETATM   18  H   UNL     1      66.337   0.409   9.848  1.00  0.00     0.274 HD
ENDBRANCH  14  15
ENDBRANCH   5  14
TORSDOF 3
ENDMDL
