MODEL 1
REMARK VINA RESULT:      -5.4      0.000      0.000
REMARK  4 active torsions:
REMARK  status: ('A' for Active; 'I' for Inactive)
REMARK    1  A    between atoms: N_1  and  C_2 
REMARK    2  A    between atoms: C_2  and  C_3 
REMARK    3  A    between atoms: C_5  and  C_11 
REMARK    4  A    between atoms: N_6  and  C_11 
ROOT
HETATM    1  C   UNL     1      62.873   8.759   4.898  1.00  0.00    -0.032 A 
HETATM    2  C   UNL     1      62.354   8.519   3.616  1.00  0.00     0.017 A 
HETATM    3  C   UNL     1      61.946   9.573   2.784  1.00  0.00    -0.033 A 
HETATM    4  C   UNL     1      62.435  11.130   4.582  1.00  0.00     0.001 A 
HETATM    5  C   UNL     1      62.890  10.076   5.380  1.00  0.00     0.009 A 
HETATM    6  C   UNL     1      61.984  10.881   3.284  1.00  0.00     0.009 A 
ENDROOT
BRANCH   1   7
HETATM    7  C   UNL     1      63.443   7.620   5.722  1.00  0.00     0.273 C 
BRANCH   7   8
HETATM    8  N   UNL     1      64.890   7.761   6.002  1.00  0.00    -0.067 N 
HETATM    9  C   UNL     1      65.340   6.823   7.046  1.00  0.00     0.235 C 
HETATM   10  C   UNL     1      66.827   7.012   7.361  1.00  0.00     0.028 C 
HETATM   11  C   UNL     1      67.673   6.834   6.109  1.00  0.00     0.003 C 
HETATM   12  C   UNL     1      67.171   7.759   5.008  1.00  0.00     0.028 C 
HETATM   13  C   UNL     1      65.668   7.576   4.766  1.00  0.00     0.235 C 
HETATM   14  H   UNL     1      65.049   8.706   6.354  1.00  0.00     0.280 HD
ENDBRANCH   7   8
ENDBRANCH   1   7
BRANCH   3  15
HETATM   15  C   UNL     1      61.549   9.302   1.357  1.00  0.00     0.268 C 
BRANCH  15  16
HETATM   16  N   UNL     1      60.225   8.705   1.253  1.00  0.00    -0.075 N 
HETATM   17  H   UNL     1      59.523   9.383   1.550  1.00  0.00     0.274 HD
HETATM   18  H   UNL     1      60.177   7.880   1.851  1.00  0.00     0.274 HD
HETATM   19  H   UNL     1      60.049   8.434   0.286  1.00  0.00     0.274 HD
ENDBRANCH  15  16
ENDBRANCH   3  15
TORSDOF 4
ENDMDL
MODEL 2
REMARK VINA RESULT:      -5.2      2.006      2.669
REMARK  4 active torsions:
REMARK  status: ('A' for Active; 'I' for Inactive)
REMARK    1  A    between atoms: N_1  and  C_2 
REMARK    2  A    between atoms: C_2  and  C_3 
REMARK    3  A    between atoms: C_5  and  C_11 
REMARK    4  A    between atoms: N_6  and  C_11 
ROOT
HETATM    1  C   UNL     1      63.446   7.870   4.056  1.00  0.00    -0.032 A 
HETATM    2  C   UNL     1      63.452   9.030   4.846  1.00  0.00     0.017 A 
HETATM    3  C   UNL     1      62.722  10.169   4.475  1.00  0.00    -0.033 A 
HETATM    4  C   UNL     1      62.082   9.044   2.422  1.00  0.00     0.001 A 
HETATM    5  C   UNL     1      62.768   7.897   2.828  1.00  0.00     0.009 A 
HETATM    6  C   UNL     1      62.044  10.168   3.249  1.00  0.00     0.009 A 
ENDROOT
BRANCH   1   7
HETATM    7  C   UNL     1      64.121   6.602   4.546  1.00  0.00     0.273 C 
BRANCH   7   8
HETATM    8  N   UNL     1      65.311   6.857   5.389  1.00  0.00    -0.067 N 
HETATM    9  C   UNL     1      65.234   6.140   6.676  1.00  0.00     0.235 C 
HETATM   10  C   UNL     1      66.446   6.450   7.559  1.00  0.00     0.028 C 
HETATM   11  C   UNL     1      67.741   6.090   6.847  1.00  0.00     0.003 C 
HETATM   12  C   UNL     1      67.796   6.780   5.490  1.00  0.00     0.028 C 
HETATM   13  C   UNL     1      66.538   6.489   4.663  1.00  0.00     0.235 C 
HETATM   14  H   UNL     1      65.337   7.855   5.599  1.00  0.00     0.280 HD
ENDBRANCH   7   8
ENDBRANCH   1   7
BRANCH   3  15
HETATM   15  C   UNL     1      62.613  11.339   5.418  1.00  0.00     0.268 C 
BRANCH  15  16
HETATM   16  N   UNL     1      63.771  11.457   6.292  1.00  0.00    -0.075 N 
HETATM   17  H   UNL     1      64.593  11.078   5.821  1.00  0.00     0.274 HD
HETATM   18  H   UNL     1      63.602  10.936   7.153  1.00  0.00     0.274 HD
HETATM   19  H   UNL     1      63.931  12.439   6.515  1.00  0.00     0.274 HD
ENDBRANCH  15  16
ENDBRANCH   3  15
TORSDOF 4
ENDMDL
MODEL 3
REMARK VINA RESULT:      -5.1      3.152      7.836
REMARK  4 active torsions:
REMARK  status: ('A' for Active; 'I' for Inactive)
REMARK    1  A    between atoms: N_1  and  C_2 
REMARK    2  A    between atoms: C_2  and  C_3 
REMARK    3  A    between atoms: C_5  and  C_11 
REMARK    4  A    between atoms: N_6  and  C_11 
ROOT
HETATM    1  C   UNL     1      67.743   5.694   6.923  1.00  0.00    -0.032 A 
HETATM    2  C   UNL     1      68.546   5.510   8.059  1.00  0.00     0.017 A 
HETATM    3  C   UNL     1      69.200   4.292   8.301  1.00  0.00    -0.033 A 
HETATM    4  C   UNL     1      68.125   3.367   6.331  1.00  0.00     0.001 A 
HETATM    5  C   UNL     1      67.523   4.601   6.072  1.00  0.00     0.009 A 
HETATM    6  C   UNL     1      68.974   3.219   7.430  1.00  0.00     0.009 A 
ENDROOT
BRANCH   1   7
HETATM    7  C   UNL     1      67.164   7.060   6.604  1.00  0.00     0.273 C 
BRANCH   7   8
HETATM    8  N   UNL     1      65.831   7.000   5.962  1.00  0.00    -0.067 N 
HETATM    9  C   UNL     1      64.765   6.719   6.940  1.00  0.00     0.235 C 
HETATM   10  C   UNL     1      63.398   6.610   6.258  1.00  0.00     0.028 C 
HETATM   11  C   UNL     1      63.072   7.885   5.493  1.00  0.00     0.003 C 
HETATM   12  C   UNL     1      64.201   8.212   4.524  1.00  0.00     0.028 C 
HETATM   13  C   UNL     1      65.556   8.253   5.240  1.00  0.00     0.235 C 
HETATM   14  H   UNL     1      65.841   6.229   5.294  1.00  0.00     0.280 HD
ENDBRANCH   7   8
ENDBRANCH   1   7
BRANCH   3  15
HETATM   15  C   UNL     1      70.184   4.174   9.436  1.00  0.00     0.268 C 
BRANCH  15  16
HETATM   16  N   UNL     1      69.715   3.280  10.486  1.00  0.00    -0.075 N 
HETATM   17  H   UNL     1      69.023   2.637  10.100  1.00  0.00     0.274 HD
HETATM   18  H   UNL     1      69.291   3.828  11.234  1.00  0.00     0.274 HD
HETATM   19  H   UNL     1      70.502   2.750  10.857  1.00  0.00     0.274 HD
ENDBRANCH  15  16
ENDBRANCH   3  15
TORSDOF 4
ENDMDL
MODEL 4
REMARK VINA RESULT:      -5.0      1.418      2.402
REMARK  4 active torsions:
REMARK  status: ('A' for Active; 'I' for Inactive)
REMARK    1  A    between atoms: N_1  and  C_2 
REMARK    2  A    between atoms: C_2  and  C_3 
REMARK    3  A    between atoms: C_5  and  C_11 
REMARK    4  A    between atoms: N_6  and  C_11 
ROOT
HETATM    1  C   UNL     1      63.365   7.852   4.591  1.00  0.00    -0.032 A 
HETATM    2  C   UNL     1      62.980   9.201   4.541  1.00  0.00     0.017 A 
HETATM    3  C   UNL     1      62.413   9.754   3.382  1.00  0.00    -0.033 A 
HETATM    4  C   UNL     1      62.751   7.635   2.249  1.00  0.00     0.001 A 
HETATM    5  C   UNL     1      63.263   7.080   3.425  1.00  0.00     0.009 A 
HETATM    6  C   UNL     1      62.311   8.959   2.234  1.00  0.00     0.009 A 
ENDROOT
BRANCH   1   7
HETATM    7  C   UNL     1      63.839   7.237   5.895  1.00  0.00     0.273 C 
BRANCH   7   8
HETATM    8  N   UNL     1      65.199   6.656   5.813  1.00  0.00    -0.067 N 
HETATM    9  C   UNL     1      66.241   7.699   5.832  1.00  0.00     0.235 C 
HETATM   10  C   UNL     1      67.640   7.089   5.697  1.00  0.00     0.028 C 
HETATM   11  C   UNL     1      67.900   6.081   6.806  1.00  0.00     0.003 C 
HETATM   12  C   UNL     1      66.791   5.037   6.830  1.00  0.00     0.028 C 
HETATM   13  C   UNL     1      65.408   5.693   6.907  1.00  0.00     0.235 C 
HETATM   14  H   UNL     1      65.275   6.166   4.922  1.00  0.00     0.280 HD
ENDBRANCH   7   8
ENDBRANCH   1   7
BRANCH   3  15
HETATM   15  C   UNL     1      61.858  11.155   3.406  1.00  0.00     0.268 C 
BRANCH  15  16
HETATM   16  N   UNL     1      61.613  11.677   2.069  1.00  0.00    -0.075 N 
HETATM   17  H   UNL     1      62.495  11.985   1.658  1.00  0.00     0.274 HD
HETATM   18  H   UNL     1      60.969  12.466   2.124  1.00  0.00     0.274 HD
HETATM   19  H   UNL     1      61.205  10.946   1.488  1.00  0.00     0.274 HD
ENDBRANCH  15  16
ENDBRANCH   3  15
TORSDOF 4
ENDMDL
MODEL 5
REMARK VINA RESULT:      -4.9      1.276      1.871
REMARK  4 active torsions:
REMARK  status: ('A' for Active; 'I' for Inactive)
REMARK    1  A    between atoms: N_1  and  C_2 
REMARK    2  A    between atoms: C_2  and  C_3 
REMARK    3  A    between atoms: C_5  and  C_11 
REMARK    4  A    between atoms: N_6  and  C_11 
ROOT
HETATM    1  C   UNL     1      62.551   9.049   4.226  1.00  0.00    -0.032 A 
HETATM    2  C   UNL     1      62.501   8.304   3.037  1.00  0.00     0.017 A 
HETATM    3  C   UNL     1      62.223   8.915   1.805  1.00  0.00    -0.033 A 
HETATM    4  C   UNL     1      61.890  11.020   2.967  1.00  0.00     0.001 A 
HETATM    5  C   UNL     1      62.222  10.411   4.180  1.00  0.00     0.009 A 
HETATM    6  C   UNL     1      61.909  10.280   1.783  1.00  0.00     0.009 A 
ENDROOT
BRANCH   1   7
HETATM    7  C   UNL     1      62.996   8.397   5.522  1.00  0.00     0.273 C 
BRANCH   7   8
HETATM    8  N   UNL     1      64.177   7.518   5.365  1.00  0.00    -0.067 N 
HETATM    9  C   UNL     1      65.423   8.295   5.228  1.00  0.00     0.235 C 
HETATM   10  C   UNL     1      66.631   7.377   5.016  1.00  0.00     0.028 C 
HETATM   11  C   UNL     1      66.765   6.386   6.163  1.00  0.00     0.003 C 
HETATM   12  C   UNL     1      65.459   5.625   6.348  1.00  0.00     0.028 C 
HETATM   13  C   UNL     1      64.270   6.582   6.498  1.00  0.00     0.235 C 
HETATM   14  H   UNL     1      64.057   6.984   4.504  1.00  0.00     0.280 HD
ENDBRANCH   7   8
ENDBRANCH   1   7
BRANCH   3  15
HETATM   15  C   UNL     1      62.338   8.127   0.525  1.00  0.00     0.268 C 
BRANCH  15  16
HETATM   16  N   UNL     1      62.777   6.758   0.754  1.00  0.00    -0.075 N 
HETATM   17  H   UNL     1      62.121   6.291   1.381  1.00  0.00     0.274 HD
HETATM   18  H   UNL     1      63.705   6.766   1.177  1.00  0.00     0.274 HD
HETATM   19  H   UNL     1      62.812   6.259  -0.134  1.00  0.00     0.274 HD
ENDBRANCH  15  16
ENDBRANCH   3  15
TORSDOF 4
ENDMDL
MODEL 6
REMARK VINA RESULT:      -4.8      4.015      8.387
REMARK  4 active torsions:
REMARK  status: ('A' for Active; 'I' for Inactive)
REMARK    1  A    between atoms: N_1  and  C_2 
REMARK    2  A    between atoms: C_2  and  C_3 
REMARK    3  A    between atoms: C_5  and  C_11 
REMARK    4  A    between atoms: N_6  and  C_11 
ROOT
HETATM    1  C   UNL     1      67.929   4.979   8.531  1.00  0.00    -0.032 A 
HETATM    2  C   UNL     1      67.756   3.675   9.022  1.00  0.00     0.017 A 
HETATM    3  C   UNL     1      68.832   2.945   9.549  1.00  0.00    -0.033 A 
HETATM    4  C   UNL     1      70.314   4.774   8.958  1.00  0.00     0.001 A 
HETATM    5  C   UNL     1      69.225   5.513   8.487  1.00  0.00     0.009 A 
HETATM    6  C   UNL     1      70.115   3.504   9.503  1.00  0.00     0.009 A 
ENDROOT
BRANCH   1   7
HETATM    7  C   UNL     1      66.731   5.805   8.103  1.00  0.00     0.273 C 
BRANCH   7   8
HETATM    8  N   UNL     1      66.825   6.304   6.712  1.00  0.00    -0.067 N 
HETATM    9  C   UNL     1      66.923   5.199   5.740  1.00  0.00     0.235 C 
HETATM   10  C   UNL     1      67.070   5.728   4.310  1.00  0.00     0.028 C 
HETATM   11  C   UNL     1      65.904   6.635   3.945  1.00  0.00     0.003 C 
HETATM   12  C   UNL     1      65.762   7.741   4.982  1.00  0.00     0.028 C 
HETATM   13  C   UNL     1      65.676   7.170   6.402  1.00  0.00     0.235 C 
HETATM   14  H   UNL     1      67.682   6.852   6.635  1.00  0.00     0.280 HD
ENDBRANCH   7   8
ENDBRANCH   1   7
BRANCH   3  15
HETATM   15  C   UNL     1      68.590   1.616  10.217  1.00  0.00     0.268 C 
BRANCH  15  16
HETATM   16  N   UNL     1      67.185   1.401  10.532  1.00  0.00    -0.075 N 
HETATM   17  H   UNL     1      66.734   0.915   9.756  1.00  0.00     0.274 HD
HETATM   18  H   UNL     1      66.729   2.300  10.682  1.00  0.00     0.274 HD
HETATM   19  H   UNL     1      67.109   0.835  11.376  1.00  0.00     0.274 HD
ENDBRANCH  15  16
ENDBRANCH   3  15
TORSDOF 4
ENDMDL
MODEL 7
REMARK VINA RESULT:      -4.8      1.631      6.394
REMARK  4 active torsions:
REMARK  status: ('A' for Active; 'I' for Inactive)
REMARK    1  A    between atoms: N_1  and  C_2 
REMARK    2  A    between atoms: C_2  and  C_3 
REMARK    3  A    between atoms: C_5  and  C_11 
REMARK    4  A    between atoms: N_6  and  C_11 
ROOT
HETATM    1  C   UNL     1      65.103   7.399   5.717  1.00  0.00    -0.032 A 
HETATM    2  C   UNL     1      65.560   6.809   6.906  1.00  0.00     0.017 A 
HETATM    3  C   UNL     1      66.927   6.596   7.136  1.00  0.00    -0.033 A 
HETATM    4  C   UNL     1      67.394   7.432   4.905  1.00  0.00     0.001 A 
HETATM    5  C   UNL     1      66.034   7.690   4.710  1.00  0.00     0.009 A 
HETATM    6  C   UNL     1      67.840   6.905   6.119  1.00  0.00     0.009 A 
ENDROOT
BRANCH   1   7
HETATM    7  C   UNL     1      63.637   7.753   5.549  1.00  0.00     0.273 C 
BRANCH   7   8
HETATM    8  N   UNL     1      63.350   8.503   4.305  1.00  0.00    -0.067 N 
HETATM    9  C   UNL     1      62.717   7.647   3.284  1.00  0.00     0.235 C 
HETATM   10  C   UNL     1      62.471   8.421   1.985  1.00  0.00     0.028 C 
HETATM   11  C   UNL     1      61.605   9.646   2.240  1.00  0.00     0.003 C 
HETATM   12  C   UNL     1      62.224  10.500   3.338  1.00  0.00     0.028 C 
HETATM   13  C   UNL     1      62.506   9.673   4.598  1.00  0.00     0.235 C 
HETATM   14  H   UNL     1      64.239   8.824   3.922  1.00  0.00     0.280 HD
ENDBRANCH   7   8
ENDBRANCH   1   7
BRANCH   3  15
HETATM   15  C   UNL     1      67.404   6.115   8.482  1.00  0.00     0.268 C 
BRANCH  15  16
HETATM   16  N   UNL     1      68.856   6.106   8.586  1.00  0.00    -0.075 N 
HETATM   17  H   UNL     1      69.159   6.880   9.177  1.00  0.00     0.274 HD
HETATM   18  H   UNL     1      69.264   6.207   7.656  1.00  0.00     0.274 HD
HETATM   19  H   UNL     1      69.162   5.225   8.997  1.00  0.00     0.274 HD
ENDBRANCH  15  16
ENDBRANCH   3  15
TORSDOF 4
ENDMDL
MODEL 8
REMARK VINA RESULT:      -4.7      2.672      7.291
REMARK  4 active torsions:
REMARK  status: ('A' for Active; 'I' for Inactive)
REMARK    1  A    between atoms: N_1  and  C_2 
REMARK    2  A    between atoms: C_2  and  C_3 
REMARK    3  A    between atoms: C_5  and  C_11 
REMARK    4  A    between atoms: N_6  and  C_11 
ROOT
HETATM    1  C   UNL     1      66.963   6.088   6.925  1.00  0.00    -0.032 A 
HETATM    2  C   UNL     1      68.200   5.463   7.146  1.00  0.00     0.017 A 
HETATM    3  C   UNL     1      68.716   5.304   8.441  1.00  0.00    -0.033 A 
HETATM    4  C   UNL     1      66.815   6.539   9.309  1.00  0.00     0.001 A 
HETATM    5  C   UNL     1      66.285   6.642   8.020  1.00  0.00     0.009 A 
HETATM    6  C   UNL     1      68.014   5.857   9.520  1.00  0.00     0.009 A 
ENDROOT
BRANCH   1   7
HETATM    7  C   UNL     1      66.356   6.119   5.534  1.00  0.00     0.273 C 
BRANCH   7   8
HETATM    8  N   UNL     1      65.084   6.874   5.463  1.00  0.00    -0.067 N 
HETATM    9  C   UNL     1      65.297   8.268   5.036  1.00  0.00     0.235 C 
HETATM   10  C   UNL     1      63.981   9.052   5.014  1.00  0.00     0.028 C 
HETATM   11  C   UNL     1      62.967   8.382   4.098  1.00  0.00     0.003 C 
HETATM   12  C   UNL     1      62.790   6.923   4.499  1.00  0.00     0.028 C 
HETATM   13  C   UNL     1      64.137   6.193   4.564  1.00  0.00     0.235 C 
HETATM   14  H   UNL     1      64.685   6.902   6.402  1.00  0.00     0.280 HD
ENDBRANCH   7   8
ENDBRANCH   1   7
BRANCH   3  15
HETATM   15  C   UNL     1      69.962   4.487   8.666  1.00  0.00     0.268 C 
BRANCH  15  16
HETATM   16  N   UNL     1      71.152   5.316   8.795  1.00  0.00    -0.075 N 
HETATM   17  H   UNL     1      71.780   4.903   9.485  1.00  0.00     0.274 HD
HETATM   18  H   UNL     1      70.884   6.252   9.096  1.00  0.00     0.274 HD
HETATM   19  H   UNL     1      71.627   5.371   7.894  1.00  0.00     0.274 HD
ENDBRANCH  15  16
ENDBRANCH   3  15
TORSDOF 4
ENDMDL
MODEL 9
REMARK VINA RESULT:      -4.7      1.589      5.782
REMARK  4 active torsions:
REMARK  status: ('A' for Active; 'I' for Inactive)
REMARK    1  A    between atoms: N_1  and  C_2 
REMARK    2  A    between atoms: C_2  and  C_3 
REMARK    3  A    between atoms: C_5  and  C_11 
REMARK    4  A    between atoms: N_6  and  C_11 
ROOT
HETATM    1  C   UNL     1      63.889   8.002   5.654  1.00  0.00    -0.032 A 
HETATM    2  C   UNL     1      65.267   8.245   5.542  1.00  0.00     0.017 A 
HETATM    3  C   UNL     1      66.210   7.253   5.848  1.00  0.00    -0.033 A 
HETATM    4  C   UNL     1      64.395   5.793   6.533  1.00  0.00     0.001 A 
HETATM    5  C   UNL     1      63.464   6.771   6.172  1.00  0.00     0.009 A 
HETATM    6  C   UNL     1      65.760   6.026   6.354  1.00  0.00     0.009 A 
ENDROOT
BRANCH   1   7
HETATM    7  C   UNL     1      62.885   9.037   5.180  1.00  0.00     0.273 C 
BRANCH   7   8
HETATM    8  N   UNL     1      62.853   9.196   3.708  1.00  0.00    -0.067 N 
HETATM    9  C   UNL     1      62.460   7.947   3.031  1.00  0.00     0.235 C 
HETATM   10  C   UNL     1      62.479   8.110   1.508  1.00  0.00     0.028 C 
HETATM   11  C   UNL     1      61.560   9.243   1.073  1.00  0.00     0.003 C 
HETATM   12  C   UNL     1      61.925  10.521   1.818  1.00  0.00     0.028 C 
HETATM   13  C   UNL     1      61.950  10.297   3.334  1.00  0.00     0.235 C 
HETATM   14  H   UNL     1      63.798   9.424   3.398  1.00  0.00     0.280 HD
ENDBRANCH   7   8
ENDBRANCH   1   7
BRANCH   3  15
HETATM   15  C   UNL     1      67.672   7.483   5.564  1.00  0.00     0.268 C 
BRANCH  15  16
HETATM   16  N   UNL     1      67.943   7.630   4.141  1.00  0.00    -0.075 N 
HETATM   17  H   UNL     1      67.073   7.533   3.617  1.00  0.00     0.274 HD
HETATM   18  H   UNL     1      68.601   6.910   3.844  1.00  0.00     0.274 HD
HETATM   19  H   UNL     1      68.345   8.550   3.965  1.00  0.00     0.274 HD
ENDBRANCH  15  16
ENDBRANCH   3  15
TORSDOF 4
ENDMDL
