MODEL 1
REMARK VINA RESULT:      -5.5      0.000      0.000
REMARK  1 active torsions:
REMARK  status: ('A' for Active; 'I' for Inactive)
REMARK       I    between atoms: C_1  and  N_2 
REMARK    1  A    between atoms: C_1  and  C_3 
ROOT
HETATM    1  C   UNL     1      77.049  11.076  18.687  1.00  0.00     0.277 C 
HETATM    2  N   UNL     1      78.385  11.175  19.320  1.00  0.00    -0.062 N 
HETATM    3  C   UNL     1      78.359  11.858  20.619  1.00  0.00     0.233 C 
HETATM    4  C   UNL     1      76.440  12.495  18.542  1.00  0.00     0.043 C 
HETATM    5  C   UNL     1      77.811  13.278  20.467  1.00  0.00     0.027 C 
HETATM    6  C   UNL     1      76.398  13.213  19.892  1.00  0.00     0.004 C 
HETATM    7  H   UNL     1      79.002  11.692  18.695  1.00  0.00     0.278 HD
HETATM    8  H   UNL     1      78.715  10.224  19.483  1.00  0.00     0.278 HD
ENDROOT
BRANCH   1   9
HETATM    9  C   UNL     1      77.229  10.418  17.328  1.00  0.00     0.250 C 
HETATM   10  N   UNL     1      77.318   9.061  17.169  1.00  0.00    -0.350 N 
HETATM   11  C   UNL     1      77.630   8.419  15.918  1.00  0.00     0.126 C 
HETATM   12  C   UNL     1      76.882   8.090  18.162  1.00  0.00     0.126 C 
HETATM   13  C   UNL     1      76.848   7.123  15.995  1.00  0.00     0.021 C 
HETATM   14  C   UNL     1      77.059   6.745  17.454  1.00  0.00     0.021 C 
HETATM   15  O   UNL     1      77.361  11.132  16.348  1.00  0.00    -0.271 OA
ENDBRANCH   1   9
TORSDOF 1
ENDMDL
MODEL 2
REMARK VINA RESULT:      -4.9     14.773     16.810
REMARK  1 active torsions:
REMARK  status: ('A' for Active; 'I' for Inactive)
REMARK       I    between atoms: C_1  and  N_2 
REMARK    1  A    between atoms: C_1  and  C_3 
ROOT
HETATM    1  C   UNL     1      66.620   6.454   7.225  1.00  0.00     0.277 C 
HETATM    2  N   UNL     1      67.700   5.757   6.486  1.00  0.00    -0.062 N 
HETATM    3  C   UNL     1      68.307   4.661   7.250  1.00  0.00     0.233 C 
HETATM    4  C   UNL     1      67.174   6.975   8.577  1.00  0.00     0.043 C 
HETATM    5  C   UNL     1      68.903   5.185   8.558  1.00  0.00     0.027 C 
HETATM    6  C   UNL     1      67.801   5.839   9.387  1.00  0.00     0.004 C 
HETATM    7  H   UNL     1      68.426   6.435   6.259  1.00  0.00     0.278 HD
HETATM    8  H   UNL     1      67.281   5.350   5.650  1.00  0.00     0.278 HD
ENDROOT
BRANCH   1   9
HETATM    9  C   UNL     1      66.132   7.602   6.356  1.00  0.00     0.250 C 
HETATM   10  N   UNL     1      64.862   7.658   5.848  1.00  0.00    -0.350 N 
HETATM   11  C   UNL     1      64.416   8.655   4.909  1.00  0.00     0.126 C 
HETATM   12  C   UNL     1      63.741   6.881   6.359  1.00  0.00     0.126 C 
HETATM   13  C   UNL     1      62.957   8.842   5.277  1.00  0.00     0.021 C 
HETATM   14  C   UNL     1      62.545   7.406   5.562  1.00  0.00     0.021 C 
HETATM   15  O   UNL     1      66.924   8.478   6.048  1.00  0.00    -0.271 OA
ENDBRANCH   1   9
TORSDOF 1
ENDMDL
MODEL 3
REMARK VINA RESULT:      -4.8     13.245     15.555
REMARK  1 active torsions:
REMARK  status: ('A' for Active; 'I' for Inactive)
REMARK       I    between atoms: C_1  and  N_2 
REMARK    1  A    between atoms: C_1  and  C_3 
ROOT
HETATM    1  C   UNL     1      68.273   5.217   7.896  1.00  0.00     0.277 C 
HETATM    2  N   UNL     1      69.486   5.753   8.559  1.00  0.00    -0.062 N 
HETATM    3  C   UNL     1      70.441   4.708   8.945  1.00  0.00     0.233 C 
HETATM    4  C   UNL     1      67.595   4.177   8.825  1.00  0.00     0.043 C 
HETATM    5  C   UNL     1      69.788   3.714   9.907  1.00  0.00     0.027 C 
HETATM    6  C   UNL     1      68.579   3.077   9.227  1.00  0.00     0.004 C 
HETATM    7  H   UNL     1      69.200   6.258   9.397  1.00  0.00     0.278 HD
HETATM    8  H   UNL     1      69.955   6.361   7.888  1.00  0.00     0.278 HD
ENDROOT
BRANCH   1   9
HETATM    9  C   UNL     1      67.344   6.387   7.616  1.00  0.00     0.250 C 
HETATM   10  N   UNL     1      67.058   6.819   6.349  1.00  0.00    -0.350 N 
HETATM   11  C   UNL     1      66.299   8.008   6.058  1.00  0.00     0.126 C 
HETATM   12  C   UNL     1      67.270   6.025   5.146  1.00  0.00     0.126 C 
HETATM   13  C   UNL     1      65.578   7.647   4.774  1.00  0.00     0.021 C 
HETATM   14  C   UNL     1      66.668   6.887   4.035  1.00  0.00     0.021 C 
HETATM   15  O   UNL     1      66.883   7.005   8.562  1.00  0.00    -0.271 OA
ENDBRANCH   1   9
TORSDOF 1
ENDMDL
MODEL 4
REMARK VINA RESULT:      -4.7     17.564     19.348
REMARK  1 active torsions:
REMARK  status: ('A' for Active; 'I' for Inactive)
REMARK       I    between atoms: C_1  and  N_2 
REMARK    1  A    between atoms: C_1  and  C_3 
ROOT
HETATM    1  C   UNL     1      64.533   7.880   5.412  1.00  0.00     0.277 C 
HETATM    2  N   UNL     1      65.567   8.610   6.183  1.00  0.00    -0.062 N 
HETATM    3  C   UNL     1      66.593   7.727   6.752  1.00  0.00     0.233 C 
HETATM    4  C   UNL     1      63.882   6.800   6.315  1.00  0.00     0.043 C 
HETATM    5  C   UNL     1      65.956   6.698   7.687  1.00  0.00     0.027 C 
HETATM    6  C   UNL     1      64.942   5.868   6.905  1.00  0.00     0.004 C 
HETATM    7  H   UNL     1      65.110   9.109   6.946  1.00  0.00     0.278 HD
HETATM    8  H   UNL     1      66.035   9.245   5.538  1.00  0.00     0.278 HD
ENDROOT
BRANCH   1   9
HETATM    9  C   UNL     1      63.503   8.895   4.944  1.00  0.00     0.250 C 
HETATM   10  N   UNL     1      63.030   8.933   3.660  1.00  0.00    -0.350 N 
HETATM   11  C   UNL     1      62.165   9.966   3.153  1.00  0.00     0.126 C 
HETATM   12  C   UNL     1      63.138   7.829   2.716  1.00  0.00     0.126 C 
HETATM   13  C   UNL     1      61.311   9.231   2.140  1.00  0.00     0.021 C 
HETATM   14  C   UNL     1      62.344   8.315   1.501  1.00  0.00     0.021 C 
HETATM   15  O   UNL     1      63.128   9.750   5.731  1.00  0.00    -0.271 OA
ENDBRANCH   1   9
TORSDOF 1
ENDMDL
MODEL 5
REMARK VINA RESULT:      -4.7     17.143     18.978
REMARK  1 active torsions:
REMARK  status: ('A' for Active; 'I' for Inactive)
REMARK       I    between atoms: C_1  and  N_2 
REMARK    1  A    between atoms: C_1  and  C_3 
ROOT
HETATM    1  C   UNL     1      63.691   8.627   4.643  1.00  0.00     0.277 C 
HETATM    2  N   UNL     1      63.110   7.682   3.660  1.00  0.00    -0.062 N 
HETATM    3  C   UNL     1      62.697   8.332   2.410  1.00  0.00     0.233 C 
HETATM    4  C   UNL     1      62.675   9.763   4.930  1.00  0.00     0.043 C 
HETATM    5  C   UNL     1      61.652   9.413   2.688  1.00  0.00     0.027 C 
HETATM    6  C   UNL     1      62.244  10.453   3.635  1.00  0.00     0.004 C 
HETATM    7  H   UNL     1      62.294   7.239   4.080  1.00  0.00     0.278 HD
HETATM    8  H   UNL     1      63.835   7.004   3.425  1.00  0.00     0.278 HD
ENDROOT
BRANCH   1   9
HETATM    9  C   UNL     1      64.007   7.843   5.907  1.00  0.00     0.250 C 
HETATM   10  N   UNL     1      65.231   7.279   6.142  1.00  0.00    -0.350 N 
HETATM   11  C   UNL     1      65.516   6.414   7.258  1.00  0.00     0.126 C 
HETATM   12  C   UNL     1      66.454   7.657   5.447  1.00  0.00     0.126 C 
HETATM   13  C   UNL     1      66.967   6.721   7.568  1.00  0.00     0.021 C 
HETATM   14  C   UNL     1      67.540   6.852   6.164  1.00  0.00     0.021 C 
HETATM   15  O   UNL     1      63.112   7.658   6.716  1.00  0.00    -0.271 OA
ENDBRANCH   1   9
TORSDOF 1
ENDMDL
MODEL 6
REMARK VINA RESULT:      -4.7     13.908     16.041
REMARK  1 active torsions:
REMARK  status: ('A' for Active; 'I' for Inactive)
REMARK       I    between atoms: C_1  and  N_2 
REMARK    1  A    between atoms: C_1  and  C_3 
ROOT
HETATM    1  C   UNL     1      66.223   6.531   6.736  1.00  0.00     0.277 C 
HETATM    2  N   UNL     1      64.897   7.017   7.184  1.00  0.00    -0.062 N 
HETATM    3  C   UNL     1      63.990   7.327   6.072  1.00  0.00     0.233 C 
HETATM    4  C   UNL     1      66.864   7.578   5.788  1.00  0.00     0.043 C 
HETATM    5  C   UNL     1      64.598   8.402   5.169  1.00  0.00     0.027 C 
HETATM    6  C   UNL     1      65.932   7.902   4.619  1.00  0.00     0.004 C 
HETATM    7  H   UNL     1      65.032   7.863   7.737  1.00  0.00     0.278 HD
HETATM    8  H   UNL     1      64.467   6.270   7.728  1.00  0.00     0.278 HD
ENDROOT
BRANCH   1   9
HETATM    9  C   UNL     1      67.080   6.318   7.974  1.00  0.00     0.250 C 
HETATM   10  N   UNL     1      67.841   5.197   8.164  1.00  0.00    -0.350 N 
HETATM   11  C   UNL     1      68.548   4.903   9.384  1.00  0.00     0.126 C 
HETATM   12  C   UNL     1      68.232   4.283   7.100  1.00  0.00     0.126 C 
HETATM   13  C   UNL     1      69.776   4.160   8.898  1.00  0.00     0.021 C 
HETATM   14  C   UNL     1      69.175   3.300   7.796  1.00  0.00     0.021 C 
HETATM   15  O   UNL     1      67.038   7.154   8.862  1.00  0.00    -0.271 OA
ENDBRANCH   1   9
TORSDOF 1
ENDMDL
MODEL 7
REMARK VINA RESULT:      -4.5     13.629     15.844
REMARK  1 active torsions:
REMARK  status: ('A' for Active; 'I' for Inactive)
REMARK       I    between atoms: C_1  and  N_2 
REMARK    1  A    between atoms: C_1  and  C_3 
ROOT
HETATM    1  C   UNL     1      66.873   6.210   7.004  1.00  0.00     0.277 C 
HETATM    2  N   UNL     1      67.298   5.735   5.665  1.00  0.00    -0.062 N 
HETATM    3  C   UNL     1      67.187   6.766   4.626  1.00  0.00     0.233 C 
HETATM    4  C   UNL     1      65.420   6.748   6.924  1.00  0.00     0.043 C 
HETATM    5  C   UNL     1      65.742   7.255   4.508  1.00  0.00     0.027 C 
HETATM    6  C   UNL     1      65.295   7.830   5.850  1.00  0.00     0.004 C 
HETATM    7  H   UNL     1      66.711   4.945   5.401  1.00  0.00     0.278 HD
HETATM    8  H   UNL     1      68.281   5.476   5.733  1.00  0.00     0.278 HD
ENDROOT
BRANCH   1   9
HETATM    9  C   UNL     1      66.969   5.035   7.963  1.00  0.00     0.250 C 
HETATM   10  N   UNL     1      68.162   4.555   8.430  1.00  0.00    -0.350 N 
HETATM   11  C   UNL     1      68.293   3.360   9.223  1.00  0.00     0.126 C 
HETATM   12  C   UNL     1      69.413   5.301   8.397  1.00  0.00     0.126 C 
HETATM   13  C   UNL     1      69.470   3.673  10.125  1.00  0.00     0.021 C 
HETATM   14  C   UNL     1      70.390   4.399   9.155  1.00  0.00     0.021 C 
HETATM   15  O   UNL     1      65.942   4.456   8.279  1.00  0.00    -0.271 OA
ENDBRANCH   1   9
TORSDOF 1
ENDMDL
MODEL 8
REMARK VINA RESULT:      -4.3     13.867     15.723
REMARK  1 active torsions:
REMARK  status: ('A' for Active; 'I' for Inactive)
REMARK       I    between atoms: C_1  and  N_2 
REMARK    1  A    between atoms: C_1  and  C_3 
ROOT
HETATM    1  C   UNL     1      68.071   4.058   8.269  1.00  0.00     0.277 C 
HETATM    2  N   UNL     1      67.699   2.628   8.387  1.00  0.00    -0.062 N 
HETATM    3  C   UNL     1      67.896   2.092   9.740  1.00  0.00     0.233 C 
HETATM    4  C   UNL     1      69.543   4.248   8.721  1.00  0.00     0.043 C 
HETATM    5  C   UNL     1      69.360   2.227  10.163  1.00  0.00     0.027 C 
HETATM    6  C   UNL     1      69.757   3.701  10.133  1.00  0.00     0.004 C 
HETATM    7  H   UNL     1      68.273   2.090   7.739  1.00  0.00     0.278 HD
HETATM    8  H   UNL     1      66.706   2.554   8.172  1.00  0.00     0.278 HD
ENDROOT
BRANCH   1   9
HETATM    9  C   UNL     1      67.890   4.464   6.815  1.00  0.00     0.250 C 
HETATM   10  N   UNL     1      67.308   5.646   6.443  1.00  0.00    -0.350 N 
HETATM   11  C   UNL     1      66.994   5.993   5.081  1.00  0.00     0.126 C 
HETATM   12  C   UNL     1      67.149   6.793   7.326  1.00  0.00     0.126 C 
HETATM   13  C   UNL     1      67.181   7.497   5.059  1.00  0.00     0.021 C 
HETATM   14  C   UNL     1      66.589   7.881   6.407  1.00  0.00     0.021 C 
HETATM   15  O   UNL     1      68.221   3.675   5.944  1.00  0.00    -0.271 OA
ENDBRANCH   1   9
TORSDOF 1
ENDMDL
MODEL 9
REMARK VINA RESULT:      -4.3     15.461     17.471
REMARK  1 active torsions:
REMARK  status: ('A' for Active; 'I' for Inactive)
REMARK       I    between atoms: C_1  and  N_2 
REMARK    1  A    between atoms: C_1  and  C_3 
ROOT
HETATM    1  C   UNL     1      66.061   6.482   7.066  1.00  0.00     0.277 C 
HETATM    2  N   UNL     1      65.913   6.487   8.541  1.00  0.00    -0.062 N 
HETATM    3  C   UNL     1      67.192   6.624   9.248  1.00  0.00     0.233 C 
HETATM    4  C   UNL     1      67.036   5.350   6.649  1.00  0.00     0.043 C 
HETATM    5  C   UNL     1      68.133   5.475   8.880  1.00  0.00     0.027 C 
HETATM    6  C   UNL     1      68.377   5.488   7.373  1.00  0.00     0.004 C 
HETATM    7  H   UNL     1      65.477   5.611   8.826  1.00  0.00     0.278 HD
HETATM    8  H   UNL     1      65.342   7.296   8.786  1.00  0.00     0.278 HD
ENDROOT
BRANCH   1   9
HETATM    9  C   UNL     1      64.682   6.264   6.464  1.00  0.00     0.250 C 
HETATM   10  N   UNL     1      64.003   7.245   5.795  1.00  0.00    -0.350 N 
HETATM   11  C   UNL     1      62.643   7.114   5.340  1.00  0.00     0.126 C 
HETATM   12  C   UNL     1      64.624   8.444   5.249  1.00  0.00     0.126 C 
HETATM   13  C   UNL     1      62.624   7.944   4.072  1.00  0.00     0.021 C 
HETATM   14  C   UNL     1      63.484   9.127   4.490  1.00  0.00     0.021 C 
HETATM   15  O   UNL     1      64.133   5.188   6.639  1.00  0.00    -0.271 OA
ENDBRANCH   1   9
TORSDOF 1
ENDMDL
