MODEL 1
REMARK VINA RESULT:      -5.4      0.000      0.000
REMARK  3 active torsions:
REMARK  status: ('A' for Active; 'I' for Inactive)
REMARK    1  A    between atoms: C_1  and  N_2 
REMARK    2  A    between atoms: C_3  and  C_6 
REMARK    3  A    between atoms: C_6  and  O_10 
ROOT
HETATM    1  C   UNL     1      62.611   9.389   3.848  1.00  0.00     0.090 A 
HETATM    2  C   UNL     1      62.387  10.710   4.279  1.00  0.00     0.004 A 
HETATM    3  N   UNL     1      62.430   9.040   2.552  1.00  0.00    -0.356 N 
ATOM      4  HN  UNL     1      62.605   8.085   2.241  1.00  0.00     0.166 HD
HETATM    5  C   UNL     1      61.934  11.659   3.347  1.00  0.00     0.014 A 
HETATM    6  C   UNL     1      62.014   9.985   1.680  1.00  0.00     0.089 A 
HETATM    7  C   UNL     1      61.742  11.293   2.027  1.00  0.00     0.018 A 
ENDROOT
BRANCH   1   8
HETATM    8  N   UNL     1      63.097   8.431   4.741  1.00  0.00    -0.269 NA
HETATM    9  C   UNL     1      64.491   8.014   4.532  1.00  0.00     0.097 C 
HETATM   10  C   UNL     1      64.981   7.422   5.859  1.00  0.00     0.015 C 
HETATM   11  C   UNL     1      64.078   6.284   6.344  1.00  0.00     0.002 C 
HETATM   12  C   UNL     1      62.599   6.677   6.323  1.00  0.00     0.015 C 
HETATM   13  C   UNL     1      62.204   7.290   4.976  1.00  0.00     0.097 C 
ENDBRANCH   1   8
BRANCH   2  14
HETATM   14  C   UNL     1      62.702  11.181   5.678  1.00  0.00     0.206 C 
BRANCH  14  15
HETATM   15  O   UNL     1      64.101  11.136   5.948  1.00  0.00    -0.396 OA
HETATM   16  H   UNL     1      64.584  10.973   5.123  1.00  0.00     0.209 HD
ENDBRANCH  14  15
ENDBRANCH   2  14
TORSDOF 3
ENDMDL
MODEL 2
REMARK VINA RESULT:      -5.1     18.776     20.982
REMARK  3 active torsions:
REMARK  status: ('A' for Active; 'I' for Inactive)
REMARK    1  A    between atoms: C_1  and  N_2 
REMARK    2  A    between atoms: C_3  and  C_6 
REMARK    3  A    between atoms: C_6  and  O_10 
ROOT
HETATM    1  C   UNL     1      76.660   2.499  18.033  1.00  0.00     0.090 A 
HETATM    2  C   UNL     1      75.375   2.326  17.484  1.00  0.00     0.004 A 
HETATM    3  N   UNL     1      77.277   3.704  17.991  1.00  0.00    -0.356 N 
ATOM      4  HN  UNL     1      78.203   3.830  18.400  1.00  0.00     0.166 HD
HETATM    5  C   UNL     1      74.754   3.417  16.853  1.00  0.00     0.014 A 
HETATM    6  C   UNL     1      76.640   4.737  17.395  1.00  0.00     0.089 A 
HETATM    7  C   UNL     1      75.395   4.642  16.806  1.00  0.00     0.018 A 
ENDROOT
BRANCH   1   8
HETATM    8  N   UNL     1      77.289   1.444  18.698  1.00  0.00    -0.269 NA
HETATM    9  C   UNL     1      78.403   1.821  19.579  1.00  0.00     0.097 C 
HETATM   10  C   UNL     1      78.585   0.674  20.580  1.00  0.00     0.015 C 
HETATM   11  C   UNL     1      78.800  -0.669  19.877  1.00  0.00     0.002 C 
HETATM   12  C   UNL     1      77.750  -0.923  18.792  1.00  0.00     0.015 C 
HETATM   13  C   UNL     1      77.610   0.283  17.859  1.00  0.00     0.097 C 
ENDBRANCH   1   8
BRANCH   2  14
HETATM   14  C   UNL     1      74.591   1.043  17.622  1.00  0.00     0.206 C 
BRANCH  14  15
HETATM   15  O   UNL     1      74.355   0.714  18.989  1.00  0.00    -0.396 OA
HETATM   16  H   UNL     1      74.471   1.506  19.537  1.00  0.00     0.209 HD
ENDBRANCH  14  15
ENDBRANCH   2  14
TORSDOF 3
ENDMDL
MODEL 3
REMARK VINA RESULT:      -4.8      3.385      5.108
REMARK  3 active torsions:
REMARK  status: ('A' for Active; 'I' for Inactive)
REMARK    1  A    between atoms: C_1  and  N_2 
REMARK    2  A    between atoms: C_3  and  C_6 
REMARK    3  A    between atoms: C_6  and  O_10 
ROOT
HETATM    1  C   UNL     1      65.588   6.961   6.510  1.00  0.00     0.090 A 
HETATM    2  C   UNL     1      65.941   7.729   5.384  1.00  0.00     0.004 A 
HETATM    3  N   UNL     1      64.294   6.843   6.892  1.00  0.00    -0.356 N 
ATOM      4  HN  UNL     1      64.040   6.277   7.701  1.00  0.00     0.166 HD
HETATM    5  C   UNL     1      64.931   8.406   4.680  1.00  0.00     0.014 A 
HETATM    6  C   UNL     1      63.347   7.492   6.178  1.00  0.00     0.089 A 
HETATM    7  C   UNL     1      63.613   8.288   5.083  1.00  0.00     0.018 A 
ENDROOT
BRANCH   1   8
HETATM    8  N   UNL     1      66.564   6.247   7.209  1.00  0.00    -0.269 NA
HETATM    9  C   UNL     1      66.730   4.842   6.813  1.00  0.00     0.097 C 
HETATM   10  C   UNL     1      68.130   4.414   7.269  1.00  0.00     0.015 C 
HETATM   11  C   UNL     1      68.339   4.647   8.767  1.00  0.00     0.002 C 
HETATM   12  C   UNL     1      67.929   6.060   9.191  1.00  0.00     0.015 C 
HETATM   13  C   UNL     1      66.534   6.416   8.666  1.00  0.00     0.097 C 
ENDBRANCH   1   8
BRANCH   2  14
HETATM   14  C   UNL     1      67.348   7.785   4.838  1.00  0.00     0.206 C 
BRANCH  14  15
HETATM   15  O   UNL     1      68.304   8.019   5.870  1.00  0.00    -0.396 OA
HETATM   16  H   UNL     1      67.901   7.836   6.732  1.00  0.00     0.209 HD
ENDBRANCH  14  15
ENDBRANCH   2  14
TORSDOF 3
ENDMDL
MODEL 4
REMARK VINA RESULT:      -4.7      6.171      9.291
REMARK  3 active torsions:
REMARK  status: ('A' for Active; 'I' for Inactive)
REMARK    1  A    between atoms: C_1  and  N_2 
REMARK    2  A    between atoms: C_3  and  C_6 
REMARK    3  A    between atoms: C_6  and  O_10 
ROOT
HETATM    1  C   UNL     1      68.326   4.154   8.560  1.00  0.00     0.090 A 
HETATM    2  C   UNL     1      69.652   4.184   9.033  1.00  0.00     0.004 A 
HETATM    3  N   UNL     1      67.471   3.179   8.949  1.00  0.00    -0.356 N 
ATOM      4  HN  UNL     1      66.508   3.167   8.613  1.00  0.00     0.166 HD
HETATM    5  C   UNL     1      70.089   3.159   9.889  1.00  0.00     0.014 A 
HETATM    6  C   UNL     1      67.921   2.222   9.790  1.00  0.00     0.089 A 
HETATM    7  C   UNL     1      69.212   2.161  10.274  1.00  0.00     0.018 A 
ENDROOT
BRANCH   1   8
HETATM    8  N   UNL     1      67.851   5.178   7.736  1.00  0.00    -0.269 NA
HETATM    9  C   UNL     1      66.744   5.974   8.285  1.00  0.00     0.097 C 
HETATM   10  C   UNL     1      66.738   7.307   7.529  1.00  0.00     0.015 C 
HETATM   11  C   UNL     1      66.642   7.104   6.014  1.00  0.00     0.002 C 
HETATM   12  C   UNL     1      67.661   6.081   5.506  1.00  0.00     0.015 C 
HETATM   13  C   UNL     1      67.622   4.795   6.338  1.00  0.00     0.097 C 
ENDBRANCH   1   8
BRANCH   2  14
HETATM   14  C   UNL     1      70.603   5.318   8.738  1.00  0.00     0.206 C 
BRANCH  14  15
HETATM   15  O   UNL     1      71.924   5.030   9.189  1.00  0.00    -0.396 OA
HETATM   16  H   UNL     1      72.178   4.140   8.900  1.00  0.00     0.209 HD
ENDBRANCH  14  15
ENDBRANCH   2  14
TORSDOF 3
ENDMDL
MODEL 5
REMARK VINA RESULT:      -4.6      2.140      3.273
REMARK  3 active torsions:
REMARK  status: ('A' for Active; 'I' for Inactive)
REMARK    1  A    between atoms: C_1  and  N_2 
REMARK    2  A    between atoms: C_3  and  C_6 
REMARK    3  A    between atoms: C_6  and  O_10 
ROOT
HETATM    1  C   UNL     1      63.832   8.702   4.917  1.00  0.00     0.090 A 
HETATM    2  C   UNL     1      63.048   8.518   3.762  1.00  0.00     0.004 A 
HETATM    3  N   UNL     1      63.741   9.840   5.645  1.00  0.00    -0.356 N 
ATOM      4  HN  UNL     1      64.301   9.966   6.488  1.00  0.00     0.166 HD
HETATM    5  C   UNL     1      62.193   9.554   3.351  1.00  0.00     0.014 A 
HETATM    6  C   UNL     1      62.892  10.807   5.230  1.00  0.00     0.089 A 
HETATM    7  C   UNL     1      62.113  10.718   4.094  1.00  0.00     0.018 A 
ENDROOT
BRANCH   1   8
HETATM    8  N   UNL     1      64.664   7.677   5.373  1.00  0.00    -0.269 NA
HETATM    9  C   UNL     1      64.143   6.886   6.496  1.00  0.00     0.097 C 
HETATM   10  C   UNL     1      64.895   5.549   6.485  1.00  0.00     0.015 C 
HETATM   11  C   UNL     1      66.412   5.747   6.540  1.00  0.00     0.002 C 
HETATM   12  C   UNL     1      66.895   6.766   5.504  1.00  0.00     0.015 C 
HETATM   13  C   UNL     1      66.070   8.055   5.562  1.00  0.00     0.097 C 
ENDBRANCH   1   8
BRANCH   2  14
HETATM   14  C   UNL     1      63.013   7.219   2.994  1.00  0.00     0.206 C 
BRANCH  14  15
HETATM   15  O   UNL     1      64.323   6.705   2.767  1.00  0.00    -0.396 OA
HETATM   16  H   UNL     1      64.386   6.367   1.861  1.00  0.00     0.209 HD
ENDBRANCH  14  15
ENDBRANCH   2  14
TORSDOF 3
ENDMDL
MODEL 6
REMARK VINA RESULT:      -4.5      4.544      7.657
REMARK  3 active torsions:
REMARK  status: ('A' for Active; 'I' for Inactive)
REMARK    1  A    between atoms: C_1  and  N_2 
REMARK    2  A    between atoms: C_3  and  C_6 
REMARK    3  A    between atoms: C_6  and  O_10 
ROOT
HETATM    1  C   UNL     1      67.771   5.002   7.195  1.00  0.00     0.090 A 
HETATM    2  C   UNL     1      67.960   5.369   8.541  1.00  0.00     0.004 A 
HETATM    3  N   UNL     1      68.323   3.868   6.700  1.00  0.00    -0.356 N 
ATOM      4  HN  UNL     1      68.175   3.598   5.728  1.00  0.00     0.166 HD
HETATM    5  C   UNL     1      68.765   4.559   9.359  1.00  0.00     0.014 A 
HETATM    6  C   UNL     1      69.074   3.102   7.523  1.00  0.00     0.089 A 
HETATM    7  C   UNL     1      69.333   3.408   8.843  1.00  0.00     0.018 A 
ENDROOT
BRANCH   1   8
HETATM    8  N   UNL     1      66.947   5.766   6.365  1.00  0.00    -0.269 NA
HETATM    9  C   UNL     1      65.601   5.225   6.133  1.00  0.00     0.097 C 
HETATM   10  C   UNL     1      64.721   6.400   5.690  1.00  0.00     0.015 C 
HETATM   11  C   UNL     1      65.300   7.120   4.470  1.00  0.00     0.002 C 
HETATM   12  C   UNL     1      66.782   7.460   4.654  1.00  0.00     0.015 C 
HETATM   13  C   UNL     1      67.578   6.241   5.128  1.00  0.00     0.097 C 
ENDBRANCH   1   8
BRANCH   2  14
HETATM   14  C   UNL     1      67.260   6.547   9.174  1.00  0.00     0.206 C 
BRANCH  14  15
HETATM   15  O   UNL     1      67.350   7.714   8.360  1.00  0.00    -0.396 OA
HETATM   16  H   UNL     1      68.047   7.593   7.697  1.00  0.00     0.209 HD
ENDBRANCH  14  15
ENDBRANCH   2  14
TORSDOF 3
ENDMDL
MODEL 7
REMARK VINA RESULT:      -4.5      4.658      7.733
REMARK  3 active torsions:
REMARK  status: ('A' for Active; 'I' for Inactive)
REMARK    1  A    between atoms: C_1  and  N_2 
REMARK    2  A    between atoms: C_3  and  C_6 
REMARK    3  A    between atoms: C_6  and  O_10 
ROOT
HETATM    1  C   UNL     1      67.807   5.518   7.190  1.00  0.00     0.090 A 
HETATM    2  C   UNL     1      67.971   4.166   6.836  1.00  0.00     0.004 A 
HETATM    3  N   UNL     1      68.582   6.086   8.144  1.00  0.00    -0.356 N 
ATOM      4  HN  UNL     1      68.469   7.070   8.390  1.00  0.00     0.166 HD
HETATM    5  C   UNL     1      68.931   3.398   7.517  1.00  0.00     0.014 A 
HETATM    6  C   UNL     1      69.510   5.323   8.763  1.00  0.00     0.089 A 
HETATM    7  C   UNL     1      69.712   3.984   8.497  1.00  0.00     0.018 A 
ENDROOT
BRANCH   1   8
HETATM    8  N   UNL     1      66.886   6.317   6.507  1.00  0.00    -0.269 NA
HETATM    9  C   UNL     1      67.452   7.469   5.790  1.00  0.00     0.097 C 
HETATM   10  C   UNL     1      66.433   7.868   4.717  1.00  0.00     0.015 C 
HETATM   11  C   UNL     1      65.052   8.150   5.317  1.00  0.00     0.002 C 
HETATM   12  C   UNL     1      64.594   7.029   6.254  1.00  0.00     0.015 C 
HETATM   13  C   UNL     1      65.684   6.672   7.269  1.00  0.00     0.097 C 
ENDBRANCH   1   8
BRANCH   2  14
HETATM   14  C   UNL     1      67.228   3.522   5.691  1.00  0.00     0.206 C 
BRANCH  14  15
HETATM   15  O   UNL     1      67.461   4.203   4.461  1.00  0.00    -0.396 OA
HETATM   16  H   UNL     1      67.125   3.668   3.726  1.00  0.00     0.209 HD
ENDBRANCH  14  15
ENDBRANCH   2  14
TORSDOF 3
ENDMDL
MODEL 8
REMARK VINA RESULT:      -4.4      3.179      6.225
REMARK  3 active torsions:
REMARK  status: ('A' for Active; 'I' for Inactive)
REMARK    1  A    between atoms: C_1  and  N_2 
REMARK    2  A    between atoms: C_3  and  C_6 
REMARK    3  A    between atoms: C_6  and  O_10 
ROOT
HETATM    1  C   UNL     1      65.992   6.534   6.940  1.00  0.00     0.090 A 
HETATM    2  C   UNL     1      67.133   5.842   6.491  1.00  0.00     0.004 A 
HETATM    3  N   UNL     1      65.870   6.906   8.236  1.00  0.00    -0.356 N 
ATOM      4  HN  UNL     1      65.047   7.417   8.556  1.00  0.00     0.166 HD
HETATM    5  C   UNL     1      68.133   5.508   7.420  1.00  0.00     0.014 A 
HETATM    6  C   UNL     1      66.862   6.585   9.098  1.00  0.00     0.089 A 
HETATM    7  C   UNL     1      67.996   5.883   8.745  1.00  0.00     0.018 A 
ENDROOT
BRANCH   1   8
HETATM    8  N   UNL     1      64.998   6.912   6.035  1.00  0.00    -0.269 NA
HETATM    9  C   UNL     1      65.005   8.327   5.636  1.00  0.00     0.097 C 
HETATM   10  C   UNL     1      64.250   8.418   4.305  1.00  0.00     0.015 C 
HETATM   11  C   UNL     1      62.841   7.827   4.407  1.00  0.00     0.002 C 
HETATM   12  C   UNL     1      62.846   6.438   5.051  1.00  0.00     0.015 C 
HETATM   13  C   UNL     1      63.649   6.431   6.355  1.00  0.00     0.097 C 
ENDBRANCH   1   8
BRANCH   2  14
HETATM   14  C   UNL     1      67.379   5.524   5.036  1.00  0.00     0.206 C 
BRANCH  14  15
HETATM   15  O   UNL     1      67.721   6.690   4.292  1.00  0.00    -0.396 OA
HETATM   16  H   UNL     1      68.609   6.987   4.545  1.00  0.00     0.209 HD
ENDBRANCH  14  15
ENDBRANCH   2  14
TORSDOF 3
ENDMDL
MODEL 9
REMARK VINA RESULT:      -4.3      7.309      9.365
REMARK  3 active torsions:
REMARK  status: ('A' for Active; 'I' for Inactive)
REMARK    1  A    between atoms: C_1  and  N_2 
REMARK    2  A    between atoms: C_3  and  C_6 
REMARK    3  A    between atoms: C_6  and  O_10 
ROOT
HETATM    1  C   UNL     1      67.685   3.513   8.581  1.00  0.00     0.090 A 
HETATM    2  C   UNL     1      68.563   4.449   9.160  1.00  0.00     0.004 A 
HETATM    3  N   UNL     1      66.486   3.901   8.084  1.00  0.00    -0.356 N 
ATOM      4  HN  UNL     1      65.857   3.222   7.654  1.00  0.00     0.166 HD
HETATM    5  C   UNL     1      68.160   5.792   9.251  1.00  0.00     0.014 A 
HETATM    6  C   UNL     1      66.141   5.205   8.169  1.00  0.00     0.089 A 
HETATM    7  C   UNL     1      66.929   6.177   8.749  1.00  0.00     0.018 A 
ENDROOT
BRANCH   1   8
HETATM    8  N   UNL     1      68.071   2.178   8.443  1.00  0.00    -0.269 NA
HETATM    9  C   UNL     1      68.149   1.677   7.064  1.00  0.00     0.097 C 
HETATM   10  C   UNL     1      69.067   0.450   7.088  1.00  0.00     0.015 C 
HETATM   11  C   UNL     1      68.584  -0.606   8.087  1.00  0.00     0.002 C 
HETATM   12  C   UNL     1      68.283  -0.000   9.460  1.00  0.00     0.015 C 
HETATM   13  C   UNL     1      67.389   1.238   9.340  1.00  0.00     0.097 C 
ENDBRANCH   1   8
BRANCH   2  14
HETATM   14  C   UNL     1      69.961   4.095   9.606  1.00  0.00     0.206 C 
BRANCH  14  15
HETATM   15  O   UNL     1      69.949   3.241  10.748  1.00  0.00    -0.396 OA
HETATM   16  H   UNL     1      69.035   3.104  11.041  1.00  0.00     0.209 HD
ENDBRANCH  14  15
ENDBRANCH   2  14
TORSDOF 3
ENDMDL
