MODEL 1
REMARK VINA RESULT:      -5.2      0.000      0.000
REMARK  2 active torsions:
REMARK  status: ('A' for Active; 'I' for Inactive)
REMARK    1  A    between atoms: C_3  and  C_10 
REMARK    2  A    between atoms: C_10  and  O_11 
ROOT
HETATM    1  S   UNL     1      63.863   8.934   5.085  1.00  0.00    -0.092 SA
HETATM    2  C   UNL     1      62.329   9.247   3.034  1.00  0.00    -0.018 A 
HETATM    3  C   UNL     1      62.946  10.372   5.003  1.00  0.00     0.007 A 
HETATM    4  C   UNL     1      62.163  10.402   3.868  1.00  0.00     0.029 A 
HETATM    5  C   UNL     1      63.241   8.349   3.590  1.00  0.00     0.015 A 
HETATM    6  C   UNL     1      61.733   8.913   1.793  1.00  0.00     0.019 A 
HETATM    7  C   UNL     1      63.565   7.139   2.950  1.00  0.00     0.020 A 
HETATM    8  C   UNL     1      62.051   7.713   1.139  1.00  0.00    -0.061 A 
HETATM    9  C   UNL     1      62.961   6.836   1.725  1.00  0.00     0.008 A 
HETATM   10  C   UNL     1      61.410   7.395  -0.181  1.00  0.00     0.048 C 
ENDROOT
BRANCH   3  11
HETATM   11  C   UNL     1      63.054  11.400   6.079  1.00  0.00     0.210 C 
BRANCH  11  12
HETATM   12  O   UNL     1      64.423  11.478   6.456  1.00  0.00    -0.396 OA
HETATM   13  H   UNL     1      64.578  10.916   7.232  1.00  0.00     0.209 HD
ENDBRANCH  11  12
ENDBRANCH   3  11
TORSDOF 2
ENDMDL
MODEL 2
REMARK VINA RESULT:      -5.1     20.697     23.361
REMARK  2 active torsions:
REMARK  status: ('A' for Active; 'I' for Inactive)
REMARK    1  A    between atoms: C_3  and  C_10 
REMARK    2  A    between atoms: C_10  and  O_11 
ROOT
HETATM    1  S   UNL     1      76.780  11.422  18.543  1.00  0.00    -0.092 SA
HETATM    2  C   UNL     1      78.892  11.097  19.991  1.00  0.00    -0.018 A 
HETATM    3  C   UNL     1      77.861  10.181  18.088  1.00  0.00     0.007 A 
HETATM    4  C   UNL     1      78.933  10.109  18.952  1.00  0.00     0.029 A 
HETATM    5  C   UNL     1      77.750  11.892  19.886  1.00  0.00     0.015 A 
HETATM    6  C   UNL     1      79.800  11.366  21.044  1.00  0.00     0.019 A 
HETATM    7  C   UNL     1      77.490  12.931  20.799  1.00  0.00     0.020 A 
HETATM    8  C   UNL     1      79.559  12.404  21.958  1.00  0.00    -0.061 A 
HETATM    9  C   UNL     1      78.406  13.174  21.829  1.00  0.00     0.008 A 
HETATM   10  C   UNL     1      80.548  12.668  23.056  1.00  0.00     0.048 C 
ENDROOT
BRANCH   3  11
HETATM   11  C   UNL     1      77.583   9.339  16.888  1.00  0.00     0.210 C 
BRANCH  11  12
HETATM   12  O   UNL     1      78.171   9.988  15.768  1.00  0.00    -0.396 OA
HETATM   13  H   UNL     1      79.071  10.273  15.994  1.00  0.00     0.209 HD
ENDBRANCH  11  12
ENDBRANCH   3  11
TORSDOF 2
ENDMDL
MODEL 3
REMARK VINA RESULT:      -5.1     19.082     20.137
REMARK  2 active torsions:
REMARK  status: ('A' for Active; 'I' for Inactive)
REMARK    1  A    between atoms: C_3  and  C_10 
REMARK    2  A    between atoms: C_10  and  O_11 
ROOT
HETATM    1  S   UNL     1      77.871   9.710  16.593  1.00  0.00    -0.092 SA
HETATM    2  C   UNL     1      76.834   7.635  17.725  1.00  0.00    -0.018 A 
HETATM    3  C   UNL     1      77.637   9.772  18.282  1.00  0.00     0.007 A 
HETATM    4  C   UNL     1      77.092   8.598  18.756  1.00  0.00     0.029 A 
HETATM    5  C   UNL     1      77.221   8.120  16.474  1.00  0.00     0.015 A 
HETATM    6  C   UNL     1      76.269   6.338  17.794  1.00  0.00     0.019 A 
HETATM    7  C   UNL     1      77.067   7.349  15.307  1.00  0.00     0.020 A 
HETATM    8  C   UNL     1      76.101   5.561  16.638  1.00  0.00    -0.061 A 
HETATM    9  C   UNL     1      76.504   6.072  15.407  1.00  0.00     0.008 A 
HETATM   10  C   UNL     1      75.489   4.195  16.746  1.00  0.00     0.048 C 
ENDROOT
BRANCH   3  11
HETATM   11  C   UNL     1      78.012  10.995  19.053  1.00  0.00     0.210 C 
BRANCH  11  12
HETATM   12  O   UNL     1      79.194  10.691  19.783  1.00  0.00    -0.396 OA
HETATM   13  H   UNL     1      79.084  10.967  20.706  1.00  0.00     0.209 HD
ENDBRANCH  11  12
ENDBRANCH   3  11
TORSDOF 2
ENDMDL
MODEL 4
REMARK VINA RESULT:      -4.9      2.234      3.301
REMARK  2 active torsions:
REMARK  status: ('A' for Active; 'I' for Inactive)
REMARK    1  A    between atoms: C_3  and  C_10 
REMARK    2  A    between atoms: C_10  and  O_11 
ROOT
HETATM    1  S   UNL     1      63.391   6.411   3.555  1.00  0.00    -0.092 SA
HETATM    2  C   UNL     1      62.820   8.898   3.942  1.00  0.00    -0.018 A 
HETATM    3  C   UNL     1      63.621   7.034   5.128  1.00  0.00     0.007 A 
HETATM    4  C   UNL     1      63.264   8.364   5.196  1.00  0.00     0.029 A 
HETATM    5  C   UNL     1      62.837   7.922   2.944  1.00  0.00     0.015 A 
HETATM    6  C   UNL     1      62.395  10.203   3.593  1.00  0.00     0.019 A 
HETATM    7  C   UNL     1      62.440   8.211   1.625  1.00  0.00     0.020 A 
HETATM    8  C   UNL     1      62.003  10.509   2.281  1.00  0.00    -0.061 A 
HETATM    9  C   UNL     1      62.026   9.510   1.311  1.00  0.00     0.008 A 
HETATM   10  C   UNL     1      61.568  11.906   1.944  1.00  0.00     0.048 C 
ENDROOT
BRANCH   3  11
HETATM   11  C   UNL     1      64.146   6.160   6.218  1.00  0.00     0.210 C 
BRANCH  11  12
HETATM   12  O   UNL     1      64.511   7.006   7.302  1.00  0.00    -0.396 OA
HETATM   13  H   UNL     1      64.299   7.927   7.079  1.00  0.00     0.209 HD
ENDBRANCH  11  12
ENDBRANCH   3  11
TORSDOF 2
ENDMDL
MODEL 5
REMARK VINA RESULT:      -4.7      6.241      7.734
REMARK  2 active torsions:
REMARK  status: ('A' for Active; 'I' for Inactive)
REMARK    1  A    between atoms: C_3  and  C_10 
REMARK    2  A    between atoms: C_10  and  O_11 
ROOT
HETATM    1  S   UNL     1      66.439   5.619   5.065  1.00  0.00    -0.092 SA
HETATM    2  C   UNL     1      67.598   5.924   7.350  1.00  0.00    -0.018 A 
HETATM    3  C   UNL     1      66.190   7.098   5.880  1.00  0.00     0.007 A 
HETATM    4  C   UNL     1      66.875   7.132   7.076  1.00  0.00     0.029 A 
HETATM    5  C   UNL     1      67.446   4.999   6.316  1.00  0.00     0.015 A 
HETATM    6  C   UNL     1      68.394   5.559   8.463  1.00  0.00     0.019 A 
HETATM    7  C   UNL     1      68.067   3.737   6.361  1.00  0.00     0.020 A 
HETATM    8  C   UNL     1      69.013   4.301   8.527  1.00  0.00    -0.061 A 
HETATM    9  C   UNL     1      68.846   3.404   7.474  1.00  0.00     0.008 A 
HETATM   10  C   UNL     1      69.841   3.942   9.726  1.00  0.00     0.048 C 
ENDROOT
BRANCH   3  11
HETATM   11  C   UNL     1      65.320   8.153   5.282  1.00  0.00     0.210 C 
BRANCH  11  12
HETATM   12  O   UNL     1      65.485   9.331   6.062  1.00  0.00    -0.396 OA
HETATM   13  H   UNL     1      65.863   9.098   6.925  1.00  0.00     0.209 HD
ENDBRANCH  11  12
ENDBRANCH   3  11
TORSDOF 2
ENDMDL
MODEL 6
REMARK VINA RESULT:      -4.6     20.950     22.171
REMARK  2 active torsions:
REMARK  status: ('A' for Active; 'I' for Inactive)
REMARK    1  A    between atoms: C_3  and  C_10 
REMARK    2  A    between atoms: C_10  and  O_11 
ROOT
HETATM    1  S   UNL     1      77.023  -0.505  18.589  1.00  0.00    -0.092 SA
HETATM    2  C   UNL     1      77.176   2.058  18.329  1.00  0.00    -0.018 A 
HETATM    3  C   UNL     1      78.358   0.279  19.310  1.00  0.00     0.007 A 
HETATM    4  C   UNL     1      78.307   1.642  19.107  1.00  0.00     0.029 A 
HETATM    5  C   UNL     1      76.378   0.968  17.977  1.00  0.00     0.015 A 
HETATM    6  C   UNL     1      76.782   3.346  17.891  1.00  0.00     0.019 A 
HETATM    7  C   UNL     1      75.207   1.131  17.213  1.00  0.00     0.020 A 
HETATM    8  C   UNL     1      75.622   3.523  17.121  1.00  0.00    -0.061 A 
HETATM    9  C   UNL     1      74.844   2.415  16.793  1.00  0.00     0.008 A 
HETATM   10  C   UNL     1      75.239   4.900  16.664  1.00  0.00     0.048 C 
ENDROOT
BRANCH   3  11
HETATM   11  C   UNL     1      79.391  -0.509  20.044  1.00  0.00     0.210 C 
BRANCH  11  12
HETATM   12  O   UNL     1      79.748   0.235  21.203  1.00  0.00    -0.396 OA
HETATM   13  H   UNL     1      80.700   0.421  21.187  1.00  0.00     0.209 HD
ENDBRANCH  11  12
ENDBRANCH   3  11
TORSDOF 2
ENDMDL
MODEL 7
REMARK VINA RESULT:      -4.5      8.013      9.352
REMARK  2 active torsions:
REMARK  status: ('A' for Active; 'I' for Inactive)
REMARK    1  A    between atoms: C_3  and  C_10 
REMARK    2  A    between atoms: C_10  and  O_11 
ROOT
HETATM    1  S   UNL     1      69.127   4.060   9.552  1.00  0.00    -0.092 SA
HETATM    2  C   UNL     1      68.395   3.446   7.155  1.00  0.00    -0.018 A 
HETATM    3  C   UNL     1      69.246   2.421   9.091  1.00  0.00     0.007 A 
HETATM    4  C   UNL     1      68.838   2.237   7.786  1.00  0.00     0.029 A 
HETATM    5  C   UNL     1      68.504   4.536   8.020  1.00  0.00     0.015 A 
HETATM    6  C   UNL     1      67.887   3.673   5.852  1.00  0.00     0.019 A 
HETATM    7  C   UNL     1      68.130   5.832   7.620  1.00  0.00     0.020 A 
HETATM    8  C   UNL     1      67.502   4.958   5.442  1.00  0.00    -0.061 A 
HETATM    9  C   UNL     1      67.630   6.026   6.327  1.00  0.00     0.008 A 
HETATM   10  C   UNL     1      66.957   5.162   4.058  1.00  0.00     0.048 C 
ENDROOT
BRANCH   3  11
HETATM   11  C   UNL     1      69.743   1.397  10.056  1.00  0.00     0.210 C 
BRANCH  11  12
HETATM   12  O   UNL     1      69.895   2.041  11.316  1.00  0.00    -0.396 OA
HETATM   13  H   UNL     1      70.835   2.062  11.558  1.00  0.00     0.209 HD
ENDBRANCH  11  12
ENDBRANCH   3  11
TORSDOF 2
ENDMDL
MODEL 8
REMARK VINA RESULT:      -4.5      8.078      9.398
REMARK  2 active torsions:
REMARK  status: ('A' for Active; 'I' for Inactive)
REMARK    1  A    between atoms: C_3  and  C_10 
REMARK    2  A    between atoms: C_10  and  O_11 
ROOT
HETATM    1  S   UNL     1      68.789   1.849   7.539  1.00  0.00    -0.092 SA
HETATM    2  C   UNL     1      68.501   4.379   7.961  1.00  0.00    -0.018 A 
HETATM    3  C   UNL     1      69.272   2.451   9.062  1.00  0.00     0.007 A 
HETATM    4  C   UNL     1      69.050   3.809   9.157  1.00  0.00     0.029 A 
HETATM    5  C   UNL     1      68.303   3.404   6.982  1.00  0.00     0.015 A 
HETATM    6  C   UNL     1      68.157   5.718   7.652  1.00  0.00     0.019 A 
HETATM    7  C   UNL     1      67.770   3.727   5.721  1.00  0.00     0.020 A 
HETATM    8  C   UNL     1      67.632   6.056   6.396  1.00  0.00    -0.061 A 
HETATM    9  C   UNL     1      67.440   5.058   5.444  1.00  0.00     0.008 A 
HETATM   10  C   UNL     1      67.288   7.487   6.097  1.00  0.00     0.048 C 
ENDROOT
BRANCH   3  11
HETATM   11  C   UNL     1      69.848   1.534  10.089  1.00  0.00     0.210 C 
BRANCH  11  12
HETATM   12  O   UNL     1      69.771   2.200  11.344  1.00  0.00    -0.396 OA
HETATM   13  H   UNL     1      70.281   1.704  12.005  1.00  0.00     0.209 HD
ENDBRANCH  11  12
ENDBRANCH   3  11
TORSDOF 2
ENDMDL
MODEL 9
REMARK VINA RESULT:      -4.4     18.627     20.628
REMARK  2 active torsions:
REMARK  status: ('A' for Active; 'I' for Inactive)
REMARK    1  A    between atoms: C_3  and  C_10 
REMARK    2  A    between atoms: C_10  and  O_11 
ROOT
HETATM    1  S   UNL     1      78.015   8.730  16.663  1.00  0.00    -0.092 SA
HETATM    2  C   UNL     1      77.210  11.158  17.005  1.00  0.00    -0.018 A 
HETATM    3  C   UNL     1      77.666   9.645  15.265  1.00  0.00     0.007 A 
HETATM    4  C   UNL     1      77.262  10.923  15.591  1.00  0.00     0.029 A 
HETATM    5  C   UNL     1      77.605  10.025  17.719  1.00  0.00     0.015 A 
HETATM    6  C   UNL     1      76.831  12.311  17.735  1.00  0.00     0.019 A 
HETATM    7  C   UNL     1      77.636  10.017  19.126  1.00  0.00     0.020 A 
HETATM    8  C   UNL     1      76.849  12.316  19.138  1.00  0.00    -0.061 A 
HETATM    9  C   UNL     1      77.255  11.171  19.820  1.00  0.00     0.008 A 
HETATM   10  C   UNL     1      76.431  13.551  19.880  1.00  0.00     0.048 C 
ENDROOT
BRANCH   3  11
HETATM   11  C   UNL     1      77.814   9.041  13.909  1.00  0.00     0.210 C 
BRANCH  11  12
HETATM   12  O   UNL     1      77.033   7.851  13.886  1.00  0.00    -0.396 OA
HETATM   13  H   UNL     1      76.161   8.030  14.274  1.00  0.00     0.209 HD
ENDBRANCH  11  12
ENDBRANCH   3  11
TORSDOF 2
ENDMDL
