MODEL 1
REMARK VINA RESULT:      -5.9      0.000      0.000
REMARK  1 active torsions:
REMARK  status: ('A' for Active; 'I' for Inactive)
REMARK    1  A    between atoms: C_8  and  N_9 
ROOT
HETATM    1  C   UNL     1      65.099   7.593   4.510  1.00  0.00    -0.015 A 
HETATM    2  C   UNL     1      65.677   8.216   5.594  1.00  0.00     0.061 A 
HETATM    3  C   UNL     1      63.957   8.360   4.183  1.00  0.00     0.009 A 
HETATM    4  O   UNL     1      64.988   9.323   5.960  1.00  0.00    -0.314 OA
HETATM    5  C   UNL     1      63.933   9.413   5.094  1.00  0.00     0.086 A 
HETATM    6  C   UNL     1      62.944   8.287   3.210  1.00  0.00     0.043 A 
HETATM    7  C   UNL     1      62.968  10.415   5.089  1.00  0.00     0.040 A 
HETATM    8  C   UNL     1      61.919   9.245   3.206  1.00  0.00     0.026 A 
HETATM    9  C   UNL     1      61.973  10.318   4.104  1.00  0.00     0.032 A 
HETATM   10  C   UNL     1      65.660   6.354   3.914  1.00  0.00     0.042 C 
HETATM   11  C   UNL     1      66.912   7.825   6.306  1.00  0.00     0.066 C 
HETATM   12  C   UNL     1      67.111   6.132   4.386  1.00  0.00     0.005 C 
HETATM   13  C   UNL     1      67.278   6.378   5.902  1.00  0.00     0.007 C 
ENDROOT
BRANCH   8  14
HETATM   14  N   UNL     1      60.984   9.249   2.160  1.00  0.00    -0.399 N 
HETATM   15  H   UNL     1      60.021   9.185   2.359  1.00  0.00     0.156 HD
HETATM   16  H   UNL     1      61.291   9.316   1.227  1.00  0.00     0.156 HD
ENDBRANCH   8  14
TORSDOF 1
ENDMDL
MODEL 2
REMARK VINA RESULT:      -5.7      2.192      4.787
REMARK  1 active torsions:
REMARK  status: ('A' for Active; 'I' for Inactive)
REMARK    1  A    between atoms: C_8  and  N_9 
ROOT
HETATM    1  C   UNL     1      64.028   8.344   4.210  1.00  0.00    -0.015 A 
HETATM    2  C   UNL     1      64.012   9.366   5.132  1.00  0.00     0.061 A 
HETATM    3  C   UNL     1      65.203   7.602   4.470  1.00  0.00     0.009 A 
HETATM    4  O   UNL     1      65.083   9.309   5.960  1.00  0.00    -0.314 OA
HETATM    5  C   UNL     1      65.814   8.227   5.554  1.00  0.00     0.086 A 
HETATM    6  C   UNL     1      65.814   6.463   3.916  1.00  0.00     0.043 A 
HETATM    7  C   UNL     1      66.994   7.777   6.138  1.00  0.00     0.040 A 
HETATM    8  C   UNL     1      67.036   6.011   4.437  1.00  0.00     0.026 A 
HETATM    9  C   UNL     1      67.579   6.637   5.566  1.00  0.00     0.032 A 
HETATM   10  C   UNL     1      62.965   8.182   3.186  1.00  0.00     0.042 C 
HETATM   11  C   UNL     1      62.980  10.411   5.303  1.00  0.00     0.066 C 
HETATM   12  C   UNL     1      61.720   9.013   3.557  1.00  0.00     0.005 C 
HETATM   13  C   UNL     1      62.086  10.433   4.042  1.00  0.00     0.007 C 
ENDROOT
BRANCH   8  14
HETATM   14  N   UNL     1      67.579   4.804   3.972  1.00  0.00    -0.399 N 
HETATM   15  H   UNL     1      67.214   4.379   3.162  1.00  0.00     0.156 HD
HETATM   16  H   UNL     1      68.325   4.381   4.457  1.00  0.00     0.156 HD
ENDBRANCH   8  14
TORSDOF 1
ENDMDL
MODEL 3
REMARK VINA RESULT:      -5.5      3.282      4.445
REMARK  1 active torsions:
REMARK  status: ('A' for Active; 'I' for Inactive)
REMARK    1  A    between atoms: C_8  and  N_9 
ROOT
HETATM    1  C   UNL     1      62.825   7.884   2.370  1.00  0.00    -0.015 A 
HETATM    2  C   UNL     1      62.302   8.227   1.143  1.00  0.00     0.061 A 
HETATM    3  C   UNL     1      62.691   9.031   3.185  1.00  0.00     0.009 A 
HETATM    4  O   UNL     1      61.839   9.499   1.135  1.00  0.00    -0.314 OA
HETATM    5  C   UNL     1      62.076   9.994   2.388  1.00  0.00     0.086 A 
HETATM    6  C   UNL     1      63.013   9.362   4.514  1.00  0.00     0.043 A 
HETATM    7  C   UNL     1      61.742  11.267   2.837  1.00  0.00     0.040 A 
HETATM    8  C   UNL     1      62.746  10.655   4.990  1.00  0.00     0.026 A 
HETATM    9  C   UNL     1      62.072  11.567   4.168  1.00  0.00     0.032 A 
HETATM   10  C   UNL     1      63.402   6.542   2.641  1.00  0.00     0.042 C 
HETATM   11  C   UNL     1      62.181   7.371  -0.056  1.00  0.00     0.066 C 
HETATM   12  C   UNL     1      62.970   5.535   1.556  1.00  0.00     0.005 C 
HETATM   13  C   UNL     1      63.077   6.126   0.132  1.00  0.00     0.007 C 
ENDROOT
BRANCH   8  14
HETATM   14  N   UNL     1      62.946  10.944   6.347  1.00  0.00    -0.399 N 
HETATM   15  H   UNL     1      62.273  10.674   7.013  1.00  0.00     0.156 HD
HETATM   16  H   UNL     1      63.760  11.419   6.634  1.00  0.00     0.156 HD
ENDBRANCH   8  14
TORSDOF 1
ENDMDL
MODEL 4
REMARK VINA RESULT:      -5.4      3.689      5.843
REMARK  1 active torsions:
REMARK  status: ('A' for Active; 'I' for Inactive)
REMARK    1  A    between atoms: C_8  and  N_9 
ROOT
HETATM    1  C   UNL     1      65.970   6.513   5.635  1.00  0.00    -0.015 A 
HETATM    2  C   UNL     1      64.800   7.044   6.128  1.00  0.00     0.061 A 
HETATM    3  C   UNL     1      66.775   6.230   6.763  1.00  0.00     0.009 A 
HETATM    4  O   UNL     1      64.807   7.101   7.482  1.00  0.00    -0.314 OA
HETATM    5  C   UNL     1      66.019   6.601   7.872  1.00  0.00     0.086 A 
HETATM    6  C   UNL     1      68.057   5.691   6.970  1.00  0.00     0.043 A 
HETATM    7  C   UNL     1      66.453   6.452   9.185  1.00  0.00     0.040 A 
HETATM    8  C   UNL     1      68.557   5.578   8.277  1.00  0.00     0.026 A 
HETATM    9  C   UNL     1      67.735   5.908   9.361  1.00  0.00     0.032 A 
HETATM   10  C   UNL     1      66.215   6.344   4.180  1.00  0.00     0.042 C 
HETATM   11  C   UNL     1      63.615   7.484   5.360  1.00  0.00     0.066 C 
HETATM   12  C   UNL     1      64.894   6.448   3.391  1.00  0.00     0.005 C 
HETATM   13  C   UNL     1      64.013   7.621   3.873  1.00  0.00     0.007 C 
ENDROOT
BRANCH   8  14
HETATM   14  N   UNL     1      69.777   4.923   8.494  1.00  0.00    -0.399 N 
HETATM   15  H   UNL     1      69.888   4.330   9.272  1.00  0.00     0.156 HD
HETATM   16  H   UNL     1      70.526   5.056   7.867  1.00  0.00     0.156 HD
ENDBRANCH   8  14
TORSDOF 1
ENDMDL
MODEL 5
REMARK VINA RESULT:      -5.2      4.826      7.631
REMARK  1 active torsions:
REMARK  status: ('A' for Active; 'I' for Inactive)
REMARK    1  A    between atoms: C_8  and  N_9 
ROOT
HETATM    1  C   UNL     1      67.426   5.943   7.238  1.00  0.00    -0.015 A 
HETATM    2  C   UNL     1      67.268   5.542   5.931  1.00  0.00     0.061 A 
HETATM    3  C   UNL     1      68.063   4.868   7.901  1.00  0.00     0.009 A 
HETATM    4  O   UNL     1      67.771   4.302   5.723  1.00  0.00    -0.314 OA
HETATM    5  C   UNL     1      68.260   3.888   6.931  1.00  0.00     0.086 A 
HETATM    6  C   UNL     1      68.505   4.618   9.212  1.00  0.00     0.043 A 
HETATM    7  C   UNL     1      68.889   2.673   7.181  1.00  0.00     0.040 A 
HETATM    8  C   UNL     1      69.093   3.381   9.520  1.00  0.00     0.026 A 
HETATM    9  C   UNL     1      69.323   2.453   8.497  1.00  0.00     0.032 A 
HETATM   10  C   UNL     1      66.956   7.264   7.727  1.00  0.00     0.042 C 
HETATM   11  C   UNL     1      66.676   6.314   4.816  1.00  0.00     0.066 C 
HETATM   12  C   UNL     1      66.674   8.213   6.544  1.00  0.00     0.005 C 
HETATM   13  C   UNL     1      65.900   7.514   5.404  1.00  0.00     0.007 C 
ENDROOT
BRANCH   8  14
HETATM   14  N   UNL     1      69.649   3.181  10.791  1.00  0.00    -0.399 N 
HETATM   15  H   UNL     1      70.282   3.839  11.162  1.00  0.00     0.156 HD
HETATM   16  H   UNL     1      69.408   2.382  11.314  1.00  0.00     0.156 HD
ENDBRANCH   8  14
TORSDOF 1
ENDMDL
MODEL 6
REMARK VINA RESULT:      -5.2     17.063     19.321
REMARK  1 active torsions:
REMARK  status: ('A' for Active; 'I' for Inactive)
REMARK    1  A    between atoms: C_8  and  N_9 
ROOT
HETATM    1  C   UNL     1      77.273   1.761  18.489  1.00  0.00    -0.015 A 
HETATM    2  C   UNL     1      76.460   0.761  18.007  1.00  0.00     0.061 A 
HETATM    3  C   UNL     1      76.739   2.972  17.990  1.00  0.00     0.009 A 
HETATM    4  O   UNL     1      75.448   1.257  17.255  1.00  0.00    -0.314 OA
HETATM    5  C   UNL     1      75.619   2.614  17.244  1.00  0.00     0.086 A 
HETATM    6  C   UNL     1      77.073   4.334  18.093  1.00  0.00     0.043 A 
HETATM    7  C   UNL     1      74.793   3.533  16.605  1.00  0.00     0.040 A 
HETATM    8  C   UNL     1      76.300   5.290  17.415  1.00  0.00     0.026 A 
HETATM    9  C   UNL     1      75.149   4.884  16.729  1.00  0.00     0.032 A 
HETATM   10  C   UNL     1      78.457   1.482  19.340  1.00  0.00     0.042 C 
HETATM   11  C   UNL     1      76.571  -0.692  18.259  1.00  0.00     0.066 C 
HETATM   12  C   UNL     1      78.392   0.050  19.910  1.00  0.00     0.005 C 
HETATM   13  C   UNL     1      77.971  -0.986  18.844  1.00  0.00     0.007 C 
ENDROOT
BRANCH   8  14
HETATM   14  N   UNL     1      76.553   6.653  17.622  1.00  0.00    -0.399 N 
HETATM   15  H   UNL     1      77.445   6.950  17.918  1.00  0.00     0.156 HD
HETATM   16  H   UNL     1      75.838   7.314  17.473  1.00  0.00     0.156 HD
ENDBRANCH   8  14
TORSDOF 1
ENDMDL
MODEL 7
REMARK VINA RESULT:      -5.1      2.994      4.877
REMARK  1 active torsions:
REMARK  status: ('A' for Active; 'I' for Inactive)
REMARK    1  A    between atoms: C_8  and  N_9 
ROOT
HETATM    1  C   UNL     1      67.670   5.634   7.429  1.00  0.00    -0.015 A 
HETATM    2  C   UNL     1      68.100   4.512   6.757  1.00  0.00     0.061 A 
HETATM    3  C   UNL     1      66.853   6.345   6.519  1.00  0.00     0.009 A 
HETATM    4  O   UNL     1      67.601   4.462   5.498  1.00  0.00    -0.314 OA
HETATM    5  C   UNL     1      66.836   5.585   5.352  1.00  0.00     0.086 A 
HETATM    6  C   UNL     1      66.117   7.543   6.555  1.00  0.00     0.043 A 
HETATM    7  C   UNL     1      66.113   5.935   4.215  1.00  0.00     0.040 A 
HETATM    8  C   UNL     1      65.422   7.962   5.410  1.00  0.00     0.026 A 
HETATM    9  C   UNL     1      65.386   7.134   4.282  1.00  0.00     0.032 A 
HETATM   10  C   UNL     1      68.076   5.927   8.827  1.00  0.00     0.042 C 
HETATM   11  C   UNL     1      68.960   3.426   7.273  1.00  0.00     0.066 C 
HETATM   12  C   UNL     1      68.659   4.668   9.500  1.00  0.00     0.005 C 
HETATM   13  C   UNL     1      69.637   3.909   8.576  1.00  0.00     0.007 C 
ENDROOT
BRANCH   8  14
HETATM   14  N   UNL     1      64.585   9.085   5.486  1.00  0.00    -0.399 N 
HETATM   15  H   UNL     1      64.252   9.394   6.360  1.00  0.00     0.156 HD
HETATM   16  H   UNL     1      64.331   9.565   4.664  1.00  0.00     0.156 HD
ENDBRANCH   8  14
TORSDOF 1
ENDMDL
MODEL 8
REMARK VINA RESULT:      -5.1     17.052     18.334
REMARK  1 active torsions:
REMARK  status: ('A' for Active; 'I' for Inactive)
REMARK    1  A    between atoms: C_8  and  N_9 
ROOT
HETATM    1  C   UNL     1      72.025  23.395  13.051  1.00  0.00    -0.015 A 
HETATM    2  C   UNL     1      70.737  23.334  13.530  1.00  0.00     0.061 A 
HETATM    3  C   UNL     1      72.107  22.423  12.027  1.00  0.00     0.009 A 
HETATM    4  O   UNL     1      70.002  22.405  12.874  1.00  0.00    -0.314 OA
HETATM    5  C   UNL     1      70.842  21.846  11.951  1.00  0.00     0.086 A 
HETATM    6  C   UNL     1      73.109  21.972  11.149  1.00  0.00     0.043 A 
HETATM    7  C   UNL     1      70.502  20.853  11.037  1.00  0.00     0.040 A 
HETATM    8  C   UNL     1      72.824  20.931  10.251  1.00  0.00     0.026 A 
HETATM    9  C   UNL     1      71.520  20.426  10.171  1.00  0.00     0.032 A 
HETATM   10  C   UNL     1      73.035  24.333  13.603  1.00  0.00     0.042 C 
HETATM   11  C   UNL     1      70.130  24.164  14.593  1.00  0.00     0.066 C 
HETATM   12  C   UNL     1      72.354  25.436  14.438  1.00  0.00     0.005 C 
HETATM   13  C   UNL     1      71.261  24.873  15.372  1.00  0.00     0.007 C 
ENDROOT
BRANCH   8  14
HETATM   14  N   UNL     1      73.778  20.571   9.289  1.00  0.00    -0.399 N 
HETATM   15  H   UNL     1      73.989  21.185   8.549  1.00  0.00     0.156 HD
HETATM   16  H   UNL     1      74.239  19.702   9.354  1.00  0.00     0.156 HD
ENDBRANCH   8  14
TORSDOF 1
ENDMDL
MODEL 9
REMARK VINA RESULT:      -5.0     17.432     20.084
REMARK  1 active torsions:
REMARK  status: ('A' for Active; 'I' for Inactive)
REMARK    1  A    between atoms: C_8  and  N_9 
ROOT
HETATM    1  C   UNL     1      76.520   2.931  17.882  1.00  0.00    -0.015 A 
HETATM    2  C   UNL     1      75.379   2.496  17.248  1.00  0.00     0.061 A 
HETATM    3  C   UNL     1      77.121   1.778  18.438  1.00  0.00     0.009 A 
HETATM    4  O   UNL     1      75.228   1.154  17.354  1.00  0.00    -0.314 OA
HETATM    5  C   UNL     1      76.297   0.712  18.083  1.00  0.00     0.086 A 
HETATM    6  C   UNL     1      78.277   1.514  19.194  1.00  0.00     0.043 A 
HETATM    7  C   UNL     1      76.561  -0.611  18.420  1.00  0.00     0.040 A 
HETATM    8  C   UNL     1      78.550   0.200  19.605  1.00  0.00     0.026 A 
HETATM    9  C   UNL     1      77.723  -0.844  19.172  1.00  0.00     0.032 A 
HETATM   10  C   UNL     1      76.915   4.362  17.915  1.00  0.00     0.042 C 
HETATM   11  C   UNL     1      74.404   3.308  16.487  1.00  0.00     0.066 C 
HETATM   12  C   UNL     1      76.139   5.165  16.850  1.00  0.00     0.005 C 
HETATM   13  C   UNL     1      74.639   4.799  16.818  1.00  0.00     0.007 C 
ENDROOT
BRANCH   8  14
HETATM   14  N   UNL     1      79.765  -0.084  20.245  1.00  0.00    -0.399 N 
HETATM   15  H   UNL     1      80.167   0.578  20.854  1.00  0.00     0.156 HD
HETATM   16  H   UNL     1      80.216  -0.944  20.085  1.00  0.00     0.156 HD
ENDBRANCH   8  14
TORSDOF 1
ENDMDL
