MODEL 1
REMARK VINA RESULT:      -5.4      0.000      0.000
REMARK  2 active torsions:
REMARK  status: ('A' for Active; 'I' for Inactive)
REMARK    1  A    between atoms: C_5  and  C_10 
REMARK    2  A    between atoms: O_7  and  C_10 
ROOT
HETATM    1  O   UNL     1      65.062   9.356   5.536  1.00  0.00    -0.343 OA
HETATM    2  C   UNL     1      65.584   8.172   5.079  1.00  0.00     0.075 A 
HETATM    3  C   UNL     1      64.898   7.310   4.215  1.00  0.00    -0.025 A 
HETATM    4  C   UNL     1      63.520   7.646   3.723  1.00  0.00     0.044 C 
HETATM    5  C   UNL     1      63.631   9.461   5.395  1.00  0.00     0.152 C 
HETATM    6  C   UNL     1      63.208   9.116   3.971  1.00  0.00     0.039 C 
HETATM    7  C   UNL     1      66.879   7.867   5.498  1.00  0.00     0.037 A 
HETATM    8  C   UNL     1      65.505   6.108   3.826  1.00  0.00     0.010 A 
HETATM    9  C   UNL     1      67.483   6.675   5.092  1.00  0.00     0.003 A 
HETATM   10  C   UNL     1      66.793   5.793   4.264  1.00  0.00     0.001 A 
ENDROOT
BRANCH   5  11
HETATM   11  C   UNL     1      63.226  10.888   5.786  1.00  0.00     0.196 C 
BRANCH  11  12
HETATM   12  O   UNL     1      64.288  11.577   6.441  1.00  0.00    -0.398 OA
HETATM   13  H   UNL     1      63.986  12.461   6.704  1.00  0.00     0.209 HD
ENDBRANCH  11  12
ENDBRANCH   5  11
TORSDOF 2
ENDMDL
MODEL 2
REMARK VINA RESULT:      -5.3      1.315      4.059
REMARK  2 active torsions:
REMARK  status: ('A' for Active; 'I' for Inactive)
REMARK    1  A    between atoms: C_5  and  C_10 
REMARK    2  A    between atoms: O_7  and  C_10 
ROOT
HETATM    1  O   UNL     1      64.892   9.100   5.878  1.00  0.00    -0.343 OA
HETATM    2  C   UNL     1      63.876   9.446   5.023  1.00  0.00     0.075 A 
HETATM    3  C   UNL     1      63.459   8.641   3.956  1.00  0.00    -0.025 A 
HETATM    4  C   UNL     1      64.113   7.316   3.687  1.00  0.00     0.044 C 
HETATM    5  C   UNL     1      65.755   8.060   5.377  1.00  0.00     0.152 C 
HETATM    6  C   UNL     1      64.932   6.871   4.891  1.00  0.00     0.039 C 
HETATM    7  C   UNL     1      63.235  10.657   5.285  1.00  0.00     0.037 A 
HETATM    8  C   UNL     1      62.430   9.095   3.119  1.00  0.00     0.010 A 
HETATM    9  C   UNL     1      62.199  11.093   4.457  1.00  0.00     0.003 A 
HETATM   10  C   UNL     1      61.803  10.317   3.370  1.00  0.00     0.001 A 
ENDROOT
BRANCH   5  11
HETATM   11  C   UNL     1      66.722   7.671   6.501  1.00  0.00     0.196 C 
BRANCH  11  12
HETATM   12  O   UNL     1      67.025   8.780   7.344  1.00  0.00    -0.398 OA
HETATM   13  H   UNL     1      67.987   8.897   7.391  1.00  0.00     0.209 HD
ENDBRANCH  11  12
ENDBRANCH   5  11
TORSDOF 2
ENDMDL
MODEL 3
REMARK VINA RESULT:      -5.1      2.794      3.663
REMARK  2 active torsions:
REMARK  status: ('A' for Active; 'I' for Inactive)
REMARK    1  A    between atoms: C_5  and  C_10 
REMARK    2  A    between atoms: O_7  and  C_10 
ROOT
HETATM    1  O   UNL     1      64.814   7.062   7.455  1.00  0.00    -0.343 OA
HETATM    2  C   UNL     1      66.065   6.550   7.694  1.00  0.00     0.075 A 
HETATM    3  C   UNL     1      66.907   6.071   6.683  1.00  0.00    -0.025 A 
HETATM    4  C   UNL     1      66.480   6.099   5.244  1.00  0.00     0.044 C 
HETATM    5  C   UNL     1      64.271   6.711   6.166  1.00  0.00     0.152 C 
HETATM    6  C   UNL     1      65.278   7.016   5.061  1.00  0.00     0.039 C 
HETATM    7  C   UNL     1      66.489   6.553   9.022  1.00  0.00     0.037 A 
HETATM    8  C   UNL     1      68.157   5.540   7.030  1.00  0.00     0.010 A 
HETATM    9  C   UNL     1      67.742   6.039   9.358  1.00  0.00     0.003 A 
HETATM   10  C   UNL     1      68.572   5.525   8.364  1.00  0.00     0.001 A 
ENDROOT
BRANCH   5  11
HETATM   11  C   UNL     1      62.962   7.488   5.983  1.00  0.00     0.196 C 
BRANCH  11  12
HETATM   12  O   UNL     1      62.494   8.032   7.214  1.00  0.00    -0.398 OA
HETATM   13  H   UNL     1      63.003   8.829   7.430  1.00  0.00     0.209 HD
ENDBRANCH  11  12
ENDBRANCH   5  11
TORSDOF 2
ENDMDL
MODEL 4
REMARK VINA RESULT:      -5.0      2.765      4.652
REMARK  2 active torsions:
REMARK  status: ('A' for Active; 'I' for Inactive)
REMARK    1  A    between atoms: C_5  and  C_10 
REMARK    2  A    between atoms: O_7  and  C_10 
ROOT
HETATM    1  O   UNL     1      62.651   8.811   5.205  1.00  0.00    -0.343 OA
HETATM    2  C   UNL     1      62.398   9.516   4.055  1.00  0.00     0.075 A 
HETATM    3  C   UNL     1      62.404   8.937   2.780  1.00  0.00    -0.025 A 
HETATM    4  C   UNL     1      62.687   7.474   2.597  1.00  0.00     0.044 C 
HETATM    5  C   UNL     1      63.307   7.546   4.988  1.00  0.00     0.152 C 
HETATM    6  C   UNL     1      62.569   6.738   3.925  1.00  0.00     0.039 C 
HETATM    7  C   UNL     1      62.097  10.868   4.214  1.00  0.00     0.037 A 
HETATM    8  C   UNL     1      62.162   9.747   1.661  1.00  0.00     0.010 A 
HETATM    9  C   UNL     1      61.840  11.664   3.096  1.00  0.00     0.003 A 
HETATM   10  C   UNL     1      61.881  11.106   1.821  1.00  0.00     0.001 A 
ENDROOT
BRANCH   5  11
HETATM   11  C   UNL     1      63.364   6.812   6.333  1.00  0.00     0.196 C 
BRANCH  11  12
HETATM   12  O   UNL     1      64.429   7.290   7.151  1.00  0.00    -0.398 OA
HETATM   13  H   UNL     1      64.203   7.160   8.085  1.00  0.00     0.209 HD
ENDBRANCH  11  12
ENDBRANCH   5  11
TORSDOF 2
ENDMDL
MODEL 5
REMARK VINA RESULT:      -4.9     16.666     18.558
REMARK  2 active torsions:
REMARK  status: ('A' for Active; 'I' for Inactive)
REMARK    1  A    between atoms: C_5  and  C_10 
REMARK    2  A    between atoms: O_7  and  C_10 
ROOT
HETATM    1  O   UNL     1      76.902   1.831  18.702  1.00  0.00    -0.343 OA
HETATM    2  C   UNL     1      76.396   2.909  18.019  1.00  0.00     0.075 A 
HETATM    3  C   UNL     1      75.279   2.833  17.178  1.00  0.00    -0.025 A 
HETATM    4  C   UNL     1      74.551   1.535  16.977  1.00  0.00     0.044 C 
HETATM    5  C   UNL     1      76.465   0.555  18.194  1.00  0.00     0.152 C 
HETATM    6  C   UNL     1      74.946   0.529  18.050  1.00  0.00     0.039 C 
HETATM    7  C   UNL     1      77.041   4.128  18.227  1.00  0.00     0.037 A 
HETATM    8  C   UNL     1      74.855   3.984  16.500  1.00  0.00     0.010 A 
HETATM    9  C   UNL     1      76.601   5.274  17.562  1.00  0.00     0.003 A 
HETATM   10  C   UNL     1      75.515   5.200  16.693  1.00  0.00     0.001 A 
ENDROOT
BRANCH   5  11
HETATM   11  C   UNL     1      76.971  -0.529  19.154  1.00  0.00     0.196 C 
BRANCH  11  12
HETATM   12  O   UNL     1      77.485   0.031  20.359  1.00  0.00    -0.398 OA
HETATM   13  H   UNL     1      78.448   0.121  20.289  1.00  0.00     0.209 HD
ENDBRANCH  11  12
ENDBRANCH   5  11
TORSDOF 2
ENDMDL
MODEL 6
REMARK VINA RESULT:      -4.9      5.321      7.474
REMARK  2 active torsions:
REMARK  status: ('A' for Active; 'I' for Inactive)
REMARK    1  A    between atoms: C_5  and  C_10 
REMARK    2  A    between atoms: O_7  and  C_10 
ROOT
HETATM    1  O   UNL     1      68.439   2.718   7.995  1.00  0.00    -0.343 OA
HETATM    2  C   UNL     1      68.126   3.790   7.198  1.00  0.00     0.075 A 
HETATM    3  C   UNL     1      68.194   5.120   7.633  1.00  0.00    -0.025 A 
HETATM    4  C   UNL     1      68.631   5.453   9.030  1.00  0.00     0.044 C 
HETATM    5  C   UNL     1      68.453   3.017   9.405  1.00  0.00     0.152 C 
HETATM    6  C   UNL     1      69.306   4.252   9.680  1.00  0.00     0.039 C 
HETATM    7  C   UNL     1      67.756   3.496   5.886  1.00  0.00     0.037 A 
HETATM    8  C   UNL     1      67.826   6.146   6.752  1.00  0.00     0.010 A 
HETATM    9  C   UNL     1      67.408   4.526   5.010  1.00  0.00     0.003 A 
HETATM   10  C   UNL     1      67.435   5.849   5.445  1.00  0.00     0.001 A 
ENDROOT
BRANCH   5  11
HETATM   11  C   UNL     1      68.980   1.779  10.141  1.00  0.00     0.196 C 
BRANCH  11  12
HETATM   12  O   UNL     1      69.725   2.132  11.303  1.00  0.00    -0.398 OA
HETATM   13  H   UNL     1      70.452   1.502  11.426  1.00  0.00     0.209 HD
ENDBRANCH  11  12
ENDBRANCH   5  11
TORSDOF 2
ENDMDL
MODEL 7
REMARK VINA RESULT:      -4.7      3.346      4.799
REMARK  2 active torsions:
REMARK  status: ('A' for Active; 'I' for Inactive)
REMARK    1  A    between atoms: C_5  and  C_10 
REMARK    2  A    between atoms: O_7  and  C_10 
ROOT
HETATM    1  O   UNL     1      67.398   6.681   7.261  1.00  0.00    -0.343 OA
HETATM    2  C   UNL     1      67.996   5.515   7.671  1.00  0.00     0.075 A 
HETATM    3  C   UNL     1      68.097   4.375   6.864  1.00  0.00    -0.025 A 
HETATM    4  C   UNL     1      67.549   4.368   5.466  1.00  0.00     0.044 C 
HETATM    5  C   UNL     1      66.540   6.529   6.113  1.00  0.00     0.152 C 
HETATM    6  C   UNL     1      67.268   5.789   4.995  1.00  0.00     0.039 C 
HETATM    7  C   UNL     1      68.543   5.521   8.954  1.00  0.00     0.037 A 
HETATM    8  C   UNL     1      68.700   3.222   7.384  1.00  0.00     0.010 A 
HETATM    9  C   UNL     1      69.158   4.374   9.457  1.00  0.00     0.003 A 
HETATM   10  C   UNL     1      69.229   3.223   8.676  1.00  0.00     0.001 A 
ENDROOT
BRANCH   5  11
HETATM   11  C   UNL     1      66.088   7.928   5.678  1.00  0.00     0.196 C 
BRANCH  11  12
HETATM   12  O   UNL     1      66.407   8.914   6.657  1.00  0.00    -0.398 OA
HETATM   13  H   UNL     1      66.391   8.511   7.539  1.00  0.00     0.209 HD
ENDBRANCH  11  12
ENDBRANCH   5  11
TORSDOF 2
ENDMDL
MODEL 8
REMARK VINA RESULT:      -4.6      3.964      5.496
REMARK  2 active torsions:
REMARK  status: ('A' for Active; 'I' for Inactive)
REMARK    1  A    between atoms: C_5  and  C_10 
REMARK    2  A    between atoms: O_7  and  C_10 
ROOT
HETATM    1  O   UNL     1      67.155   5.377   6.602  1.00  0.00    -0.343 OA
HETATM    2  C   UNL     1      67.874   4.564   7.442  1.00  0.00     0.075 A 
HETATM    3  C   UNL     1      68.194   4.908   8.761  1.00  0.00    -0.025 A 
HETATM    4  C   UNL     1      67.751   6.219   9.345  1.00  0.00     0.044 C 
HETATM    5  C   UNL     1      67.097   6.754   7.024  1.00  0.00     0.152 C 
HETATM    6  C   UNL     1      66.664   6.848   8.484  1.00  0.00     0.039 C 
HETATM    7  C   UNL     1      68.258   3.327   6.923  1.00  0.00     0.037 A 
HETATM    8  C   UNL     1      68.959   4.022   9.532  1.00  0.00     0.010 A 
HETATM    9  C   UNL     1      69.004   2.443   7.704  1.00  0.00     0.003 A 
HETATM   10  C   UNL     1      69.361   2.793   9.004  1.00  0.00     0.001 A 
ENDROOT
BRANCH   5  11
HETATM   11  C   UNL     1      66.130   7.490   6.088  1.00  0.00     0.196 C 
BRANCH  11  12
HETATM   12  O   UNL     1      66.070   8.883   6.380  1.00  0.00    -0.398 OA
HETATM   13  H   UNL     1      66.921   9.175   6.744  1.00  0.00     0.209 HD
ENDBRANCH  11  12
ENDBRANCH   5  11
TORSDOF 2
ENDMDL
MODEL 9
REMARK VINA RESULT:      -4.5      2.485      3.487
REMARK  2 active torsions:
REMARK  status: ('A' for Active; 'I' for Inactive)
REMARK    1  A    between atoms: C_5  and  C_10 
REMARK    2  A    between atoms: O_7  and  C_10 
ROOT
HETATM    1  O   UNL     1      63.270   9.016   3.987  1.00  0.00    -0.343 OA
HETATM    2  C   UNL     1      63.092   8.168   2.923  1.00  0.00     0.075 A 
HETATM    3  C   UNL     1      62.263   8.462   1.833  1.00  0.00    -0.025 A 
HETATM    4  C   UNL     1      61.508   9.759   1.765  1.00  0.00     0.044 C 
HETATM    5  C   UNL     1      62.256  10.034   4.105  1.00  0.00     0.152 C 
HETATM    6  C   UNL     1      62.067  10.755   2.774  1.00  0.00     0.039 C 
HETATM    7  C   UNL     1      63.817   6.977   2.955  1.00  0.00     0.037 A 
HETATM    8  C   UNL     1      62.124   7.518   0.807  1.00  0.00     0.010 A 
HETATM    9  C   UNL     1      63.687   6.050   1.920  1.00  0.00     0.003 A 
HETATM   10  C   UNL     1      62.834   6.317   0.851  1.00  0.00     0.001 A 
ENDROOT
BRANCH   5  11
HETATM   11  C   UNL     1      62.682  10.992   5.223  1.00  0.00     0.196 C 
BRANCH  11  12
HETATM   12  O   UNL     1      63.949  10.637   5.769  1.00  0.00    -0.398 OA
HETATM   13  H   UNL     1      64.292   9.854   5.309  1.00  0.00     0.209 HD
ENDBRANCH  11  12
ENDBRANCH   5  11
TORSDOF 2
ENDMDL
