MODEL 1
REMARK VINA RESULT:      -6.0      0.000      0.000
REMARK  2 active torsions:
REMARK  status: ('A' for Active; 'I' for Inactive)
REMARK       I    between atoms: C_1  and  N_2 
REMARK       I    between atoms: C_1  and  N_6 
REMARK    1  A    between atoms: C_7  and  C_10 
REMARK    2  A    between atoms: C_7  and  C_11 
ROOT
HETATM    1  C   UNL     1      67.484   6.073   7.205  1.00  0.00     0.667 C 
HETATM    2  N   UNL     1      66.878   6.520   5.978  1.00  0.00    -0.219 N 
HETATM    3  N   UNL     1      67.939   4.875   7.334  1.00  0.00    -0.235 N 
HETATM    4  C   UNL     1      66.158   5.616   5.092  1.00  0.00     0.141 C 
HETATM    5  C   UNL     1      66.847   7.929   5.609  1.00  0.00     0.141 C 
HETATM    6  N   UNL     1      67.555   6.942   8.329  1.00  0.00    -0.235 N 
HETATM    7  C   UNL     1      65.399   8.414   5.608  1.00  0.00     0.025 C 
HETATM    8  C   UNL     1      64.685   6.038   5.096  1.00  0.00     0.025 C 
HETATM    9  C   UNL     1      64.524   7.522   4.696  1.00  0.00    -0.007 C 
HETATM   10  H   UNL     1      67.905   4.250   6.575  1.00  0.00     0.174 HD
HETATM   11  H   UNL     1      68.323   4.585   8.193  1.00  0.00     0.174 HD
HETATM   12  H   UNL     1      67.215   7.864   8.262  1.00  0.00     0.174 HD
HETATM   13  H   UNL     1      67.944   6.621   9.174  1.00  0.00     0.174 HD
ENDROOT
BRANCH   9  14
HETATM   14  C   UNL     1      63.037   7.917   4.813  1.00  0.00     0.043 C 
BRANCH  14  15
HETATM   15  C   UNL     1      62.604   8.937   3.788  1.00  0.00    -0.058 A 
HETATM   16  C   UNL     1      62.325  10.258   4.173  1.00  0.00     0.007 A 
HETATM   17  C   UNL     1      61.937  11.205   3.219  1.00  0.00     0.001 A 
HETATM   18  C   UNL     1      61.827  10.839   1.874  1.00  0.00     0.000 A 
HETATM   19  C   UNL     1      62.101   9.526   1.483  1.00  0.00     0.001 A 
HETATM   20  C   UNL     1      62.490   8.577   2.433  1.00  0.00     0.007 A 
ENDBRANCH  14  15
ENDBRANCH   9  14
TORSDOF 2
ENDMDL
MODEL 2
REMARK VINA RESULT:      -5.9      1.030      2.052
REMARK  2 active torsions:
REMARK  status: ('A' for Active; 'I' for Inactive)
REMARK       I    between atoms: C_1  and  N_2 
REMARK       I    between atoms: C_1  and  N_6 
REMARK    1  A    between atoms: C_7  and  C_10 
REMARK    2  A    between atoms: C_7  and  C_11 
ROOT
HETATM    1  C   UNL     1      67.433   6.206   6.493  1.00  0.00     0.667 C 
HETATM    2  N   UNL     1      66.245   7.012   6.587  1.00  0.00    -0.219 N 
HETATM    3  N   UNL     1      68.602   6.738   6.387  1.00  0.00    -0.235 N 
HETATM    4  C   UNL     1      66.139   8.320   5.955  1.00  0.00     0.141 C 
HETATM    5  C   UNL     1      65.031   6.514   7.222  1.00  0.00     0.141 C 
HETATM    6  N   UNL     1      67.339   4.787   6.472  1.00  0.00    -0.235 N 
HETATM    7  C   UNL     1      63.935   6.379   6.167  1.00  0.00     0.025 C 
HETATM    8  C   UNL     1      65.079   8.219   4.854  1.00  0.00     0.025 C 
HETATM    9  C   UNL     1      63.730   7.716   5.417  1.00  0.00    -0.007 C 
HETATM   10  H   UNL     1      68.700   7.718   6.399  1.00  0.00     0.174 HD
HETATM   11  H   UNL     1      69.397   6.165   6.296  1.00  0.00     0.174 HD
HETATM   12  H   UNL     1      66.460   4.350   6.551  1.00  0.00     0.174 HD
HETATM   13  H   UNL     1      68.153   4.242   6.379  1.00  0.00     0.174 HD
ENDROOT
BRANCH   9  14
HETATM   14  C   UNL     1      62.733   7.540   4.251  1.00  0.00     0.043 C 
BRANCH  14  15
HETATM   15  C   UNL     1      62.431   8.826   3.520  1.00  0.00    -0.058 A 
HETATM   16  C   UNL     1      62.353   8.845   2.119  1.00  0.00     0.007 A 
HETATM   17  C   UNL     1      62.060  10.035   1.444  1.00  0.00     0.001 A 
HETATM   18  C   UNL     1      61.841  11.212   2.165  1.00  0.00     0.000 A 
HETATM   19  C   UNL     1      61.917  11.202   3.560  1.00  0.00     0.001 A 
HETATM   20  C   UNL     1      62.209  10.015   4.237  1.00  0.00     0.007 A 
ENDBRANCH  14  15
ENDBRANCH   9  14
TORSDOF 2
ENDMDL
MODEL 3
REMARK VINA RESULT:      -5.5      2.772      7.359
REMARK  2 active torsions:
REMARK  status: ('A' for Active; 'I' for Inactive)
REMARK       I    between atoms: C_1  and  N_2 
REMARK       I    between atoms: C_1  and  N_6 
REMARK    1  A    between atoms: C_7  and  C_10 
REMARK    2  A    between atoms: C_7  and  C_11 
ROOT
HETATM    1  C   UNL     1      63.399   8.607   4.690  1.00  0.00     0.667 C 
HETATM    2  N   UNL     1      64.087   7.378   4.984  1.00  0.00    -0.219 N 
HETATM    3  N   UNL     1      63.050   8.914   3.489  1.00  0.00    -0.235 N 
HETATM    4  C   UNL     1      64.982   6.739   4.029  1.00  0.00     0.141 C 
HETATM    5  C   UNL     1      64.022   6.761   6.303  1.00  0.00     0.141 C 
HETATM    6  N   UNL     1      63.126   9.543   5.726  1.00  0.00    -0.235 N 
HETATM    7  C   UNL     1      65.408   6.799   6.942  1.00  0.00     0.025 C 
HETATM    8  C   UNL     1      66.398   6.795   4.610  1.00  0.00     0.025 C 
HETATM    9  C   UNL     1      66.457   6.146   6.011  1.00  0.00    -0.007 C 
HETATM   10  H   UNL     1      63.225   8.287   2.750  1.00  0.00     0.174 HD
HETATM   11  H   UNL     1      62.606   9.774   3.309  1.00  0.00     0.174 HD
HETATM   12  H   UNL     1      63.381   9.338   6.655  1.00  0.00     0.174 HD
HETATM   13  H   UNL     1      62.681  10.395   5.514  1.00  0.00     0.174 HD
ENDROOT
BRANCH   9  14
HETATM   14  C   UNL     1      67.879   6.319   6.586  1.00  0.00     0.043 C 
BRANCH  14  15
HETATM   15  C   UNL     1      68.316   5.170   7.462  1.00  0.00    -0.058 A 
HETATM   16  C   UNL     1      68.349   3.861   6.954  1.00  0.00     0.007 A 
HETATM   17  C   UNL     1      68.767   2.800   7.764  1.00  0.00     0.001 A 
HETATM   18  C   UNL     1      69.156   3.039   9.085  1.00  0.00     0.000 A 
HETATM   19  C   UNL     1      69.125   4.337   9.599  1.00  0.00     0.001 A 
HETATM   20  C   UNL     1      68.709   5.400   8.793  1.00  0.00     0.007 A 
ENDBRANCH  14  15
ENDBRANCH   9  14
TORSDOF 2
ENDMDL
MODEL 4
REMARK VINA RESULT:      -5.4      3.026      5.019
REMARK  2 active torsions:
REMARK  status: ('A' for Active; 'I' for Inactive)
REMARK       I    between atoms: C_1  and  N_2 
REMARK       I    between atoms: C_1  and  N_6 
REMARK    1  A    between atoms: C_7  and  C_10 
REMARK    2  A    between atoms: C_7  and  C_11 
ROOT
HETATM    1  C   UNL     1      69.517   2.160   9.527  1.00  0.00     0.667 C 
HETATM    2  N   UNL     1      69.304   3.259   8.622  1.00  0.00    -0.219 N 
HETATM    3  N   UNL     1      69.480   0.938   9.123  1.00  0.00    -0.235 N 
HETATM    4  C   UNL     1      68.443   3.148   7.453  1.00  0.00     0.141 C 
HETATM    5  C   UNL     1      69.844   4.585   8.889  1.00  0.00     0.141 C 
HETATM    6  N   UNL     1      69.732   2.402  10.912  1.00  0.00    -0.235 N 
HETATM    7  C   UNL     1      68.690   5.556   9.128  1.00  0.00     0.025 C 
HETATM    8  C   UNL     1      67.243   4.074   7.671  1.00  0.00     0.025 C 
HETATM    9  C   UNL     1      67.695   5.526   7.944  1.00  0.00    -0.007 C 
HETATM   10  H   UNL     1      69.333   0.737   8.171  1.00  0.00     0.174 HD
HETATM   11  H   UNL     1      69.600   0.203   9.767  1.00  0.00     0.174 HD
HETATM   12  H   UNL     1      69.766   3.326  11.252  1.00  0.00     0.174 HD
HETATM   13  H   UNL     1      69.849   1.646  11.531  1.00  0.00     0.174 HD
ENDROOT
BRANCH   9  14
HETATM   14  C   UNL     1      66.454   6.390   8.253  1.00  0.00     0.043 C 
BRANCH  14  15
HETATM   15  C   UNL     1      65.762   6.911   7.016  1.00  0.00    -0.058 A 
HETATM   16  C   UNL     1      66.444   7.749   6.120  1.00  0.00     0.007 A 
HETATM   17  C   UNL     1      65.805   8.219   4.967  1.00  0.00     0.001 A 
HETATM   18  C   UNL     1      64.482   7.854   4.702  1.00  0.00     0.000 A 
HETATM   19  C   UNL     1      63.796   7.021   5.590  1.00  0.00     0.001 A 
HETATM   20  C   UNL     1      64.431   6.549   6.742  1.00  0.00     0.007 A 
ENDBRANCH  14  15
ENDBRANCH   9  14
TORSDOF 2
ENDMDL
MODEL 5
REMARK VINA RESULT:      -5.2      1.759      3.210
REMARK  2 active torsions:
REMARK  status: ('A' for Active; 'I' for Inactive)
REMARK       I    between atoms: C_1  and  N_2 
REMARK       I    between atoms: C_1  and  N_6 
REMARK    1  A    between atoms: C_7  and  C_10 
REMARK    2  A    between atoms: C_7  and  C_11 
ROOT
HETATM    1  C   UNL     1      68.437   4.127   8.953  1.00  0.00     0.667 C 
HETATM    2  N   UNL     1      67.252   4.851   8.577  1.00  0.00    -0.219 N 
HETATM    3  N   UNL     1      68.993   4.295  10.103  1.00  0.00    -0.235 N 
HETATM    4  C   UNL     1      66.967   6.190   9.076  1.00  0.00     0.141 C 
HETATM    5  C   UNL     1      66.325   4.335   7.578  1.00  0.00     0.141 C 
HETATM    6  N   UNL     1      69.053   3.231   8.036  1.00  0.00    -0.235 N 
HETATM    7  C   UNL     1      66.348   5.249   6.355  1.00  0.00     0.025 C 
HETATM    8  C   UNL     1      67.025   7.151   7.885  1.00  0.00     0.025 C 
HETATM    9  C   UNL     1      66.059   6.714   6.761  1.00  0.00    -0.007 C 
HETATM   10  H   UNL     1      68.591   4.908  10.760  1.00  0.00     0.174 HD
HETATM   11  H   UNL     1      69.819   3.809  10.326  1.00  0.00     0.174 HD
HETATM   12  H   UNL     1      68.653   3.081   7.149  1.00  0.00     0.174 HD
HETATM   13  H   UNL     1      69.879   2.760   8.289  1.00  0.00     0.174 HD
ENDROOT
BRANCH   9  14
HETATM   14  C   UNL     1      66.232   7.658   5.552  1.00  0.00     0.043 C 
BRANCH  14  15
HETATM   15  C   UNL     1      64.937   7.967   4.841  1.00  0.00    -0.058 A 
HETATM   16  C   UNL     1      64.151   9.060   5.239  1.00  0.00     0.007 A 
HETATM   17  C   UNL     1      62.958   9.352   4.570  1.00  0.00     0.001 A 
HETATM   18  C   UNL     1      62.543   8.556   3.499  1.00  0.00     0.000 A 
HETATM   19  C   UNL     1      63.318   7.465   3.097  1.00  0.00     0.001 A 
HETATM   20  C   UNL     1      64.511   7.171   3.763  1.00  0.00     0.007 A 
ENDBRANCH  14  15
ENDBRANCH   9  14
TORSDOF 2
ENDMDL
MODEL 6
REMARK VINA RESULT:      -5.2      1.322      1.806
REMARK  2 active torsions:
REMARK  status: ('A' for Active; 'I' for Inactive)
REMARK       I    between atoms: C_1  and  N_2 
REMARK       I    between atoms: C_1  and  N_6 
REMARK    1  A    between atoms: C_7  and  C_10 
REMARK    2  A    between atoms: C_7  and  C_11 
ROOT
HETATM    1  C   UNL     1      67.640   6.776   6.278  1.00  0.00     0.667 C 
HETATM    2  N   UNL     1      66.360   6.345   5.780  1.00  0.00    -0.219 N 
HETATM    3  N   UNL     1      68.118   6.328   7.386  1.00  0.00    -0.235 N 
HETATM    4  C   UNL     1      65.273   5.952   6.667  1.00  0.00     0.141 C 
HETATM    5  C   UNL     1      66.035   6.391   4.361  1.00  0.00     0.141 C 
HETATM    6  N   UNL     1      68.394   7.752   5.568  1.00  0.00    -0.235 N 
HETATM    7  C   UNL     1      64.923   7.413   4.135  1.00  0.00     0.025 C 
HETATM    8  C   UNL     1      64.149   6.980   6.507  1.00  0.00     0.025 C 
HETATM    9  C   UNL     1      63.703   7.100   5.033  1.00  0.00    -0.007 C 
HETATM   10  H   UNL     1      67.620   5.653   7.901  1.00  0.00     0.174 HD
HETATM   11  H   UNL     1      68.982   6.661   7.719  1.00  0.00     0.174 HD
HETATM   12  H   UNL     1      68.055   8.114   4.717  1.00  0.00     0.174 HD
HETATM   13  H   UNL     1      69.255   8.064   5.928  1.00  0.00     0.174 HD
ENDROOT
BRANCH   9  14
HETATM   14  C   UNL     1      62.642   8.216   4.917  1.00  0.00     0.043 C 
BRANCH  14  15
HETATM   15  C   UNL     1      62.079   8.367   3.525  1.00  0.00    -0.058 A 
HETATM   16  C   UNL     1      62.264   9.560   2.809  1.00  0.00     0.007 A 
HETATM   17  C   UNL     1      61.753   9.693   1.513  1.00  0.00     0.001 A 
HETATM   18  C   UNL     1      61.055   8.635   0.925  1.00  0.00     0.000 A 
HETATM   19  C   UNL     1      60.865   7.444   1.631  1.00  0.00     0.001 A 
HETATM   20  C   UNL     1      61.375   7.307   2.925  1.00  0.00     0.007 A 
ENDBRANCH  14  15
ENDBRANCH   9  14
TORSDOF 2
ENDMDL
MODEL 7
REMARK VINA RESULT:      -5.1      2.845      7.043
REMARK  2 active torsions:
REMARK  status: ('A' for Active; 'I' for Inactive)
REMARK       I    between atoms: C_1  and  N_2 
REMARK       I    between atoms: C_1  and  N_6 
REMARK    1  A    between atoms: C_7  and  C_10 
REMARK    2  A    between atoms: C_7  and  C_11 
ROOT
HETATM    1  C   UNL     1      62.437   7.905   4.095  1.00  0.00     0.667 C 
HETATM    2  N   UNL     1      63.388   7.808   5.171  1.00  0.00    -0.219 N 
HETATM    3  N   UNL     1      61.223   7.494   4.230  1.00  0.00    -0.235 N 
HETATM    4  C   UNL     1      63.331   6.747   6.166  1.00  0.00     0.141 C 
HETATM    5  C   UNL     1      64.539   8.698   5.257  1.00  0.00     0.141 C 
HETATM    6  N   UNL     1      62.832   8.424   2.831  1.00  0.00    -0.235 N 
HETATM    7  C   UNL     1      65.816   7.883   5.071  1.00  0.00     0.025 C 
HETATM    8  C   UNL     1      64.575   5.873   5.986  1.00  0.00     0.025 C 
HETATM    9  C   UNL     1      65.870   6.711   6.080  1.00  0.00    -0.007 C 
HETATM   10  H   UNL     1      60.919   7.130   5.092  1.00  0.00     0.174 HD
HETATM   11  H   UNL     1      60.600   7.546   3.470  1.00  0.00     0.174 HD
HETATM   12  H   UNL     1      63.753   8.746   2.697  1.00  0.00     0.174 HD
HETATM   13  H   UNL     1      62.184   8.462   2.091  1.00  0.00     0.174 HD
ENDROOT
BRANCH   9  14
HETATM   14  C   UNL     1      67.083   5.800   5.793  1.00  0.00     0.043 C 
BRANCH  14  15
HETATM   15  C   UNL     1      67.761   5.293   7.042  1.00  0.00    -0.058 A 
HETATM   16  C   UNL     1      67.744   6.056   8.221  1.00  0.00     0.007 A 
HETATM   17  C   UNL     1      68.362   5.578   9.381  1.00  0.00     0.001 A 
HETATM   18  C   UNL     1      68.999   4.334   9.372  1.00  0.00     0.000 A 
HETATM   19  C   UNL     1      69.022   3.568   8.204  1.00  0.00     0.001 A 
HETATM   20  C   UNL     1      68.405   4.042   7.043  1.00  0.00     0.007 A 
ENDBRANCH  14  15
ENDBRANCH   9  14
TORSDOF 2
ENDMDL
MODEL 8
REMARK VINA RESULT:      -5.0      1.370      1.585
REMARK  2 active torsions:
REMARK  status: ('A' for Active; 'I' for Inactive)
REMARK       I    between atoms: C_1  and  N_2 
REMARK       I    between atoms: C_1  and  N_6 
REMARK    1  A    between atoms: C_7  and  C_10 
REMARK    2  A    between atoms: C_7  and  C_11 
ROOT
HETATM    1  C   UNL     1      66.049   4.019   6.118  1.00  0.00     0.667 C 
HETATM    2  N   UNL     1      65.893   5.257   5.401  1.00  0.00    -0.219 N 
HETATM    3  N   UNL     1      66.202   2.898   5.501  1.00  0.00    -0.235 N 
HETATM    4  C   UNL     1      65.265   5.323   4.088  1.00  0.00     0.141 C 
HETATM    5  C   UNL     1      66.246   6.538   6.000  1.00  0.00     0.141 C 
HETATM    6  N   UNL     1      65.993   3.999   7.539  1.00  0.00    -0.235 N 
HETATM    7  C   UNL     1      64.979   7.369   6.186  1.00  0.00     0.025 C 
HETATM    8  C   UNL     1      63.961   6.112   4.236  1.00  0.00     0.025 C 
HETATM    9  C   UNL     1      64.215   7.509   4.848  1.00  0.00    -0.007 C 
HETATM   10  H   UNL     1      66.245   2.878   4.518  1.00  0.00     0.174 HD
HETATM   11  H   UNL     1      66.278   2.062   6.014  1.00  0.00     0.174 HD
HETATM   12  H   UNL     1      65.877   4.840   8.039  1.00  0.00     0.174 HD
HETATM   13  H   UNL     1      66.072   3.146   8.022  1.00  0.00     0.174 HD
ENDROOT
BRANCH   9  14
HETATM   14  C   UNL     1      62.861   8.218   5.064  1.00  0.00     0.043 C 
BRANCH  14  15
HETATM   15  C   UNL     1      62.500   9.174   3.954  1.00  0.00    -0.058 A 
HETATM   16  C   UNL     1      62.212  10.518   4.238  1.00  0.00     0.007 A 
HETATM   17  C   UNL     1      61.890  11.406   3.206  1.00  0.00     0.001 A 
HETATM   18  C   UNL     1      61.856  10.956   1.883  1.00  0.00     0.000 A 
HETATM   19  C   UNL     1      62.141   9.620   1.590  1.00  0.00     0.001 A 
HETATM   20  C   UNL     1      62.463   8.731   2.619  1.00  0.00     0.007 A 
ENDBRANCH  14  15
ENDBRANCH   9  14
TORSDOF 2
ENDMDL
MODEL 9
REMARK VINA RESULT:      -4.9      4.870      6.751
REMARK  2 active torsions:
REMARK  status: ('A' for Active; 'I' for Inactive)
REMARK       I    between atoms: C_1  and  N_2 
REMARK       I    between atoms: C_1  and  N_6 
REMARK    1  A    between atoms: C_7  and  C_10 
REMARK    2  A    between atoms: C_7  and  C_11 
ROOT
HETATM    1  C   UNL     1      58.547   5.427   2.688  1.00  0.00     0.667 C 
HETATM    2  N   UNL     1      59.097   5.953   1.466  1.00  0.00    -0.219 N 
HETATM    3  N   UNL     1      57.333   5.674   3.042  1.00  0.00    -0.235 N 
HETATM    4  C   UNL     1      58.662   7.223   0.901  1.00  0.00     0.141 C 
HETATM    5  C   UNL     1      60.207   5.301   0.784  1.00  0.00     0.141 C 
HETATM    6  N   UNL     1      59.355   4.651   3.563  1.00  0.00    -0.235 N 
HETATM    7  C   UNL     1      61.429   6.217   0.831  1.00  0.00     0.025 C 
HETATM    8  C   UNL     1      59.847   8.191   0.970  1.00  0.00     0.025 C 
HETATM    9  C   UNL     1      61.089   7.612   0.255  1.00  0.00    -0.007 C 
HETATM   10  H   UNL     1      56.748   6.208   2.457  1.00  0.00     0.174 HD
HETATM   11  H   UNL     1      56.990   5.326   3.896  1.00  0.00     0.174 HD
HETATM   12  H   UNL     1      60.288   4.445   3.321  1.00  0.00     0.174 HD
HETATM   13  H   UNL     1      58.982   4.318   4.411  1.00  0.00     0.174 HD
ENDROOT
BRANCH   9  14
HETATM   14  C   UNL     1      62.276   8.582   0.441  1.00  0.00     0.043 C 
BRANCH  14  15
HETATM   15  C   UNL     1      62.245   9.322   1.756  1.00  0.00    -0.058 A 
HETATM   16  C   UNL     1      62.619   8.675   2.945  1.00  0.00     0.007 A 
HETATM   17  C   UNL     1      62.603   9.367   4.160  1.00  0.00     0.001 A 
HETATM   18  C   UNL     1      62.214  10.709   4.196  1.00  0.00     0.000 A 
HETATM   19  C   UNL     1      61.839  11.360   3.018  1.00  0.00     0.001 A 
HETATM   20  C   UNL     1      61.855  10.672   1.802  1.00  0.00     0.007 A 
ENDBRANCH  14  15
ENDBRANCH   9  14
TORSDOF 2
ENDMDL
