MODEL 1
REMARK VINA RESULT:      -5.7      0.000      0.000
REMARK  2 active torsions:
REMARK  status: ('A' for Active; 'I' for Inactive)
REMARK    1  A    between atoms: C_1  and  C_7 
REMARK    2  A    between atoms: C_4  and  C_8 
ROOT
HETATM    1  C   UNK     1      65.244   6.739   6.966  1.00  0.00     0.117 A 
HETATM    2  N   UNK     1      64.903   7.916   6.296  1.00  0.00    -0.344 N 
ATOM      3  HN  UNK     1      65.389   8.806   6.406  1.00  0.00     0.167 HD
HETATM    4  C   UNK     1      63.869   7.722   5.500  1.00  0.00     0.085 A 
HETATM    5  S   UNK     1      63.223   6.123   5.546  1.00  0.00    -0.081 SA
HETATM    6  C   UNK     1      64.423   5.666   6.672  1.00  0.00     0.088 A 
ENDROOT
BRANCH   4   7
HETATM    7  C   UNK     1      63.244   8.771   4.671  1.00  0.00    -0.002 A 
HETATM    8  C   UNK     1      62.916  10.039   5.176  1.00  0.00     0.015 A 
HETATM    9  C   UNK     1      62.352  11.017   4.350  1.00  0.00     0.007 A 
HETATM   10  C   UNK     1      62.097  10.750   3.002  1.00  0.00    -0.062 A 
HETATM   11  C   UNK     1      62.397   9.483   2.495  1.00  0.00     0.007 A 
HETATM   12  C   UNK     1      61.517  11.821   2.126  1.00  0.00     0.048 C 
HETATM   13  C   UNK     1      62.959   8.504   3.324  1.00  0.00     0.015 A 
ENDBRANCH   4   7
BRANCH   1  14
HETATM   14  C   UNK     1      66.363   6.649   7.897  1.00  0.00     0.227 C 
HETATM   15  O   UNK     1      66.270   6.675   9.118  1.00  0.00    -0.643 OA
HETATM   16  O   UNK     1      67.580   6.530   7.320  1.00  0.00    -0.643 OA
ENDBRANCH   1  14
TORSDOF 2
ENDMDL
MODEL 2
REMARK VINA RESULT:      -5.6      2.992      6.851
REMARK  2 active torsions:
REMARK  status: ('A' for Active; 'I' for Inactive)
REMARK    1  A    between atoms: C_1  and  C_7 
REMARK    2  A    between atoms: C_4  and  C_8 
ROOT
HETATM    1  C   UNK     1      64.517   8.533   5.264  1.00  0.00     0.117 A 
HETATM    2  N   UNK     1      65.287   8.069   6.333  1.00  0.00    -0.344 N 
ATOM      3  HN  UNK     1      65.364   8.538   7.236  1.00  0.00     0.167 HD
HETATM    4  C   UNK     1      65.899   6.943   6.020  1.00  0.00     0.085 A 
HETATM    5  S   UNK     1      65.615   6.403   4.406  1.00  0.00    -0.081 SA
HETATM    6  C   UNK     1      64.588   7.740   4.133  1.00  0.00     0.088 A 
ENDROOT
BRANCH   4   7
HETATM    7  C   UNK     1      66.808   6.207   6.919  1.00  0.00    -0.002 A 
HETATM    8  C   UNK     1      67.509   5.061   6.514  1.00  0.00     0.015 A 
HETATM    9  C   UNK     1      68.386   4.408   7.387  1.00  0.00     0.007 A 
HETATM   10  C   UNK     1      68.579   4.882   8.688  1.00  0.00    -0.062 A 
HETATM   11  C   UNK     1      67.867   6.009   9.110  1.00  0.00     0.007 A 
HETATM   12  C   UNK     1      69.544   4.185   9.601  1.00  0.00     0.048 C 
HETATM   13  C   UNK     1      66.988   6.659   8.235  1.00  0.00     0.015 A 
ENDBRANCH   4   7
BRANCH   1  14
HETATM   14  C   UNK     1      63.713   9.749   5.331  1.00  0.00     0.227 C 
HETATM   15  O   UNK     1      62.616   9.899   4.809  1.00  0.00    -0.643 OA
HETATM   16  O   UNK     1      64.265  10.761   6.037  1.00  0.00    -0.643 OA
ENDBRANCH   1  14
TORSDOF 2
ENDMDL
MODEL 3
REMARK VINA RESULT:      -5.6      3.000      6.748
REMARK  2 active torsions:
REMARK  status: ('A' for Active; 'I' for Inactive)
REMARK    1  A    between atoms: C_1  and  C_7 
REMARK    2  A    between atoms: C_4  and  C_8 
ROOT
HETATM    1  C   UNK     1      64.501   8.480   5.212  1.00  0.00     0.117 A 
HETATM    2  N   UNK     1      65.333   8.111   6.272  1.00  0.00    -0.344 N 
ATOM      3  HN  UNK     1      65.508   8.687   7.096  1.00  0.00     0.167 HD
HETATM    4  C   UNK     1      65.860   6.920   6.065  1.00  0.00     0.085 A 
HETATM    5  S   UNK     1      65.417   6.195   4.563  1.00  0.00    -0.081 SA
HETATM    6  C   UNK     1      64.439   7.546   4.194  1.00  0.00     0.088 A 
ENDROOT
BRANCH   4   7
HETATM    7  C   UNK     1      66.804   6.253   6.982  1.00  0.00    -0.002 A 
HETATM    8  C   UNK     1      66.976   6.655   8.315  1.00  0.00     0.015 A 
HETATM    9  C   UNK     1      67.859   5.978   9.163  1.00  0.00     0.007 A 
HETATM   10  C   UNK     1      68.596   4.885   8.696  1.00  0.00    -0.062 A 
HETATM   11  C   UNK     1      68.450   4.490   7.363  1.00  0.00     0.007 A 
HETATM   12  C   UNK     1      69.517   4.154   9.628  1.00  0.00     0.048 C 
HETATM   13  C   UNK     1      67.568   5.172   6.516  1.00  0.00     0.015 A 
ENDBRANCH   4   7
BRANCH   1  14
HETATM   14  C   UNK     1      63.766   9.740   5.178  1.00  0.00     0.227 C 
HETATM   15  O   UNK     1      64.008  10.717   5.876  1.00  0.00    -0.643 OA
HETATM   16  O   UNK     1      62.746   9.784   4.292  1.00  0.00    -0.643 OA
ENDBRANCH   1  14
TORSDOF 2
ENDMDL
MODEL 4
REMARK VINA RESULT:      -5.4      4.338      6.197
REMARK  2 active torsions:
REMARK  status: ('A' for Active; 'I' for Inactive)
REMARK    1  A    between atoms: C_1  and  C_7 
REMARK    2  A    between atoms: C_4  and  C_8 
ROOT
HETATM    1  C   UNK     1      68.342   2.620   9.740  1.00  0.00     0.117 A 
HETATM    2  N   UNK     1      67.393   3.328   8.999  1.00  0.00    -0.344 N 
ATOM      3  HN  UNK     1      66.423   3.038   8.874  1.00  0.00     0.167 HD
HETATM    4  C   UNK     1      67.918   4.424   8.485  1.00  0.00     0.085 A 
HETATM    5  S   UNK     1      69.596   4.640   8.829  1.00  0.00    -0.081 SA
HETATM    6  C   UNK     1      69.598   3.198   9.745  1.00  0.00     0.088 A 
ENDROOT
BRANCH   4   7
HETATM    7  C   UNK     1      67.189   5.378   7.629  1.00  0.00    -0.002 A 
HETATM    8  C   UNK     1      65.856   5.747   7.871  1.00  0.00     0.015 A 
HETATM    9  C   UNK     1      65.208   6.679   7.054  1.00  0.00     0.007 A 
HETATM   10  C   UNK     1      65.874   7.261   5.971  1.00  0.00    -0.062 A 
HETATM   11  C   UNK     1      67.193   6.883   5.707  1.00  0.00     0.007 A 
HETATM   12  C   UNK     1      65.171   8.279   5.123  1.00  0.00     0.048 C 
HETATM   13  C   UNK     1      67.839   5.948   6.524  1.00  0.00     0.015 A 
ENDBRANCH   4   7
BRANCH   1  14
HETATM   14  C   UNK     1      68.038   1.377  10.441  1.00  0.00     0.227 C 
HETATM   15  O   UNK     1      67.132   1.227  11.252  1.00  0.00    -0.643 OA
HETATM   16  O   UNK     1      68.847   0.337  10.139  1.00  0.00    -0.643 OA
ENDBRANCH   1  14
TORSDOF 2
ENDMDL
MODEL 5
REMARK VINA RESULT:      -5.2     17.082     18.274
REMARK  2 active torsions:
REMARK  status: ('A' for Active; 'I' for Inactive)
REMARK    1  A    between atoms: C_1  and  C_7 
REMARK    2  A    between atoms: C_4  and  C_8 
ROOT
HETATM    1  C   UNK     1      74.090  -0.741  17.848  1.00  0.00     0.117 A 
HETATM    2  N   UNK     1      74.110   0.634  17.604  1.00  0.00    -0.344 N 
ATOM      3  HN  UNK     1      73.302   1.180  17.303  1.00  0.00     0.167 HD
HETATM    4  C   UNK     1      75.313   1.133  17.817  1.00  0.00     0.085 A 
HETATM    5  S   UNK     1      76.497  -0.034  18.282  1.00  0.00    -0.081 SA
HETATM    6  C   UNK     1      75.314  -1.264  18.223  1.00  0.00     0.088 A 
ENDROOT
BRANCH   4   7
HETATM    7  C   UNK     1      75.676   2.550  17.626  1.00  0.00    -0.002 A 
HETATM    8  C   UNK     1      74.967   3.404  16.766  1.00  0.00     0.015 A 
HETATM    9  C   UNK     1      75.324   4.750  16.634  1.00  0.00     0.007 A 
HETATM   10  C   UNK     1      76.402   5.274  17.354  1.00  0.00    -0.062 A 
HETATM   11  C   UNK     1      77.129   4.427  18.195  1.00  0.00     0.007 A 
HETATM   12  C   UNK     1      76.752   6.727  17.220  1.00  0.00     0.048 C 
HETATM   13  C   UNK     1      76.773   3.079  18.323  1.00  0.00     0.015 A 
ENDBRANCH   4   7
BRANCH   1  14
HETATM   14  C   UNK     1      72.887  -1.555  17.713  1.00  0.00     0.227 C 
HETATM   15  O   UNK     1      72.310  -2.120  18.634  1.00  0.00    -0.643 OA
HETATM   16  O   UNK     1      72.408  -1.665  16.453  1.00  0.00    -0.643 OA
ENDBRANCH   1  14
TORSDOF 2
ENDMDL
MODEL 6
REMARK VINA RESULT:      -5.0     17.717     18.765
REMARK  2 active torsions:
REMARK  status: ('A' for Active; 'I' for Inactive)
REMARK    1  A    between atoms: C_1  and  C_7 
REMARK    2  A    between atoms: C_4  and  C_8 
ROOT
HETATM    1  C   UNK     1      76.175   3.224  17.666  1.00  0.00     0.117 A 
HETATM    2  N   UNK     1      75.047   2.400  17.665  1.00  0.00    -0.344 N 
ATOM      3  HN  UNK     1      74.097   2.720  17.471  1.00  0.00     0.167 HD
HETATM    4  C   UNK     1      75.373   1.153  17.949  1.00  0.00     0.085 A 
HETATM    5  S   UNK     1      77.051   0.912  18.274  1.00  0.00    -0.081 SA
HETATM    6  C   UNK     1      77.350   2.568  17.982  1.00  0.00     0.088 A 
ENDROOT
BRANCH   4   7
HETATM    7  C   UNK     1      74.411   0.041  18.054  1.00  0.00    -0.002 A 
HETATM    8  C   UNK     1      74.092  -0.573  19.276  1.00  0.00     0.015 A 
HETATM    9  C   UNK     1      73.151  -1.606  19.338  1.00  0.00     0.007 A 
HETATM   10  C   UNK     1      72.510  -2.055  18.180  1.00  0.00    -0.062 A 
HETATM   11  C   UNK     1      72.837  -1.468  16.955  1.00  0.00     0.007 A 
HETATM   12  C   UNK     1      71.484  -3.145  18.271  1.00  0.00     0.048 C 
HETATM   13  C   UNK     1      73.782  -0.436  16.894  1.00  0.00     0.015 A 
ENDBRANCH   4   7
BRANCH   1  14
HETATM   14  C   UNK     1      76.118   4.650  17.365  1.00  0.00     0.227 C 
HETATM   15  O   UNK     1      75.409   5.163  16.509  1.00  0.00    -0.643 OA
HETATM   16  O   UNK     1      76.931   5.426  18.116  1.00  0.00    -0.643 OA
ENDBRANCH   1  14
TORSDOF 2
ENDMDL
MODEL 7
REMARK VINA RESULT:      -5.0      4.013      8.163
REMARK  2 active torsions:
REMARK  status: ('A' for Active; 'I' for Inactive)
REMARK    1  A    between atoms: C_1  and  C_7 
REMARK    2  A    between atoms: C_4  and  C_8 
ROOT
HETATM    1  C   UNK     1      66.290   6.778   6.484  1.00  0.00     0.117 A 
HETATM    2  N   UNK     1      67.363   6.101   7.069  1.00  0.00    -0.344 N 
ATOM      3  HN  UNK     1      68.312   6.469   7.134  1.00  0.00     0.167 HD
HETATM    4  C   UNK     1      66.983   4.924   7.528  1.00  0.00     0.085 A 
HETATM    5  S   UNK     1      65.323   4.549   7.242  1.00  0.00    -0.081 SA
HETATM    6  C   UNK     1      65.104   6.068   6.493  1.00  0.00     0.088 A 
ENDROOT
BRANCH   4   7
HETATM    7  C   UNK     1      67.881   3.951   8.179  1.00  0.00    -0.002 A 
HETATM    8  C   UNK     1      68.661   4.274   9.300  1.00  0.00     0.015 A 
HETATM    9  C   UNK     1      69.478   3.315   9.907  1.00  0.00     0.007 A 
HETATM   10  C   UNK     1      69.539   2.011   9.406  1.00  0.00    -0.062 A 
HETATM   11  C   UNK     1      68.785   1.686   8.275  1.00  0.00     0.007 A 
HETATM   12  C   UNK     1      70.400   0.989  10.087  1.00  0.00     0.048 C 
HETATM   13  C   UNK     1      67.971   2.648   7.666  1.00  0.00     0.015 A 
ENDBRANCH   4   7
BRANCH   1  14
HETATM   14  C   UNK     1      66.411   8.115   5.910  1.00  0.00     0.227 C 
HETATM   15  O   UNK     1      65.681   9.063   6.169  1.00  0.00    -0.643 OA
HETATM   16  O   UNK     1      67.424   8.269   5.027  1.00  0.00    -0.643 OA
ENDBRANCH   1  14
TORSDOF 2
ENDMDL
MODEL 8
REMARK VINA RESULT:      -4.9      4.124      5.900
REMARK  2 active torsions:
REMARK  status: ('A' for Active; 'I' for Inactive)
REMARK    1  A    between atoms: C_1  and  C_7 
REMARK    2  A    between atoms: C_4  and  C_8 
ROOT
HETATM    1  C   UNK     1      68.153   2.382   9.103  1.00  0.00     0.117 A 
HETATM    2  N   UNK     1      67.443   3.562   8.868  1.00  0.00    -0.344 N 
ATOM      3  HN  UNK     1      66.900   4.060   9.574  1.00  0.00     0.167 HD
HETATM    4  C   UNK     1      67.569   3.946   7.612  1.00  0.00     0.085 A 
HETATM    5  S   UNK     1      68.516   2.884   6.634  1.00  0.00    -0.081 SA
HETATM    6  C   UNK     1      68.793   1.878   7.986  1.00  0.00     0.088 A 
ENDROOT
BRANCH   4   7
HETATM    7  C   UNK     1      66.922   5.138   7.034  1.00  0.00    -0.002 A 
HETATM    8  C   UNK     1      67.631   6.107   6.306  1.00  0.00     0.015 A 
HETATM    9  C   UNK     1      66.976   7.209   5.748  1.00  0.00     0.007 A 
HETATM   10  C   UNK     1      65.597   7.373   5.907  1.00  0.00    -0.062 A 
HETATM   11  C   UNK     1      64.885   6.428   6.650  1.00  0.00     0.007 A 
HETATM   12  C   UNK     1      64.908   8.548   5.277  1.00  0.00     0.048 C 
HETATM   13  C   UNK     1      65.543   5.327   7.211  1.00  0.00     0.015 A 
ENDBRANCH   4   7
BRANCH   1  14
HETATM   14  C   UNK     1      68.211   1.735  10.410  1.00  0.00     0.227 C 
HETATM   15  O   UNK     1      69.223   1.596  11.084  1.00  0.00    -0.643 OA
HETATM   16  O   UNK     1      67.028   1.269  10.870  1.00  0.00    -0.643 OA
ENDBRANCH   1  14
TORSDOF 2
ENDMDL
MODEL 9
REMARK VINA RESULT:      -4.9      1.935      2.321
REMARK  2 active torsions:
REMARK  status: ('A' for Active; 'I' for Inactive)
REMARK    1  A    between atoms: C_1  and  C_7 
REMARK    2  A    between atoms: C_4  and  C_8 
ROOT
HETATM    1  C   UNK     1      66.122   5.751   7.059  1.00  0.00     0.117 A 
HETATM    2  N   UNK     1      65.096   5.957   6.133  1.00  0.00    -0.344 N 
ATOM      3  HN  UNK     1      64.399   5.257   5.877  1.00  0.00     0.167 HD
HETATM    4  C   UNK     1      65.148   7.178   5.636  1.00  0.00     0.085 A 
HETATM    5  S   UNK     1      66.461   8.131   6.224  1.00  0.00    -0.081 SA
HETATM    6  C   UNK     1      66.959   6.839   7.223  1.00  0.00     0.088 A 
ENDROOT
BRANCH   4   7
HETATM    7  C   UNK     1      64.224   7.705   4.615  1.00  0.00    -0.002 A 
HETATM    8  C   UNK     1      63.582   8.947   4.742  1.00  0.00     0.015 A 
HETATM    9  C   UNK     1      62.735   9.425   3.738  1.00  0.00     0.007 A 
HETATM   10  C   UNK     1      62.504   8.672   2.583  1.00  0.00    -0.062 A 
HETATM   11  C   UNK     1      63.118   7.423   2.456  1.00  0.00     0.007 A 
HETATM   12  C   UNK     1      61.613   9.214   1.504  1.00  0.00     0.048 C 
HETATM   13  C   UNK     1      63.963   6.944   3.465  1.00  0.00     0.015 A 
ENDBRANCH   4   7
BRANCH   1  14
HETATM   14  C   UNK     1      66.298   4.497   7.785  1.00  0.00     0.227 C 
HETATM   15  O   UNK     1      65.553   3.528   7.711  1.00  0.00    -0.643 OA
HETATM   16  O   UNK     1      67.382   4.451   8.591  1.00  0.00    -0.643 OA
ENDBRANCH   1  14
TORSDOF 2
ENDMDL
