MODEL 1
REMARK VINA RESULT:      -5.3      0.000      0.000
REMARK  3 active torsions:
REMARK  status: ('A' for Active; 'I' for Inactive)
REMARK    1  A    between atoms: C_1  and  N_2 
REMARK    2  A    between atoms: C_6  and  C_12 
REMARK    3  A    between atoms: O_11  and  C_12 
ROOT
HETATM    1  C   UNL     1      67.752   4.961   8.050  1.00  0.00     0.102 A 
HETATM    2  N   UNL     1      67.058   3.821   8.260  1.00  0.00    -0.352 N 
ATOM      3  HN  UNL     1      66.137   3.687   7.842  1.00  0.00     0.166 HD
HETATM    4  C   UNL     1      68.995   5.155   8.653  1.00  0.00     0.049 A 
HETATM    5  C   UNL     1      68.872   2.954   9.616  1.00  0.00    -0.019 A 
HETATM    6  C   UNL     1      67.614   2.861   9.037  1.00  0.00     0.099 A 
HETATM    7  C   UNL     1      69.563   4.146   9.429  1.00  0.00     0.014 A 
ENDROOT
BRANCH   1   8
HETATM    8  N   UNL     1      67.297   5.884   7.123  1.00  0.00    -0.367 N 
HETATM    9  C   UNL     1      67.107   5.427   5.750  1.00  0.00     0.124 C 
HETATM   10  C   UNL     1      67.401   6.617   4.831  1.00  0.00     0.020 C 
HETATM   11  C   UNL     1      66.567   7.845   5.206  1.00  0.00     0.003 C 
HETATM   12  C   UNL     1      66.655   8.166   6.701  1.00  0.00     0.020 C 
HETATM   13  C   UNL     1      66.375   6.929   7.553  1.00  0.00     0.124 C 
ENDBRANCH   1   8
BRANCH   5  14
HETATM   14  C   UNL     1      69.481   1.812  10.365  1.00  0.00     0.204 C 
BRANCH  14  15
HETATM   15  O   UNL     1      70.076   2.272  11.573  1.00  0.00    -0.396 OA
HETATM   16  H   UNL     1      71.008   2.004  11.598  1.00  0.00     0.209 HD
ENDBRANCH  14  15
ENDBRANCH   5  14
TORSDOF 3
ENDMDL
MODEL 2
REMARK VINA RESULT:      -5.2      0.752      1.375
REMARK  3 active torsions:
REMARK  status: ('A' for Active; 'I' for Inactive)
REMARK    1  A    between atoms: C_1  and  N_2 
REMARK    2  A    between atoms: C_6  and  C_12 
REMARK    3  A    between atoms: O_11  and  C_12 
ROOT
HETATM    1  C   UNL     1      67.609   5.024   8.008  1.00  0.00     0.102 A 
HETATM    2  N   UNL     1      66.980   3.878   8.348  1.00  0.00    -0.352 N 
ATOM      3  HN  UNL     1      66.004   3.724   8.097  1.00  0.00     0.166 HD
HETATM    4  C   UNL     1      68.934   5.245   8.385  1.00  0.00     0.049 A 
HETATM    5  C   UNL     1      69.016   3.058   9.382  1.00  0.00    -0.019 A 
HETATM    6  C   UNL     1      67.679   2.937   9.029  1.00  0.00     0.099 A 
HETATM    7  C   UNL     1      69.644   4.257   9.063  1.00  0.00     0.014 A 
ENDROOT
BRANCH   1   8
HETATM    8  N   UNL     1      66.985   5.927   7.162  1.00  0.00    -0.367 N 
HETATM    9  C   UNL     1      65.834   6.658   7.682  1.00  0.00     0.124 C 
HETATM   10  C   UNL     1      64.889   6.913   6.504  1.00  0.00     0.020 C 
HETATM   11  C   UNL     1      65.603   7.609   5.342  1.00  0.00     0.003 C 
HETATM   12  C   UNL     1      66.908   6.902   4.962  1.00  0.00     0.020 C 
HETATM   13  C   UNL     1      67.787   6.659   6.188  1.00  0.00     0.124 C 
ENDBRANCH   1   8
BRANCH   5  14
HETATM   14  C   UNL     1      69.764   1.936  10.028  1.00  0.00     0.204 C 
BRANCH  14  15
HETATM   15  O   UNL     1      69.875   2.157  11.430  1.00  0.00    -0.396 OA
HETATM   16  H   UNL     1      70.498   2.881  11.594  1.00  0.00     0.209 HD
ENDBRANCH  14  15
ENDBRANCH   5  14
TORSDOF 3
ENDMDL
MODEL 3
REMARK VINA RESULT:      -5.2     12.023     13.622
REMARK  3 active torsions:
REMARK  status: ('A' for Active; 'I' for Inactive)
REMARK    1  A    between atoms: C_1  and  N_2 
REMARK    2  A    between atoms: C_6  and  C_12 
REMARK    3  A    between atoms: O_11  and  C_12 
ROOT
HETATM    1  C   UNL     1      75.450   2.316  17.774  1.00  0.00     0.102 A 
HETATM    2  N   UNL     1      76.436   2.778  18.572  1.00  0.00    -0.352 N 
ATOM      3  HN  UNL     1      76.853   2.181  19.287  1.00  0.00     0.166 HD
HETATM    4  C   UNL     1      74.859   3.148  16.823  1.00  0.00     0.049 A 
HETATM    5  C   UNL     1      76.366   4.919  17.434  1.00  0.00    -0.019 A 
HETATM    6  C   UNL     1      76.859   4.054  18.401  1.00  0.00     0.099 A 
HETATM    7  C   UNL     1      75.324   4.448  16.643  1.00  0.00     0.014 A 
ENDROOT
BRANCH   1   8
HETATM    8  N   UNL     1      75.116   0.971  17.799  1.00  0.00    -0.367 N 
HETATM    9  C   UNL     1      74.391   0.431  16.654  1.00  0.00     0.124 C 
HETATM   10  C   UNL     1      73.482  -0.684  17.177  1.00  0.00     0.020 C 
HETATM   11  C   UNL     1      74.265  -1.731  17.974  1.00  0.00     0.003 C 
HETATM   12  C   UNL     1      75.158  -1.091  19.043  1.00  0.00     0.020 C 
HETATM   13  C   UNL     1      76.016   0.028  18.454  1.00  0.00     0.124 C 
ENDBRANCH   1   8
BRANCH   5  14
HETATM   14  C   UNL     1      76.957   6.275  17.216  1.00  0.00     0.204 C 
BRANCH  14  15
HETATM   15  O   UNL     1      76.530   7.172  18.236  1.00  0.00    -0.396 OA
HETATM   16  H   UNL     1      77.177   7.888  18.329  1.00  0.00     0.209 HD
ENDBRANCH  14  15
ENDBRANCH   5  14
TORSDOF 3
ENDMDL
MODEL 4
REMARK VINA RESULT:      -5.2      5.108      7.979
REMARK  3 active torsions:
REMARK  status: ('A' for Active; 'I' for Inactive)
REMARK    1  A    between atoms: C_1  and  N_2 
REMARK    2  A    between atoms: C_6  and  C_12 
REMARK    3  A    between atoms: O_11  and  C_12 
ROOT
HETATM    1  C   UNL     1      64.471   8.143   5.211  1.00  0.00     0.102 A 
HETATM    2  N   UNL     1      64.081   9.317   5.753  1.00  0.00    -0.352 N 
ATOM      3  HN  UNL     1      64.455   9.627   6.651  1.00  0.00     0.166 HD
HETATM    4  C   UNL     1      63.929   7.706   4.002  1.00  0.00     0.049 A 
HETATM    5  C   UNL     1      62.650   9.737   3.841  1.00  0.00    -0.019 A 
HETATM    6  C   UNL     1      63.183  10.073   5.077  1.00  0.00     0.099 A 
HETATM    7  C   UNL     1      63.026   8.508   3.308  1.00  0.00     0.014 A 
ENDROOT
BRANCH   1   8
HETATM    8  N   UNL     1      65.514   7.432   5.782  1.00  0.00    -0.367 N 
HETATM    9  C   UNL     1      65.221   6.637   6.970  1.00  0.00     0.124 C 
HETATM   10  C   UNL     1      66.484   6.632   7.836  1.00  0.00     0.020 C 
HETATM   11  C   UNL     1      67.711   6.159   7.050  1.00  0.00     0.003 C 
HETATM   12  C   UNL     1      67.862   6.902   5.718  1.00  0.00     0.020 C 
HETATM   13  C   UNL     1      66.557   6.886   4.922  1.00  0.00     0.124 C 
ENDBRANCH   1   8
BRANCH   5  14
HETATM   14  C   UNL     1      61.754  10.669   3.089  1.00  0.00     0.204 C 
BRANCH  14  15
HETATM   15  O   UNL     1      61.876  11.992   3.600  1.00  0.00    -0.396 OA
HETATM   16  H   UNL     1      62.637  12.430   3.187  1.00  0.00     0.209 HD
ENDBRANCH  14  15
ENDBRANCH   5  14
TORSDOF 3
ENDMDL
MODEL 5
REMARK VINA RESULT:      -5.0      3.810      5.604
REMARK  3 active torsions:
REMARK  status: ('A' for Active; 'I' for Inactive)
REMARK    1  A    between atoms: C_1  and  N_2 
REMARK    2  A    between atoms: C_6  and  C_12 
REMARK    3  A    between atoms: O_11  and  C_12 
ROOT
HETATM    1  C   UNL     1      64.900   8.161   4.883  1.00  0.00     0.102 A 
HETATM    2  N   UNL     1      65.460   8.553   6.049  1.00  0.00    -0.352 N 
ATOM      3  HN  UNL     1      65.156   9.410   6.512  1.00  0.00     0.166 HD
HETATM    4  C   UNL     1      65.343   7.008   4.236  1.00  0.00     0.049 A 
HETATM    5  C   UNL     1      66.881   6.587   6.037  1.00  0.00    -0.019 A 
HETATM    6  C   UNL     1      66.433   7.780   6.588  1.00  0.00     0.099 A 
HETATM    7  C   UNL     1      66.327   6.212   4.817  1.00  0.00     0.014 A 
ENDROOT
BRANCH   1   8
HETATM    8  N   UNL     1      63.786   8.826   4.397  1.00  0.00    -0.367 N 
HETATM    9  C   UNL     1      63.003   8.165   3.358  1.00  0.00     0.124 C 
HETATM   10  C   UNL     1      62.418   9.262   2.464  1.00  0.00     0.020 C 
HETATM   11  C   UNL     1      61.637  10.301   3.274  1.00  0.00     0.003 C 
HETATM   12  C   UNL     1      62.442  10.823   4.469  1.00  0.00     0.020 C 
HETATM   13  C   UNL     1      63.014   9.674   5.299  1.00  0.00     0.124 C 
ENDBRANCH   1   8
BRANCH   5  14
HETATM   14  C   UNL     1      67.873   5.718   6.741  1.00  0.00     0.204 C 
BRANCH  14  15
HETATM   15  O   UNL     1      68.327   6.350   7.933  1.00  0.00    -0.396 OA
HETATM   16  H   UNL     1      67.565   6.678   8.435  1.00  0.00     0.209 HD
ENDBRANCH  14  15
ENDBRANCH   5  14
TORSDOF 3
ENDMDL
MODEL 6
REMARK VINA RESULT:      -4.9      3.205      5.898
REMARK  3 active torsions:
REMARK  status: ('A' for Active; 'I' for Inactive)
REMARK    1  A    between atoms: C_1  and  N_2 
REMARK    2  A    between atoms: C_6  and  C_12 
REMARK    3  A    between atoms: O_11  and  C_12 
ROOT
HETATM    1  C   UNL     1      67.076   5.834   7.389  1.00  0.00     0.102 A 
HETATM    2  N   UNL     1      67.389   7.148   7.396  1.00  0.00    -0.352 N 
ATOM      3  HN  UNL     1      68.199   7.489   7.915  1.00  0.00     0.166 HD
HETATM    4  C   UNL     1      65.947   5.378   6.708  1.00  0.00     0.049 A 
HETATM    5  C   UNL     1      65.504   7.615   5.944  1.00  0.00    -0.019 A 
HETATM    6  C   UNL     1      66.603   8.002   6.697  1.00  0.00     0.099 A 
HETATM    7  C   UNL     1      65.165   6.267   5.974  1.00  0.00     0.014 A 
ENDROOT
BRANCH   1   8
HETATM    8  N   UNL     1      67.952   4.914   7.941  1.00  0.00    -0.367 N 
HETATM    9  C   UNL     1      68.293   3.741   7.143  1.00  0.00     0.124 C 
HETATM   10  C   UNL     1      68.539   2.585   8.118  1.00  0.00     0.020 C 
HETATM   11  C   UNL     1      69.581   2.947   9.180  1.00  0.00     0.003 C 
HETATM   12  C   UNL     1      69.272   4.287   9.856  1.00  0.00     0.020 C 
HETATM   13  C   UNL     1      69.014   5.384   8.823  1.00  0.00     0.124 C 
ENDBRANCH   1   8
BRANCH   5  14
HETATM   14  C   UNL     1      64.747   8.588   5.098  1.00  0.00     0.204 C 
BRANCH  14  15
HETATM   15  O   UNL     1      64.620   9.836   5.771  1.00  0.00    -0.396 OA
HETATM   16  H   UNL     1      64.087   9.719   6.572  1.00  0.00     0.209 HD
ENDBRANCH  14  15
ENDBRANCH   5  14
TORSDOF 3
ENDMDL
MODEL 7
REMARK VINA RESULT:      -4.8      2.780      4.209
REMARK  3 active torsions:
REMARK  status: ('A' for Active; 'I' for Inactive)
REMARK    1  A    between atoms: C_1  and  N_2 
REMARK    2  A    between atoms: C_6  and  C_12 
REMARK    3  A    between atoms: O_11  and  C_12 
ROOT
HETATM    1  C   UNL     1      65.718   7.200   6.023  1.00  0.00     0.102 A 
HETATM    2  N   UNL     1      65.308   7.066   7.303  1.00  0.00    -0.352 N 
ATOM      3  HN  UNL     1      64.361   7.329   7.579  1.00  0.00     0.166 HD
HETATM    4  C   UNL     1      67.024   6.874   5.659  1.00  0.00     0.049 A 
HETATM    5  C   UNL     1      67.477   6.169   7.913  1.00  0.00    -0.019 A 
HETATM    6  C   UNL     1      66.184   6.575   8.213  1.00  0.00     0.099 A 
HETATM    7  C   UNL     1      67.904   6.346   6.602  1.00  0.00     0.014 A 
ENDROOT
BRANCH   1   8
HETATM    8  N   UNL     1      64.801   7.529   5.038  1.00  0.00    -0.367 N 
HETATM    9  C   UNL     1      64.348   8.914   4.969  1.00  0.00     0.124 C 
HETATM   10  C   UNL     1      62.902   8.894   4.464  1.00  0.00     0.020 C 
HETATM   11  C   UNL     1      62.770   8.124   3.147  1.00  0.00     0.003 C 
HETATM   12  C   UNL     1      63.432   6.744   3.219  1.00  0.00     0.020 C 
HETATM   13  C   UNL     1      64.860   6.840   3.753  1.00  0.00     0.124 C 
ENDBRANCH   1   8
BRANCH   5  14
HETATM   14  C   UNL     1      68.356   5.522   8.936  1.00  0.00     0.204 C 
BRANCH  14  15
HETATM   15  O   UNL     1      69.727   5.737   8.618  1.00  0.00    -0.396 OA
HETATM   16  H   UNL     1      69.904   5.416   7.720  1.00  0.00     0.209 HD
ENDBRANCH  14  15
ENDBRANCH   5  14
TORSDOF 3
ENDMDL
MODEL 8
REMARK VINA RESULT:      -4.8      2.050      2.891
REMARK  3 active torsions:
REMARK  status: ('A' for Active; 'I' for Inactive)
REMARK    1  A    between atoms: C_1  and  N_2 
REMARK    2  A    between atoms: C_6  and  C_12 
REMARK    3  A    between atoms: O_11  and  C_12 
ROOT
HETATM    1  C   UNL     1      66.133   6.184   7.137  1.00  0.00     0.102 A 
HETATM    2  N   UNL     1      66.860   5.215   6.539  1.00  0.00    -0.352 N 
ATOM      3  HN  UNL     1      66.609   4.870   5.613  1.00  0.00     0.166 HD
HETATM    4  C   UNL     1      66.459   6.626   8.419  1.00  0.00     0.049 A 
HETATM    5  C   UNL     1      68.355   5.147   8.448  1.00  0.00    -0.019 A 
HETATM    6  C   UNL     1      67.931   4.712   7.200  1.00  0.00     0.099 A 
HETATM    7  C   UNL     1      67.578   6.117   9.073  1.00  0.00     0.014 A 
ENDROOT
BRANCH   1   8
HETATM    8  N   UNL     1      65.145   6.843   6.423  1.00  0.00    -0.367 N 
HETATM    9  C   UNL     1      65.555   7.621   5.259  1.00  0.00     0.124 C 
HETATM   10  C   UNL     1      64.591   8.805   5.142  1.00  0.00     0.020 C 
HETATM   11  C   UNL     1      63.130   8.348   5.108  1.00  0.00     0.003 C 
HETATM   12  C   UNL     1      62.804   7.379   6.250  1.00  0.00     0.020 C 
HETATM   13  C   UNL     1      63.820   6.240   6.320  1.00  0.00     0.124 C 
ENDBRANCH   1   8
BRANCH   5  14
HETATM   14  C   UNL     1      69.614   4.637   9.073  1.00  0.00     0.204 C 
BRANCH  14  15
HETATM   15  O   UNL     1      69.320   3.918  10.266  1.00  0.00    -0.396 OA
HETATM   16  H   UNL     1      70.146   3.696  10.722  1.00  0.00     0.209 HD
ENDBRANCH  14  15
ENDBRANCH   5  14
TORSDOF 3
ENDMDL
MODEL 9
REMARK VINA RESULT:      -4.7      3.379      6.063
REMARK  3 active torsions:
REMARK  status: ('A' for Active; 'I' for Inactive)
REMARK    1  A    between atoms: C_1  and  N_2 
REMARK    2  A    between atoms: C_6  and  C_12 
REMARK    3  A    between atoms: O_11  and  C_12 
ROOT
HETATM    1  C   UNL     1      66.694   5.969   6.587  1.00  0.00     0.102 A 
HETATM    2  N   UNL     1      65.425   6.104   7.029  1.00  0.00    -0.352 N 
ATOM      3  HN  UNL     1      65.076   5.531   7.797  1.00  0.00     0.166 HD
HETATM    4  C   UNL     1      67.156   6.730   5.512  1.00  0.00     0.049 A 
HETATM    5  C   UNL     1      65.034   7.857   5.399  1.00  0.00    -0.019 A 
HETATM    6  C   UNL     1      64.627   7.020   6.428  1.00  0.00     0.099 A 
HETATM    7  C   UNL     1      66.330   7.685   4.923  1.00  0.00     0.014 A 
ENDROOT
BRANCH   1   8
HETATM    8  N   UNL     1      67.587   5.175   7.289  1.00  0.00    -0.367 N 
HETATM    9  C   UNL     1      67.954   5.598   8.637  1.00  0.00     0.124 C 
HETATM   10  C   UNL     1      69.397   5.146   8.877  1.00  0.00     0.020 C 
HETATM   11  C   UNL     1      69.574   3.647   8.618  1.00  0.00     0.003 C 
HETATM   12  C   UNL     1      68.999   3.225   7.262  1.00  0.00     0.020 C 
HETATM   13  C   UNL     1      67.568   3.732   7.084  1.00  0.00     0.124 C 
ENDBRANCH   1   8
BRANCH   5  14
HETATM   14  C   UNL     1      64.144   8.930   4.858  1.00  0.00     0.204 C 
BRANCH  14  15
HETATM   15  O   UNL     1      64.234  10.101   5.662  1.00  0.00    -0.396 OA
HETATM   16  H   UNL     1      65.148  10.425   5.661  1.00  0.00     0.209 HD
ENDBRANCH  14  15
ENDBRANCH   5  14
TORSDOF 3
ENDMDL
