MODEL 1
REMARK VINA RESULT:      -4.5      0.000      0.000
REMARK  1 active torsions:
REMARK  status: ('A' for Active; 'I' for Inactive)
REMARK    1  A    between atoms: C_2  and  N_10 
ROOT
HETATM    1  C   UNL     1      76.833   3.112  18.015  1.00  0.00     0.093 A 
HETATM    2  C   UNL     1      77.417   1.910  18.527  1.00  0.00     0.062 A 
HETATM    3  C   UNL     1      75.636   2.845  17.351  1.00  0.00     0.103 A 
HETATM    4  S   UNL     1      75.244   1.187  17.356  1.00  0.00    -0.080 SA
HETATM    5  C   UNL     1      76.662   0.796  18.241  1.00  0.00     0.083 A 
HETATM    6  N   UNL     1      77.322   4.389  18.123  1.00  0.00    -0.361 N 
ATOM      7  HN  UNL     1      78.192   4.618  18.602  1.00  0.00     0.165 HD
HETATM    8  N   UNL     1      74.843   3.769  16.757  1.00  0.00    -0.357 N 
ATOM      9  HN  UNL     1      73.970   3.550  16.278  1.00  0.00     0.166 HD
HETATM   10  C   UNL     1      76.534   5.313  17.531  1.00  0.00     0.105 A 
HETATM   11  C   UNL     1      75.348   5.016  16.878  1.00  0.00     0.106 A 
ENDROOT
BRANCH   2  12
HETATM   12  N   UNL     1      78.579   1.864  19.213  1.00  0.00    -0.397 N 
HETATM   13  H   UNL     1      78.572   1.685  20.182  1.00  0.00     0.156 HD
HETATM   14  H   UNL     1      79.433   2.010  18.746  1.00  0.00     0.156 HD
ENDBRANCH   2  12
TORSDOF 1
ENDMDL
MODEL 2
REMARK VINA RESULT:      -4.2     18.063     19.608
REMARK  1 active torsions:
REMARK  status: ('A' for Active; 'I' for Inactive)
REMARK    1  A    between atoms: C_2  and  N_10 
ROOT
HETATM    1  C   UNL     1      63.823   9.311   5.002  1.00  0.00     0.093 A 
HETATM    2  C   UNL     1      63.161  10.555   5.250  1.00  0.00     0.062 A 
HETATM    3  C   UNL     1      63.294   8.678   3.876  1.00  0.00     0.103 A 
HETATM    4  S   UNL     1      62.039   9.575   3.154  1.00  0.00    -0.080 SA
HETATM    5  C   UNL     1      62.177  10.821   4.327  1.00  0.00     0.083 A 
HETATM    6  N   UNL     1      64.844   8.749   5.724  1.00  0.00    -0.361 N 
ATOM      7  HN  UNL     1      65.252   9.185   6.550  1.00  0.00     0.165 HD
HETATM    8  N   UNL     1      63.704   7.487   3.379  1.00  0.00    -0.357 N 
ATOM      9  HN  UNL     1      63.303   7.044   2.553  1.00  0.00     0.166 HD
HETATM   10  C   UNL     1      65.254   7.560   5.232  1.00  0.00     0.105 A 
HETATM   11  C   UNL     1      64.709   6.956   4.110  1.00  0.00     0.106 A 
ENDROOT
BRANCH   2  12
HETATM   12  N   UNL     1      63.463  11.383   6.274  1.00  0.00    -0.397 N 
HETATM   13  H   UNL     1      64.402  11.524   6.533  1.00  0.00     0.156 HD
HETATM   14  H   UNL     1      62.743  11.845   6.761  1.00  0.00     0.156 HD
ENDBRANCH   2  12
TORSDOF 1
ENDMDL
MODEL 3
REMARK VINA RESULT:      -4.2      1.319      3.374
REMARK  1 active torsions:
REMARK  status: ('A' for Active; 'I' for Inactive)
REMARK    1  A    between atoms: C_2  and  N_10 
ROOT
HETATM    1  C   UNL     1      77.035   2.611  18.225  1.00  0.00     0.093 A 
HETATM    2  C   UNL     1      76.569   3.851  17.683  1.00  0.00     0.062 A 
HETATM    3  C   UNL     1      76.195   1.558  17.861  1.00  0.00     0.103 A 
HETATM    4  S   UNL     1      74.890   2.070  16.894  1.00  0.00    -0.080 SA
HETATM    5  C   UNL     1      75.419   3.702  16.943  1.00  0.00     0.083 A 
HETATM    6  N   UNL     1      78.145   2.404  19.003  1.00  0.00    -0.361 N 
ATOM      7  HN  UNL     1      78.779   3.151  19.285  1.00  0.00     0.165 HD
HETATM    8  N   UNL     1      76.363   0.261  18.214  1.00  0.00    -0.357 N 
ATOM      9  HN  UNL     1      75.735  -0.493  17.935  1.00  0.00     0.166 HD
HETATM   10  C   UNL     1      78.315   1.112  19.358  1.00  0.00     0.105 A 
HETATM   11  C   UNL     1      77.461   0.086  18.980  1.00  0.00     0.106 A 
ENDROOT
BRANCH   2  12
HETATM   12  N   UNL     1      77.183   5.039  17.872  1.00  0.00    -0.397 N 
HETATM   13  H   UNL     1      77.065   5.764  17.216  1.00  0.00     0.156 HD
HETATM   14  H   UNL     1      77.749   5.179  18.665  1.00  0.00     0.156 HD
ENDBRANCH   2  12
TORSDOF 1
ENDMDL
MODEL 4
REMARK VINA RESULT:      -4.1      1.442      2.521
REMARK  1 active torsions:
REMARK  status: ('A' for Active; 'I' for Inactive)
REMARK    1  A    between atoms: C_2  and  N_10 
ROOT
HETATM    1  C   UNL     1      75.557   2.630  17.405  1.00  0.00     0.093 A 
HETATM    2  C   UNL     1      75.298   1.229  17.541  1.00  0.00     0.062 A 
HETATM    3  C   UNL     1      76.795   2.966  17.953  1.00  0.00     0.103 A 
HETATM    4  S   UNL     1      77.605   1.619  18.607  1.00  0.00    -0.080 SA
HETATM    5  C   UNL     1      76.323   0.564  18.173  1.00  0.00     0.083 A 
HETATM    6  N   UNL     1      74.751   3.576  16.826  1.00  0.00    -0.361 N 
ATOM      7  HN  UNL     1      73.842   3.363  16.416  1.00  0.00     0.165 HD
HETATM    8  N   UNL     1      77.330   4.210  17.982  1.00  0.00    -0.357 N 
ATOM      9  HN  UNL     1      78.239   4.432  18.388  1.00  0.00     0.166 HD
HETATM   10  C   UNL     1      75.280   4.819  16.854  1.00  0.00     0.105 A 
HETATM   11  C   UNL     1      76.515   5.121  17.407  1.00  0.00     0.106 A 
ENDROOT
BRANCH   2  12
HETATM   12  N   UNL     1      74.176   0.620  17.102  1.00  0.00    -0.397 N 
HETATM   13  H   UNL     1      73.614   0.109  17.730  1.00  0.00     0.156 HD
HETATM   14  H   UNL     1      73.919   0.685  16.153  1.00  0.00     0.156 HD
ENDBRANCH   2  12
TORSDOF 1
ENDMDL
MODEL 5
REMARK VINA RESULT:      -4.1     12.676     14.437
REMARK  1 active torsions:
REMARK  status: ('A' for Active; 'I' for Inactive)
REMARK    1  A    between atoms: C_2  and  N_10 
ROOT
HETATM    1  C   UNL     1      67.132   6.206   7.898  1.00  0.00     0.093 A 
HETATM    2  C   UNL     1      66.471   7.273   7.210  1.00  0.00     0.062 A 
HETATM    3  C   UNL     1      66.413   5.016   7.785  1.00  0.00     0.103 A 
HETATM    4  S   UNL     1      64.986   5.201   6.874  1.00  0.00    -0.080 SA
HETATM    5  C   UNL     1      65.301   6.868   6.612  1.00  0.00     0.083 A 
HETATM    6  N   UNL     1      68.312   6.266   8.593  1.00  0.00    -0.361 N 
ATOM      7  HN  UNL     1      68.862   7.118   8.693  1.00  0.00     0.165 HD
HETATM    8  N   UNL     1      66.773   3.827   8.324  1.00  0.00    -0.357 N 
ATOM      9  HN  UNL     1      66.231   2.968   8.228  1.00  0.00     0.166 HD
HETATM   10  C   UNL     1      68.674   5.081   9.133  1.00  0.00     0.105 A 
HETATM   11  C   UNL     1      67.937   3.914   9.003  1.00  0.00     0.106 A 
ENDROOT
BRANCH   2  12
HETATM   12  N   UNL     1      66.937   8.539   7.149  1.00  0.00    -0.397 N 
HETATM   13  H   UNL     1      67.381   8.939   7.932  1.00  0.00     0.156 HD
HETATM   14  H   UNL     1      66.832   9.063   6.322  1.00  0.00     0.156 HD
ENDBRANCH   2  12
TORSDOF 1
ENDMDL
MODEL 6
REMARK VINA RESULT:      -4.0     11.479     12.797
REMARK  1 active torsions:
REMARK  status: ('A' for Active; 'I' for Inactive)
REMARK    1  A    between atoms: C_2  and  N_10 
ROOT
HETATM    1  C   UNL     1      67.575   4.205   8.762  1.00  0.00     0.093 A 
HETATM    2  C   UNL     1      68.136   3.041   9.379  1.00  0.00     0.062 A 
HETATM    3  C   UNL     1      68.567   5.135   8.450  1.00  0.00     0.103 A 
HETATM    4  S   UNL     1      70.122   4.603   8.895  1.00  0.00    -0.080 SA
HETATM    5  C   UNL     1      69.503   3.124   9.510  1.00  0.00     0.083 A 
HETATM    6  N   UNL     1      66.254   4.446   8.482  1.00  0.00    -0.361 N 
ATOM      7  HN  UNL     1      65.506   3.787   8.696  1.00  0.00     0.165 HD
HETATM    8  N   UNL     1      68.359   6.336   7.860  1.00  0.00    -0.357 N 
ATOM      9  HN  UNL     1      69.101   7.001   7.640  1.00  0.00     0.166 HD
HETATM   10  C   UNL     1      66.044   5.644   7.894  1.00  0.00     0.105 A 
HETATM   11  C   UNL     1      67.052   6.548   7.596  1.00  0.00     0.106 A 
ENDROOT
BRANCH   2  12
HETATM   12  N   UNL     1      67.414   1.977   9.788  1.00  0.00    -0.397 N 
HETATM   13  H   UNL     1      66.785   1.541   9.168  1.00  0.00     0.156 HD
HETATM   14  H   UNL     1      67.515   1.637  10.706  1.00  0.00     0.156 HD
ENDBRANCH   2  12
TORSDOF 1
ENDMDL
MODEL 7
REMARK VINA RESULT:      -4.0     10.891     12.194
REMARK  1 active torsions:
REMARK  status: ('A' for Active; 'I' for Inactive)
REMARK    1  A    between atoms: C_2  and  N_10 
ROOT
HETATM    1  C   UNL     1      68.687   4.784   8.925  1.00  0.00     0.093 A 
HETATM    2  C   UNL     1      69.859   4.006   9.191  1.00  0.00     0.062 A 
HETATM    3  C   UNL     1      67.561   3.969   8.810  1.00  0.00     0.103 A 
HETATM    4  S   UNL     1      67.926   2.319   9.019  1.00  0.00    -0.080 SA
HETATM    5  C   UNL     1      69.590   2.659   9.267  1.00  0.00     0.083 A 
HETATM    6  N   UNL     1      68.602   6.145   8.789  1.00  0.00    -0.361 N 
ATOM      7  HN  UNL     1      69.405   6.768   8.869  1.00  0.00     0.165 HD
HETATM    8  N   UNL     1      66.301   4.400   8.561  1.00  0.00    -0.357 N 
ATOM      9  HN  UNL     1      65.492   3.785   8.481  1.00  0.00     0.166 HD
HETATM   10  C   UNL     1      67.347   6.579   8.540  1.00  0.00     0.105 A 
HETATM   11  C   UNL     1      66.246   5.743   8.431  1.00  0.00     0.106 A 
ENDROOT
BRANCH   2  12
HETATM   12  N   UNL     1      71.095   4.528   9.350  1.00  0.00    -0.397 N 
HETATM   13  H   UNL     1      71.259   5.198  10.052  1.00  0.00     0.156 HD
HETATM   14  H   UNL     1      71.830   4.238   8.763  1.00  0.00     0.156 HD
ENDBRANCH   2  12
TORSDOF 1
ENDMDL
MODEL 8
REMARK VINA RESULT:      -3.9     17.618     19.255
REMARK  1 active torsions:
REMARK  status: ('A' for Active; 'I' for Inactive)
REMARK    1  A    between atoms: C_2  and  N_10 
ROOT
HETATM    1  C   UNL     1      63.953   9.041   4.999  1.00  0.00     0.093 A 
HETATM    2  C   UNL     1      64.944   8.068   5.349  1.00  0.00     0.062 A 
HETATM    3  C   UNL     1      63.239   8.645   3.868  1.00  0.00     0.103 A 
HETATM    4  S   UNL     1      63.761   7.141   3.262  1.00  0.00    -0.080 SA
HETATM    5  C   UNL     1      64.947   6.991   4.493  1.00  0.00     0.083 A 
HETATM    6  N   UNL     1      63.683  10.224   5.638  1.00  0.00    -0.361 N 
ATOM      7  HN  UNL     1      64.185  10.542   6.466  1.00  0.00     0.165 HD
HETATM    8  N   UNL     1      62.236   9.345   3.287  1.00  0.00    -0.357 N 
ATOM      9  HN  UNL     1      61.727   9.035   2.460  1.00  0.00     0.166 HD
HETATM   10  C   UNL     1      62.684  10.926   5.060  1.00  0.00     0.105 A 
HETATM   11  C   UNL     1      61.992  10.505   3.935  1.00  0.00     0.106 A 
ENDROOT
BRANCH   2  12
HETATM   12  N   UNL     1      65.784   8.186   6.399  1.00  0.00    -0.397 N 
HETATM   13  H   UNL     1      66.634   7.689   6.408  1.00  0.00     0.156 HD
HETATM   14  H   UNL     1      65.546   8.768   7.157  1.00  0.00     0.156 HD
ENDBRANCH   2  12
TORSDOF 1
ENDMDL
MODEL 9
REMARK VINA RESULT:      -3.9     10.674     12.515
REMARK  1 active torsions:
REMARK  status: ('A' for Active; 'I' for Inactive)
REMARK    1  A    between atoms: C_2  and  N_10 
ROOT
HETATM    1  C   UNL     1      67.864   3.401   9.104  1.00  0.00     0.093 A 
HETATM    2  C   UNL     1      67.201   4.418   8.345  1.00  0.00     0.062 A 
HETATM    3  C   UNL     1      69.201   3.733   9.327  1.00  0.00     0.103 A 
HETATM    4  S   UNL     1      69.624   5.231   8.635  1.00  0.00    -0.080 SA
HETATM    5  C   UNL     1      68.036   5.464   8.026  1.00  0.00     0.083 A 
HETATM    6  N   UNL     1      67.328   2.233   9.582  1.00  0.00    -0.361 N 
ATOM      7  HN  UNL     1      66.356   1.962   9.437  1.00  0.00     0.165 HD
HETATM    8  N   UNL     1      70.094   2.979  10.012  1.00  0.00    -0.357 N 
ATOM      9  HN  UNL     1      71.067   3.243  10.163  1.00  0.00     0.166 HD
HETATM   10  C   UNL     1      68.216   1.478  10.265  1.00  0.00     0.105 A 
HETATM   11  C   UNL     1      69.540   1.836  10.470  1.00  0.00     0.106 A 
ENDROOT
BRANCH   2  12
HETATM   12  N   UNL     1      65.903   4.366   7.980  1.00  0.00    -0.397 N 
HETATM   13  H   UNL     1      65.661   4.154   7.049  1.00  0.00     0.156 HD
HETATM   14  H   UNL     1      65.197   4.541   8.644  1.00  0.00     0.156 HD
ENDBRANCH   2  12
TORSDOF 1
ENDMDL
