MODEL 1
REMARK VINA RESULT:      -5.3      0.000      0.000
REMARK  3 active torsions:
REMARK  status: ('A' for Active; 'I' for Inactive)
REMARK    1  A    between atoms: C_1  and  C_7 
REMARK    2  A    between atoms: C_7  and  O_10 
REMARK    3  A    between atoms: O_10  and  C_12 
ROOT
HETATM    1  C   UNL     1      77.493   8.644  16.323  1.00  0.00     0.105 A 
HETATM    2  N   UNL     1      77.309   7.767  14.155  1.00  0.00    -0.343 N 
ATOM      3  HN  UNL     1      77.127   7.077  13.427  1.00  0.00     0.167 HD
HETATM    4  C   UNL     1      77.181   7.545  15.524  1.00  0.00     0.030 A 
HETATM    5  S   UNL     1      77.952   9.968  15.306  1.00  0.00    -0.052 SA
HETATM    6  C   UNL     1      77.699   8.997  13.948  1.00  0.00     0.146 A 
HETATM    7 CL   UNL     1      77.947   9.630  12.374  1.00  0.00    -0.056 Cl
HETATM    8  C   UNL     1      76.721   6.180  15.909  1.00  0.00     0.070 C 
ENDROOT
BRANCH   1   9
HETATM    9  C   UNL     1      77.494   8.858  17.758  1.00  0.00     0.302 C 
HETATM   10  O   UNL     1      76.920   8.165  18.588  1.00  0.00    -0.259 OA
BRANCH   9  11
HETATM   11  O   UNL     1      78.232   9.958  18.072  1.00  0.00    -0.317 OA
BRANCH  11  12
HETATM   12  C   UNL     1      77.756  10.762  19.161  1.00  0.00     0.174 C 
HETATM   13  C   UNL     1      76.755  11.791  18.668  1.00  0.00     0.034 C 
ENDBRANCH  11  12
ENDBRANCH   9  11
ENDBRANCH   1   9
TORSDOF 3
ENDMDL
MODEL 2
REMARK VINA RESULT:      -4.7      4.826      6.551
REMARK  3 active torsions:
REMARK  status: ('A' for Active; 'I' for Inactive)
REMARK    1  A    between atoms: C_1  and  C_7 
REMARK    2  A    between atoms: C_7  and  O_10 
REMARK    3  A    between atoms: O_10  and  C_12 
ROOT
HETATM    1  C   UNL     1      78.112  11.673  19.941  1.00  0.00     0.105 A 
HETATM    2  N   UNL     1      78.581  13.113  21.732  1.00  0.00    -0.343 N 
ATOM      3  HN  UNL     1      78.435  13.872  22.398  1.00  0.00     0.167 HD
HETATM    4  C   UNL     1      77.687  12.739  20.732  1.00  0.00     0.030 A 
HETATM    5  S   UNL     1      79.669  11.151  20.489  1.00  0.00    -0.052 SA
HETATM    6  C   UNL     1      79.634  12.342  21.685  1.00  0.00     0.146 A 
HETATM    7 CL   UNL     1      80.942  12.504  22.783  1.00  0.00    -0.056 Cl
HETATM    8  C   UNL     1      76.422  13.526  20.680  1.00  0.00     0.070 C 
ENDROOT
BRANCH   1   9
HETATM    9  C   UNL     1      77.516  10.970  18.821  1.00  0.00     0.302 C 
HETATM   10  O   UNL     1      77.004  11.490  17.837  1.00  0.00    -0.259 OA
BRANCH   9  11
HETATM   11  O   UNL     1      77.598   9.625  19.007  1.00  0.00    -0.317 OA
BRANCH  11  12
HETATM   12  C   UNL     1      77.692   8.816  17.826  1.00  0.00     0.174 C 
HETATM   13  C   UNL     1      76.734   7.642  17.905  1.00  0.00     0.034 C 
ENDBRANCH  11  12
ENDBRANCH   9  11
ENDBRANCH   1   9
TORSDOF 3
ENDMDL
MODEL 3
REMARK VINA RESULT:      -4.7     14.034     15.227
REMARK  3 active torsions:
REMARK  status: ('A' for Active; 'I' for Inactive)
REMARK    1  A    between atoms: C_1  and  C_7 
REMARK    2  A    between atoms: C_7  and  O_10 
REMARK    3  A    between atoms: O_10  and  C_12 
ROOT
HETATM    1  C   UNL     1      72.578  23.066  13.975  1.00  0.00     0.105 A 
HETATM    2  N   UNL     1      70.279  23.148  13.517  1.00  0.00    -0.343 N 
ATOM      3  HN  UNL     1      69.397  22.915  13.060  1.00  0.00     0.167 HD
HETATM    4  C   UNL     1      71.515  22.581  13.216  1.00  0.00     0.030 A 
HETATM    5  S   UNL     1      71.982  24.257  15.082  1.00  0.00    -0.052 SA
HETATM    6  C   UNL     1      70.423  24.023  14.476  1.00  0.00     0.146 A 
HETATM    7 CL   UNL     1      69.103  24.910  15.118  1.00  0.00    -0.056 Cl
HETATM    8  C   UNL     1      71.497  21.544  12.145  1.00  0.00     0.070 C 
ENDROOT
BRANCH   1   9
HETATM    9  C   UNL     1      73.996  22.765  14.002  1.00  0.00     0.302 C 
HETATM   10  O   UNL     1      74.701  22.540  13.027  1.00  0.00    -0.259 OA
BRANCH   9  11
HETATM   11  O   UNL     1      74.456  22.763  15.283  1.00  0.00    -0.317 OA
BRANCH  11  12
HETATM   12  C   UNL     1      74.686  21.479  15.882  1.00  0.00     0.174 C 
HETATM   13  C   UNL     1      76.173  21.190  15.974  1.00  0.00     0.034 C 
ENDBRANCH  11  12
ENDBRANCH   9  11
ENDBRANCH   1   9
TORSDOF 3
ENDMDL
MODEL 4
REMARK VINA RESULT:      -4.6     14.285     15.698
REMARK  3 active torsions:
REMARK  status: ('A' for Active; 'I' for Inactive)
REMARK    1  A    between atoms: C_1  and  C_7 
REMARK    2  A    between atoms: C_7  and  O_10 
REMARK    3  A    between atoms: O_10  and  C_12 
ROOT
HETATM    1  C   UNL     1      71.607  22.533  12.876  1.00  0.00     0.105 A 
HETATM    2  N   UNL     1      71.818  23.904  14.768  1.00  0.00    -0.343 N 
ATOM      3  HN  UNL     1      72.277  24.378  15.545  1.00  0.00     0.167 HD
HETATM    4  C   UNL     1      72.449  23.071  13.848  1.00  0.00     0.030 A 
HETATM    5  S   UNL     1      69.995  23.104  13.150  1.00  0.00    -0.052 SA
HETATM    6  C   UNL     1      70.546  23.984  14.482  1.00  0.00     0.146 A 
HETATM    7 CL   UNL     1      69.455  24.940  15.397  1.00  0.00    -0.056 Cl
HETATM    8  C   UNL     1      73.918  22.902  14.043  1.00  0.00     0.070 C 
ENDROOT
BRANCH   1   9
HETATM    9  C   UNL     1      71.830  21.645  11.752  1.00  0.00     0.302 C 
HETATM   10  O   UNL     1      72.737  21.735  10.934  1.00  0.00    -0.259 OA
BRANCH   9  11
HETATM   11  O   UNL     1      70.877  20.674  11.717  1.00  0.00    -0.317 OA
BRANCH  11  12
HETATM   12  C   UNL     1      70.873  19.816  10.568  1.00  0.00     0.174 C 
HETATM   13  C   UNL     1      71.407  18.442  10.925  1.00  0.00     0.034 C 
ENDBRANCH  11  12
ENDBRANCH   9  11
ENDBRANCH   1   9
TORSDOF 3
ENDMDL
MODEL 5
REMARK VINA RESULT:      -4.6      3.935      5.260
REMARK  3 active torsions:
REMARK  status: ('A' for Active; 'I' for Inactive)
REMARK    1  A    between atoms: C_1  and  C_7 
REMARK    2  A    between atoms: C_7  and  O_10 
REMARK    3  A    between atoms: O_10  and  C_12 
ROOT
HETATM    1  C   UNL     1      77.678  10.615  18.347  1.00  0.00     0.105 A 
HETATM    2  N   UNL     1      78.269  11.998  20.147  1.00  0.00    -0.343 N 
ATOM      3  HN  UNL     1      78.824  12.347  20.928  1.00  0.00     0.167 HD
HETATM    4  C   UNL     1      78.599  10.903  19.352  1.00  0.00     0.030 A 
HETATM    5  S   UNL     1      76.382  11.760  18.426  1.00  0.00    -0.052 SA
HETATM    6  C   UNL     1      77.139  12.508  19.737  1.00  0.00     0.146 A 
HETATM    7 CL   UNL     1      76.429  13.884  20.476  1.00  0.00    -0.056 Cl
HETATM    8  C   UNL     1      79.884  10.229  19.696  1.00  0.00     0.070 C 
ENDROOT
BRANCH   1   9
HETATM    9  C   UNL     1      77.622   9.597  17.315  1.00  0.00     0.302 C 
HETATM   10  O   UNL     1      76.997   8.547  17.375  1.00  0.00    -0.259 OA
BRANCH   9  11
HETATM   11  O   UNL     1      78.376   9.968  16.243  1.00  0.00    -0.317 OA
BRANCH  11  12
HETATM   12  C   UNL     1      77.669  10.259  15.029  1.00  0.00     0.174 C 
HETATM   13  C   UNL     1      77.902   9.168  14.000  1.00  0.00     0.034 C 
ENDBRANCH  11  12
ENDBRANCH   9  11
ENDBRANCH   1   9
TORSDOF 3
ENDMDL
MODEL 6
REMARK VINA RESULT:      -4.5      5.822      6.592
REMARK  3 active torsions:
REMARK  status: ('A' for Active; 'I' for Inactive)
REMARK    1  A    between atoms: C_1  and  C_7 
REMARK    2  A    between atoms: C_7  and  O_10 
REMARK    3  A    between atoms: O_10  and  C_12 
ROOT
HETATM    1  C   UNL     1      78.253  12.245  20.639  1.00  0.00     0.105 A 
HETATM    2  N   UNL     1      80.301  11.210  21.127  1.00  0.00    -0.343 N 
ATOM      3  HN  UNL     1      81.074  10.551  21.031  1.00  0.00     0.167 HD
HETATM    4  C   UNL     1      79.177  11.257  20.305  1.00  0.00     0.030 A 
HETATM    5  S   UNL     1      78.835  13.117  22.017  1.00  0.00    -0.052 SA
HETATM    6  C   UNL     1      80.213  12.141  22.039  1.00  0.00     0.146 A 
HETATM    7 CL   UNL     1      81.431  12.390  23.220  1.00  0.00    -0.056 Cl
HETATM    8  C   UNL     1      79.153  10.256  19.200  1.00  0.00     0.070 C 
ENDROOT
BRANCH   1   9
HETATM    9  C   UNL     1      76.980  12.645  20.071  1.00  0.00     0.302 C 
HETATM   10  O   UNL     1      75.891  12.567  20.623  1.00  0.00    -0.259 OA
BRANCH   9  11
HETATM   11  O   UNL     1      77.155  13.130  18.811  1.00  0.00    -0.317 OA
BRANCH  11  12
HETATM   12  C   UNL     1      76.230  12.677  17.813  1.00  0.00     0.174 C 
HETATM   13  C   UNL     1      76.606  13.223  16.448  1.00  0.00     0.034 C 
ENDBRANCH  11  12
ENDBRANCH   9  11
ENDBRANCH   1   9
TORSDOF 3
ENDMDL
MODEL 7
REMARK VINA RESULT:      -4.4      6.260      8.043
REMARK  3 active torsions:
REMARK  status: ('A' for Active; 'I' for Inactive)
REMARK    1  A    between atoms: C_1  and  C_7 
REMARK    2  A    between atoms: C_7  and  O_10 
REMARK    3  A    between atoms: O_10  and  C_12 
ROOT
HETATM    1  C   UNL     1      75.571   2.291  17.727  1.00  0.00     0.105 A 
HETATM    2  N   UNL     1      77.347   3.817  17.866  1.00  0.00    -0.343 N 
ATOM      3  HN  UNL     1      78.272   4.171  18.110  1.00  0.00     0.167 HD
HETATM    4  C   UNL     1      76.873   2.541  18.158  1.00  0.00     0.030 A 
HETATM    5  S   UNL     1      74.957   3.707  16.942  1.00  0.00    -0.052 SA
HETATM    6  C   UNL     1      76.425   4.490  17.232  1.00  0.00     0.146 A 
HETATM    7 CL   UNL     1      76.665   6.102  16.699  1.00  0.00    -0.056 Cl
HETATM    8  C   UNL     1      77.834   1.649  18.868  1.00  0.00     0.070 C 
ENDROOT
BRANCH   1   9
HETATM    9  C   UNL     1      74.704   1.132  17.811  1.00  0.00     0.302 C 
HETATM   10  O   UNL     1      74.320   0.595  18.842  1.00  0.00    -0.259 OA
BRANCH   9  11
HETATM   11  O   UNL     1      74.362   0.704  16.564  1.00  0.00    -0.317 OA
BRANCH  11  12
HETATM   12  C   UNL     1      75.352  -0.046  15.848  1.00  0.00     0.174 C 
HETATM   13  C   UNL     1      75.276   0.251  14.362  1.00  0.00     0.034 C 
ENDBRANCH  11  12
ENDBRANCH   9  11
ENDBRANCH   1   9
TORSDOF 3
ENDMDL
MODEL 8
REMARK VINA RESULT:      -4.4     17.318     18.264
REMARK  3 active torsions:
REMARK  status: ('A' for Active; 'I' for Inactive)
REMARK    1  A    between atoms: C_1  and  C_7 
REMARK    2  A    between atoms: C_7  and  O_10 
REMARK    3  A    between atoms: O_10  and  C_12 
ROOT
HETATM    1  C   UNL     1      63.459   8.828   4.754  1.00  0.00     0.105 A 
HETATM    2  N   UNL     1      62.173  10.150   3.305  1.00  0.00    -0.343 N 
ATOM      3  HN  UNL     1      61.643  10.961   2.984  1.00  0.00     0.167 HD
HETATM    4  C   UNL     1      62.801  10.038   4.543  1.00  0.00     0.030 A 
HETATM    5  S   UNL     1      63.269   7.831   3.350  1.00  0.00    -0.052 SA
HETATM    6  C   UNL     1      62.366   9.056   2.618  1.00  0.00     0.146 A 
HETATM    7 CL   UNL     1      61.748   8.844   1.032  1.00  0.00    -0.056 Cl
HETATM    8  C   UNL     1      62.678  11.229   5.431  1.00  0.00     0.070 C 
ENDROOT
BRANCH   1   9
HETATM    9  C   UNL     1      64.227   8.297   5.863  1.00  0.00     0.302 C 
HETATM   10  O   UNL     1      63.844   7.453   6.663  1.00  0.00    -0.259 OA
BRANCH   9  11
HETATM   11  O   UNL     1      65.460   8.873   5.905  1.00  0.00    -0.317 OA
BRANCH  11  12
HETATM   12  C   UNL     1      66.562   8.012   6.226  1.00  0.00     0.174 C 
HETATM   13  C   UNL     1      67.397   7.730   4.991  1.00  0.00     0.034 C 
ENDBRANCH  11  12
ENDBRANCH   9  11
ENDBRANCH   1   9
TORSDOF 3
ENDMDL
MODEL 9
REMARK VINA RESULT:      -4.4      5.076      6.490
REMARK  3 active torsions:
REMARK  status: ('A' for Active; 'I' for Inactive)
REMARK    1  A    between atoms: C_1  and  C_7 
REMARK    2  A    between atoms: C_7  and  O_10 
REMARK    3  A    between atoms: O_10  and  C_12 
ROOT
HETATM    1  C   UNL     1      78.225  11.939  20.090  1.00  0.00     0.105 A 
HETATM    2  N   UNL     1      80.042  11.522  21.515  1.00  0.00    -0.343 N 
ATOM      3  HN  UNL     1      80.899  11.083  21.848  1.00  0.00     0.167 HD
HETATM    4  C   UNL     1      79.384  11.204  20.329  1.00  0.00     0.030 A 
HETATM    5  S   UNL     1      77.981  13.046  21.400  1.00  0.00    -0.052 SA
HETATM    6  C   UNL     1      79.389  12.470  22.133  1.00  0.00     0.146 A 
HETATM    7 CL   UNL     1      79.918  13.128  23.626  1.00  0.00    -0.056 Cl
HETATM    8  C   UNL     1      80.032  10.143  19.505  1.00  0.00     0.070 C 
ENDROOT
BRANCH   1   9
HETATM    9  C   UNL     1      77.257  11.943  19.010  1.00  0.00     0.302 C 
HETATM   10  O   UNL     1      76.915  12.920  18.356  1.00  0.00    -0.259 OA
BRANCH   9  11
HETATM   11  O   UNL     1      76.763  10.690  18.812  1.00  0.00    -0.317 OA
BRANCH  11  12
HETATM   12  C   UNL     1      77.161  10.026  17.604  1.00  0.00     0.174 C 
HETATM   13  C   UNL     1      77.074   8.520  17.770  1.00  0.00     0.034 C 
ENDBRANCH  11  12
ENDBRANCH   9  11
ENDBRANCH   1   9
TORSDOF 3
ENDMDL
