MODEL 1
REMARK VINA RESULT:      -5.9      0.000      0.000
REMARK  1 active torsions:
REMARK  status: ('A' for Active; 'I' for Inactive)
REMARK    1  A    between atoms: C_7  and  C_8 
ROOT
HETATM    1  N   UNL     1      68.280   6.414   7.144  1.00  0.00    -0.358 N 
HETATM    2  C   UNL     1      67.602   4.497   8.078  1.00  0.00    -0.000 A 
HETATM    3  C   UNL     1      66.569   4.994   7.237  1.00  0.00    -0.023 A 
HETATM    4  C   UNL     1      67.016   6.177   6.684  1.00  0.00     0.017 A 
HETATM    5  C   UNL     1      68.663   5.404   8.003  1.00  0.00     0.043 A 
HETATM    6  C   UNL     1      67.732   3.368   8.913  1.00  0.00     0.032 A 
HETATM    7  C   UNL     1      68.919   3.185   9.640  1.00  0.00     0.041 A 
HETATM    8  C   UNL     1      69.854   5.238   8.718  1.00  0.00     0.031 A 
HETATM    9  C   UNL     1      69.963   4.110   9.539  1.00  0.00     0.021 A 
HETATM   10  C   UNL     1      65.211   4.458   6.946  1.00  0.00     0.041 C 
HETATM   11  C   UNL     1      66.243   7.093   5.801  1.00  0.00     0.057 C 
HETATM   12  C   UNL     1      64.269   5.607   6.545  1.00  0.00     0.005 C 
HETATM   13  C   UNL     1      64.880   6.474   5.426  1.00  0.00     0.006 C 
HETATM   14  H   UNL     1      68.836   7.189   6.899  1.00  0.00     0.166 HD
ENDROOT
BRANCH   7  15
HETATM   15  C   UNL     1      69.107   2.018  10.540  1.00  0.00     0.209 C 
HETATM   16  O   UNL     1      70.173   1.603  10.954  1.00  0.00    -0.644 OA
HETATM   17  O   UNL     1      67.950   1.426  10.880  1.00  0.00    -0.644 OA
ENDBRANCH   7  15
TORSDOF 1
ENDMDL
MODEL 2
REMARK VINA RESULT:      -5.8      5.208      7.878
REMARK  1 active torsions:
REMARK  status: ('A' for Active; 'I' for Inactive)
REMARK    1  A    between atoms: C_7  and  C_8 
ROOT
HETATM    1  N   UNL     1      64.987   5.898   3.627  1.00  0.00    -0.358 N 
HETATM    2  C   UNL     1      64.829   7.714   4.925  1.00  0.00    -0.000 A 
HETATM    3  C   UNL     1      65.838   6.859   5.445  1.00  0.00    -0.023 A 
HETATM    4  C   UNL     1      65.904   5.748   4.628  1.00  0.00     0.017 A 
HETATM    5  C   UNL     1      64.311   7.090   3.787  1.00  0.00     0.043 A 
HETATM    6  C   UNL     1      64.291   8.956   5.323  1.00  0.00     0.032 A 
HETATM    7  C   UNL     1      63.257   9.530   4.566  1.00  0.00     0.041 A 
HETATM    8  C   UNL     1      63.283   7.647   3.018  1.00  0.00     0.031 A 
HETATM    9  C   UNL     1      62.765   8.880   3.429  1.00  0.00     0.021 A 
HETATM   10  C   UNL     1      66.706   7.000   6.648  1.00  0.00     0.041 C 
HETATM   11  C   UNL     1      66.762   4.548   4.829  1.00  0.00     0.057 C 
HETATM   12  C   UNL     1      67.131   5.609   7.151  1.00  0.00     0.005 C 
HETATM   13  C   UNL     1      67.727   4.754   6.016  1.00  0.00     0.006 C 
HETATM   14  H   UNL     1      64.832   5.253   2.900  1.00  0.00     0.166 HD
ENDROOT
BRANCH   7  15
HETATM   15  C   UNL     1      62.649  10.833   4.942  1.00  0.00     0.209 C 
HETATM   16  O   UNL     1      61.843  11.460   4.281  1.00  0.00    -0.644 OA
HETATM   17  O   UNL     1      63.079  11.287   6.131  1.00  0.00    -0.644 OA
ENDBRANCH   7  15
TORSDOF 1
ENDMDL
MODEL 3
REMARK VINA RESULT:      -5.7      4.082      6.409
REMARK  1 active torsions:
REMARK  status: ('A' for Active; 'I' for Inactive)
REMARK    1  A    between atoms: C_7  and  C_8 
ROOT
HETATM    1  N   UNL     1      67.543   4.190   5.519  1.00  0.00    -0.358 N 
HETATM    2  C   UNL     1      66.799   6.144   6.317  1.00  0.00    -0.000 A 
HETATM    3  C   UNL     1      67.665   5.551   7.276  1.00  0.00    -0.023 A 
HETATM    4  C   UNL     1      68.099   4.348   6.757  1.00  0.00     0.017 A 
HETATM    5  C   UNL     1      66.739   5.272   5.226  1.00  0.00     0.043 A 
HETATM    6  C   UNL     1      66.043   7.334   6.278  1.00  0.00     0.032 A 
HETATM    7  C   UNL     1      65.258   7.611   5.148  1.00  0.00     0.041 A 
HETATM    8  C   UNL     1      65.964   5.532   4.091  1.00  0.00     0.031 A 
HETATM    9  C   UNL     1      65.224   6.719   4.071  1.00  0.00     0.021 A 
HETATM   10  C   UNL     1      68.081   6.016   8.628  1.00  0.00     0.041 C 
HETATM   11  C   UNL     1      68.960   3.344   7.441  1.00  0.00     0.057 C 
HETATM   12  C   UNL     1      68.455   4.808   9.505  1.00  0.00     0.005 C 
HETATM   13  C   UNL     1      69.465   3.885   8.795  1.00  0.00     0.006 C 
HETATM   14  H   UNL     1      67.695   3.420   4.925  1.00  0.00     0.166 HD
ENDROOT
BRANCH   7  15
HETATM   15  C   UNL     1      64.436   8.846   5.055  1.00  0.00     0.209 C 
HETATM   16  O   UNL     1      63.484   9.014   4.317  1.00  0.00    -0.644 OA
HETATM   17  O   UNL     1      64.847   9.812   5.893  1.00  0.00    -0.644 OA
ENDBRANCH   7  15
TORSDOF 1
ENDMDL
MODEL 4
REMARK VINA RESULT:      -5.7      3.575      5.992
REMARK  1 active torsions:
REMARK  status: ('A' for Active; 'I' for Inactive)
REMARK    1  A    between atoms: C_7  and  C_8 
ROOT
HETATM    1  N   UNL     1      66.327   3.066   8.085  1.00  0.00    -0.358 N 
HETATM    2  C   UNL     1      67.426   4.930   7.518  1.00  0.00    -0.000 A 
HETATM    3  C   UNL     1      68.272   4.119   8.323  1.00  0.00    -0.023 A 
HETATM    4  C   UNL     1      67.563   2.985   8.661  1.00  0.00     0.017 A 
HETATM    5  C   UNL     1      66.214   4.249   7.384  1.00  0.00     0.043 A 
HETATM    6  C   UNL     1      67.569   6.191   6.902  1.00  0.00     0.032 A 
HETATM    7  C   UNL     1      66.494   6.723   6.171  1.00  0.00     0.041 A 
HETATM    8  C   UNL     1      65.133   4.761   6.658  1.00  0.00     0.031 A 
HETATM    9  C   UNL     1      65.296   6.012   6.053  1.00  0.00     0.021 A 
HETATM   10  C   UNL     1      69.662   4.348   8.808  1.00  0.00     0.041 C 
HETATM   11  C   UNL     1      68.017   1.888   9.559  1.00  0.00     0.057 C 
HETATM   12  C   UNL     1      69.895   3.567  10.114  1.00  0.00     0.005 C 
HETATM   13  C   UNL     1      69.492   2.087   9.968  1.00  0.00     0.006 C 
HETATM   14  H   UNL     1      65.622   2.382   8.159  1.00  0.00     0.166 HD
ENDROOT
BRANCH   7  15
HETATM   15  C   UNL     1      66.586   8.049   5.508  1.00  0.00     0.209 C 
HETATM   16  O   UNL     1      67.422   8.380   4.689  1.00  0.00    -0.644 OA
HETATM   17  O   UNL     1      65.624   8.900   5.902  1.00  0.00    -0.644 OA
ENDBRANCH   7  15
TORSDOF 1
ENDMDL
MODEL 5
REMARK VINA RESULT:      -5.7      6.285      8.920
REMARK  1 active torsions:
REMARK  status: ('A' for Active; 'I' for Inactive)
REMARK    1  A    between atoms: C_7  and  C_8 
ROOT
HETATM    1  N   UNL     1      64.376   9.242   5.615  1.00  0.00    -0.358 N 
HETATM    2  C   UNL     1      63.837   8.063   3.791  1.00  0.00    -0.000 A 
HETATM    3  C   UNL     1      64.965   7.463   4.415  1.00  0.00    -0.023 A 
HETATM    4  C   UNL     1      65.274   8.218   5.529  1.00  0.00     0.017 A 
HETATM    5  C   UNL     1      63.487   9.175   4.562  1.00  0.00     0.043 A 
HETATM    6  C   UNL     1      63.086   7.776   2.632  1.00  0.00     0.032 A 
HETATM    7  C   UNL     1      62.011   8.610   2.287  1.00  0.00     0.041 A 
HETATM    8  C   UNL     1      62.418  10.017   4.235  1.00  0.00     0.031 A 
HETATM    9  C   UNL     1      61.685   9.713   3.083  1.00  0.00     0.021 A 
HETATM   10  C   UNL     1      65.769   6.271   4.028  1.00  0.00     0.041 C 
HETATM   11  C   UNL     1      66.430   8.015   6.445  1.00  0.00     0.057 C 
HETATM   12  C   UNL     1      67.199   6.402   4.584  1.00  0.00     0.005 C 
HETATM   13  C   UNL     1      67.191   6.720   6.092  1.00  0.00     0.006 C 
HETATM   14  H   UNL     1      64.363   9.926   6.323  1.00  0.00     0.166 HD
ENDROOT
BRANCH   7  15
HETATM   15  C   UNL     1      61.190   8.360   1.073  1.00  0.00     0.209 C 
HETATM   16  O   UNL     1      59.978   8.431   1.006  1.00  0.00    -0.644 OA
HETATM   17  O   UNL     1      61.929   8.032   0.000  1.00  0.00    -0.644 OA
ENDBRANCH   7  15
TORSDOF 1
ENDMDL
MODEL 6
REMARK VINA RESULT:      -5.5      3.838      5.602
REMARK  1 active torsions:
REMARK  status: ('A' for Active; 'I' for Inactive)
REMARK    1  A    between atoms: C_7  and  C_8 
ROOT
HETATM    1  N   UNL     1      67.728   3.568   9.089  1.00  0.00    -0.358 N 
HETATM    2  C   UNL     1      67.607   4.657   7.138  1.00  0.00    -0.000 A 
HETATM    3  C   UNL     1      68.037   3.323   6.898  1.00  0.00    -0.023 A 
HETATM    4  C   UNL     1      68.108   2.683   8.119  1.00  0.00     0.017 A 
HETATM    5  C   UNL     1      67.421   4.785   8.517  1.00  0.00     0.043 A 
HETATM    6  C   UNL     1      67.373   5.778   6.314  1.00  0.00     0.032 A 
HETATM    7  C   UNL     1      66.959   6.985   6.899  1.00  0.00     0.041 A 
HETATM    8  C   UNL     1      67.007   5.979   9.118  1.00  0.00     0.031 A 
HETATM    9  C   UNL     1      66.778   7.078   8.283  1.00  0.00     0.021 A 
HETATM   10  C   UNL     1      68.403   2.634   5.630  1.00  0.00     0.041 C 
HETATM   11  C   UNL     1      68.588   1.297   8.368  1.00  0.00     0.057 C 
HETATM   12  C   UNL     1      69.388   1.488   5.923  1.00  0.00     0.005 C 
HETATM   13  C   UNL     1      68.864   0.563   7.039  1.00  0.00     0.006 C 
HETATM   14  H   UNL     1      67.681   3.366  10.051  1.00  0.00     0.166 HD
ENDROOT
BRANCH   7  15
HETATM   15  C   UNL     1      66.706   8.199   6.081  1.00  0.00     0.209 C 
HETATM   16  O   UNL     1      65.973   9.122   6.384  1.00  0.00    -0.644 OA
HETATM   17  O   UNL     1      67.383   8.200   4.920  1.00  0.00    -0.644 OA
ENDBRANCH   7  15
TORSDOF 1
ENDMDL
MODEL 7
REMARK VINA RESULT:      -5.4      1.867      2.668
REMARK  1 active torsions:
REMARK  status: ('A' for Active; 'I' for Inactive)
REMARK    1  A    between atoms: C_7  and  C_8 
ROOT
HETATM    1  N   UNL     1      66.538   4.406   5.162  1.00  0.00    -0.358 N 
HETATM    2  C   UNL     1      67.620   5.342   6.883  1.00  0.00    -0.000 A 
HETATM    3  C   UNL     1      66.711   6.289   6.336  1.00  0.00    -0.023 A 
HETATM    4  C   UNL     1      66.068   5.684   5.275  1.00  0.00     0.017 A 
HETATM    5  C   UNL     1      67.493   4.171   6.130  1.00  0.00     0.043 A 
HETATM    6  C   UNL     1      68.554   5.373   7.939  1.00  0.00     0.032 A 
HETATM    7  C   UNL     1      69.325   4.230   8.207  1.00  0.00     0.041 A 
HETATM    8  C   UNL     1      68.250   3.022   6.382  1.00  0.00     0.031 A 
HETATM    9  C   UNL     1      69.170   3.073   7.436  1.00  0.00     0.021 A 
HETATM   10  C   UNL     1      66.433   7.701   6.718  1.00  0.00     0.041 C 
HETATM   11  C   UNL     1      65.088   6.318   4.352  1.00  0.00     0.057 C 
HETATM   12  C   UNL     1      65.908   8.479   5.498  1.00  0.00     0.005 C 
HETATM   13  C   UNL     1      64.734   7.745   4.822  1.00  0.00     0.006 C 
HETATM   14  H   UNL     1      66.240   3.751   4.491  1.00  0.00     0.166 HD
ENDROOT
BRANCH   7  15
HETATM   15  C   UNL     1      70.330   4.208   9.301  1.00  0.00     0.209 C 
HETATM   16  O   UNL     1      71.431   4.724   9.268  1.00  0.00    -0.644 OA
HETATM   17  O   UNL     1      69.906   3.541  10.388  1.00  0.00    -0.644 OA
ENDBRANCH   7  15
TORSDOF 1
ENDMDL
MODEL 8
REMARK VINA RESULT:      -5.3      5.600      7.690
REMARK  1 active torsions:
REMARK  status: ('A' for Active; 'I' for Inactive)
REMARK    1  A    between atoms: C_7  and  C_8 
ROOT
HETATM    1  N   UNL     1      60.818   6.997   4.308  1.00  0.00    -0.358 N 
HETATM    2  C   UNL     1      62.835   7.890   3.929  1.00  0.00    -0.000 A 
HETATM    3  C   UNL     1      62.004   8.123   2.799  1.00  0.00    -0.023 A 
HETATM    4  C   UNL     1      60.775   7.554   3.062  1.00  0.00     0.017 A 
HETATM    5  C   UNL     1      62.069   7.183   4.860  1.00  0.00     0.043 A 
HETATM    6  C   UNL     1      64.174   8.198   4.245  1.00  0.00     0.032 A 
HETATM    7  C   UNL     1      64.698   7.792   5.483  1.00  0.00     0.041 A 
HETATM    8  C   UNL     1      62.572   6.771   6.099  1.00  0.00     0.031 A 
HETATM    9  C   UNL     1      63.902   7.089   6.394  1.00  0.00     0.021 A 
HETATM   10  C   UNL     1      62.292   8.804   1.506  1.00  0.00     0.041 C 
HETATM   11  C   UNL     1      59.614   7.480   2.133  1.00  0.00     0.057 C 
HETATM   12  C   UNL     1      61.369   8.250   0.406  1.00  0.00     0.005 C 
HETATM   13  C   UNL     1      59.891   8.278   0.841  1.00  0.00     0.006 C 
HETATM   14  H   UNL     1      60.069   6.533   4.747  1.00  0.00     0.166 HD
ENDROOT
BRANCH   7  15
HETATM   15  C   UNL     1      66.104   8.083   5.866  1.00  0.00     0.209 C 
HETATM   16  O   UNL     1      66.460   8.865   6.726  1.00  0.00    -0.644 OA
HETATM   17  O   UNL     1      66.998   7.378   5.152  1.00  0.00    -0.644 OA
ENDBRANCH   7  15
TORSDOF 1
ENDMDL
MODEL 9
REMARK VINA RESULT:      -5.3     22.102     24.174
REMARK  1 active torsions:
REMARK  status: ('A' for Active; 'I' for Inactive)
REMARK    1  A    between atoms: C_7  and  C_8 
ROOT
HETATM    1  N   UNL     1      47.595  18.159   3.098  1.00  0.00    -0.358 N 
HETATM    2  C   UNL     1      49.197  18.085   1.538  1.00  0.00    -0.000 A 
HETATM    3  C   UNL     1      49.009  19.433   1.946  1.00  0.00    -0.023 A 
HETATM    4  C   UNL     1      48.012  19.444   2.900  1.00  0.00     0.017 A 
HETATM    5  C   UNL     1      48.299  17.306   2.274  1.00  0.00     0.043 A 
HETATM    6  C   UNL     1      50.035  17.449   0.598  1.00  0.00     0.032 A 
HETATM    7  C   UNL     1      49.948  16.058   0.431  1.00  0.00     0.041 A 
HETATM    8  C   UNL     1      48.199  15.919   2.123  1.00  0.00     0.031 A 
HETATM    9  C   UNL     1      49.041  15.308   1.187  1.00  0.00     0.021 A 
HETATM   10  C   UNL     1      49.670  20.687   1.489  1.00  0.00     0.041 C 
HETATM   11  C   UNL     1      47.422  20.644   3.555  1.00  0.00     0.057 C 
HETATM   12  C   UNL     1      48.728  21.884   1.707  1.00  0.00     0.005 C 
HETATM   13  C   UNL     1      48.186  21.923   3.149  1.00  0.00     0.006 C 
HETATM   14  H   UNL     1      46.896  17.882   3.734  1.00  0.00     0.166 HD
ENDROOT
BRANCH   7  15
HETATM   15  C   UNL     1      50.801  15.337  -0.549  1.00  0.00     0.209 C 
HETATM   16  O   UNL     1      51.949  14.978  -0.366  1.00  0.00    -0.644 OA
HETATM   17  O   UNL     1      50.175  15.101  -1.714  1.00  0.00    -0.644 OA
ENDBRANCH   7  15
TORSDOF 1
ENDMDL
