MODEL 1
REMARK VINA RESULT:      -6.2      0.000      0.000
REMARK  1 active torsions:
REMARK  status: ('A' for Active; 'I' for Inactive)
REMARK    1  A    between atoms: C_3  and  C_9 
ROOT
HETATM    1  N   UNL     1      63.214   9.982   5.915  1.00  0.00    -0.264 N 
ATOM      2  HN  UNL     1      63.535   9.954   6.883  1.00  0.00     0.194 HD
HETATM    3  C   UNL     1      63.267   8.962   5.025  1.00  0.00     0.050 A 
HETATM    4  C   UNL     1      62.756   9.414   3.827  1.00  0.00     0.028 A 
HETATM    5  O   UNL     1      62.674  11.010   5.309  1.00  0.00    -0.237 OA
HETATM    6  C   UNL     1      62.396  10.705   4.061  1.00  0.00     0.111 A 
HETATM    7  C   UNL     1      62.608   8.817   2.574  1.00  0.00     0.058 A 
HETATM    8  C   UNL     1      61.839  11.508   3.067  1.00  0.00     0.043 A 
HETATM    9  C   UNL     1      62.061   9.601   1.542  1.00  0.00     0.117 A 
HETATM   10  C   UNL     1      61.673  10.939   1.787  1.00  0.00     0.045 A 
HETATM   11  F   UNL     1      61.910   9.069   0.304  1.00  0.00    -0.206 F 
ENDROOT
BRANCH   3  12
HETATM   12  C   UNL     1      63.812   7.583   5.293  1.00  0.00     0.042 C 
HETATM   13  C   UNL     1      65.216   7.640   5.901  1.00  0.00     0.038 C 
HETATM   14  C   UNL     1      65.755   6.208   6.017  1.00  0.00     0.233 C 
HETATM   15  N   UNL     1      64.878   5.392   6.866  1.00  0.00    -0.075 N 
HETATM   16  C   UNL     1      63.500   5.338   6.348  1.00  0.00     0.233 C 
HETATM   17  H   UNL     1      65.251   4.443   6.909  1.00  0.00     0.277 HD
HETATM   18  H   UNL     1      64.849   5.819   7.793  1.00  0.00     0.277 HD
HETATM   19  C   UNL     1      62.906   6.749   6.216  1.00  0.00     0.038 C 
ENDBRANCH   3  12
TORSDOF 1
ENDMDL
MODEL 2
REMARK VINA RESULT:      -6.2      2.794      5.600
REMARK  1 active torsions:
REMARK  status: ('A' for Active; 'I' for Inactive)
REMARK    1  A    between atoms: C_3  and  C_9 
ROOT
HETATM    1  N   UNL     1      62.860   7.751   6.213  1.00  0.00    -0.264 N 
ATOM      2  HN  UNL     1      61.844   7.839   6.248  1.00  0.00     0.194 HD
HETATM    3  C   UNL     1      63.673   8.263   5.259  1.00  0.00     0.050 A 
HETATM    4  C   UNL     1      64.969   7.903   5.565  1.00  0.00     0.028 A 
HETATM    5  O   UNL     1      63.613   7.123   7.081  1.00  0.00    -0.237 OA
HETATM    6  C   UNL     1      64.875   7.190   6.720  1.00  0.00     0.111 A 
HETATM    7  C   UNL     1      66.188   8.114   4.920  1.00  0.00     0.058 A 
HETATM    8  C   UNL     1      65.994   6.643   7.343  1.00  0.00     0.043 A 
HETATM    9  C   UNL     1      67.340   7.565   5.514  1.00  0.00     0.117 A 
HETATM   10  C   UNL     1      67.246   6.837   6.722  1.00  0.00     0.045 A 
HETATM   11  F   UNL     1      68.547   7.733   4.918  1.00  0.00    -0.206 F 
ENDROOT
BRANCH   3  12
HETATM   12  C   UNL     1      63.236   9.067   4.061  1.00  0.00     0.042 C 
HETATM   13  C   UNL     1      62.572   8.183   3.002  1.00  0.00     0.038 C 
HETATM   14  C   UNL     1      62.280   9.042   1.765  1.00  0.00     0.233 C 
HETATM   15  N   UNL     1      61.390  10.159   2.109  1.00  0.00    -0.075 N 
HETATM   16  C   UNL     1      61.964  11.020   3.157  1.00  0.00     0.233 C 
HETATM   17  H   UNL     1      61.230  10.721   1.272  1.00  0.00     0.277 HD
HETATM   18  H   UNL     1      60.517   9.769   2.464  1.00  0.00     0.277 HD
HETATM   19  C   UNL     1      62.273  10.211   4.426  1.00  0.00     0.038 C 
ENDBRANCH   3  12
TORSDOF 1
ENDMDL
MODEL 3
REMARK VINA RESULT:      -5.8      2.315      2.916
REMARK  1 active torsions:
REMARK  status: ('A' for Active; 'I' for Inactive)
REMARK    1  A    between atoms: C_3  and  C_9 
ROOT
HETATM    1  N   UNL     1      63.719   6.850   3.189  1.00  0.00    -0.264 N 
ATOM      2  HN  UNL     1      64.072   5.898   3.094  1.00  0.00     0.194 HD
HETATM    3  C   UNL     1      63.874   7.657   4.266  1.00  0.00     0.050 A 
HETATM    4  C   UNL     1      63.230   8.848   4.004  1.00  0.00     0.028 A 
HETATM    5  O   UNL     1      63.032   7.514   2.292  1.00  0.00    -0.237 OA
HETATM    6  C   UNL     1      62.721   8.706   2.750  1.00  0.00     0.111 A 
HETATM    7  C   UNL     1      63.032  10.004   4.760  1.00  0.00     0.058 A 
HETATM    8  C   UNL     1      61.985   9.716   2.134  1.00  0.00     0.043 A 
HETATM    9  C   UNL     1      62.282  11.041   4.174  1.00  0.00     0.117 A 
HETATM   10  C   UNL     1      61.764  10.901   2.866  1.00  0.00     0.045 A 
HETATM   11  F   UNL     1      62.052  12.179   4.875  1.00  0.00    -0.206 F 
ENDROOT
BRANCH   3  12
HETATM   12  C   UNL     1      64.604   7.304   5.537  1.00  0.00     0.042 C 
HETATM   13  C   UNL     1      64.750   5.789   5.700  1.00  0.00     0.038 C 
HETATM   14  C   UNL     1      65.376   5.506   7.072  1.00  0.00     0.233 C 
HETATM   15  N   UNL     1      66.692   6.147   7.183  1.00  0.00    -0.075 N 
HETATM   16  C   UNL     1      66.614   7.605   6.991  1.00  0.00     0.233 C 
HETATM   17  H   UNL     1      67.074   5.956   8.110  1.00  0.00     0.277 HD
HETATM   18  H   UNL     1      67.292   5.765   6.452  1.00  0.00     0.277 HD
HETATM   19  C   UNL     1      65.998   7.949   5.626  1.00  0.00     0.038 C 
ENDBRANCH   3  12
TORSDOF 1
ENDMDL
MODEL 4
REMARK VINA RESULT:      -5.8      2.852      5.251
REMARK  1 active torsions:
REMARK  status: ('A' for Active; 'I' for Inactive)
REMARK    1  A    between atoms: C_3  and  C_9 
ROOT
HETATM    1  N   UNL     1      64.094   9.379   5.409  1.00  0.00    -0.264 N 
ATOM      2  HN  UNL     1      63.369  10.072   5.592  1.00  0.00     0.194 HD
HETATM    3  C   UNL     1      64.046   8.398   4.476  1.00  0.00     0.050 A 
HETATM    4  C   UNL     1      65.211   7.665   4.567  1.00  0.00     0.028 A 
HETATM    5  O   UNL     1      65.241   9.276   6.034  1.00  0.00    -0.237 OA
HETATM    6  C   UNL     1      65.927   8.261   5.559  1.00  0.00     0.111 A 
HETATM    7  C   UNL     1      65.673   6.534   3.893  1.00  0.00     0.058 A 
HETATM    8  C   UNL     1      67.178   7.788   5.952  1.00  0.00     0.043 A 
HETATM    9  C   UNL     1      66.928   6.021   4.271  1.00  0.00     0.117 A 
HETATM   10  C   UNL     1      67.680   6.647   5.292  1.00  0.00     0.045 A 
HETATM   11  F   UNL     1      67.413   4.915   3.654  1.00  0.00    -0.206 F 
ENDROOT
BRANCH   3  12
HETATM   12  C   UNL     1      62.908   8.141   3.522  1.00  0.00     0.042 C 
HETATM   13  C   UNL     1      61.726   7.468   4.224  1.00  0.00     0.038 C 
HETATM   14  C   UNL     1      60.670   7.116   3.169  1.00  0.00     0.233 C 
HETATM   15  N   UNL     1      60.212   8.325   2.472  1.00  0.00    -0.075 N 
HETATM   16  C   UNL     1      61.320   9.036   1.812  1.00  0.00     0.233 C 
HETATM   17  H   UNL     1      59.525   8.057   1.766  1.00  0.00     0.277 HD
HETATM   18  H   UNL     1      59.802   8.952   3.164  1.00  0.00     0.277 HD
HETATM   19  C   UNL     1      62.409   9.420   2.826  1.00  0.00     0.038 C 
ENDBRANCH   3  12
TORSDOF 1
ENDMDL
MODEL 5
REMARK VINA RESULT:      -5.6      3.006      4.481
REMARK  1 active torsions:
REMARK  status: ('A' for Active; 'I' for Inactive)
REMARK    1  A    between atoms: C_3  and  C_9 
ROOT
HETATM    1  N   UNL     1      66.824   8.225   7.093  1.00  0.00    -0.264 N 
ATOM      2  HN  UNL     1      67.570   8.514   7.725  1.00  0.00     0.194 HD
HETATM    3  C   UNL     1      66.450   6.950   6.829  1.00  0.00     0.050 A 
HETATM    4  C   UNL     1      65.424   6.989   5.908  1.00  0.00     0.028 A 
HETATM    5  O   UNL     1      66.055   9.018   6.390  1.00  0.00    -0.237 OA
HETATM    6  C   UNL     1      65.213   8.312   5.668  1.00  0.00     0.111 A 
HETATM    7  C   UNL     1      64.697   5.991   5.258  1.00  0.00     0.058 A 
HETATM    8  C   UNL     1      64.244   8.754   4.770  1.00  0.00     0.043 A 
HETATM    9  C   UNL     1      63.717   6.400   4.334  1.00  0.00     0.117 A 
HETATM   10  C   UNL     1      63.488   7.775   4.094  1.00  0.00     0.045 A 
HETATM   11  F   UNL     1      62.994   5.467   3.666  1.00  0.00    -0.206 F 
ENDROOT
BRANCH   3  12
HETATM   12  C   UNL     1      67.063   5.708   7.422  1.00  0.00     0.042 C 
HETATM   13  C   UNL     1      67.882   4.934   6.386  1.00  0.00     0.038 C 
HETATM   14  C   UNL     1      68.357   3.621   7.022  1.00  0.00     0.233 C 
HETATM   15  N   UNL     1      69.182   3.890   8.207  1.00  0.00    -0.075 N 
HETATM   16  C   UNL     1      68.453   4.670   9.222  1.00  0.00     0.233 C 
HETATM   17  H   UNL     1      69.467   3.000   8.617  1.00  0.00     0.277 HD
HETATM   18  H   UNL     1      69.991   4.435   7.911  1.00  0.00     0.277 HD
HETATM   19  C   UNL     1      67.957   6.003   8.639  1.00  0.00     0.038 C 
ENDBRANCH   3  12
TORSDOF 1
ENDMDL
MODEL 6
REMARK VINA RESULT:      -5.5      4.352      6.302
REMARK  1 active torsions:
REMARK  status: ('A' for Active; 'I' for Inactive)
REMARK    1  A    between atoms: C_3  and  C_9 
ROOT
HETATM    1  N   UNL     1      65.690   4.584   7.873  1.00  0.00    -0.264 N 
ATOM      2  HN  UNL     1      65.455   3.875   8.568  1.00  0.00     0.194 HD
HETATM    3  C   UNL     1      66.936   4.913   7.456  1.00  0.00     0.050 A 
HETATM    4  C   UNL     1      66.822   5.928   6.530  1.00  0.00     0.028 A 
HETATM    5  O   UNL     1      64.841   5.340   7.221  1.00  0.00    -0.237 OA
HETATM    6  C   UNL     1      65.485   6.156   6.417  1.00  0.00     0.111 A 
HETATM    7  C   UNL     1      67.764   6.669   5.816  1.00  0.00     0.058 A 
HETATM    8  C   UNL     1      64.972   7.133   5.567  1.00  0.00     0.043 A 
HETATM    9  C   UNL     1      67.284   7.674   4.956  1.00  0.00     0.117 A 
HETATM   10  C   UNL     1      65.894   7.903   4.827  1.00  0.00     0.045 A 
HETATM   11  F   UNL     1      68.162   8.430   4.251  1.00  0.00    -0.206 F 
ENDROOT
BRANCH   3  12
HETATM   12  C   UNL     1      68.222   4.293   7.939  1.00  0.00     0.042 C 
HETATM   13  C   UNL     1      69.083   5.302   8.702  1.00  0.00     0.038 C 
HETATM   14  C   UNL     1      70.425   4.641   9.039  1.00  0.00     0.233 C 
HETATM   15  N   UNL     1      70.219   3.442   9.862  1.00  0.00    -0.075 N 
HETATM   16  C   UNL     1      69.360   2.452   9.191  1.00  0.00     0.233 C 
HETATM   17  H   UNL     1      71.125   3.016  10.055  1.00  0.00     0.277 HD
HETATM   18  H   UNL     1      69.756   3.728  10.725  1.00  0.00     0.277 HD
HETATM   19  C   UNL     1      67.995   3.060   8.833  1.00  0.00     0.038 C 
ENDBRANCH   3  12
TORSDOF 1
ENDMDL
MODEL 7
REMARK VINA RESULT:      -5.4      0.727      1.399
REMARK  1 active torsions:
REMARK  status: ('A' for Active; 'I' for Inactive)
REMARK    1  A    between atoms: C_3  and  C_9 
ROOT
HETATM    1  N   UNL     1      63.327  10.180   5.743  1.00  0.00    -0.264 N 
ATOM      2  HN  UNL     1      63.711  10.272   6.684  1.00  0.00     0.194 HD
HETATM    3  C   UNL     1      63.333   9.059   4.984  1.00  0.00     0.050 A 
HETATM    4  C   UNL     1      62.739   9.359   3.775  1.00  0.00     0.028 A 
HETATM    5  O   UNL     1      62.739  11.124   5.052  1.00  0.00    -0.237 OA
HETATM    6  C   UNL     1      62.382  10.668   3.872  1.00  0.00     0.111 A 
HETATM    7  C   UNL     1      62.517   8.612   2.618  1.00  0.00     0.058 A 
HETATM    8  C   UNL     1      61.754  11.341   2.826  1.00  0.00     0.043 A 
HETATM    9  C   UNL     1      61.895   9.262   1.536  1.00  0.00     0.117 A 
HETATM   10  C   UNL     1      61.510  10.619   1.640  1.00  0.00     0.045 A 
HETATM   11  F   UNL     1      61.669   8.582   0.385  1.00  0.00    -0.206 F 
ENDROOT
BRANCH   3  12
HETATM   12  C   UNL     1      63.908   7.724   5.382  1.00  0.00     0.042 C 
HETATM   13  C   UNL     1      62.812   6.671   5.566  1.00  0.00     0.038 C 
HETATM   14  C   UNL     1      63.457   5.386   6.101  1.00  0.00     0.233 C 
HETATM   15  N   UNL     1      64.473   4.888   5.164  1.00  0.00    -0.075 N 
HETATM   16  C   UNL     1      65.532   5.881   4.918  1.00  0.00     0.233 C 
HETATM   17  H   UNL     1      64.895   4.045   5.554  1.00  0.00     0.277 HD
HETATM   18  H   UNL     1      64.012   4.691   4.275  1.00  0.00     0.277 HD
HETATM   19  C   UNL     1      64.942   7.191   4.374  1.00  0.00     0.038 C 
ENDBRANCH   3  12
TORSDOF 1
ENDMDL
MODEL 8
REMARK VINA RESULT:      -5.4      4.018      6.841
REMARK  1 active torsions:
REMARK  status: ('A' for Active; 'I' for Inactive)
REMARK    1  A    between atoms: C_3  and  C_9 
ROOT
HETATM    1  N   UNL     1      66.839   5.720   4.621  1.00  0.00    -0.264 N 
ATOM      2  HN  UNL     1      66.757   5.641   3.607  1.00  0.00     0.194 HD
HETATM    3  C   UNL     1      65.967   6.345   5.448  1.00  0.00     0.050 A 
HETATM    4  C   UNL     1      66.453   6.244   6.735  1.00  0.00     0.028 A 
HETATM    5  O   UNL     1      67.807   5.234   5.358  1.00  0.00    -0.237 OA
HETATM    6  C   UNL     1      67.609   5.535   6.622  1.00  0.00     0.111 A 
HETATM    7  C   UNL     1      65.997   6.731   7.960  1.00  0.00     0.058 A 
HETATM    8  C   UNL     1      68.401   5.235   7.728  1.00  0.00     0.043 A 
HETATM    9  C   UNL     1      66.778   6.458   9.098  1.00  0.00     0.117 A 
HETATM   10  C   UNL     1      67.972   5.709   8.985  1.00  0.00     0.045 A 
HETATM   11  F   UNL     1      66.383   6.922  10.310  1.00  0.00    -0.206 F 
ENDROOT
BRANCH   3  12
HETATM   12  C   UNL     1      64.701   7.047   5.030  1.00  0.00     0.042 C 
HETATM   13  C   UNL     1      64.840   8.567   5.132  1.00  0.00     0.038 C 
HETATM   14  C   UNL     1      63.478   9.203   4.825  1.00  0.00     0.233 C 
HETATM   15  N   UNL     1      63.027   8.834   3.477  1.00  0.00    -0.075 N 
HETATM   16  C   UNL     1      62.916   7.375   3.311  1.00  0.00     0.233 C 
HETATM   17  H   UNL     1      62.113   9.255   3.309  1.00  0.00     0.277 HD
HETATM   18  H   UNL     1      63.718   9.176   2.808  1.00  0.00     0.277 HD
HETATM   19  C   UNL     1      64.258   6.684   3.601  1.00  0.00     0.038 C 
ENDBRANCH   3  12
TORSDOF 1
ENDMDL
MODEL 9
REMARK VINA RESULT:      -5.3      5.523      7.260
REMARK  1 active torsions:
REMARK  status: ('A' for Active; 'I' for Inactive)
REMARK    1  A    between atoms: C_3  and  C_9 
ROOT
HETATM    1  N   UNL     1      67.865   3.186   5.804  1.00  0.00    -0.264 N 
ATOM      2  HN  UNL     1      68.072   2.188   5.849  1.00  0.00     0.194 HD
HETATM    3  C   UNL     1      67.865   4.050   6.847  1.00  0.00     0.050 A 
HETATM    4  C   UNL     1      67.514   5.295   6.369  1.00  0.00     0.028 A 
HETATM    5  O   UNL     1      67.552   3.864   4.727  1.00  0.00    -0.237 OA
HETATM    6  C   UNL     1      67.331   5.123   5.032  1.00  0.00     0.111 A 
HETATM    7  C   UNL     1      67.317   6.528   6.993  1.00  0.00     0.058 A 
HETATM    8  C   UNL     1      66.953   6.173   4.197  1.00  0.00     0.043 A 
HETATM    9  C   UNL     1      66.923   7.609   6.183  1.00  0.00     0.117 A 
HETATM   10  C   UNL     1      66.746   7.435   4.791  1.00  0.00     0.045 A 
HETATM   11  F   UNL     1      66.707   8.825   6.745  1.00  0.00    -0.206 F 
ENDROOT
BRANCH   3  12
HETATM   12  C   UNL     1      68.174   3.705   8.281  1.00  0.00     0.042 C 
HETATM   13  C   UNL     1      67.981   2.211   8.555  1.00  0.00     0.038 C 
HETATM   14  C   UNL     1      68.178   1.962  10.056  1.00  0.00     0.233 C 
HETATM   15  N   UNL     1      69.524   2.375  10.476  1.00  0.00    -0.075 N 
HETATM   16  C   UNL     1      69.778   3.798  10.196  1.00  0.00     0.233 C 
HETATM   17  H   UNL     1      69.619   2.214  11.479  1.00  0.00     0.277 HD
HETATM   18  H   UNL     1      70.202   1.824   9.949  1.00  0.00     0.277 HD
HETATM   19  C   UNL     1      69.599   4.105   8.701  1.00  0.00     0.038 C 
ENDBRANCH   3  12
TORSDOF 1
ENDMDL
