MODEL 1
REMARK VINA RESULT:      -4.7      0.000      0.000
REMARK  0 active torsions:
REMARK  status: ('A' for Active; 'I' for Inactive)
ROOT
HETATM    1  N   UNL     1      77.788   9.087  17.973  1.00  0.00    -0.190 NA
HETATM    2  C   UNL     1      77.673  11.204  19.469  1.00  0.00     0.152 A 
HETATM    3  C   UNL     1      77.736  10.029  18.654  1.00  0.00     0.121 C 
HETATM    4  N   UNL     1      78.459  11.205  20.582  1.00  0.00    -0.355 N 
ATOM      5  HN  UNL     1      79.030  10.398  20.835  1.00  0.00     0.166 HD
HETATM    6  C   UNL     1      76.875  12.276  19.103  1.00  0.00     0.153 A 
HETATM    7  F   UNL     1      76.103  12.236  18.008  1.00  0.00    -0.203 F 
HETATM    8  C   UNL     1      78.445  12.327  21.335  1.00  0.00     0.089 A 
HETATM    9  C   UNL     1      76.886  13.420  19.890  1.00  0.00     0.047 A 
HETATM   10  C   UNL     1      77.692  13.451  21.026  1.00  0.00     0.020 A 
ENDROOT
TORSDOF 0
ENDMDL
MODEL 2
REMARK VINA RESULT:      -4.4     12.819     13.826
REMARK  0 active torsions:
REMARK  status: ('A' for Active; 'I' for Inactive)
ROOT
HETATM    1  N   UNL     1      75.021  21.988  14.947  1.00  0.00    -0.190 NA
HETATM    2  C   UNL     1      72.717  23.157  14.711  1.00  0.00     0.152 A 
HETATM    3  C   UNL     1      73.987  22.513  14.854  1.00  0.00     0.121 C 
HETATM    4  N   UNL     1      72.542  24.305  15.423  1.00  0.00    -0.355 N 
ATOM      5  HN  UNL     1      73.264  24.662  16.048  1.00  0.00     0.166 HD
HETATM    6  C   UNL     1      71.752  22.634  13.864  1.00  0.00     0.153 A 
HETATM    7  F   UNL     1      71.951  21.495  13.188  1.00  0.00    -0.203 F 
HETATM    8  C   UNL     1      71.364  24.948  15.260  1.00  0.00     0.089 A 
HETATM    9  C   UNL     1      70.554  23.320  13.709  1.00  0.00     0.047 A 
HETATM   10  C   UNL     1      70.356  24.504  14.416  1.00  0.00     0.020 A 
ENDROOT
TORSDOF 0
ENDMDL
MODEL 3
REMARK VINA RESULT:      -4.3     10.227     11.099
REMARK  0 active torsions:
REMARK  status: ('A' for Active; 'I' for Inactive)
ROOT
HETATM    1  N   UNL     1      76.896  20.713  16.912  1.00  0.00    -0.190 NA
HETATM    2  C   UNL     1      78.922  21.390  15.440  1.00  0.00     0.152 A 
HETATM    3  C   UNL     1      77.798  21.027  16.249  1.00  0.00     0.121 C 
HETATM    4  N   UNL     1      79.362  22.674  15.565  1.00  0.00    -0.355 N 
ATOM      5  HN  UNL     1      78.893  23.343  16.175  1.00  0.00     0.166 HD
HETATM    6  C   UNL     1      79.525  20.458  14.611  1.00  0.00     0.153 A 
HETATM    7  F   UNL     1      79.057  19.207  14.501  1.00  0.00    -0.203 F 
HETATM    8  C   UNL     1      80.452  23.015  14.842  1.00  0.00     0.089 A 
HETATM    9  C   UNL     1      80.648  20.833  13.885  1.00  0.00     0.047 A 
HETATM   10  C   UNL     1      81.127  22.136  14.006  1.00  0.00     0.020 A 
ENDROOT
TORSDOF 0
ENDMDL
MODEL 4
REMARK VINA RESULT:      -4.2      7.735      9.017
REMARK  0 active torsions:
REMARK  status: ('A' for Active; 'I' for Inactive)
ROOT
HETATM    1  N   UNL     1      76.767   0.325  18.109  1.00  0.00    -0.190 NA
HETATM    2  C   UNL     1      76.274   2.828  17.633  1.00  0.00     0.152 A 
HETATM    3  C   UNL     1      76.548   1.450  17.908  1.00  0.00     0.121 C 
HETATM    4  N   UNL     1      77.177   3.728  18.115  1.00  0.00    -0.355 N 
ATOM      5  HN  UNL     1      77.980   3.434  18.670  1.00  0.00     0.166 HD
HETATM    6  C   UNL     1      75.163   3.191  16.888  1.00  0.00     0.153 A 
HETATM    7  F   UNL     1      74.288   2.281  16.441  1.00  0.00    -0.203 F 
HETATM    8  C   UNL     1      76.954   5.028  17.822  1.00  0.00     0.089 A 
HETATM    9  C   UNL     1      74.963   4.534  16.595  1.00  0.00     0.047 A 
HETATM   10  C   UNL     1      75.879   5.473  17.064  1.00  0.00     0.020 A 
ENDROOT
TORSDOF 0
ENDMDL
MODEL 5
REMARK VINA RESULT:      -4.1     15.794     17.056
REMARK  0 active torsions:
REMARK  status: ('A' for Active; 'I' for Inactive)
ROOT
HETATM    1  N   UNL     1      65.776   8.607   6.015  1.00  0.00    -0.190 NA
HETATM    2  C   UNL     1      67.157   6.786   7.243  1.00  0.00     0.152 A 
HETATM    3  C   UNL     1      66.402   7.800   6.571  1.00  0.00     0.121 C 
HETATM    4  N   UNL     1      67.320   6.949   8.586  1.00  0.00    -0.355 N 
ATOM      5  HN  UNL     1      66.953   7.767   9.074  1.00  0.00     0.166 HD
HETATM    6  C   UNL     1      67.654   5.697   6.545  1.00  0.00     0.153 A 
HETATM    7  F   UNL     1      67.488   5.574   5.221  1.00  0.00    -0.203 F 
HETATM    8  C   UNL     1      67.990   5.975   9.240  1.00  0.00     0.089 A 
HETATM    9  C   UNL     1      68.332   4.706   7.243  1.00  0.00     0.047 A 
HETATM   10  C   UNL     1      68.500   4.843   8.619  1.00  0.00     0.020 A 
ENDROOT
TORSDOF 0
ENDMDL
MODEL 6
REMARK VINA RESULT:      -4.0     20.905     21.955
REMARK  0 active torsions:
REMARK  status: ('A' for Active; 'I' for Inactive)
ROOT
HETATM    1  N   UNL     1      63.017   7.623   6.671  1.00  0.00    -0.190 NA
HETATM    2  C   UNL     1      62.530   8.764   4.392  1.00  0.00     0.152 A 
HETATM    3  C   UNL     1      62.808   8.128   5.644  1.00  0.00     0.121 C 
HETATM    4  N   UNL     1      62.447   7.944   3.307  1.00  0.00    -0.355 N 
ATOM      5  HN  UNL     1      62.610   6.941   3.382  1.00  0.00     0.166 HD
HETATM    6  C   UNL     1      62.330  10.134   4.326  1.00  0.00     0.153 A 
HETATM    7  F   UNL     1      62.432  10.914   5.411  1.00  0.00    -0.203 F 
HETATM    8  C   UNL     1      62.139   8.528   2.128  1.00  0.00     0.089 A 
HETATM    9  C   UNL     1      62.006  10.706   3.103  1.00  0.00     0.047 A 
HETATM   10  C   UNL     1      61.902   9.887   1.980  1.00  0.00     0.020 A 
ENDROOT
TORSDOF 0
ENDMDL
MODEL 7
REMARK VINA RESULT:      -4.0     15.452     16.194
REMARK  0 active torsions:
REMARK  status: ('A' for Active; 'I' for Inactive)
ROOT
HETATM    1  N   UNL     1      68.237   1.154  10.730  1.00  0.00    -0.190 NA
HETATM    2  C   UNL     1      68.136   3.327   9.316  1.00  0.00     0.152 A 
HETATM    3  C   UNL     1      68.187   2.122  10.086  1.00  0.00     0.121 C 
HETATM    4  N   UNL     1      66.993   3.536   8.603  1.00  0.00    -0.355 N 
ATOM      5  HN  UNL     1      66.236   2.853   8.594  1.00  0.00     0.166 HD
HETATM    6  C   UNL     1      69.191   4.225   9.339  1.00  0.00     0.153 A 
HETATM    7  F   UNL     1      70.306   3.982  10.041  1.00  0.00    -0.203 F 
HETATM    8  C   UNL     1      66.913   4.692   7.909  1.00  0.00     0.089 A 
HETATM    9  C   UNL     1      69.078   5.410   8.623  1.00  0.00     0.047 A 
HETATM   10  C   UNL     1      67.915   5.654   7.897  1.00  0.00     0.020 A 
ENDROOT
TORSDOF 0
ENDMDL
MODEL 8
REMARK VINA RESULT:      -3.9     19.759     20.732
REMARK  0 active torsions:
REMARK  status: ('A' for Active; 'I' for Inactive)
ROOT
HETATM    1  N   UNL     1      65.897   7.467   5.659  1.00  0.00    -0.190 NA
HETATM    2  C   UNL     1      63.966   9.027   4.904  1.00  0.00     0.152 A 
HETATM    3  C   UNL     1      65.027   8.167   5.332  1.00  0.00     0.121 C 
HETATM    4  N   UNL     1      63.727  10.119   5.683  1.00  0.00    -0.355 N 
ATOM      5  HN  UNL     1      64.254  10.291   6.539  1.00  0.00     0.166 HD
HETATM    6  C   UNL     1      63.261   8.754   3.743  1.00  0.00     0.153 A 
HETATM    7  F   UNL     1      63.512   7.662   3.007  1.00  0.00    -0.203 F 
HETATM    8  C   UNL     1      62.760  10.964   5.264  1.00  0.00     0.089 A 
HETATM    9  C   UNL     1      62.277   9.644   3.331  1.00  0.00     0.047 A 
HETATM   10  C   UNL     1      62.023  10.776   4.102  1.00  0.00     0.020 A 
ENDROOT
TORSDOF 0
ENDMDL
MODEL 9
REMARK VINA RESULT:      -3.9     22.049     22.789
REMARK  0 active torsions:
REMARK  status: ('A' for Active; 'I' for Inactive)
ROOT
HETATM    1  N   UNL     1      63.288   6.446   2.824  1.00  0.00    -0.190 NA
HETATM    2  C   UNL     1      62.524   8.922   2.948  1.00  0.00     0.152 A 
HETATM    3  C   UNL     1      62.938   7.553   2.889  1.00  0.00     0.121 C 
HETATM    4  N   UNL     1      62.514   9.494   4.185  1.00  0.00    -0.355 N 
ATOM      5  HN  UNL     1      62.753   8.963   5.021  1.00  0.00     0.166 HD
HETATM    6  C   UNL     1      62.190   9.609   1.791  1.00  0.00     0.153 A 
HETATM    7  F   UNL     1      62.198   9.012   0.591  1.00  0.00    -0.203 F 
HETATM    8  C   UNL     1      62.170  10.799   4.247  1.00  0.00     0.089 A 
HETATM    9  C   UNL     1      61.849  10.952   1.884  1.00  0.00     0.047 A 
HETATM   10  C   UNL     1      61.844  11.563   3.135  1.00  0.00     0.020 A 
ENDROOT
TORSDOF 0
ENDMDL
