MODEL 1
REMARK VINA RESULT:      -5.6      0.000      0.000
REMARK  1 active torsions:
REMARK  status: ('A' for Active; 'I' for Inactive)
REMARK    1  A    between atoms: N_1  and  C_4 
ROOT
HETATM    1  N   UNL     1      78.020  10.564  14.902  1.00  0.00    -0.191 NA
HETATM    2  C   UNL     1      77.702   9.536  15.347  1.00  0.00     0.099 C 
HETATM    3  C   UNL     1      76.448   5.796  16.963  1.00  0.00     0.030 A 
HETATM    4  C   UNL     1      76.585   5.992  15.580  1.00  0.00     0.031 A 
HETATM    5  C   UNL     1      76.774   6.878  17.792  1.00  0.00     0.031 A 
HETATM    6  C   UNL     1      77.302   8.276  15.890  1.00  0.00     0.044 A 
HETATM    7  C   UNL     1      77.202   8.105  17.272  1.00  0.00     0.025 A 
HETATM    8  C   UNL     1      76.995   7.215  15.046  1.00  0.00     0.025 A 
ENDROOT
BRANCH   3   9
HETATM    9  N   UNL     1      76.011   4.597  17.482  1.00  0.00    -0.378 N 
HETATM   10  C   UNL     1      76.798   3.831  18.458  1.00  0.00     0.150 C 
HETATM   11  C   UNL     1      77.103   2.411  17.940  1.00  0.00     0.252 C 
HETATM   12  N   UNL     1      75.903   1.676  17.486  1.00  0.00    -0.072 N 
HETATM   13  C   UNL     1      75.210   2.485  16.460  1.00  0.00     0.252 C 
HETATM   14  H   UNL     1      75.279   1.516  18.277  1.00  0.00     0.277 HD
HETATM   15  H   UNL     1      76.176   0.775  17.093  1.00  0.00     0.277 HD
HETATM   16  C   UNL     1      74.833   3.910  16.932  1.00  0.00     0.150 C 
ENDBRANCH   3   9
TORSDOF 1
ENDMDL
MODEL 2
REMARK VINA RESULT:      -5.3      2.276      3.892
REMARK  1 active torsions:
REMARK  status: ('A' for Active; 'I' for Inactive)
REMARK    1  A    between atoms: N_1  and  C_4 
ROOT
HETATM    1  N   UNL     1      77.152   7.382  17.770  1.00  0.00    -0.191 NA
HETATM    2  C   UNL     1      76.723   6.312  17.613  1.00  0.00     0.099 C 
HETATM    3  C   UNL     1      75.089   2.406  17.110  1.00  0.00     0.030 A 
HETATM    4  C   UNL     1      74.472   3.539  16.559  1.00  0.00     0.031 A 
HETATM    5  C   UNL     1      76.288   2.614  17.808  1.00  0.00     0.031 A 
HETATM    6  C   UNL     1      76.186   5.000  17.426  1.00  0.00     0.044 A 
HETATM    7  C   UNL     1      76.841   3.890  17.964  1.00  0.00     0.025 A 
HETATM    8  C   UNL     1      75.003   4.821  16.721  1.00  0.00     0.025 A 
ENDROOT
BRANCH   3   9
HETATM    9  N   UNL     1      74.543   1.149  16.975  1.00  0.00    -0.378 N 
HETATM   10  C   UNL     1      74.329   0.260  18.125  1.00  0.00     0.150 C 
HETATM   11  C   UNL     1      75.075  -1.078  17.944  1.00  0.00     0.252 C 
HETATM   12  N   UNL     1      74.788  -1.747  16.657  1.00  0.00    -0.072 N 
HETATM   13  C   UNL     1      75.094  -0.808  15.556  1.00  0.00     0.252 C 
HETATM   14  H   UNL     1      73.804  -2.011  16.619  1.00  0.00     0.277 HD
HETATM   15  H   UNL     1      75.360  -2.586  16.567  1.00  0.00     0.277 HD
HETATM   16  C   UNL     1      74.341   0.541  15.652  1.00  0.00     0.150 C 
ENDBRANCH   3   9
TORSDOF 1
ENDMDL
MODEL 3
REMARK VINA RESULT:      -5.2     12.148     13.803
REMARK  1 active torsions:
REMARK  status: ('A' for Active; 'I' for Inactive)
REMARK    1  A    between atoms: N_1  and  C_4 
ROOT
HETATM    1  N   UNL     1      70.143   1.597  10.903  1.00  0.00    -0.191 NA
HETATM    2  C   UNL     1      69.631   2.319  10.147  1.00  0.00     0.099 C 
HETATM    3  C   UNL     1      67.672   4.948   7.422  1.00  0.00     0.030 A 
HETATM    4  C   UNL     1      68.073   5.375   8.697  1.00  0.00     0.031 A 
HETATM    5  C   UNL     1      67.974   3.624   7.072  1.00  0.00     0.031 A 
HETATM    6  C   UNL     1      68.993   3.207   9.226  1.00  0.00     0.044 A 
HETATM    7  C   UNL     1      68.631   2.758   7.954  1.00  0.00     0.025 A 
HETATM    8  C   UNL     1      68.715   4.517   9.593  1.00  0.00     0.025 A 
ENDROOT
BRANCH   3   9
HETATM    9  N   UNL     1      67.009   5.788   6.554  1.00  0.00    -0.378 N 
HETATM   10  C   UNL     1      67.596   7.050   6.083  1.00  0.00     0.150 C 
HETATM   11  C   UNL     1      66.696   8.252   6.436  1.00  0.00     0.252 C 
HETATM   12  N   UNL     1      65.292   8.088   6.001  1.00  0.00    -0.072 N 
HETATM   13  C   UNL     1      64.761   6.832   6.574  1.00  0.00     0.252 C 
HETATM   14  H   UNL     1      65.251   8.045   4.983  1.00  0.00     0.277 HD
HETATM   15  H   UNL     1      64.734   8.879   6.322  1.00  0.00     0.277 HD
HETATM   16  C   UNL     1      65.594   5.577   6.218  1.00  0.00     0.150 C 
ENDBRANCH   3   9
TORSDOF 1
ENDMDL
MODEL 4
REMARK VINA RESULT:      -4.9      6.175      8.746
REMARK  1 active torsions:
REMARK  status: ('A' for Active; 'I' for Inactive)
REMARK    1  A    between atoms: N_1  and  C_4 
ROOT
HETATM    1  N   UNL     1      77.280   8.635  16.700  1.00  0.00    -0.191 NA
HETATM    2  C   UNL     1      77.660   9.314  17.566  1.00  0.00     0.099 C 
HETATM    3  C   UNL     1      79.037  11.728  20.799  1.00  0.00     0.030 A 
HETATM    4  C   UNL     1      79.879  10.805  20.158  1.00  0.00     0.031 A 
HETATM    5  C   UNL     1      77.730  11.842  20.305  1.00  0.00     0.031 A 
HETATM    6  C   UNL     1      78.128  10.138  18.636  1.00  0.00     0.044 A 
HETATM    7  C   UNL     1      77.273  11.066  19.234  1.00  0.00     0.025 A 
HETATM    8  C   UNL     1      79.432  10.012  19.099  1.00  0.00     0.025 A 
ENDROOT
BRANCH   3   9
HETATM    9  N   UNL     1      79.473  12.483  21.865  1.00  0.00    -0.378 N 
HETATM   10  C   UNL     1      80.728  13.245  21.825  1.00  0.00     0.150 C 
HETATM   11  C   UNL     1      81.680  12.815  22.960  1.00  0.00     0.252 C 
HETATM   12  N   UNL     1      81.053  12.836  24.299  1.00  0.00    -0.072 N 
HETATM   13  C   UNL     1      79.838  11.993  24.267  1.00  0.00     0.252 C 
HETATM   14  H   UNL     1      80.800  13.793  24.544  1.00  0.00     0.277 HD
HETATM   15  H   UNL     1      81.707  12.478  24.995  1.00  0.00     0.277 HD
HETATM   16  C   UNL     1      78.817  12.401  23.178  1.00  0.00     0.150 C 
ENDBRANCH   3   9
TORSDOF 1
ENDMDL
MODEL 5
REMARK VINA RESULT:      -4.8     11.867     12.759
REMARK  1 active torsions:
REMARK  status: ('A' for Active; 'I' for Inactive)
REMARK    1  A    between atoms: N_1  and  C_4 
ROOT
HETATM    1  N   UNL     1      65.656   8.938   6.005  1.00  0.00    -0.191 NA
HETATM    2  C   UNL     1      66.183   7.975   6.392  1.00  0.00     0.099 C 
HETATM    3  C   UNL     1      68.193   4.493   7.809  1.00  0.00     0.030 A 
HETATM    4  C   UNL     1      67.809   5.526   8.677  1.00  0.00     0.031 A 
HETATM    5  C   UNL     1      67.857   4.644   6.456  1.00  0.00     0.031 A 
HETATM    6  C   UNL     1      66.838   6.798   6.870  1.00  0.00     0.044 A 
HETATM    7  C   UNL     1      67.182   5.776   5.984  1.00  0.00     0.025 A 
HETATM    8  C   UNL     1      67.150   6.668   8.218  1.00  0.00     0.025 A 
ENDROOT
BRANCH   3   9
HETATM    9  N   UNL     1      68.872   3.383   8.262  1.00  0.00    -0.378 N 
HETATM   10  C   UNL     1      68.964   2.145   7.476  1.00  0.00     0.150 C 
HETATM   11  C   UNL     1      68.394   0.943   8.257  1.00  0.00     0.252 C 
HETATM   12  N   UNL     1      68.966   0.793   9.612  1.00  0.00    -0.072 N 
HETATM   13  C   UNL     1      68.770   2.057  10.354  1.00  0.00     0.252 C 
HETATM   14  H   UNL     1      69.962   0.585   9.543  1.00  0.00     0.277 HD
HETATM   15  H   UNL     1      68.502   0.027  10.102  1.00  0.00     0.277 HD
HETATM   16  C   UNL     1      69.362   3.299   9.645  1.00  0.00     0.150 C 
ENDBRANCH   3   9
TORSDOF 1
ENDMDL
MODEL 6
REMARK VINA RESULT:      -4.8     11.698     13.437
REMARK  1 active torsions:
REMARK  status: ('A' for Active; 'I' for Inactive)
REMARK    1  A    between atoms: N_1  and  C_4 
ROOT
HETATM    1  N   UNL     1      70.885   0.691  10.387  1.00  0.00    -0.191 NA
HETATM    2  C   UNL     1      70.119   1.477  10.001  1.00  0.00     0.099 C 
HETATM    3  C   UNL     1      67.355   4.357   8.504  1.00  0.00     0.030 A 
HETATM    4  C   UNL     1      67.204   2.987   8.243  1.00  0.00     0.031 A 
HETATM    5  C   UNL     1      68.441   4.734   9.307  1.00  0.00     0.031 A 
HETATM    6  C   UNL     1      69.180   2.440   9.516  1.00  0.00     0.044 A 
HETATM    7  C   UNL     1      69.344   3.794   9.817  1.00  0.00     0.025 A 
HETATM    8  C   UNL     1      68.106   2.040   8.732  1.00  0.00     0.025 A 
ENDROOT
BRANCH   3   9
HETATM    9  N   UNL     1      66.481   5.291   7.992  1.00  0.00    -0.378 N 
HETATM   10  C   UNL     1      65.571   4.986   6.880  1.00  0.00     0.150 C 
HETATM   11  C   UNL     1      65.800   5.941   5.691  1.00  0.00     0.252 C 
HETATM   12  N   UNL     1      65.769   7.371   6.066  1.00  0.00    -0.072 N 
HETATM   13  C   UNL     1      66.760   7.602   7.139  1.00  0.00     0.252 C 
HETATM   14  H   UNL     1      64.837   7.618   6.399  1.00  0.00     0.277 HD
HETATM   15  H   UNL     1      65.995   7.948   5.255  1.00  0.00     0.277 HD
HETATM   16  C   UNL     1      66.557   6.705   8.385  1.00  0.00     0.150 C 
ENDBRANCH   3   9
TORSDOF 1
ENDMDL
MODEL 7
REMARK VINA RESULT:      -4.7      4.897      7.428
REMARK  1 active torsions:
REMARK  status: ('A' for Active; 'I' for Inactive)
REMARK    1  A    between atoms: N_1  and  C_4 
ROOT
HETATM    1  N   UNL     1      78.189  -1.693  10.298  1.00  0.00    -0.191 NA
HETATM    2  C   UNL     1      77.854  -1.323  11.349  1.00  0.00     0.099 C 
HETATM    3  C   UNL     1      76.595  -0.054  15.219  1.00  0.00     0.030 A 
HETATM    4  C   UNL     1      77.820  -0.710  15.022  1.00  0.00     0.031 A 
HETATM    5  C   UNL     1      75.818   0.195  14.080  1.00  0.00     0.031 A 
HETATM    6  C   UNL     1      77.442  -0.879  12.644  1.00  0.00     0.044 A 
HETATM    7  C   UNL     1      76.230  -0.204  12.802  1.00  0.00     0.025 A 
HETATM    8  C   UNL     1      78.236  -1.128  13.756  1.00  0.00     0.025 A 
ENDROOT
BRANCH   3   9
HETATM    9  N   UNL     1      76.174   0.326  16.475  1.00  0.00    -0.378 N 
HETATM   10  C   UNL     1      74.759   0.572  16.786  1.00  0.00     0.150 C 
HETATM   11  C   UNL     1      74.542   2.004  17.315  1.00  0.00     0.252 C 
HETATM   12  N   UNL     1      75.435   2.362  18.439  1.00  0.00    -0.072 N 
HETATM   13  C   UNL     1      76.837   2.151  18.017  1.00  0.00     0.252 C 
HETATM   14  H   UNL     1      75.225   1.772  19.244  1.00  0.00     0.277 HD
HETATM   15  H   UNL     1      75.293   3.338  18.698  1.00  0.00     0.277 HD
HETATM   16  C   UNL     1      77.133   0.716  17.518  1.00  0.00     0.150 C 
ENDBRANCH   3   9
TORSDOF 1
ENDMDL
MODEL 8
REMARK VINA RESULT:      -4.6      4.285      7.157
REMARK  1 active torsions:
REMARK  status: ('A' for Active; 'I' for Inactive)
REMARK    1  A    between atoms: N_1  and  C_4 
ROOT
HETATM    1  N   UNL     1      75.900  -1.916  11.515  1.00  0.00    -0.191 NA
HETATM    2  C   UNL     1      75.972  -1.428  12.569  1.00  0.00     0.099 C 
HETATM    3  C   UNL     1      76.241   0.444  16.390  1.00  0.00     0.030 A 
HETATM    4  C   UNL     1      75.031   0.387  15.681  1.00  0.00     0.031 A 
HETATM    5  C   UNL     1      77.352  -0.172  15.797  1.00  0.00     0.031 A 
HETATM    6  C   UNL     1      76.057  -0.819  13.859  1.00  0.00     0.044 A 
HETATM    7  C   UNL     1      77.270  -0.804  14.550  1.00  0.00     0.025 A 
HETATM    8  C   UNL     1      74.938  -0.225  14.429  1.00  0.00     0.025 A 
ENDROOT
BRANCH   3   9
HETATM    9  N   UNL     1      76.334   1.078  17.609  1.00  0.00    -0.378 N 
HETATM   10  C   UNL     1      75.785   2.421  17.839  1.00  0.00     0.150 C 
HETATM   11  C   UNL     1      76.879   3.400  18.311  1.00  0.00     0.252 C 
HETATM   12  N   UNL     1      77.656   2.906  19.468  1.00  0.00    -0.072 N 
HETATM   13  C   UNL     1      78.228   1.586  19.126  1.00  0.00     0.252 C 
HETATM   14  H   UNL     1      77.045   2.817  20.279  1.00  0.00     0.277 HD
HETATM   15  H   UNL     1      78.405   3.563  19.689  1.00  0.00     0.277 HD
HETATM   16  C   UNL     1      77.175   0.539  18.688  1.00  0.00     0.150 C 
ENDBRANCH   3   9
TORSDOF 1
ENDMDL
MODEL 9
REMARK VINA RESULT:      -4.4     11.573     12.432
REMARK  1 active torsions:
REMARK  status: ('A' for Active; 'I' for Inactive)
REMARK    1  A    between atoms: N_1  and  C_4 
ROOT
HETATM    1  N   UNL     1      66.415   8.814   6.395  1.00  0.00    -0.191 NA
HETATM    2  C   UNL     1      66.699   7.779   6.846  1.00  0.00     0.099 C 
HETATM    3  C   UNL     1      67.648   3.963   8.492  1.00  0.00     0.030 A 
HETATM    4  C   UNL     1      67.520   4.157   7.108  1.00  0.00     0.031 A 
HETATM    5  C   UNL     1      67.481   5.090   9.308  1.00  0.00     0.031 A 
HETATM    6  C   UNL     1      67.038   6.504   7.396  1.00  0.00     0.044 A 
HETATM    7  C   UNL     1      67.186   6.351   8.776  1.00  0.00     0.025 A 
HETATM    8  C   UNL     1      67.209   5.405   6.564  1.00  0.00     0.025 A 
ENDROOT
BRANCH   3   9
HETATM    9  N   UNL     1      67.922   2.722   9.025  1.00  0.00    -0.378 N 
HETATM   10  C   UNL     1      68.902   2.530  10.102  1.00  0.00     0.150 C 
HETATM   11  C   UNL     1      70.012   1.546   9.680  1.00  0.00     0.252 C 
HETATM   12  N   UNL     1      69.497   0.263   9.155  1.00  0.00    -0.072 N 
HETATM   13  C   UNL     1      68.574   0.545   8.034  1.00  0.00     0.252 C 
HETATM   14  H   UNL     1      68.999  -0.235   9.893  1.00  0.00     0.277 HD
HETATM   15  H   UNL     1      70.272  -0.315   8.830  1.00  0.00     0.277 HD
HETATM   16  C   UNL     1      67.408   1.493   8.403  1.00  0.00     0.150 C 
ENDBRANCH   3   9
TORSDOF 1
ENDMDL
