MODEL 1
REMARK VINA RESULT:      -6.0      0.000      0.000
REMARK  4 active torsions:
REMARK  status: ('A' for Active; 'I' for Inactive)
REMARK    1  A    between atoms: C_1  and  C_2 
REMARK    2  A    between atoms: C_1  and  O_5 
REMARK    3  A    between atoms: C_6  and  C_10 
REMARK    4  A    between atoms: N_7  and  C_10 
ROOT
HETATM    1  C   UNL     1      77.308  11.261  18.900  1.00  0.00     0.040 A 
HETATM    2  C   UNL     1      78.243  11.370  19.948  1.00  0.00     0.026 A 
HETATM    3  C   UNL     1      78.200  12.458  20.838  1.00  0.00    -0.032 A 
HETATM    4  C   UNL     1      76.333  12.262  18.751  1.00  0.00     0.017 A 
HETATM    5  C   UNL     1      76.288  13.344  19.633  1.00  0.00     0.002 A 
HETATM    6  C   UNL     1      77.215  13.443  20.672  1.00  0.00     0.009 A 
ENDROOT
BRANCH   3   7
HETATM    7  C   UNL     1      79.206  12.563  21.954  1.00  0.00     0.268 C 
BRANCH   7   8
HETATM    8  N   UNL     1      80.276  11.588  21.766  1.00  0.00    -0.075 N 
HETATM    9  H   UNL     1      81.174  12.022  21.987  1.00  0.00     0.274 HD
HETATM   10  H   UNL     1      80.281  11.273  20.796  1.00  0.00     0.274 HD
HETATM   11  H   UNL     1      80.122  10.792  22.383  1.00  0.00     0.274 HD
ENDBRANCH   7   8
ENDBRANCH   3   7
BRANCH   1  12
HETATM   12  C   UNL     1      77.348  10.112  17.963  1.00  0.00     0.292 C 
HETATM   13  O   UNL     1      77.555  10.300  16.772  1.00  0.00    -0.259 OA
BRANCH  12  14
HETATM   14  O   UNL     1      77.161   8.849  18.433  1.00  0.00    -0.323 OA
HETATM   15  C   UNL     1      77.056   7.733  17.630  1.00  0.00     0.213 C 
ENDBRANCH  12  14
ENDBRANCH   1  12
TORSDOF 4
ENDMDL
MODEL 2
REMARK VINA RESULT:      -5.4      2.951      4.606
REMARK  4 active torsions:
REMARK  status: ('A' for Active; 'I' for Inactive)
REMARK    1  A    between atoms: C_1  and  C_2 
REMARK    2  A    between atoms: C_1  and  O_5 
REMARK    3  A    between atoms: C_6  and  C_10 
REMARK    4  A    between atoms: N_7  and  C_10 
ROOT
HETATM    1  C   UNL     1      78.236  12.424  20.965  1.00  0.00     0.040 A 
HETATM    2  C   UNL     1      78.243  11.368  20.033  1.00  0.00     0.026 A 
HETATM    3  C   UNL     1      77.306  11.330  18.984  1.00  0.00    -0.032 A 
HETATM    4  C   UNL     1      77.273  13.440  20.836  1.00  0.00     0.017 A 
HETATM    5  C   UNL     1      76.341  13.404  19.796  1.00  0.00     0.002 A 
HETATM    6  C   UNL     1      76.357  12.357  18.874  1.00  0.00     0.009 A 
ENDROOT
BRANCH   3   7
HETATM    7  C   UNL     1      77.323  10.194  17.996  1.00  0.00     0.268 C 
BRANCH   7   8
HETATM    8  N   UNL     1      78.570   9.443  18.106  1.00  0.00    -0.075 N 
HETATM    9  H   UNL     1      79.357  10.059  17.896  1.00  0.00     0.274 HD
HETATM   10  H   UNL     1      78.559   8.667  17.445  1.00  0.00     0.274 HD
HETATM   11  H   UNL     1      78.665   9.082  19.055  1.00  0.00     0.274 HD
ENDBRANCH   7   8
ENDBRANCH   3   7
BRANCH   1  12
HETATM   12  C   UNL     1      79.226  12.470  22.069  1.00  0.00     0.292 C 
HETATM   13  O   UNL     1      78.945  12.001  23.163  1.00  0.00    -0.259 OA
BRANCH  12  14
HETATM   14  O   UNL     1      80.448  13.028  21.857  1.00  0.00    -0.323 OA
HETATM   15  C   UNL     1      81.490  12.971  22.759  1.00  0.00     0.213 C 
ENDBRANCH  12  14
ENDBRANCH   1  12
TORSDOF 4
ENDMDL
MODEL 3
REMARK VINA RESULT:      -4.9     20.117     21.545
REMARK  4 active torsions:
REMARK  status: ('A' for Active; 'I' for Inactive)
REMARK    1  A    between atoms: C_1  and  C_2 
REMARK    2  A    between atoms: C_1  and  O_5 
REMARK    3  A    between atoms: C_6  and  C_10 
REMARK    4  A    between atoms: N_7  and  C_10 
ROOT
HETATM    1  C   UNL     1      63.406   9.352   4.813  1.00  0.00     0.040 A 
HETATM    2  C   UNL     1      63.019   8.855   3.553  1.00  0.00     0.026 A 
HETATM    3  C   UNL     1      62.204   9.620   2.699  1.00  0.00    -0.032 A 
HETATM    4  C   UNL     1      62.959  10.625   5.209  1.00  0.00     0.017 A 
HETATM    5  C   UNL     1      62.149  11.386   4.362  1.00  0.00     0.002 A 
HETATM    6  C   UNL     1      61.774  10.889   3.114  1.00  0.00     0.009 A 
ENDROOT
BRANCH   3   7
HETATM    7  C   UNL     1      61.796   9.076   1.355  1.00  0.00     0.268 C 
BRANCH   7   8
HETATM    8  N   UNL     1      60.363   8.799   1.332  1.00  0.00    -0.075 N 
HETATM    9  H   UNL     1      59.878   9.471   1.928  1.00  0.00     0.274 HD
HETATM   10  H   UNL     1      60.194   7.855   1.677  1.00  0.00     0.274 HD
HETATM   11  H   UNL     1      60.017   8.881   0.377  1.00  0.00     0.274 HD
ENDBRANCH   7   8
ENDBRANCH   3   7
BRANCH   1  12
HETATM   12  C   UNL     1      64.269   8.550   5.714  1.00  0.00     0.292 C 
HETATM   13  O   UNL     1      63.819   7.556   6.268  1.00  0.00    -0.259 OA
BRANCH  12  14
HETATM   14  O   UNL     1      65.562   8.920   5.916  1.00  0.00    -0.323 OA
HETATM   15  C   UNL     1      66.547   8.069   6.373  1.00  0.00     0.213 C 
ENDBRANCH  12  14
ENDBRANCH   1  12
TORSDOF 4
ENDMDL
MODEL 4
REMARK VINA RESULT:      -4.6     18.883     20.535
REMARK  4 active torsions:
REMARK  status: ('A' for Active; 'I' for Inactive)
REMARK    1  A    between atoms: C_1  and  C_2 
REMARK    2  A    between atoms: C_1  and  O_5 
REMARK    3  A    between atoms: C_6  and  C_10 
REMARK    4  A    between atoms: N_7  and  C_10 
ROOT
HETATM    1  C   UNL     1      63.599   9.030   4.578  1.00  0.00     0.040 A 
HETATM    2  C   UNL     1      64.848   8.823   5.194  1.00  0.00     0.026 A 
HETATM    3  C   UNL     1      65.634   7.703   4.865  1.00  0.00    -0.032 A 
HETATM    4  C   UNL     1      63.144   8.095   3.631  1.00  0.00     0.017 A 
HETATM    5  C   UNL     1      63.922   6.982   3.304  1.00  0.00     0.002 A 
HETATM    6  C   UNL     1      65.161   6.786   3.915  1.00  0.00     0.009 A 
ENDROOT
BRANCH   3   7
HETATM    7  C   UNL     1      66.968   7.492   5.532  1.00  0.00     0.268 C 
BRANCH   7   8
HETATM    8  N   UNL     1      67.041   8.258   6.773  1.00  0.00    -0.075 N 
HETATM    9  H   UNL     1      67.521   7.706   7.485  1.00  0.00     0.274 HD
HETATM   10  H   UNL     1      66.098   8.478   7.092  1.00  0.00     0.274 HD
HETATM   11  H   UNL     1      67.556   9.122   6.609  1.00  0.00     0.274 HD
ENDBRANCH   7   8
ENDBRANCH   3   7
BRANCH   1  12
HETATM   12  C   UNL     1      62.770  10.212   4.918  1.00  0.00     0.292 C 
HETATM   13  O   UNL     1      63.028  10.873   5.914  1.00  0.00    -0.259 OA
BRANCH  12  14
HETATM   14  O   UNL     1      61.730  10.561   4.114  1.00  0.00    -0.323 OA
HETATM   15  C   UNL     1      61.843  11.400   3.025  1.00  0.00     0.213 C 
ENDBRANCH  12  14
ENDBRANCH   1  12
TORSDOF 4
ENDMDL
MODEL 5
REMARK VINA RESULT:      -4.6     19.157     20.792
REMARK  4 active torsions:
REMARK  status: ('A' for Active; 'I' for Inactive)
REMARK    1  A    between atoms: C_1  and  C_2 
REMARK    2  A    between atoms: C_1  and  O_5 
REMARK    3  A    between atoms: C_6  and  C_10 
REMARK    4  A    between atoms: N_7  and  C_10 
ROOT
HETATM    1  C   UNL     1      64.558   8.157   4.807  1.00  0.00     0.040 A 
HETATM    2  C   UNL     1      63.745   9.306   4.812  1.00  0.00     0.026 A 
HETATM    3  C   UNL     1      62.736   9.476   3.845  1.00  0.00    -0.032 A 
HETATM    4  C   UNL     1      64.352   7.181   3.815  1.00  0.00     0.017 A 
HETATM    5  C   UNL     1      63.352   7.348   2.855  1.00  0.00     0.002 A 
HETATM    6  C   UNL     1      62.547   8.487   2.869  1.00  0.00     0.009 A 
ENDROOT
BRANCH   3   7
HETATM    7  C   UNL     1      61.874  10.711   3.861  1.00  0.00     0.268 C 
BRANCH   7   8
HETATM    8  N   UNL     1      61.511  11.095   2.500  1.00  0.00    -0.075 N 
HETATM    9  H   UNL     1      60.785  10.468   2.153  1.00  0.00     0.274 HD
HETATM   10  H   UNL     1      62.333  11.031   1.900  1.00  0.00     0.274 HD
HETATM   11  H   UNL     1      61.162  12.053   2.500  1.00  0.00     0.274 HD
ENDBRANCH   7   8
ENDBRANCH   3   7
BRANCH   1  12
HETATM   12  C   UNL     1      65.619   7.972   5.827  1.00  0.00     0.292 C 
HETATM   13  O   UNL     1      65.348   7.467   6.907  1.00  0.00    -0.259 OA
BRANCH  12  14
HETATM   14  O   UNL     1      66.895   8.357   5.552  1.00  0.00    -0.323 OA
HETATM   15  C   UNL     1      67.949   7.482   5.392  1.00  0.00     0.213 C 
ENDBRANCH  12  14
ENDBRANCH   1  12
TORSDOF 4
ENDMDL
MODEL 6
REMARK VINA RESULT:      -4.6     20.059     21.607
REMARK  4 active torsions:
REMARK  status: ('A' for Active; 'I' for Inactive)
REMARK    1  A    between atoms: C_1  and  C_2 
REMARK    2  A    between atoms: C_1  and  O_5 
REMARK    3  A    between atoms: C_6  and  C_10 
REMARK    4  A    between atoms: N_7  and  C_10 
ROOT
HETATM    1  C   UNL     1      63.241   8.152   4.550  1.00  0.00     0.040 A 
HETATM    2  C   UNL     1      62.799   9.486   4.481  1.00  0.00     0.026 A 
HETATM    3  C   UNL     1      62.279  10.010   3.283  1.00  0.00    -0.032 A 
HETATM    4  C   UNL     1      63.162   7.348   3.399  1.00  0.00     0.017 A 
HETATM    5  C   UNL     1      62.648   7.865   2.208  1.00  0.00     0.002 A 
HETATM    6  C   UNL     1      62.207   9.188   2.149  1.00  0.00     0.009 A 
ENDROOT
BRANCH   3   7
HETATM    7  C   UNL     1      61.810  11.440   3.222  1.00  0.00     0.268 C 
BRANCH   7   8
HETATM    8  N   UNL     1      61.861  11.934   1.849  1.00  0.00    -0.075 N 
HETATM    9  H   UNL     1      62.338  11.250   1.260  1.00  0.00     0.274 HD
HETATM   10  H   UNL     1      62.369  12.817   1.825  1.00  0.00     0.274 HD
HETATM   11  H   UNL     1      60.912  12.075   1.505  1.00  0.00     0.274 HD
ENDBRANCH   7   8
ENDBRANCH   3   7
BRANCH   1  12
HETATM   12  C   UNL     1      63.785   7.595   5.813  1.00  0.00     0.292 C 
HETATM   13  O   UNL     1      63.104   7.606   6.829  1.00  0.00    -0.259 OA
BRANCH  12  14
HETATM   14  O   UNL     1      65.037   7.065   5.834  1.00  0.00    -0.323 OA
HETATM   15  C   UNL     1      66.156   7.742   6.271  1.00  0.00     0.213 C 
ENDBRANCH  12  14
ENDBRANCH   1  12
TORSDOF 4
ENDMDL
MODEL 7
REMARK VINA RESULT:      -4.5     15.079     16.100
REMARK  4 active torsions:
REMARK  status: ('A' for Active; 'I' for Inactive)
REMARK    1  A    between atoms: C_1  and  C_2 
REMARK    2  A    between atoms: C_1  and  O_5 
REMARK    3  A    between atoms: C_6  and  C_10 
REMARK    4  A    between atoms: N_7  and  C_10 
ROOT
HETATM    1  C   UNL     1      69.026   3.120   9.651  1.00  0.00     0.040 A 
HETATM    2  C   UNL     1      67.779   3.444   9.082  1.00  0.00     0.026 A 
HETATM    3  C   UNL     1      67.616   4.626   8.335  1.00  0.00    -0.032 A 
HETATM    4  C   UNL     1      70.106   4.001   9.469  1.00  0.00     0.017 A 
HETATM    5  C   UNL     1      69.947   5.175   8.729  1.00  0.00     0.002 A 
HETATM    6  C   UNL     1      68.710   5.486   8.164  1.00  0.00     0.009 A 
ENDROOT
BRANCH   3   7
HETATM    7  C   UNL     1      66.277   4.960   7.733  1.00  0.00     0.268 C 
BRANCH   7   8
HETATM    8  N   UNL     1      65.921   6.346   8.024  1.00  0.00    -0.075 N 
HETATM    9  H   UNL     1      65.566   6.791   7.176  1.00  0.00     0.274 HD
HETATM   10  H   UNL     1      66.747   6.847   8.350  1.00  0.00     0.274 HD
HETATM   11  H   UNL     1      65.201   6.367   8.745  1.00  0.00     0.274 HD
ENDBRANCH   7   8
ENDBRANCH   3   7
BRANCH   1  12
HETATM   12  C   UNL     1      69.203   1.873  10.434  1.00  0.00     0.292 C 
HETATM   13  O   UNL     1      68.232   1.321  10.933  1.00  0.00    -0.259 OA
BRANCH  12  14
HETATM   14  O   UNL     1      70.446   1.342  10.587  1.00  0.00    -0.323 OA
HETATM   15  C   UNL     1      70.889   0.212   9.932  1.00  0.00     0.213 C 
ENDBRANCH  12  14
ENDBRANCH   1  12
TORSDOF 4
ENDMDL
MODEL 8
REMARK VINA RESULT:      -4.4     15.084     16.917
REMARK  4 active torsions:
REMARK  status: ('A' for Active; 'I' for Inactive)
REMARK    1  A    between atoms: C_1  and  C_2 
REMARK    2  A    between atoms: C_1  and  O_5 
REMARK    3  A    between atoms: C_6  and  C_10 
REMARK    4  A    between atoms: N_7  and  C_10 
ROOT
HETATM    1  C   UNL     1      67.299   5.668   7.363  1.00  0.00     0.040 A 
HETATM    2  C   UNL     1      68.298   5.514   8.343  1.00  0.00     0.026 A 
HETATM    3  C   UNL     1      69.157   4.400   8.323  1.00  0.00    -0.032 A 
HETATM    4  C   UNL     1      67.167   4.686   6.365  1.00  0.00     0.017 A 
HETATM    5  C   UNL     1      68.018   3.579   6.344  1.00  0.00     0.002 A 
HETATM    6  C   UNL     1      69.009   3.436   7.316  1.00  0.00     0.009 A 
ENDROOT
BRANCH   3   7
HETATM    7  C   UNL     1      70.221   4.247   9.378  1.00  0.00     0.268 C 
BRANCH   7   8
HETATM    8  N   UNL     1      69.722   3.442  10.490  1.00  0.00    -0.075 N 
HETATM    9  H   UNL     1      69.119   4.015  11.080  1.00  0.00     0.274 HD
HETATM   10  H   UNL     1      70.509   3.098  11.039  1.00  0.00     0.274 HD
HETATM   11  H   UNL     1      69.190   2.653  10.124  1.00  0.00     0.274 HD
ENDBRANCH   7   8
ENDBRANCH   3   7
BRANCH   1  12
HETATM   12  C   UNL     1      66.394   6.843   7.377  1.00  0.00     0.292 C 
HETATM   13  O   UNL     1      65.468   6.893   8.175  1.00  0.00    -0.259 OA
BRANCH  12  14
HETATM   14  O   UNL     1      66.603   7.867   6.507  1.00  0.00    -0.323 OA
HETATM   15  C   UNL     1      65.720   8.228   5.511  1.00  0.00     0.213 C 
ENDBRANCH  12  14
ENDBRANCH   1  12
TORSDOF 4
ENDMDL
MODEL 9
REMARK VINA RESULT:      -4.4     20.988     22.536
REMARK  4 active torsions:
REMARK  status: ('A' for Active; 'I' for Inactive)
REMARK    1  A    between atoms: C_1  and  C_2 
REMARK    2  A    between atoms: C_1  and  O_5 
REMARK    3  A    between atoms: C_6  and  C_10 
REMARK    4  A    between atoms: N_7  and  C_10 
ROOT
HETATM    1  C   UNL     1      62.782   9.385   3.824  1.00  0.00     0.040 A 
HETATM    2  C   UNL     1      62.933   8.224   3.043  1.00  0.00     0.026 A 
HETATM    3  C   UNL     1      62.480   8.190   1.711  1.00  0.00    -0.032 A 
HETATM    4  C   UNL     1      62.164  10.513   3.256  1.00  0.00     0.017 A 
HETATM    5  C   UNL     1      61.713  10.482   1.934  1.00  0.00     0.002 A 
HETATM    6  C   UNL     1      61.870   9.329   1.165  1.00  0.00     0.009 A 
ENDROOT
BRANCH   3   7
HETATM    7  C   UNL     1      62.646   6.941   0.886  1.00  0.00     0.268 C 
BRANCH   7   8
HETATM    8  N   UNL     1      62.696   7.273  -0.534  1.00  0.00    -0.075 N 
HETATM    9  H   UNL     1      61.884   7.841  -0.779  1.00  0.00     0.274 HD
HETATM   10  H   UNL     1      62.689   6.415  -1.084  1.00  0.00     0.274 HD
HETATM   11  H   UNL     1      63.548   7.797  -0.731  1.00  0.00     0.274 HD
ENDBRANCH   7   8
ENDBRANCH   3   7
BRANCH   1  12
HETATM   12  C   UNL     1      63.263   9.425   5.227  1.00  0.00     0.292 C 
HETATM   13  O   UNL     1      63.007  10.390   5.934  1.00  0.00    -0.259 OA
BRANCH  12  14
HETATM   14  O   UNL     1      63.981   8.383   5.725  1.00  0.00    -0.323 OA
HETATM   15  C   UNL     1      65.355   8.286   5.653  1.00  0.00     0.213 C 
ENDBRANCH  12  14
ENDBRANCH   1  12
TORSDOF 4
ENDMDL
