MODEL 1
REMARK VINA RESULT:      -4.6      0.000      0.000
REMARK  2 active torsions:
REMARK  status: ('A' for Active; 'I' for Inactive)
REMARK    1  A    between atoms: C_1  and  C_2 
REMARK    2  A    between atoms: C_2  and  C_9 
ROOT
HETATM    1  N   UNL     1      76.806  -1.651  16.183  1.00  0.00    -0.075 N 
HETATM    2  C   UNL     1      74.561   0.220  16.492  1.00  0.00     0.064 C 
HETATM    3  C   UNL     1      75.862  -1.840  17.293  1.00  0.00     0.233 C 
HETATM    4  C   UNL     1      77.002  -0.221  15.911  1.00  0.00     0.233 C 
HETATM    5  C   UNL     1      74.485  -1.265  16.918  1.00  0.00     0.040 C 
HETATM    6  C   UNL     1      75.675   0.398  15.445  1.00  0.00     0.040 C 
HETATM    7  H   UNL     1      76.436  -2.103  15.347  1.00  0.00     0.277 HD
HETATM    8  H   UNL     1      77.703  -2.063  16.439  1.00  0.00     0.277 HD
ENDROOT
BRANCH   2   9
HETATM    9  C   UNL     1      74.694   1.201  17.652  1.00  0.00     0.170 C 
HETATM   10  O   UNL     1      74.355   0.873  18.782  1.00  0.00    -0.291 OA
BRANCH   9  11
HETATM   11  C   UNL     1      75.278   2.559  17.436  1.00  0.00     0.051 A 
HETATM   12  S   UNL     1      76.765   3.102  18.022  1.00  0.00    -0.098 SA
HETATM   13  C   UNL     1      76.666   4.665  17.422  1.00  0.00     0.050 A 
HETATM   14  C   UNL     1      75.460   4.790  16.746  1.00  0.00     0.009 A 
HETATM   15  C   UNL     1      74.684   3.621  16.748  1.00  0.00     0.023 A 
ENDBRANCH   9  11
ENDBRANCH   2   9
TORSDOF 2
ENDMDL
MODEL 2
REMARK VINA RESULT:      -4.5     15.079     16.171
REMARK  2 active torsions:
REMARK  status: ('A' for Active; 'I' for Inactive)
REMARK    1  A    between atoms: C_1  and  C_2 
REMARK    2  A    between atoms: C_2  and  C_9 
ROOT
HETATM    1  N   UNL     1      62.304   7.129   5.585  1.00  0.00    -0.075 N 
HETATM    2  C   UNL     1      65.181   7.315   5.024  1.00  0.00     0.064 C 
HETATM    3  C   UNL     1      62.918   8.453   5.422  1.00  0.00     0.233 C 
HETATM    4  C   UNL     1      63.238   6.204   6.239  1.00  0.00     0.233 C 
HETATM    5  C   UNL     1      64.154   8.352   4.512  1.00  0.00     0.040 C 
HETATM    6  C   UNL     1      64.463   5.991   5.337  1.00  0.00     0.040 C 
HETATM    7  H   UNL     1      62.053   6.759   4.668  1.00  0.00     0.277 HD
HETATM    8  H   UNL     1      61.471   7.220   6.167  1.00  0.00     0.277 HD
ENDROOT
BRANCH   2   9
HETATM    9  C   UNL     1      66.036   7.801   6.190  1.00  0.00     0.170 C 
HETATM   10  O   UNL     1      66.094   8.993   6.461  1.00  0.00    -0.291 OA
BRANCH   9  11
HETATM   11  C   UNL     1      66.780   6.827   7.044  1.00  0.00     0.051 A 
HETATM   12  S   UNL     1      66.440   6.463   8.658  1.00  0.00    -0.098 SA
HETATM   13  C   UNL     1      67.696   5.376   8.894  1.00  0.00     0.050 A 
HETATM   14  C   UNL     1      68.407   5.276   7.706  1.00  0.00     0.009 A 
HETATM   15  C   UNL     1      67.901   6.080   6.672  1.00  0.00     0.023 A 
ENDBRANCH   9  11
ENDBRANCH   2   9
TORSDOF 2
ENDMDL
MODEL 3
REMARK VINA RESULT:      -4.2     12.176     12.911
REMARK  2 active torsions:
REMARK  status: ('A' for Active; 'I' for Inactive)
REMARK    1  A    between atoms: C_1  and  C_2 
REMARK    2  A    between atoms: C_2  and  C_9 
ROOT
HETATM    1  N   UNL     1      69.060   2.332   9.598  1.00  0.00    -0.075 N 
HETATM    2  C   UNL     1      69.098   4.681   7.833  1.00  0.00     0.064 C 
HETATM    3  C   UNL     1      67.980   2.510   8.618  1.00  0.00     0.233 C 
HETATM    4  C   UNL     1      69.503   3.632  10.119  1.00  0.00     0.233 C 
HETATM    5  C   UNL     1      68.489   3.323   7.414  1.00  0.00     0.040 C 
HETATM    6  C   UNL     1      70.105   4.463   8.976  1.00  0.00     0.040 C 
HETATM    7  H   UNL     1      69.848   1.866   9.149  1.00  0.00     0.277 HD
HETATM    8  H   UNL     1      68.712   1.768  10.374  1.00  0.00     0.277 HD
ENDROOT
BRANCH   2   9
HETATM    9  C   UNL     1      68.067   5.755   8.166  1.00  0.00     0.170 C 
HETATM   10  O   UNL     1      67.904   6.120   9.324  1.00  0.00    -0.291 OA
BRANCH   9  11
HETATM   11  C   UNL     1      67.273   6.408   7.083  1.00  0.00     0.051 A 
HETATM   12  S   UNL     1      65.610   6.700   7.111  1.00  0.00    -0.098 SA
HETATM   13  C   UNL     1      65.493   7.379   5.581  1.00  0.00     0.050 A 
HETATM   14  C   UNL     1      66.762   7.392   5.019  1.00  0.00     0.009 A 
HETATM   15  C   UNL     1      67.757   6.855   5.850  1.00  0.00     0.023 A 
ENDBRANCH   9  11
ENDBRANCH   2   9
TORSDOF 2
ENDMDL
MODEL 4
REMARK VINA RESULT:      -4.2     11.863     12.968
REMARK  2 active torsions:
REMARK  status: ('A' for Active; 'I' for Inactive)
REMARK    1  A    between atoms: C_1  and  C_2 
REMARK    2  A    between atoms: C_2  and  C_9 
ROOT
HETATM    1  N   UNL     1      65.730   6.981   7.690  1.00  0.00    -0.075 N 
HETATM    2  C   UNL     1      68.355   5.668   7.558  1.00  0.00     0.064 C 
HETATM    3  C   UNL     1      66.184   6.172   8.829  1.00  0.00     0.233 C 
HETATM    4  C   UNL     1      66.193   6.398   6.425  1.00  0.00     0.233 C 
HETATM    5  C   UNL     1      67.722   6.155   8.883  1.00  0.00     0.040 C 
HETATM    6  C   UNL     1      67.729   6.431   6.377  1.00  0.00     0.040 C 
HETATM    7  H   UNL     1      66.103   7.926   7.779  1.00  0.00     0.277 HD
HETATM    8  H   UNL     1      64.710   7.004   7.687  1.00  0.00     0.277 HD
ENDROOT
BRANCH   2   9
HETATM    9  C   UNL     1      68.310   4.156   7.359  1.00  0.00     0.170 C 
HETATM   10  O   UNL     1      68.189   3.681   6.237  1.00  0.00    -0.291 OA
BRANCH   9  11
HETATM   11  C   UNL     1      68.458   3.232   8.524  1.00  0.00     0.051 A 
HETATM   12  S   UNL     1      69.748   3.207   9.612  1.00  0.00    -0.098 SA
HETATM   13  C   UNL     1      69.212   1.916  10.540  1.00  0.00     0.050 A 
HETATM   14  C   UNL     1      68.004   1.481  10.013  1.00  0.00     0.009 A 
HETATM   15  C   UNL     1      67.578   2.210   8.891  1.00  0.00     0.023 A 
ENDBRANCH   9  11
ENDBRANCH   2   9
TORSDOF 2
ENDMDL
MODEL 5
REMARK VINA RESULT:      -4.2     13.246     14.350
REMARK  2 active torsions:
REMARK  status: ('A' for Active; 'I' for Inactive)
REMARK    1  A    between atoms: C_1  and  C_2 
REMARK    2  A    between atoms: C_2  and  C_9 
ROOT
HETATM    1  N   UNL     1      64.448   7.692   5.934  1.00  0.00    -0.075 N 
HETATM    2  C   UNL     1      66.946   7.032   7.333  1.00  0.00     0.064 C 
HETATM    3  C   UNL     1      64.520   6.458   6.729  1.00  0.00     0.233 C 
HETATM    4  C   UNL     1      65.740   7.970   5.295  1.00  0.00     0.233 C 
HETATM    5  C   UNL     1      65.551   6.619   7.860  1.00  0.00     0.040 C 
HETATM    6  C   UNL     1      66.801   8.228   6.376  1.00  0.00     0.040 C 
HETATM    7  H   UNL     1      64.202   8.471   6.545  1.00  0.00     0.277 HD
HETATM    8  H   UNL     1      63.740   7.577   5.209  1.00  0.00     0.277 HD
ENDROOT
BRANCH   2   9
HETATM    9  C   UNL     1      67.748   5.890   6.718  1.00  0.00     0.170 C 
HETATM   10  O   UNL     1      67.860   5.797   5.502  1.00  0.00    -0.291 OA
BRANCH   9  11
HETATM   11  C   UNL     1      68.445   4.896   7.587  1.00  0.00     0.051 A 
HETATM   12  S   UNL     1      68.156   3.233   7.620  1.00  0.00    -0.098 SA
HETATM   13  C   UNL     1      69.249   2.856   8.834  1.00  0.00     0.050 A 
HETATM   14  C   UNL     1      69.866   4.032   9.238  1.00  0.00     0.009 A 
HETATM   15  C   UNL     1      69.424   5.171   8.546  1.00  0.00     0.023 A 
ENDBRANCH   9  11
ENDBRANCH   2   9
TORSDOF 2
ENDMDL
MODEL 6
REMARK VINA RESULT:      -4.1     16.950     17.966
REMARK  2 active torsions:
REMARK  status: ('A' for Active; 'I' for Inactive)
REMARK    1  A    between atoms: C_1  and  C_2 
REMARK    2  A    between atoms: C_2  and  C_9 
ROOT
HETATM    1  N   UNL     1      62.666   7.725   2.190  1.00  0.00    -0.075 N 
HETATM    2  C   UNL     1      63.169   7.912   5.079  1.00  0.00     0.064 C 
HETATM    3  C   UNL     1      63.698   6.871   2.795  1.00  0.00     0.233 C 
HETATM    4  C   UNL     1      62.622   9.032   2.858  1.00  0.00     0.233 C 
HETATM    5  C   UNL     1      63.362   6.606   4.273  1.00  0.00     0.040 C 
HETATM    6  C   UNL     1      62.205   8.844   4.325  1.00  0.00     0.040 C 
HETATM    7  H   UNL     1      61.757   7.270   2.283  1.00  0.00     0.277 HD
HETATM    8  H   UNL     1      62.890   7.866   1.205  1.00  0.00     0.277 HD
ENDROOT
BRANCH   2   9
HETATM    9  C   UNL     1      64.469   8.610   5.464  1.00  0.00     0.170 C 
HETATM   10  O   UNL     1      64.503   9.827   5.594  1.00  0.00    -0.291 OA
BRANCH   9  11
HETATM   11  C   UNL     1      65.707   7.819   5.731  1.00  0.00     0.051 A 
HETATM   12  S   UNL     1      66.004   6.874   7.098  1.00  0.00    -0.098 SA
HETATM   13  C   UNL     1      67.553   6.385   6.680  1.00  0.00     0.050 A 
HETATM   14  C   UNL     1      67.867   6.953   5.453  1.00  0.00     0.009 A 
HETATM   15  C   UNL     1      66.843   7.751   4.918  1.00  0.00     0.023 A 
ENDBRANCH   9  11
ENDBRANCH   2   9
TORSDOF 2
ENDMDL
MODEL 7
REMARK VINA RESULT:      -4.0     18.613     19.500
REMARK  2 active torsions:
REMARK  status: ('A' for Active; 'I' for Inactive)
REMARK    1  A    between atoms: C_1  and  C_2 
REMARK    2  A    between atoms: C_2  and  C_9 
ROOT
HETATM    1  N   UNL     1      64.879   7.137   6.565  1.00  0.00    -0.075 N 
HETATM    2  C   UNL     1      63.466   6.892   4.001  1.00  0.00     0.064 C 
HETATM    3  C   UNL     1      63.673   6.301   6.488  1.00  0.00     0.233 C 
HETATM    4  C   UNL     1      64.754   8.305   5.684  1.00  0.00     0.233 C 
HETATM    5  C   UNL     1      63.496   5.763   5.057  1.00  0.00     0.040 C 
HETATM    6  C   UNL     1      64.660   7.837   4.224  1.00  0.00     0.040 C 
HETATM    7  H   UNL     1      65.688   6.587   6.279  1.00  0.00     0.277 HD
HETATM    8  H   UNL     1      64.995   7.461   7.525  1.00  0.00     0.277 HD
ENDROOT
BRANCH   2   9
HETATM    9  C   UNL     1      62.140   7.642   3.920  1.00  0.00     0.170 C 
HETATM   10  O   UNL     1      61.129   7.169   4.424  1.00  0.00    -0.291 OA
BRANCH   9  11
HETATM   11  C   UNL     1      62.064   8.982   3.264  1.00  0.00     0.051 A 
HETATM   12  S   UNL     1      62.018  10.472   4.057  1.00  0.00    -0.098 SA
HETATM   13  C   UNL     1      61.888  11.431   2.687  1.00  0.00     0.050 A 
HETATM   14  C   UNL     1      61.880  10.598   1.577  1.00  0.00     0.009 A 
HETATM   15  C   UNL     1      61.980   9.233   1.892  1.00  0.00     0.023 A 
ENDBRANCH   9  11
ENDBRANCH   2   9
TORSDOF 2
ENDMDL
MODEL 8
REMARK VINA RESULT:      -3.9     10.631     11.799
REMARK  2 active torsions:
REMARK  status: ('A' for Active; 'I' for Inactive)
REMARK    1  A    between atoms: C_1  and  C_2 
REMARK    2  A    between atoms: C_2  and  C_9 
ROOT
HETATM    1  N   UNL     1      67.008   5.570   8.113  1.00  0.00    -0.075 N 
HETATM    2  C   UNL     1      69.391   3.858   8.263  1.00  0.00     0.064 C 
HETATM    3  C   UNL     1      68.075   5.909   9.065  1.00  0.00     0.233 C 
HETATM    4  C   UNL     1      66.871   4.114   7.989  1.00  0.00     0.233 C 
HETATM    5  C   UNL     1      69.426   5.377   8.552  1.00  0.00     0.040 C 
HETATM    6  C   UNL     1      68.162   3.527   7.398  1.00  0.00     0.040 C 
HETATM    7  H   UNL     1      67.234   5.965   7.200  1.00  0.00     0.277 HD
HETATM    8  H   UNL     1      66.127   5.955   8.455  1.00  0.00     0.277 HD
ENDROOT
BRANCH   2   9
HETATM    9  C   UNL     1      69.477   2.979   9.507  1.00  0.00     0.170 C 
HETATM   10  O   UNL     1      70.012   3.398  10.525  1.00  0.00    -0.291 OA
BRANCH   9  11
HETATM   11  C   UNL     1      68.873   1.613   9.516  1.00  0.00     0.051 A 
HETATM   12  S   UNL     1      69.467   0.262   8.696  1.00  0.00    -0.098 SA
HETATM   13  C   UNL     1      68.256  -0.806   9.152  1.00  0.00     0.050 A 
HETATM   14  C   UNL     1      67.361  -0.120   9.961  1.00  0.00     0.009 A 
HETATM   15  C   UNL     1      67.699   1.227  10.169  1.00  0.00     0.023 A 
ENDBRANCH   9  11
ENDBRANCH   2   9
TORSDOF 2
ENDMDL
MODEL 9
REMARK VINA RESULT:      -3.8     20.637     21.513
REMARK  2 active torsions:
REMARK  status: ('A' for Active; 'I' for Inactive)
REMARK    1  A    between atoms: C_1  and  C_2 
REMARK    2  A    between atoms: C_2  and  C_9 
ROOT
HETATM    1  N   UNL     1      61.206   6.657  -0.804  1.00  0.00    -0.075 N 
HETATM    2  C   UNL     1      60.878   8.707   1.274  1.00  0.00     0.064 C 
HETATM    3  C   UNL     1      59.967   6.685  -0.015  1.00  0.00     0.233 C 
HETATM    4  C   UNL     1      62.354   7.051   0.023  1.00  0.00     0.233 C 
HETATM    5  C   UNL     1      59.690   8.116   0.479  1.00  0.00     0.040 C 
HETATM    6  C   UNL     1      62.180   8.508   0.479  1.00  0.00     0.040 C 
HETATM    7  H   UNL     1      61.120   7.304  -1.588  1.00  0.00     0.277 HD
HETATM    8  H   UNL     1      61.358   5.708  -1.146  1.00  0.00     0.277 HD
ENDROOT
BRANCH   2   9
HETATM    9  C   UNL     1      60.990   8.197   2.708  1.00  0.00     0.170 C 
HETATM   10  O   UNL     1      60.170   7.402   3.148  1.00  0.00    -0.291 OA
BRANCH   9  11
HETATM   11  C   UNL     1      62.125   8.625   3.580  1.00  0.00     0.051 A 
HETATM   12  S   UNL     1      63.490   7.704   3.953  1.00  0.00    -0.098 SA
HETATM   13  C   UNL     1      64.218   8.818   4.974  1.00  0.00     0.050 A 
HETATM   14  C   UNL     1      63.403   9.939   5.039  1.00  0.00     0.009 A 
HETATM   15  C   UNL     1      62.236   9.839   4.264  1.00  0.00     0.023 A 
ENDBRANCH   9  11
ENDBRANCH   2   9
TORSDOF 2
ENDMDL
