MODEL 1
REMARK VINA RESULT:      -5.6      0.000      0.000
REMARK  2 active torsions:
REMARK  status: ('A' for Active; 'I' for Inactive)
REMARK    1  A    between atoms: C_1  and  S_2 
REMARK    2  A    between atoms: S_2  and  N_7 
ROOT
HETATM    1  S   UNL     1      63.212   7.250   5.980  1.00  0.00     0.252 S 
HETATM    2  O   UNL     1      62.521   7.871   7.091  1.00  0.00    -0.205 OA
HETATM    3  O   UNL     1      62.988   5.862   5.638  1.00  0.00    -0.205 OA
ENDROOT
BRANCH   1   4
HETATM    4  C   UNL     1      62.767   8.241   4.583  1.00  0.00     0.139 A 
HETATM    5  S   UNL     1      62.324   7.438   3.134  1.00  0.00    -0.062 SA
HETATM    6  C   UNL     1      62.079   8.952   2.371  1.00  0.00     0.048 A 
HETATM    7  N   UNL     1      62.302  10.005   3.123  1.00  0.00    -0.356 N 
HETATM    8  C   UNL     1      61.654   9.035   0.946  1.00  0.00     0.076 C 
HETATM    9  C   UNL     1      62.680   9.610   4.399  1.00  0.00     0.036 A 
ATOM     10  HN  UNL     1      62.211  10.973   2.814  1.00  0.00     0.166 HD
HETATM   11  C   UNL     1      62.950  10.680   5.394  1.00  0.00     0.070 C 
ENDBRANCH   1   4
BRANCH   1  12
HETATM   12  N   UNL     1      64.906   7.458   6.227  1.00  0.00    -0.206 NA
HETATM   13  C   UNL     1      65.690   7.402   4.958  1.00  0.00     0.107 C 
HETATM   14  C   UNL     1      67.152   7.746   5.223  1.00  0.00     0.015 C 
HETATM   15  C   UNL     1      67.748   6.808   6.267  1.00  0.00     0.002 C 
HETATM   16  C   UNL     1      66.918   6.858   7.544  1.00  0.00     0.015 C 
HETATM   17  C   UNL     1      65.451   6.533   7.264  1.00  0.00     0.107 C 
ENDBRANCH   1  12
TORSDOF 2
ENDMDL
MODEL 2
REMARK VINA RESULT:      -5.4      1.595      2.072
REMARK  2 active torsions:
REMARK  status: ('A' for Active; 'I' for Inactive)
REMARK    1  A    between atoms: C_1  and  S_2 
REMARK    2  A    between atoms: S_2  and  N_7 
ROOT
HETATM    1  S   UNL     1      64.284   8.201   5.714  1.00  0.00     0.252 S 
HETATM    2  O   UNL     1      65.271   9.231   5.965  1.00  0.00    -0.205 OA
HETATM    3  O   UNL     1      63.396   7.742   6.760  1.00  0.00    -0.205 OA
ENDROOT
BRANCH   1   4
HETATM    4  C   UNL     1      63.295   8.857   4.401  1.00  0.00     0.139 A 
HETATM    5  S   UNL     1      63.011   7.863   3.032  1.00  0.00    -0.062 SA
HETATM    6  C   UNL     1      62.085   9.115   2.317  1.00  0.00     0.048 A 
HETATM    7  N   UNL     1      61.975  10.213   3.030  1.00  0.00    -0.356 N 
HETATM    8  C   UNL     1      61.470   8.943   0.972  1.00  0.00     0.076 C 
HETATM    9  C   UNL     1      62.650  10.070   4.234  1.00  0.00     0.036 A 
ATOM     10  HN  UNL     1      61.467  11.049   2.740  1.00  0.00     0.166 HD
HETATM   11  C   UNL     1      62.610  11.216   5.180  1.00  0.00     0.070 C 
ENDBRANCH   1   4
BRANCH   1  12
HETATM   12  N   UNL     1      65.105   6.821   5.087  1.00  0.00    -0.206 NA
HETATM   13  C   UNL     1      65.112   5.667   6.034  1.00  0.00     0.107 C 
HETATM   14  C   UNL     1      65.713   4.436   5.366  1.00  0.00     0.015 C 
HETATM   15  C   UNL     1      67.121   4.728   4.860  1.00  0.00     0.002 C 
HETATM   16  C   UNL     1      67.097   5.924   3.918  1.00  0.00     0.015 C 
HETATM   17  C   UNL     1      66.474   7.146   4.590  1.00  0.00     0.107 C 
ENDBRANCH   1  12
TORSDOF 2
ENDMDL
MODEL 3
REMARK VINA RESULT:      -5.3      2.264      5.633
REMARK  2 active torsions:
REMARK  status: ('A' for Active; 'I' for Inactive)
REMARK    1  A    between atoms: C_1  and  S_2 
REMARK    2  A    between atoms: S_2  and  N_7 
ROOT
HETATM    1  S   UNL     1      64.578   8.045   5.828  1.00  0.00     0.252 S 
HETATM    2  O   UNL     1      63.519   7.519   6.665  1.00  0.00    -0.205 OA
HETATM    3  O   UNL     1      64.795   9.469   5.699  1.00  0.00    -0.205 OA
ENDROOT
BRANCH   1   4
HETATM    4  C   UNL     1      66.053   7.319   6.485  1.00  0.00     0.139 A 
HETATM    5  S   UNL     1      65.931   6.433   7.949  1.00  0.00    -0.062 SA
HETATM    6  C   UNL     1      67.614   6.115   7.895  1.00  0.00     0.048 A 
HETATM    7  N   UNL     1      68.250   6.622   6.863  1.00  0.00    -0.356 N 
HETATM    8  C   UNL     1      68.282   5.326   8.966  1.00  0.00     0.076 C 
HETATM    9  C   UNL     1      67.362   7.299   6.039  1.00  0.00     0.036 A 
ATOM     10  HN  UNL     1      69.252   6.530   6.693  1.00  0.00     0.166 HD
HETATM   11  C   UNL     1      67.912   7.918   4.804  1.00  0.00     0.070 C 
ENDBRANCH   1   4
BRANCH   1  12
HETATM   12  N   UNL     1      64.365   7.406   4.241  1.00  0.00    -0.206 NA
HETATM   13  C   UNL     1      63.082   7.834   3.608  1.00  0.00     0.107 C 
HETATM   14  C   UNL     1      63.024   7.366   2.158  1.00  0.00     0.015 C 
HETATM   15  C   UNL     1      63.191   5.854   2.070  1.00  0.00     0.002 C 
HETATM   16  C   UNL     1      64.490   5.434   2.745  1.00  0.00     0.015 C 
HETATM   17  C   UNL     1      64.547   5.925   4.191  1.00  0.00     0.107 C 
ENDBRANCH   1  12
TORSDOF 2
ENDMDL
MODEL 4
REMARK VINA RESULT:      -5.2     17.903     18.886
REMARK  2 active torsions:
REMARK  status: ('A' for Active; 'I' for Inactive)
REMARK    1  A    between atoms: C_1  and  S_2 
REMARK    2  A    between atoms: S_2  and  N_7 
ROOT
HETATM    1  S   UNL     1      75.066   1.219  17.258  1.00  0.00     0.252 S 
HETATM    2  O   UNL     1      74.488   0.842  18.532  1.00  0.00    -0.205 OA
HETATM    3  O   UNL     1      74.238   1.422  16.090  1.00  0.00    -0.205 OA
ENDROOT
BRANCH   1   4
HETATM    4  C   UNL     1      75.920   2.732  17.599  1.00  0.00     0.139 A 
HETATM    5  S   UNL     1      75.312   4.175  16.899  1.00  0.00    -0.062 SA
HETATM    6  C   UNL     1      76.576   5.064  17.639  1.00  0.00     0.048 A 
HETATM    7  N   UNL     1      77.410   4.358  18.368  1.00  0.00    -0.356 N 
HETATM    8  C   UNL     1      76.701   6.534  17.439  1.00  0.00     0.076 C 
HETATM    9  C   UNL     1      77.033   3.022  18.367  1.00  0.00     0.036 A 
ATOM     10  HN  UNL     1      78.218   4.737  18.864  1.00  0.00     0.166 HD
HETATM   11  C   UNL     1      77.858   2.079  19.166  1.00  0.00     0.070 C 
ENDBRANCH   1   4
BRANCH   1  12
HETATM   12  N   UNL     1      76.261   0.045  16.852  1.00  0.00    -0.206 NA
HETATM   13  C   UNL     1      76.358  -0.202  15.382  1.00  0.00     0.107 C 
HETATM   14  C   UNL     1      77.531  -1.128  15.076  1.00  0.00     0.015 C 
HETATM   15  C   UNL     1      77.395  -2.442  15.837  1.00  0.00     0.002 C 
HETATM   16  C   UNL     1      77.269  -2.168  17.330  1.00  0.00     0.015 C 
HETATM   17  C   UNL     1      76.105  -1.223  17.624  1.00  0.00     0.107 C 
ENDBRANCH   1  12
TORSDOF 2
ENDMDL
MODEL 5
REMARK VINA RESULT:      -5.1      1.706      5.625
REMARK  2 active torsions:
REMARK  status: ('A' for Active; 'I' for Inactive)
REMARK    1  A    between atoms: C_1  and  S_2 
REMARK    2  A    between atoms: S_2  and  N_7 
ROOT
HETATM    1  S   UNL     1      64.438   6.627   4.343  1.00  0.00     0.252 S 
HETATM    2  O   UNL     1      65.257   6.242   3.212  1.00  0.00    -0.205 OA
HETATM    3  O   UNL     1      63.355   5.787   4.805  1.00  0.00    -0.205 OA
ENDROOT
BRANCH   1   4
HETATM    4  C   UNL     1      65.593   6.818   5.671  1.00  0.00     0.139 A 
HETATM    5  S   UNL     1      65.149   6.224   7.217  1.00  0.00    -0.062 SA
HETATM    6  C   UNL     1      66.648   6.757   7.851  1.00  0.00     0.048 A 
HETATM    7  N   UNL     1      67.450   7.340   6.990  1.00  0.00    -0.356 N 
HETATM    8  C   UNL     1      66.985   6.567   9.289  1.00  0.00     0.076 C 
HETATM    9  C   UNL     1      66.862   7.365   5.732  1.00  0.00     0.036 A 
ATOM     10  HN  UNL     1      68.370   7.720   7.212  1.00  0.00     0.166 HD
HETATM   11  C   UNL     1      67.646   7.972   4.624  1.00  0.00     0.070 C 
ENDBRANCH   1   4
BRANCH   1  12
HETATM   12  N   UNL     1      63.783   8.187   4.016  1.00  0.00    -0.206 NA
HETATM   13  C   UNL     1      63.267   8.870   5.239  1.00  0.00     0.107 C 
HETATM   14  C   UNL     1      62.845  10.299   4.911  1.00  0.00     0.015 C 
HETATM   15  C   UNL     1      61.799  10.313   3.803  1.00  0.00     0.002 C 
HETATM   16  C   UNL     1      62.333   9.588   2.574  1.00  0.00     0.015 C 
HETATM   17  C   UNL     1      62.771   8.165   2.918  1.00  0.00     0.107 C 
ENDBRANCH   1  12
TORSDOF 2
ENDMDL
MODEL 6
REMARK VINA RESULT:      -5.1      2.517      3.581
REMARK  2 active torsions:
REMARK  status: ('A' for Active; 'I' for Inactive)
REMARK    1  A    between atoms: C_1  and  S_2 
REMARK    2  A    between atoms: S_2  and  N_7 
ROOT
HETATM    1  S   UNL     1      65.917   7.635   5.786  1.00  0.00     0.252 S 
HETATM    2  O   UNL     1      66.440   7.328   4.471  1.00  0.00    -0.205 OA
HETATM    3  O   UNL     1      66.043   8.959   6.354  1.00  0.00    -0.205 OA
ENDROOT
BRANCH   1   4
HETATM    4  C   UNL     1      64.193   7.246   5.669  1.00  0.00     0.139 A 
HETATM    5  S   UNL     1      63.666   5.730   6.273  1.00  0.00    -0.062 SA
HETATM    6  C   UNL     1      62.059   6.109   5.817  1.00  0.00     0.048 A 
HETATM    7  N   UNL     1      61.895   7.283   5.251  1.00  0.00    -0.356 N 
HETATM    8  C   UNL     1      60.947   5.145   6.048  1.00  0.00     0.076 C 
HETATM    9  C   UNL     1      63.109   7.952   5.178  1.00  0.00     0.036 A 
ATOM     10  HN  UNL     1      61.004   7.650   4.916  1.00  0.00     0.166 HD
HETATM   11  C   UNL     1      63.104   9.314   4.583  1.00  0.00     0.070 C 
ENDBRANCH   1   4
BRANCH   1  12
HETATM   12  N   UNL     1      66.610   6.521   6.905  1.00  0.00    -0.206 NA
HETATM   13  C   UNL     1      66.944   7.148   8.218  1.00  0.00     0.107 C 
HETATM   14  C   UNL     1      67.407   6.085   9.210  1.00  0.00     0.015 C 
HETATM   15  C   UNL     1      68.601   5.315   8.660  1.00  0.00     0.002 C 
HETATM   16  C   UNL     1      68.250   4.708   7.308  1.00  0.00     0.015 C 
HETATM   17  C   UNL     1      67.768   5.777   6.329  1.00  0.00     0.107 C 
ENDBRANCH   1  12
TORSDOF 2
ENDMDL
MODEL 7
REMARK VINA RESULT:      -5.1      1.467      2.152
REMARK  2 active torsions:
REMARK  status: ('A' for Active; 'I' for Inactive)
REMARK    1  A    between atoms: C_1  and  S_2 
REMARK    2  A    between atoms: S_2  and  N_7 
ROOT
HETATM    1  S   UNL     1      63.377   7.061   5.502  1.00  0.00     0.252 S 
HETATM    2  O   UNL     1      63.127   7.896   6.658  1.00  0.00    -0.205 OA
HETATM    3  O   UNL     1      62.721   5.781   5.345  1.00  0.00    -0.205 OA
ENDROOT
BRANCH   1   4
HETATM    4  C   UNL     1      62.933   8.081   4.125  1.00  0.00     0.139 A 
HETATM    5  S   UNL     1      62.478   9.704   4.439  1.00  0.00    -0.062 SA
HETATM    6  C   UNL     1      62.225   9.956   2.763  1.00  0.00     0.048 A 
HETATM    7  N   UNL     1      62.459   8.916   1.995  1.00  0.00    -0.356 N 
HETATM    8  C   UNL     1      61.760  11.272   2.245  1.00  0.00     0.076 C 
HETATM    9  C   UNL     1      62.882   7.840   2.763  1.00  0.00     0.036 A 
ATOM     10  HN  UNL     1      62.346   8.902   0.981  1.00  0.00     0.166 HD
HETATM   11  C   UNL     1      63.215   6.580   2.049  1.00  0.00     0.070 C 
ENDBRANCH   1   4
BRANCH   1  12
HETATM   12  N   UNL     1      65.077   6.790   5.401  1.00  0.00    -0.206 NA
HETATM   13  C   UNL     1      65.509   5.541   6.095  1.00  0.00     0.107 C 
HETATM   14  C   UNL     1      66.990   5.278   5.840  1.00  0.00     0.015 C 
HETATM   15  C   UNL     1      67.835   6.465   6.288  1.00  0.00     0.002 C 
HETATM   16  C   UNL     1      67.360   7.733   5.591  1.00  0.00     0.015 C 
HETATM   17  C   UNL     1      65.872   7.976   5.836  1.00  0.00     0.107 C 
ENDBRANCH   1  12
TORSDOF 2
ENDMDL
MODEL 8
REMARK VINA RESULT:      -5.1      4.616      6.151
REMARK  2 active torsions:
REMARK  status: ('A' for Active; 'I' for Inactive)
REMARK    1  A    between atoms: C_1  and  S_2 
REMARK    2  A    between atoms: S_2  and  N_7 
ROOT
HETATM    1  S   UNL     1      66.489   3.493   7.382  1.00  0.00     0.252 S 
HETATM    2  O   UNL     1      65.095   3.549   7.772  1.00  0.00    -0.205 OA
HETATM    3  O   UNL     1      66.934   2.626   6.313  1.00  0.00    -0.205 OA
ENDROOT
BRANCH   1   4
HETATM    4  C   UNL     1      66.884   5.161   6.940  1.00  0.00     0.139 A 
HETATM    5  S   UNL     1      67.385   5.471   5.329  1.00  0.00    -0.062 SA
HETATM    6  C   UNL     1      67.559   7.133   5.705  1.00  0.00     0.048 A 
HETATM    7  N   UNL     1      67.268   7.466   6.942  1.00  0.00    -0.356 N 
HETATM    8  C   UNL     1      68.024   8.108   4.680  1.00  0.00     0.076 C 
HETATM    9  C   UNL     1      66.863   6.345   7.655  1.00  0.00     0.036 A 
ATOM     10  HN  UNL     1      67.331   8.410   7.323  1.00  0.00     0.166 HD
HETATM   11  C   UNL     1      66.471   6.544   9.075  1.00  0.00     0.070 C 
ENDBRANCH   1   4
BRANCH   1  12
HETATM   12  N   UNL     1      67.416   3.108   8.783  1.00  0.00    -0.206 NA
HETATM   13  C   UNL     1      68.819   3.613   8.709  1.00  0.00     0.107 C 
HETATM   14  C   UNL     1      69.538   3.378  10.034  1.00  0.00     0.015 C 
HETATM   15  C   UNL     1      69.514   1.901  10.408  1.00  0.00     0.002 C 
HETATM   16  C   UNL     1      68.076   1.399  10.451  1.00  0.00     0.015 C 
HETATM   17  C   UNL     1      67.360   1.657   9.127  1.00  0.00     0.107 C 
ENDBRANCH   1  12
TORSDOF 2
ENDMDL
MODEL 9
REMARK VINA RESULT:      -5.1      3.103      6.356
REMARK  2 active torsions:
REMARK  status: ('A' for Active; 'I' for Inactive)
REMARK    1  A    between atoms: C_1  and  S_2 
REMARK    2  A    between atoms: S_2  and  N_7 
ROOT
HETATM    1  S   UNL     1      66.768   7.802   6.022  1.00  0.00     0.252 S 
HETATM    2  O   UNL     1      66.663   8.665   7.181  1.00  0.00    -0.205 OA
HETATM    3  O   UNL     1      67.588   8.167   4.887  1.00  0.00    -0.205 OA
ENDROOT
BRANCH   1   4
HETATM    4  C   UNL     1      67.378   6.273   6.673  1.00  0.00     0.139 A 
HETATM    5  S   UNL     1      67.771   6.208   8.341  1.00  0.00    -0.062 SA
HETATM    6  C   UNL     1      68.238   4.568   8.166  1.00  0.00     0.048 A 
HETATM    7  N   UNL     1      68.117   4.074   6.955  1.00  0.00    -0.356 N 
HETATM    8  C   UNL     1      68.753   3.788   9.324  1.00  0.00     0.076 C 
HETATM    9  C   UNL     1      67.608   5.038   6.094  1.00  0.00     0.036 A 
ATOM     10  HN  UNL     1      68.361   3.121   6.686  1.00  0.00     0.166 HD
HETATM   11  C   UNL     1      67.384   4.640   4.680  1.00  0.00     0.070 C 
ENDBRANCH   1   4
BRANCH   1  12
HETATM   12  N   UNL     1      65.175   7.502   5.438  1.00  0.00    -0.206 NA
HETATM   13  C   UNL     1      64.505   8.730   4.916  1.00  0.00     0.107 C 
HETATM   14  C   UNL     1      63.167   8.374   4.276  1.00  0.00     0.015 C 
HETATM   15  C   UNL     1      62.268   7.651   5.271  1.00  0.00     0.002 C 
HETATM   16  C   UNL     1      62.978   6.417   5.814  1.00  0.00     0.015 C 
HETATM   17  C   UNL     1      64.326   6.783   6.434  1.00  0.00     0.107 C 
ENDBRANCH   1  12
TORSDOF 2
ENDMDL
