MODEL 1
REMARK VINA RESULT:      -6.3      0.000      0.000
REMARK  3 active torsions:
REMARK  status: ('A' for Active; 'I' for Inactive)
REMARK    1  A    between atoms: C_1  and  C_2 
REMARK       I    between atoms: C_2  and  N_7 
REMARK    2  A    between atoms: C_3  and  O_4 
REMARK    3  A    between atoms: O_4  and  C_8 
ROOT
HETATM    1  C   UNL     1      77.561  11.368  19.682  1.00  0.00     0.065 C 
HETATM    2  C   UNL     1      78.352  12.188  20.518  1.00  0.00     0.085 C 
HETATM    3  C   UNL     1      76.302  11.765  19.224  1.00  0.00     0.020 C 
HETATM    4  C   UNL     1      77.952  13.509  20.679  1.00  0.00     0.038 C 
HETATM    5  C   UNL     1      75.889  13.071  19.455  1.00  0.00     0.001 C 
HETATM    6  C   UNL     1      76.740  13.953  20.124  1.00  0.00     0.003 C 
ENDROOT
BRANCH   2   7
HETATM    7  O   UNL     1      79.482  11.610  21.010  1.00  0.00    -0.345 OA
BRANCH   7   8
HETATM    8  C   UNL     1      80.152  11.927  22.239  1.00  0.00     0.133 C 
HETATM    9  C   UNL     1      79.336  11.897  23.541  1.00  0.00     0.058 C 
HETATM   10  C   UNL     1      79.919  12.723  24.690  1.00  0.00     0.170 C 
HETATM   11  O   UNL     1      80.662  13.859  24.264  1.00  0.00    -0.391 OA
HETATM   12  C   UNL     1      81.715  13.496  23.379  1.00  0.00     0.170 C 
HETATM   13  C   UNL     1      81.091  13.116  22.054  1.00  0.00     0.058 C 
ENDBRANCH   7   8
ENDBRANCH   2   7
BRANCH   1  14
HETATM   14  C   UNL     1      78.208  10.273  18.915  1.00  0.00     0.254 C 
HETATM   15  O   UNL     1      79.414  10.072  18.935  1.00  0.00    -0.268 OA
HETATM   16  N   UNL     1      77.267   9.449  18.337  1.00  0.00    -0.361 N 
HETATM   17  C   UNL     1      77.538   8.201  17.696  1.00  0.00     0.149 C 
HETATM   18  H   UNL     1      76.329   9.746  18.368  1.00  0.00     0.162 HD
ENDBRANCH   1  14
TORSDOF 3
ENDMDL
MODEL 2
REMARK VINA RESULT:      -6.3     22.377     25.636
REMARK  3 active torsions:
REMARK  status: ('A' for Active; 'I' for Inactive)
REMARK    1  A    between atoms: C_1  and  C_2 
REMARK       I    between atoms: C_2  and  N_7 
REMARK    2  A    between atoms: C_3  and  O_4 
REMARK    3  A    between atoms: O_4  and  C_8 
ROOT
HETATM    1  C   UNL     1      62.666   9.372   4.546  1.00  0.00     0.065 C 
HETATM    2  C   UNL     1      61.995   8.209   4.105  1.00  0.00     0.085 C 
HETATM    3  C   UNL     1      63.975   9.338   5.033  1.00  0.00     0.020 C 
HETATM    4  C   UNL     1      62.756   7.058   3.940  1.00  0.00     0.038 C 
HETATM    5  C   UNL     1      64.698   8.157   4.922  1.00  0.00     0.001 C 
HETATM    6  C   UNL     1      64.109   7.044   4.320  1.00  0.00     0.003 C 
ENDROOT
BRANCH   2   7
HETATM    7  O   UNL     1      60.676   8.368   3.804  1.00  0.00    -0.345 OA
BRANCH   7   8
HETATM    8  C   UNL     1      59.907   7.610   2.860  1.00  0.00     0.133 C 
HETATM    9  C   UNL     1      60.129   7.873   1.363  1.00  0.00     0.058 C 
HETATM   10  C   UNL     1      58.970   7.460   0.453  1.00  0.00     0.170 C 
HETATM   11  O   UNL     1      57.693   7.540   1.076  1.00  0.00    -0.391 OA
HETATM   12  C   UNL     1      57.640   6.765   2.267  1.00  0.00     0.170 C 
HETATM   13  C   UNL     1      58.457   7.484   3.319  1.00  0.00     0.058 C 
ENDBRANCH   7   8
ENDBRANCH   2   7
BRANCH   1  14
HETATM   14  C   UNL     1      62.180  10.703   4.102  1.00  0.00     0.254 C 
HETATM   15  O   UNL     1      62.160  11.680   4.836  1.00  0.00    -0.268 OA
HETATM   16  N   UNL     1      61.927  10.713   2.747  1.00  0.00    -0.361 N 
HETATM   17  C   UNL     1      61.634  11.873   1.965  1.00  0.00     0.149 C 
HETATM   18  H   UNL     1      61.949   9.847   2.279  1.00  0.00     0.162 HD
ENDBRANCH   1  14
TORSDOF 3
ENDMDL
MODEL 3
REMARK VINA RESULT:      -6.1      9.525     11.747
REMARK  3 active torsions:
REMARK  status: ('A' for Active; 'I' for Inactive)
REMARK    1  A    between atoms: C_1  and  C_2 
REMARK       I    between atoms: C_2  and  N_7 
REMARK    2  A    between atoms: C_3  and  O_4 
REMARK    3  A    between atoms: O_4  and  C_8 
ROOT
HETATM    1  C   UNL     1      75.045   2.508  17.167  1.00  0.00     0.065 C 
HETATM    2  C   UNL     1      76.164   2.471  18.028  1.00  0.00     0.085 C 
HETATM    3  C   UNL     1      74.598   3.693  16.576  1.00  0.00     0.020 C 
HETATM    4  C   UNL     1      76.964   3.606  18.084  1.00  0.00     0.038 C 
HETATM    5  C   UNL     1      75.378   4.836  16.701  1.00  0.00     0.001 C 
HETATM    6  C   UNL     1      76.586   4.772  17.398  1.00  0.00     0.003 C 
ENDROOT
BRANCH   2   7
HETATM    7  O   UNL     1      76.388   1.281  18.651  1.00  0.00    -0.345 OA
BRANCH   7   8
HETATM    8  C   UNL     1      77.551   0.450  18.537  1.00  0.00     0.133 C 
HETATM    9  C   UNL     1      77.414  -0.901  17.817  1.00  0.00     0.058 C 
HETATM   10  C   UNL     1      78.482  -1.937  18.173  1.00  0.00     0.170 C 
HETATM   11  O   UNL     1      78.990  -1.809  19.496  1.00  0.00    -0.391 OA
HETATM   12  C   UNL     1      79.515  -0.509  19.734  1.00  0.00     0.170 C 
HETATM   13  C   UNL     1      78.345   0.446  19.841  1.00  0.00     0.058 C 
ENDBRANCH   7   8
ENDBRANCH   2   7
BRANCH   1  14
HETATM   14  C   UNL     1      74.583   1.254  16.519  1.00  0.00     0.254 C 
HETATM   15  O   UNL     1      74.844   0.972  15.359  1.00  0.00    -0.268 OA
HETATM   16  N   UNL     1      73.987   0.414  17.434  1.00  0.00    -0.361 N 
HETATM   17  C   UNL     1      73.606  -0.942  17.192  1.00  0.00     0.149 C 
HETATM   18  H   UNL     1      73.807   0.779  18.331  1.00  0.00     0.162 HD
ENDBRANCH   1  14
TORSDOF 3
ENDMDL
MODEL 4
REMARK VINA RESULT:      -5.8     18.029     20.679
REMARK  3 active torsions:
REMARK  status: ('A' for Active; 'I' for Inactive)
REMARK    1  A    between atoms: C_1  and  C_2 
REMARK       I    between atoms: C_2  and  N_7 
REMARK    2  A    between atoms: C_3  and  O_4 
REMARK    3  A    between atoms: O_4  and  C_8 
ROOT
HETATM    1  C   UNL     1      67.753   5.301   6.602  1.00  0.00     0.065 C 
HETATM    2  C   UNL     1      67.031   6.447   7.001  1.00  0.00     0.085 C 
HETATM    3  C   UNL     1      68.629   4.634   7.462  1.00  0.00     0.020 C 
HETATM    4  C   UNL     1      67.026   6.758   8.356  1.00  0.00     0.038 C 
HETATM    5  C   UNL     1      68.662   5.006   8.800  1.00  0.00     0.001 C 
HETATM    6  C   UNL     1      67.817   6.021   9.253  1.00  0.00     0.003 C 
ENDROOT
BRANCH   2   7
HETATM    7  O   UNL     1      66.337   7.080   6.015  1.00  0.00    -0.345 OA
BRANCH   7   8
HETATM    8  C   UNL     1      65.001   7.597   6.091  1.00  0.00     0.133 C 
HETATM    9  C   UNL     1      63.861   6.621   6.422  1.00  0.00     0.058 C 
HETATM   10  C   UNL     1      62.468   7.079   5.983  1.00  0.00     0.170 C 
HETATM   11  O   UNL     1      62.472   7.906   4.825  1.00  0.00    -0.391 OA
HETATM   12  C   UNL     1      63.297   9.051   5.001  1.00  0.00     0.170 C 
HETATM   13  C   UNL     1      64.738   8.589   4.961  1.00  0.00     0.058 C 
ENDBRANCH   7   8
ENDBRANCH   2   7
BRANCH   1  14
HETATM   14  C   UNL     1      67.284   4.518   5.430  1.00  0.00     0.254 C 
HETATM   15  O   UNL     1      66.646   3.481   5.537  1.00  0.00    -0.268 OA
HETATM   16  N   UNL     1      67.519   5.197   4.254  1.00  0.00    -0.361 N 
HETATM   17  C   UNL     1      67.024   4.823   2.966  1.00  0.00     0.149 C 
HETATM   18  H   UNL     1      68.074   6.008   4.305  1.00  0.00     0.162 HD
ENDBRANCH   1  14
TORSDOF 3
ENDMDL
MODEL 5
REMARK VINA RESULT:      -5.8     20.859     24.172
REMARK  3 active torsions:
REMARK  status: ('A' for Active; 'I' for Inactive)
REMARK    1  A    between atoms: C_1  and  C_2 
REMARK       I    between atoms: C_2  and  N_7 
REMARK    2  A    between atoms: C_3  and  O_4 
REMARK    3  A    between atoms: O_4  and  C_8 
ROOT
HETATM    1  C   UNL     1      63.344   9.156   4.949  1.00  0.00     0.065 C 
HETATM    2  C   UNL     1      63.160   8.669   3.636  1.00  0.00     0.085 C 
HETATM    3  C   UNL     1      62.967  10.448   5.325  1.00  0.00     0.020 C 
HETATM    4  C   UNL     1      62.367   9.425   2.781  1.00  0.00     0.038 C 
HETATM    5  C   UNL     1      62.233  11.217   4.429  1.00  0.00     0.001 C 
HETATM    6  C   UNL     1      61.883  10.680   3.189  1.00  0.00     0.003 C 
ENDROOT
BRANCH   2   7
HETATM    7  O   UNL     1      63.715   7.453   3.376  1.00  0.00    -0.345 OA
BRANCH   7   8
HETATM    8  C   UNL     1      63.061   6.305   2.817  1.00  0.00     0.133 C 
HETATM    9  C   UNL     1      62.998   6.177   1.287  1.00  0.00     0.058 C 
HETATM   10  C   UNL     1      61.882   5.272   0.758  1.00  0.00     0.170 C 
HETATM   11  O   UNL     1      60.729   5.233   1.590  1.00  0.00    -0.391 OA
HETATM   12  C   UNL     1      61.052   4.835   2.917  1.00  0.00     0.170 C 
HETATM   13  C   UNL     1      61.776   5.988   3.578  1.00  0.00     0.058 C 
ENDBRANCH   7   8
ENDBRANCH   2   7
BRANCH   1  14
HETATM   14  C   UNL     1      63.529   8.192   6.064  1.00  0.00     0.254 C 
HETATM   15  O   UNL     1      62.598   7.758   6.726  1.00  0.00    -0.268 OA
HETATM   16  N   UNL     1      64.832   7.748   6.124  1.00  0.00    -0.361 N 
HETATM   17  C   UNL     1      65.309   6.680   6.946  1.00  0.00     0.149 C 
HETATM   18  H   UNL     1      65.491   8.207   5.554  1.00  0.00     0.162 HD
ENDBRANCH   1  14
TORSDOF 3
ENDMDL
MODEL 6
REMARK VINA RESULT:      -5.7     10.597     12.077
REMARK  3 active torsions:
REMARK  status: ('A' for Active; 'I' for Inactive)
REMARK    1  A    between atoms: C_1  and  C_2 
REMARK       I    between atoms: C_2  and  N_7 
REMARK    2  A    between atoms: C_3  and  O_4 
REMARK    3  A    between atoms: O_4  and  C_8 
ROOT
HETATM    1  C   UNL     1      75.688   0.849  16.720  1.00  0.00     0.065 C 
HETATM    2  C   UNL     1      76.787   1.312  17.477  1.00  0.00     0.085 C 
HETATM    3  C   UNL     1      74.568   1.645  16.468  1.00  0.00     0.020 C 
HETATM    4  C   UNL     1      76.837   2.671  17.764  1.00  0.00     0.038 C 
HETATM    5  C   UNL     1      74.609   2.987  16.825  1.00  0.00     0.001 C 
HETATM    6  C   UNL     1      75.764   3.508  17.412  1.00  0.00     0.003 C 
ENDROOT
BRANCH   2   7
HETATM    7  O   UNL     1      77.734   0.378  17.772  1.00  0.00    -0.345 OA
BRANCH   7   8
HETATM    8  C   UNL     1      78.038  -0.168  19.063  1.00  0.00     0.133 C 
HETATM    9  C   UNL     1      76.941  -0.956  19.796  1.00  0.00     0.058 C 
HETATM   10  C   UNL     1      77.115  -1.051  21.314  1.00  0.00     0.170 C 
HETATM   11  O   UNL     1      77.786   0.066  21.887  1.00  0.00    -0.391 OA
HETATM   12  C   UNL     1      79.060   0.276  21.291  1.00  0.00     0.170 C 
HETATM   13  C   UNL     1      78.831   0.831  19.901  1.00  0.00     0.058 C 
ENDBRANCH   7   8
ENDBRANCH   2   7
BRANCH   1  14
HETATM   14  C   UNL     1      75.868  -0.312  15.811  1.00  0.00     0.254 C 
HETATM   15  O   UNL     1      76.290  -0.200  14.669  1.00  0.00    -0.268 OA
HETATM   16  N   UNL     1      75.660  -1.500  16.477  1.00  0.00    -0.361 N 
HETATM   17  C   UNL     1      75.936  -2.803  15.957  1.00  0.00     0.149 C 
HETATM   18  H   UNL     1      75.288  -1.447  17.387  1.00  0.00     0.162 HD
ENDBRANCH   1  14
TORSDOF 3
ENDMDL
MODEL 7
REMARK VINA RESULT:      -5.7     19.225     22.007
REMARK  3 active torsions:
REMARK  status: ('A' for Active; 'I' for Inactive)
REMARK    1  A    between atoms: C_1  and  C_2 
REMARK       I    between atoms: C_2  and  N_7 
REMARK    2  A    between atoms: C_3  and  O_4 
REMARK    3  A    between atoms: O_4  and  C_8 
ROOT
HETATM    1  C   UNL     1      62.640   8.058   4.156  1.00  0.00     0.065 C 
HETATM    2  C   UNL     1      63.280   8.650   5.268  1.00  0.00     0.085 C 
HETATM    3  C   UNL     1      61.789   8.779   3.315  1.00  0.00     0.020 C 
HETATM    4  C   UNL     1      63.236  10.036   5.366  1.00  0.00     0.038 C 
HETATM    5  C   UNL     1      61.703  10.157   3.473  1.00  0.00     0.001 C 
HETATM    6  C   UNL     1      62.473  10.785   4.454  1.00  0.00     0.003 C 
ENDROOT
BRANCH   2   7
HETATM    7  O   UNL     1      63.954   7.793   6.084  1.00  0.00    -0.345 OA
BRANCH   7   8
HETATM    8  C   UNL     1      65.373   7.726   6.286  1.00  0.00     0.133 C 
HETATM    9  C   UNL     1      66.291   7.961   5.077  1.00  0.00     0.058 C 
HETATM   10  C   UNL     1      67.700   7.376   5.209  1.00  0.00     0.170 C 
HETATM   11  O   UNL     1      67.765   6.209   6.020  1.00  0.00    -0.391 OA
HETATM   12  C   UNL     1      67.241   6.444   7.322  1.00  0.00     0.170 C 
HETATM   13  C   UNL     1      65.736   6.557   7.197  1.00  0.00     0.058 C 
ENDBRANCH   7   8
ENDBRANCH   2   7
BRANCH   1  14
HETATM   14  C   UNL     1      63.183   6.796   3.592  1.00  0.00     0.254 C 
HETATM   15  O   UNL     1      63.910   6.767   2.610  1.00  0.00    -0.268 OA
HETATM   16  N   UNL     1      62.894   5.724   4.408  1.00  0.00    -0.361 N 
HETATM   17  C   UNL     1      63.426   4.404   4.265  1.00  0.00     0.149 C 
HETATM   18  H   UNL     1      62.267   5.879   5.151  1.00  0.00     0.162 HD
ENDBRANCH   1  14
TORSDOF 3
ENDMDL
MODEL 8
REMARK VINA RESULT:      -5.7     17.483     19.683
REMARK  3 active torsions:
REMARK  status: ('A' for Active; 'I' for Inactive)
REMARK    1  A    between atoms: C_1  and  C_2 
REMARK       I    between atoms: C_2  and  N_7 
REMARK    2  A    between atoms: C_3  and  O_4 
REMARK    3  A    between atoms: O_4  and  C_8 
ROOT
HETATM    1  C   UNL     1      68.232   2.585   7.930  1.00  0.00     0.065 C 
HETATM    2  C   UNL     1      68.525   3.907   7.528  1.00  0.00     0.085 C 
HETATM    3  C   UNL     1      68.810   2.004   9.062  1.00  0.00     0.020 C 
HETATM    4  C   UNL     1      69.222   4.707   8.426  1.00  0.00     0.038 C 
HETATM    5  C   UNL     1      69.562   2.805   9.912  1.00  0.00     0.001 C 
HETATM    6  C   UNL     1      69.711   4.163   9.625  1.00  0.00     0.003 C 
ENDROOT
BRANCH   2   7
HETATM    7  O   UNL     1      68.011   4.284   6.324  1.00  0.00    -0.345 OA
BRANCH   7   8
HETATM    8  C   UNL     1      67.136   5.391   6.066  1.00  0.00     0.133 C 
HETATM    9  C   UNL     1      67.764   6.753   5.733  1.00  0.00     0.058 C 
HETATM   10  C   UNL     1      66.861   7.962   5.985  1.00  0.00     0.170 C 
HETATM   11  O   UNL     1      65.928   7.774   7.044  1.00  0.00    -0.391 OA
HETATM   12  C   UNL     1      65.112   6.629   6.827  1.00  0.00     0.170 C 
HETATM   13  C   UNL     1      65.972   5.404   7.053  1.00  0.00     0.058 C 
ENDBRANCH   7   8
ENDBRANCH   2   7
BRANCH   1  14
HETATM   14  C   UNL     1      66.992   1.933   7.435  1.00  0.00     0.254 C 
HETATM   15  O   UNL     1      65.949   1.922   8.072  1.00  0.00    -0.268 OA
HETATM   16  N   UNL     1      67.141   1.508   6.133  1.00  0.00    -0.361 N 
HETATM   17  C   UNL     1      66.093   1.017   5.294  1.00  0.00     0.149 C 
HETATM   18  H   UNL     1      68.047   1.544   5.748  1.00  0.00     0.162 HD
ENDBRANCH   1  14
TORSDOF 3
ENDMDL
MODEL 9
REMARK VINA RESULT:      -5.6     10.375     13.453
REMARK  3 active torsions:
REMARK  status: ('A' for Active; 'I' for Inactive)
REMARK    1  A    between atoms: C_1  and  C_2 
REMARK       I    between atoms: C_2  and  N_7 
REMARK    2  A    between atoms: C_3  and  O_4 
REMARK    3  A    between atoms: O_4  and  C_8 
ROOT
HETATM    1  C   UNL     1      76.889   1.242  17.854  1.00  0.00     0.065 C 
HETATM    2  C   UNL     1      75.874   1.061  16.888  1.00  0.00     0.085 C 
HETATM    3  C   UNL     1      77.279   2.508  18.298  1.00  0.00     0.020 C 
HETATM    4  C   UNL     1      75.098   2.168  16.564  1.00  0.00     0.038 C 
HETATM    5  C   UNL     1      76.532   3.612  17.907  1.00  0.00     0.001 C 
HETATM    6  C   UNL     1      75.411   3.431  17.095  1.00  0.00     0.003 C 
ENDROOT
BRANCH   2   7
HETATM    7  O   UNL     1      75.709  -0.214  16.440  1.00  0.00    -0.345 OA
BRANCH   7   8
HETATM    8  C   UNL     1      76.092  -0.737  15.160  1.00  0.00     0.133 C 
HETATM    9  C   UNL     1      77.568  -0.630  14.743  1.00  0.00     0.058 C 
HETATM   10  C   UNL     1      77.822  -0.703  13.236  1.00  0.00     0.170 C 
HETATM   11  O   UNL     1      76.751  -0.197  12.446  1.00  0.00    -0.391 OA
HETATM   12  C   UNL     1      75.526  -0.858  12.737  1.00  0.00     0.170 C 
HETATM   13  C   UNL     1      75.059  -0.381  14.096  1.00  0.00     0.058 C 
ENDBRANCH   7   8
ENDBRANCH   2   7
BRANCH   1  14
HETATM   14  C   UNL     1      77.259   0.109  18.740  1.00  0.00     0.254 C 
HETATM   15  O   UNL     1      76.628  -0.180  19.746  1.00  0.00    -0.268 OA
HETATM   16  N   UNL     1      78.277  -0.639  18.189  1.00  0.00    -0.361 N 
HETATM   17  C   UNL     1      78.741  -1.900  18.679  1.00  0.00     0.149 C 
HETATM   18  H   UNL     1      78.722  -0.275  17.390  1.00  0.00     0.162 HD
ENDBRANCH   1  14
TORSDOF 3
ENDMDL
