MODEL 1
REMARK VINA RESULT:      -5.7      0.000      0.000
REMARK  3 active torsions:
REMARK  status: ('A' for Active; 'I' for Inactive)
REMARK    1  A    between atoms: C_1  and  S_3 
REMARK    2  A    between atoms: C_2  and  C_4 
REMARK       I    between atoms: C_2  and  N_11 
REMARK    3  A    between atoms: S_3  and  C_12 
ROOT
HETATM    1  C   UNL     1      78.461  11.411  19.975  1.00  0.00     0.031 A 
HETATM    2  C   UNL     1      79.352  10.406  19.582  1.00  0.00     0.018 A 
HETATM    3  C   UNL     1      77.243  11.554  19.301  1.00  0.00     0.018 A 
HETATM    4  C   UNL     1      77.815   9.689  17.845  1.00  0.00     0.009 A 
HETATM    5  C   UNL     1      79.036   9.558  18.514  1.00  0.00     0.020 A 
HETATM    6  C   UNL     1      76.928  10.699  18.238  1.00  0.00     0.020 A 
ENDROOT
BRANCH   1   7
HETATM    7  C   UNL     1      78.838  12.279  21.122  1.00  0.00     0.249 C 
HETATM    8  O   UNL     1      78.259  13.336  21.341  1.00  0.00    -0.268 OA
HETATM    9  N   UNL     1      79.830  11.837  21.952  1.00  0.00    -0.366 N 
HETATM   10  H   UNL     1      80.287  10.986  21.764  1.00  0.00     0.159 HD
HETATM   11  H   UNL     1      80.089  12.372  22.737  1.00  0.00     0.159 HD
ENDBRANCH   1   7
BRANCH   4  12
HETATM   12  S   UNL     1      77.402   8.672  16.442  1.00  0.00    -0.016 SA
BRANCH  12  13
HETATM   13  C   UNL     1      77.947   9.698  15.065  1.00  0.00     0.448 C 
HETATM   14  F   UNL     1      77.433  10.949  15.074  1.00  0.00    -0.160 F 
HETATM   15  F   UNL     1      77.598   9.131  13.884  1.00  0.00    -0.160 F 
HETATM   16  F   UNL     1      79.297   9.819  15.064  1.00  0.00    -0.160 F 
ENDBRANCH  12  13
ENDBRANCH   4  12
TORSDOF 3
ENDMDL
MODEL 2
REMARK VINA RESULT:      -5.5     13.881     14.592
REMARK  3 active torsions:
REMARK  status: ('A' for Active; 'I' for Inactive)
REMARK    1  A    between atoms: C_1  and  S_3 
REMARK    2  A    between atoms: C_2  and  C_4 
REMARK       I    between atoms: C_2  and  N_11 
REMARK    3  A    between atoms: S_3  and  C_12 
ROOT
HETATM    1  C   UNL     1      71.289  23.609  13.749  1.00  0.00     0.031 A 
HETATM    2  C   UNL     1      70.170  22.998  13.172  1.00  0.00     0.018 A 
HETATM    3  C   UNL     1      72.561  23.343  13.233  1.00  0.00     0.018 A 
HETATM    4  C   UNL     1      71.590  21.856  11.568  1.00  0.00     0.009 A 
HETATM    5  C   UNL     1      70.321  22.116  12.096  1.00  0.00     0.020 A 
HETATM    6  C   UNL     1      72.708  22.466  12.152  1.00  0.00     0.020 A 
ENDROOT
BRANCH   1   7
HETATM    7  C   UNL     1      71.075  24.546  14.883  1.00  0.00     0.249 C 
HETATM    8  O   UNL     1      69.956  24.763  15.331  1.00  0.00    -0.268 OA
HETATM    9  N   UNL     1      72.178  25.132  15.439  1.00  0.00    -0.366 N 
HETATM   10  H   UNL     1      73.072  24.949  15.070  1.00  0.00     0.159 HD
HETATM   11  H   UNL     1      72.078  25.738  16.209  1.00  0.00     0.159 HD
ENDBRANCH   1   7
BRANCH   4  12
HETATM   12  S   UNL     1      71.832  20.693  10.241  1.00  0.00    -0.016 SA
BRANCH  12  13
HETATM   13  C   UNL     1      71.125  19.187  10.932  1.00  0.00     0.448 C 
HETATM   14  F   UNL     1      71.521  18.056  10.305  1.00  0.00    -0.160 F 
HETATM   15  F   UNL     1      69.771  19.226  10.869  1.00  0.00    -0.160 F 
HETATM   16  F   UNL     1      71.457  19.058  12.240  1.00  0.00    -0.160 F 
ENDBRANCH  12  13
ENDBRANCH   4  12
TORSDOF 3
ENDMDL
MODEL 3
REMARK VINA RESULT:      -5.3     14.657     15.929
REMARK  3 active torsions:
REMARK  status: ('A' for Active; 'I' for Inactive)
REMARK    1  A    between atoms: C_1  and  S_3 
REMARK    2  A    between atoms: C_2  and  C_4 
REMARK       I    between atoms: C_2  and  N_11 
REMARK    3  A    between atoms: S_3  and  C_12 
ROOT
HETATM    1  C   UNL     1      68.927   4.639   8.794  1.00  0.00     0.031 A 
HETATM    2  C   UNL     1      68.196   5.701   9.338  1.00  0.00     0.018 A 
HETATM    3  C   UNL     1      68.615   4.175   7.512  1.00  0.00     0.018 A 
HETATM    4  C   UNL     1      66.844   5.834   7.327  1.00  0.00     0.009 A 
HETATM    5  C   UNL     1      67.152   6.287   8.614  1.00  0.00     0.020 A 
HETATM    6  C   UNL     1      67.574   4.768   6.788  1.00  0.00     0.020 A 
ENDROOT
BRANCH   1   7
HETATM    7  C   UNL     1      70.034   4.058   9.599  1.00  0.00     0.249 C 
HETATM    8  O   UNL     1      71.199   4.390   9.417  1.00  0.00    -0.268 OA
HETATM    9  N   UNL     1      69.704   3.167  10.581  1.00  0.00    -0.366 N 
HETATM   10  H   UNL     1      68.763   2.910  10.717  1.00  0.00     0.159 HD
HETATM   11  H   UNL     1      70.407   2.782  11.152  1.00  0.00     0.159 HD
ENDBRANCH   1   7
BRANCH   4  12
HETATM   12  S   UNL     1      65.483   6.510   6.397  1.00  0.00    -0.016 SA
BRANCH  12  13
HETATM   13  C   UNL     1      66.215   7.999   5.695  1.00  0.00     0.448 C 
HETATM   14  F   UNL     1      67.318   7.769   4.948  1.00  0.00    -0.160 F 
HETATM   15  F   UNL     1      66.571   8.862   6.678  1.00  0.00    -0.160 F 
HETATM   16  F   UNL     1      65.323   8.644   4.905  1.00  0.00    -0.160 F 
ENDBRANCH  12  13
ENDBRANCH   4  12
TORSDOF 3
ENDMDL
MODEL 4
REMARK VINA RESULT:      -5.2     15.341     17.161
REMARK  3 active torsions:
REMARK  status: ('A' for Active; 'I' for Inactive)
REMARK    1  A    between atoms: C_1  and  S_3 
REMARK    2  A    between atoms: C_2  and  C_4 
REMARK       I    between atoms: C_2  and  N_11 
REMARK    3  A    between atoms: S_3  and  C_12 
ROOT
HETATM    1  C   UNL     1      65.433   7.680   5.748  1.00  0.00     0.031 A 
HETATM    2  C   UNL     1      66.790   7.695   5.405  1.00  0.00     0.018 A 
HETATM    3  C   UNL     1      64.956   6.699   6.623  1.00  0.00     0.018 A 
HETATM    4  C   UNL     1      67.191   5.753   6.804  1.00  0.00     0.009 A 
HETATM    5  C   UNL     1      67.661   6.728   5.920  1.00  0.00     0.020 A 
HETATM    6  C   UNL     1      65.831   5.738   7.141  1.00  0.00     0.020 A 
ENDROOT
BRANCH   1   7
HETATM    7  C   UNL     1      64.551   8.736   5.184  1.00  0.00     0.249 C 
HETATM    8  O   UNL     1      64.511   9.861   5.666  1.00  0.00    -0.268 OA
HETATM    9  N   UNL     1      63.811   8.420   4.079  1.00  0.00    -0.366 N 
HETATM   10  H   UNL     1      63.853   7.512   3.701  1.00  0.00     0.159 HD
HETATM   11  H   UNL     1      63.236   9.101   3.661  1.00  0.00     0.159 HD
ENDBRANCH   1   7
BRANCH   4  12
HETATM   12  S   UNL     1      68.252   4.467   7.432  1.00  0.00    -0.016 SA
BRANCH  12  13
HETATM   13  C   UNL     1      68.988   5.262   8.871  1.00  0.00     0.448 C 
HETATM   14  F   UNL     1      68.289   6.326   9.329  1.00  0.00    -0.160 F 
HETATM   15  F   UNL     1      70.238   5.701   8.584  1.00  0.00    -0.160 F 
HETATM   16  F   UNL     1      69.101   4.385   9.898  1.00  0.00    -0.160 F 
ENDBRANCH  12  13
ENDBRANCH   4  12
TORSDOF 3
ENDMDL
MODEL 5
REMARK VINA RESULT:      -5.2      7.857      8.765
REMARK  3 active torsions:
REMARK  status: ('A' for Active; 'I' for Inactive)
REMARK    1  A    between atoms: C_1  and  S_3 
REMARK    2  A    between atoms: C_2  and  C_4 
REMARK       I    between atoms: C_2  and  N_11 
REMARK    3  A    between atoms: S_3  and  C_12 
ROOT
HETATM    1  C   UNL     1      76.194   4.964  17.211  1.00  0.00     0.031 A 
HETATM    2  C   UNL     1      74.949   4.671  16.642  1.00  0.00     0.018 A 
HETATM    3  C   UNL     1      76.919   3.946  17.840  1.00  0.00     0.018 A 
HETATM    4  C   UNL     1      75.152   2.352  17.329  1.00  0.00     0.009 A 
HETATM    5  C   UNL     1      74.426   3.375  16.712  1.00  0.00     0.020 A 
HETATM    6  C   UNL     1      76.395   2.650  17.902  1.00  0.00     0.020 A 
ENDROOT
BRANCH   1   7
HETATM    7  C   UNL     1      76.711   6.353  17.101  1.00  0.00     0.249 C 
HETATM    8  O   UNL     1      76.947   7.029  18.095  1.00  0.00    -0.268 OA
HETATM    9  N   UNL     1      76.954   6.842  15.847  1.00  0.00    -0.366 N 
HETATM   10  H   UNL     1      76.760   6.288  15.057  1.00  0.00     0.159 HD
HETATM   11  H   UNL     1      77.322   7.748  15.735  1.00  0.00     0.159 HD
ENDBRANCH   1   7
BRANCH   4  12
HETATM   12  S   UNL     1      74.495   0.705  17.495  1.00  0.00    -0.016 SA
BRANCH  12  13
HETATM   13  C   UNL     1      74.780   0.023  15.852  1.00  0.00     0.448 C 
HETATM   14  F   UNL     1      74.527  -1.302  15.755  1.00  0.00    -0.160 F 
HETATM   15  F   UNL     1      76.070   0.211  15.478  1.00  0.00    -0.160 F 
HETATM   16  F   UNL     1      74.005   0.648  14.932  1.00  0.00    -0.160 F 
ENDBRANCH  12  13
ENDBRANCH   4  12
TORSDOF 3
ENDMDL
MODEL 6
REMARK VINA RESULT:      -5.1     14.935     15.796
REMARK  3 active torsions:
REMARK  status: ('A' for Active; 'I' for Inactive)
REMARK    1  A    between atoms: C_1  and  S_3 
REMARK    2  A    between atoms: C_2  and  C_4 
REMARK       I    between atoms: C_2  and  N_11 
REMARK    3  A    between atoms: S_3  and  C_12 
ROOT
HETATM    1  C   UNL     1      69.592  24.697  14.786  1.00  0.00     0.031 A 
HETATM    2  C   UNL     1      69.717  23.577  13.956  1.00  0.00     0.018 A 
HETATM    3  C   UNL     1      70.742  25.367  15.217  1.00  0.00     0.018 A 
HETATM    4  C   UNL     1      72.134  23.793  13.988  1.00  0.00     0.009 A 
HETATM    5  C   UNL     1      70.982  23.120  13.570  1.00  0.00     0.020 A 
HETATM    6  C   UNL     1      72.005  24.910  14.822  1.00  0.00     0.020 A 
ENDROOT
BRANCH   1   7
HETATM    7  C   UNL     1      68.226  25.150  15.160  1.00  0.00     0.249 C 
HETATM    8  O   UNL     1      67.872  25.216  16.330  1.00  0.00    -0.268 OA
HETATM    9  N   UNL     1      67.385  25.529  14.151  1.00  0.00    -0.366 N 
HETATM   10  H   UNL     1      67.682  25.471  13.214  1.00  0.00     0.159 HD
HETATM   11  H   UNL     1      66.482  25.860  14.361  1.00  0.00     0.159 HD
ENDBRANCH   1   7
BRANCH   4  12
HETATM   12  S   UNL     1      73.764  23.208  13.570  1.00  0.00    -0.016 SA
BRANCH  12  13
HETATM   13  C   UNL     1      74.314  22.494  15.130  1.00  0.00     0.448 C 
HETATM   14  F   UNL     1      74.499  23.402  16.115  1.00  0.00    -0.160 F 
HETATM   15  F   UNL     1      75.490  21.840  14.964  1.00  0.00    -0.160 F 
HETATM   16  F   UNL     1      73.416  21.586  15.585  1.00  0.00    -0.160 F 
ENDBRANCH  12  13
ENDBRANCH   4  12
TORSDOF 3
ENDMDL
MODEL 7
REMARK VINA RESULT:      -5.0     15.112     16.122
REMARK  3 active torsions:
REMARK  status: ('A' for Active; 'I' for Inactive)
REMARK    1  A    between atoms: C_1  and  S_3 
REMARK    2  A    between atoms: C_2  and  C_4 
REMARK       I    between atoms: C_2  and  N_11 
REMARK    3  A    between atoms: S_3  and  C_12 
ROOT
HETATM    1  C   UNL     1      68.268   3.509   9.087  1.00  0.00     0.031 A 
HETATM    2  C   UNL     1      67.647   3.182   7.876  1.00  0.00     0.018 A 
HETATM    3  C   UNL     1      68.700   4.821   9.306  1.00  0.00     0.018 A 
HETATM    4  C   UNL     1      67.890   5.470   7.105  1.00  0.00     0.009 A 
HETATM    5  C   UNL     1      67.471   4.154   6.885  1.00  0.00     0.020 A 
HETATM    6  C   UNL     1      68.516   5.792   8.315  1.00  0.00     0.020 A 
ENDROOT
BRANCH   1   7
HETATM    7  C   UNL     1      68.422   2.443  10.112  1.00  0.00     0.249 C 
HETATM    8  O   UNL     1      67.509   1.668  10.370  1.00  0.00    -0.268 OA
HETATM    9  N   UNL     1      69.634   2.330  10.733  1.00  0.00    -0.366 N 
HETATM   10  H   UNL     1      70.359   2.959  10.516  1.00  0.00     0.159 HD
HETATM   11  H   UNL     1      69.781   1.619  11.398  1.00  0.00     0.159 HD
ENDBRANCH   1   7
BRANCH   4  12
HETATM   12  S   UNL     1      67.742   6.722   5.847  1.00  0.00    -0.016 SA
BRANCH  12  13
HETATM   13  C   UNL     1      66.400   7.738   6.488  1.00  0.00     0.448 C 
HETATM   14  F   UNL     1      65.607   7.101   7.380  1.00  0.00    -0.160 F 
HETATM   15  F   UNL     1      65.602   8.163   5.478  1.00  0.00    -0.160 F 
HETATM   16  F   UNL     1      66.887   8.844   7.102  1.00  0.00    -0.160 F 
ENDBRANCH  12  13
ENDBRANCH   4  12
TORSDOF 3
ENDMDL
MODEL 8
REMARK VINA RESULT:      -5.0     14.822     15.781
REMARK  3 active torsions:
REMARK  status: ('A' for Active; 'I' for Inactive)
REMARK    1  A    between atoms: C_1  and  S_3 
REMARK    2  A    between atoms: C_2  and  C_4 
REMARK       I    between atoms: C_2  and  N_11 
REMARK    3  A    between atoms: S_3  and  C_12 
ROOT
HETATM    1  C   UNL     1      68.491   3.102   9.496  1.00  0.00     0.031 A 
HETATM    2  C   UNL     1      69.351   4.207   9.469  1.00  0.00     0.018 A 
HETATM    3  C   UNL     1      67.467   3.005   8.548  1.00  0.00     0.018 A 
HETATM    4  C   UNL     1      68.166   5.114   7.555  1.00  0.00     0.009 A 
HETATM    5  C   UNL     1      69.181   5.213   8.512  1.00  0.00     0.020 A 
HETATM    6  C   UNL     1      67.305   4.010   7.588  1.00  0.00     0.020 A 
ENDROOT
BRANCH   1   7
HETATM    7  C   UNL     1      68.720   2.055  10.526  1.00  0.00     0.249 C 
HETATM    8  O   UNL     1      69.845   1.794  10.933  1.00  0.00    -0.268 OA
HETATM    9  N   UNL     1      67.624   1.415  11.034  1.00  0.00    -0.366 N 
HETATM   10  H   UNL     1      66.726   1.635  10.699  1.00  0.00     0.159 HD
HETATM   11  H   UNL     1      67.735   0.735  11.737  1.00  0.00     0.159 HD
ENDBRANCH   1   7
BRANCH   4  12
HETATM   12  S   UNL     1      67.877   6.402   6.360  1.00  0.00    -0.016 SA
BRANCH  12  13
HETATM   13  C   UNL     1      66.692   7.450   7.222  1.00  0.00     0.448 C 
HETATM   14  F   UNL     1      66.714   8.744   6.828  1.00  0.00    -0.160 F 
HETATM   15  F   UNL     1      66.928   7.435   8.557  1.00  0.00    -0.160 F 
HETATM   16  F   UNL     1      65.428   6.996   7.037  1.00  0.00    -0.160 F 
ENDBRANCH  12  13
ENDBRANCH   4  12
TORSDOF 3
ENDMDL
MODEL 9
REMARK VINA RESULT:      -4.9     15.207     16.167
REMARK  3 active torsions:
REMARK  status: ('A' for Active; 'I' for Inactive)
REMARK    1  A    between atoms: C_1  and  S_3 
REMARK    2  A    between atoms: C_2  and  C_4 
REMARK       I    between atoms: C_2  and  N_11 
REMARK    3  A    between atoms: S_3  and  C_12 
ROOT
HETATM    1  C   UNL     1      66.543   6.474   7.427  1.00  0.00     0.031 A 
HETATM    2  C   UNL     1      66.896   6.687   8.764  1.00  0.00     0.018 A 
HETATM    3  C   UNL     1      67.227   5.511   6.679  1.00  0.00     0.018 A 
HETATM    4  C   UNL     1      68.615   4.982   8.607  1.00  0.00     0.009 A 
HETATM    5  C   UNL     1      67.936   5.954   9.347  1.00  0.00     0.020 A 
HETATM    6  C   UNL     1      68.262   4.775   7.268  1.00  0.00     0.020 A 
ENDROOT
BRANCH   1   7
HETATM    7  C   UNL     1      65.424   7.271   6.857  1.00  0.00     0.249 C 
HETATM    8  O   UNL     1      64.257   7.029   7.140  1.00  0.00    -0.268 OA
HETATM    9  N   UNL     1      65.744   8.313   6.033  1.00  0.00    -0.366 N 
HETATM   10  H   UNL     1      66.685   8.498   5.813  1.00  0.00     0.159 HD
HETATM   11  H   UNL     1      65.031   8.880   5.658  1.00  0.00     0.159 HD
ENDBRANCH   1   7
BRANCH   4  12
HETATM   12  S   UNL     1      69.985   4.071   9.292  1.00  0.00    -0.016 SA
BRANCH  12  13
HETATM   13  C   UNL     1      69.204   2.515   9.754  1.00  0.00     0.448 C 
HETATM   14  F   UNL     1      69.666   1.990  10.911  1.00  0.00    -0.160 F 
HETATM   15  F   UNL     1      69.395   1.583   8.787  1.00  0.00    -0.160 F 
HETATM   16  F   UNL     1      67.865   2.673   9.892  1.00  0.00    -0.160 F 
ENDBRANCH  12  13
ENDBRANCH   4  12
TORSDOF 3
ENDMDL
