MODEL 1
REMARK VINA RESULT:      -4.9      0.000      0.000
REMARK  2 active torsions:
REMARK  status: ('A' for Active; 'I' for Inactive)
REMARK    1  A    between atoms: C_3  and  N_5 
REMARK    2  A    between atoms: C_4  and  O_6 
ROOT
HETATM    1  N   UNL     1      78.806  11.176  20.075  1.00  0.00    -0.324 N 
ATOM      2  HN  UNL     1      79.414  10.401  19.810  1.00  0.00     0.169 HD
HETATM    3  C   UNL     1      79.079  11.947  21.138  1.00  0.00     0.100 A 
HETATM    4  C   UNL     1      77.691  11.471  19.370  1.00  0.00     0.143 A 
HETATM    5  C   UNL     1      77.139  13.304  20.780  1.00  0.00     0.008 A 
HETATM    6  C   UNL     1      78.283  13.019  21.520  1.00  0.00     0.048 A 
HETATM    7  C   UNL     1      76.833  12.512  19.680  1.00  0.00     0.056 A 
ENDROOT
BRANCH   3   8
HETATM    8  N   UNL     1      80.241  11.640  21.842  1.00  0.00    -0.385 N 
HETATM    9  H   UNL     1      80.348  11.946  22.771  1.00  0.00     0.157 HD
HETATM   10  H   UNL     1      80.954  11.117  21.410  1.00  0.00     0.157 HD
ENDBRANCH   3   8
BRANCH   4  11
HETATM   11  O   UNL     1      77.350  10.701  18.273  1.00  0.00    -0.341 OA
HETATM   12  C   UNL     1      77.624   9.317  18.468  1.00  0.00     0.211 C 
ENDBRANCH   4  11
TORSDOF 2
ENDMDL
MODEL 2
REMARK VINA RESULT:      -4.7      2.013      3.287
REMARK  2 active torsions:
REMARK  status: ('A' for Active; 'I' for Inactive)
REMARK    1  A    between atoms: C_3  and  N_5 
REMARK    2  A    between atoms: C_4  and  O_6 
ROOT
HETATM    1  N   UNL     1      78.161  11.389  20.623  1.00  0.00    -0.324 N 
ATOM      2  HN  UNL     1      78.732  10.782  21.211  1.00  0.00     0.169 HD
HETATM    3  C   UNL     1      77.600  10.941  19.491  1.00  0.00     0.100 A 
HETATM    4  C   UNL     1      77.938  12.681  20.952  1.00  0.00     0.143 A 
HETATM    5  C   UNL     1      76.590  13.062  19.030  1.00  0.00     0.008 A 
HETATM    6  C   UNL     1      76.807  11.735  18.673  1.00  0.00     0.048 A 
HETATM    7  C   UNL     1      77.169  13.549  20.195  1.00  0.00     0.056 A 
ENDROOT
BRANCH   3   8
HETATM    8  N   UNL     1      77.827   9.603  19.176  1.00  0.00    -0.385 N 
HETATM    9  H   UNL     1      77.545   8.897  19.801  1.00  0.00     0.157 HD
HETATM   10  H   UNL     1      78.268   9.364  18.329  1.00  0.00     0.157 HD
ENDBRANCH   3   8
BRANCH   4  11
HETATM   11  O   UNL     1      78.503  13.203  22.100  1.00  0.00    -0.341 OA
HETATM   12  C   UNL     1      79.584  12.415  22.588  1.00  0.00     0.211 C 
ENDBRANCH   4  11
TORSDOF 2
ENDMDL
MODEL 3
REMARK VINA RESULT:      -4.4      1.830      3.143
REMARK  2 active torsions:
REMARK  status: ('A' for Active; 'I' for Inactive)
REMARK    1  A    between atoms: C_3  and  N_5 
REMARK    2  A    between atoms: C_4  and  O_6 
ROOT
HETATM    1  N   UNL     1      78.499  11.374  19.948  1.00  0.00    -0.324 N 
ATOM      2  HN  UNL     1      78.866  11.897  20.744  1.00  0.00     0.169 HD
HETATM    3  C   UNL     1      79.193  10.369  19.393  1.00  0.00     0.100 A 
HETATM    4  C   UNL     1      77.294  11.663  19.409  1.00  0.00     0.143 A 
HETATM    5  C   UNL     1      77.477   9.941  17.779  1.00  0.00     0.008 A 
HETATM    6  C   UNL     1      78.720   9.626  18.319  1.00  0.00     0.048 A 
HETATM    7  C   UNL     1      76.746  10.984  18.334  1.00  0.00     0.056 A 
ENDROOT
BRANCH   3   8
HETATM    8  N   UNL     1      80.424  10.074  19.973  1.00  0.00    -0.385 N 
HETATM    9  H   UNL     1      81.027   9.425  19.543  1.00  0.00     0.157 HD
HETATM   10  H   UNL     1      80.692  10.514  20.811  1.00  0.00     0.157 HD
ENDBRANCH   3   8
BRANCH   4  11
HETATM   11  O   UNL     1      76.541  12.699  19.929  1.00  0.00    -0.341 OA
HETATM   12  C   UNL     1      76.975  13.977  19.473  1.00  0.00     0.211 C 
ENDBRANCH   4  11
TORSDOF 2
ENDMDL
MODEL 4
REMARK VINA RESULT:      -4.3      8.030      9.082
REMARK  2 active torsions:
REMARK  status: ('A' for Active; 'I' for Inactive)
REMARK    1  A    between atoms: C_3  and  N_5 
REMARK    2  A    between atoms: C_4  and  O_6 
ROOT
HETATM    1  N   UNL     1      75.994   2.674  18.226  1.00  0.00    -0.324 N 
ATOM      2  HN  UNL     1      75.981   1.754  18.666  1.00  0.00     0.169 HD
HETATM    3  C   UNL     1      76.840   3.632  18.634  1.00  0.00     0.100 A 
HETATM    4  C   UNL     1      75.161   2.980  17.207  1.00  0.00     0.143 A 
HETATM    5  C   UNL     1      76.027   5.185  17.002  1.00  0.00     0.008 A 
HETATM    6  C   UNL     1      76.895   4.891  18.050  1.00  0.00     0.048 A 
HETATM    7  C   UNL     1      75.138   4.209  16.570  1.00  0.00     0.056 A 
ENDROOT
BRANCH   3   8
HETATM    8  N   UNL     1      77.703   3.293  19.673  1.00  0.00    -0.385 N 
HETATM    9  H   UNL     1      77.431   2.621  20.338  1.00  0.00     0.157 HD
HETATM   10  H   UNL     1      78.584   3.726  19.741  1.00  0.00     0.157 HD
ENDBRANCH   3   8
BRANCH   4  11
HETATM   11  O   UNL     1      74.257   2.037  16.754  1.00  0.00    -0.341 OA
HETATM   12  C   UNL     1      74.407   0.777  17.401  1.00  0.00     0.211 C 
ENDBRANCH   4  11
TORSDOF 2
ENDMDL
MODEL 5
REMARK VINA RESULT:      -4.3     13.118     13.878
REMARK  2 active torsions:
REMARK  status: ('A' for Active; 'I' for Inactive)
REMARK    1  A    between atoms: C_3  and  N_5 
REMARK    2  A    between atoms: C_4  and  O_6 
ROOT
HETATM    1  N   UNL     1      73.002  21.965  14.158  1.00  0.00    -0.324 N 
ATOM      2  HN  UNL     1      73.327  21.032  13.903  1.00  0.00     0.169 HD
HETATM    3  C   UNL     1      73.658  22.713  15.057  1.00  0.00     0.100 A 
HETATM    4  C   UNL     1      71.893  22.501  13.603  1.00  0.00     0.143 A 
HETATM    5  C   UNL     1      72.107  24.523  14.835  1.00  0.00     0.008 A 
HETATM    6  C   UNL     1      73.253  23.991  15.419  1.00  0.00     0.048 A 
HETATM    7  C   UNL     1      71.408  23.762  13.907  1.00  0.00     0.056 A 
ENDROOT
BRANCH   3   8
HETATM    8  N   UNL     1      74.809  22.152  15.606  1.00  0.00    -0.385 N 
HETATM    9  H   UNL     1      75.622  22.698  15.707  1.00  0.00     0.157 HD
HETATM   10  H   UNL     1      74.809  21.210  15.892  1.00  0.00     0.157 HD
ENDBRANCH   3   8
BRANCH   4  11
HETATM   11  O   UNL     1      71.166  21.770  12.681  1.00  0.00    -0.341 OA
HETATM   12  C   UNL     1      71.600  21.991  11.342  1.00  0.00     0.211 C 
ENDBRANCH   4  11
TORSDOF 2
ENDMDL
MODEL 6
REMARK VINA RESULT:      -4.2      1.801      2.735
REMARK  2 active torsions:
REMARK  status: ('A' for Active; 'I' for Inactive)
REMARK    1  A    between atoms: C_3  and  N_5 
REMARK    2  A    between atoms: C_4  and  O_6 
ROOT
HETATM    1  N   UNL     1      77.250  11.614  18.970  1.00  0.00    -0.324 N 
ATOM      2  HN  UNL     1      77.074  11.072  18.123  1.00  0.00     0.169 HD
HETATM    3  C   UNL     1      76.391  12.555  19.388  1.00  0.00     0.100 A 
HETATM    4  C   UNL     1      78.357  11.412  19.718  1.00  0.00     0.143 A 
HETATM    5  C   UNL     1      77.738  13.078  21.298  1.00  0.00     0.008 A 
HETATM    6  C   UNL     1      76.591  13.302  20.542  1.00  0.00     0.048 A 
HETATM    7  C   UNL     1      78.644  12.113  20.877  1.00  0.00     0.056 A 
ENDROOT
BRANCH   3   8
HETATM    8  N   UNL     1      75.248  12.737  18.615  1.00  0.00    -0.385 N 
HETATM    9  H   UNL     1      74.994  12.061  17.946  1.00  0.00     0.157 HD
HETATM   10  H   UNL     1      74.693  13.541  18.738  1.00  0.00     0.157 HD
ENDBRANCH   3   8
BRANCH   4  11
HETATM   11  O   UNL     1      79.286  10.466  19.327  1.00  0.00    -0.341 OA
HETATM   12  C   UNL     1      78.765   9.548  18.370  1.00  0.00     0.211 C 
ENDBRANCH   4  11
TORSDOF 2
ENDMDL
MODEL 7
REMARK VINA RESULT:      -4.2     20.559     21.584
REMARK  2 active torsions:
REMARK  status: ('A' for Active; 'I' for Inactive)
REMARK    1  A    between atoms: C_3  and  N_5 
REMARK    2  A    between atoms: C_4  and  O_6 
ROOT
HETATM    1  N   UNL     1      63.813   9.570   5.344  1.00  0.00    -0.324 N 
ATOM      2  HN  UNL     1      64.499   9.266   6.035  1.00  0.00     0.169 HD
HETATM    3  C   UNL     1      63.204  10.761   5.440  1.00  0.00     0.100 A 
HETATM    4  C   UNL     1      63.478   8.790   4.292  1.00  0.00     0.143 A 
HETATM    5  C   UNL     1      61.945  10.393   3.437  1.00  0.00     0.008 A 
HETATM    6  C   UNL     1      62.275  11.213   4.512  1.00  0.00     0.048 A 
HETATM    7  C   UNL     1      62.558   9.152   3.323  1.00  0.00     0.056 A 
ENDROOT
BRANCH   3   8
HETATM    8  N   UNL     1      63.574  11.559   6.520  1.00  0.00    -0.385 N 
HETATM    9  H   UNL     1      63.533  11.198   7.434  1.00  0.00     0.157 HD
HETATM   10  H   UNL     1      63.875  12.483   6.368  1.00  0.00     0.157 HD
ENDBRANCH   3   8
BRANCH   4  11
HETATM   11  O   UNL     1      64.062   7.545   4.149  1.00  0.00    -0.341 OA
HETATM   12  C   UNL     1      65.347   7.467   4.760  1.00  0.00     0.211 C 
ENDBRANCH   4  11
TORSDOF 2
ENDMDL
MODEL 8
REMARK VINA RESULT:      -4.0     15.845     16.779
REMARK  2 active torsions:
REMARK  status: ('A' for Active; 'I' for Inactive)
REMARK    1  A    between atoms: C_3  and  N_5 
REMARK    2  A    between atoms: C_4  and  O_6 
ROOT
HETATM    1  N   UNL     1      67.906   3.306   9.577  1.00  0.00    -0.324 N 
ATOM      2  HN  UNL     1      67.254   2.614   9.947  1.00  0.00     0.169 HD
HETATM    3  C   UNL     1      69.205   3.290   9.909  1.00  0.00     0.100 A 
HETATM    4  C   UNL     1      67.497   4.278   8.732  1.00  0.00     0.143 A 
HETATM    5  C   UNL     1      69.681   5.200   8.546  1.00  0.00     0.008 A 
HETATM    6  C   UNL     1      70.124   4.207   9.415  1.00  0.00     0.048 A 
HETATM    7  C   UNL     1      68.337   5.240   8.196  1.00  0.00     0.056 A 
ENDROOT
BRANCH   3   8
HETATM    8  N   UNL     1      69.612   2.271  10.767  1.00  0.00    -0.385 N 
HETATM    9  H   UNL     1      69.016   1.508  10.941  1.00  0.00     0.157 HD
HETATM   10  H   UNL     1      70.496   2.315  11.198  1.00  0.00     0.157 HD
ENDBRANCH   3   8
BRANCH   4  11
HETATM   11  O   UNL     1      66.166   4.354   8.367  1.00  0.00    -0.341 OA
HETATM   12  C   UNL     1      65.862   5.541   7.641  1.00  0.00     0.211 C 
ENDBRANCH   4  11
TORSDOF 2
ENDMDL
MODEL 9
REMARK VINA RESULT:      -3.8      2.200      2.793
REMARK  2 active torsions:
REMARK  status: ('A' for Active; 'I' for Inactive)
REMARK    1  A    between atoms: C_3  and  N_5 
REMARK    2  A    between atoms: C_4  and  O_6 
ROOT
HETATM    1  N   UNL     1      76.696  11.244  18.459  1.00  0.00    -0.324 N 
ATOM      2  HN  UNL     1      75.829  11.367  17.935  1.00  0.00     0.169 HD
HETATM    3  C   UNL     1      77.064  12.109  19.415  1.00  0.00     0.100 A 
HETATM    4  C   UNL     1      77.522  10.201  18.219  1.00  0.00     0.143 A 
HETATM    5  C   UNL     1      79.066  10.885  19.894  1.00  0.00     0.008 A 
HETATM    6  C   UNL     1      78.229  11.966  20.157  1.00  0.00     0.048 A 
HETATM    7  C   UNL     1      78.707   9.982  18.901  1.00  0.00     0.056 A 
ENDROOT
BRANCH   3   8
HETATM    8  N   UNL     1      76.192  13.167  19.660  1.00  0.00    -0.385 N 
HETATM    9  H   UNL     1      75.532  13.102  20.386  1.00  0.00     0.157 HD
HETATM   10  H   UNL     1      76.238  13.980  19.107  1.00  0.00     0.157 HD
ENDBRANCH   3   8
BRANCH   4  11
HETATM   11  O   UNL     1      77.202   9.285  17.234  1.00  0.00    -0.341 OA
HETATM   12  C   UNL     1      77.054   7.963  17.742  1.00  0.00     0.211 C 
ENDBRANCH   4  11
TORSDOF 2
ENDMDL
