MODEL 1
REMARK VINA RESULT:      -4.9      0.000      0.000
REMARK  1 active torsions:
REMARK  status: ('A' for Active; 'I' for Inactive)
REMARK       I    between atoms: C_1  and  N_2 
REMARK    1  A    between atoms: C_1  and  C_3 
ROOT
HETATM    1  C   UNL     1      67.539   4.745   6.919  1.00  0.00     0.248 C 
HETATM    2  N   UNL     1      67.127   5.896   6.290  1.00  0.00    -0.350 N 
HETATM    3  O   UNL     1      68.127   3.876   6.267  1.00  0.00    -0.270 OA
HETATM    4  C   UNL     1      67.376   6.098   4.876  1.00  0.00     0.126 C 
HETATM    5  C   UNL     1      66.450   7.038   6.874  1.00  0.00     0.126 C 
HETATM    6  C   UNL     1      66.306   8.036   5.725  1.00  0.00     0.021 C 
HETATM    7  C   UNL     1      67.338   7.601   4.700  1.00  0.00     0.021 C 
ENDROOT
BRANCH   1   8
HETATM    8  C   UNL     1      67.363   4.599   8.469  1.00  0.00     0.213 C 
HETATM    9  O   UNL     1      67.183   3.341   9.101  1.00  0.00    -0.376 OA
HETATM   10  C   UNL     1      68.340   2.535   9.323  1.00  0.00     0.168 C 
HETATM   11  C   UNL     1      69.618   3.263   9.737  1.00  0.00     0.026 C 
HETATM   12  C   UNL     1      69.784   4.587   9.023  1.00  0.00     0.005 C 
HETATM   13  C   UNL     1      68.488   5.372   9.172  1.00  0.00     0.042 C 
ENDBRANCH   1   8
TORSDOF 1
ENDMDL
MODEL 2
REMARK VINA RESULT:      -4.6      4.846      6.466
REMARK  1 active torsions:
REMARK  status: ('A' for Active; 'I' for Inactive)
REMARK       I    between atoms: C_1  and  N_2 
REMARK    1  A    between atoms: C_1  and  C_3 
ROOT
HETATM    1  C   UNL     1      62.543   7.696   4.225  1.00  0.00     0.248 C 
HETATM    2  N   UNL     1      62.177   8.563   3.222  1.00  0.00    -0.350 N 
HETATM    3  O   UNL     1      62.461   6.478   4.032  1.00  0.00    -0.270 OA
HETATM    4  C   UNL     1      61.699   8.063   1.948  1.00  0.00     0.126 C 
HETATM    5  C   UNL     1      62.223  10.012   3.236  1.00  0.00     0.126 C 
HETATM    6  C   UNL     1      61.767  10.431   1.838  1.00  0.00     0.021 C 
HETATM    7  C   UNL     1      61.964   9.196   0.978  1.00  0.00     0.021 C 
ENDROOT
BRANCH   1   8
HETATM    8  C   UNL     1      63.166   8.256   5.548  1.00  0.00     0.213 C 
HETATM    9  O   UNL     1      63.293   7.470   6.723  1.00  0.00    -0.376 OA
HETATM   10  C   UNL     1      64.381   6.548   6.795  1.00  0.00     0.168 C 
HETATM   11  C   UNL     1      65.714   7.009   6.208  1.00  0.00     0.026 C 
HETATM   12  C   UNL     1      65.536   7.823   4.944  1.00  0.00     0.005 C 
HETATM   13  C   UNL     1      64.514   8.916   5.224  1.00  0.00     0.042 C 
ENDBRANCH   1   8
TORSDOF 1
ENDMDL
MODEL 3
REMARK VINA RESULT:      -4.6      2.670      5.713
REMARK  1 active torsions:
REMARK  status: ('A' for Active; 'I' for Inactive)
REMARK       I    between atoms: C_1  and  N_2 
REMARK    1  A    between atoms: C_1  and  C_3 
ROOT
HETATM    1  C   UNL     1      65.289   6.555   6.771  1.00  0.00     0.248 C 
HETATM    2  N   UNL     1      66.383   6.068   7.446  1.00  0.00    -0.350 N 
HETATM    3  O   UNL     1      64.343   7.026   7.412  1.00  0.00    -0.270 OA
HETATM    4  C   UNL     1      66.436   6.101   8.894  1.00  0.00     0.126 C 
HETATM    5  C   UNL     1      67.596   5.503   6.887  1.00  0.00     0.126 C 
HETATM    6  C   UNL     1      68.479   5.199   8.097  1.00  0.00     0.021 C 
HETATM    7  C   UNL     1      67.915   6.057   9.216  1.00  0.00     0.021 C 
ENDROOT
BRANCH   1   8
HETATM    8  C   UNL     1      65.303   6.616   5.206  1.00  0.00     0.213 C 
HETATM    9  O   UNL     1      64.243   6.103   4.413  1.00  0.00    -0.376 OA
HETATM   10  C   UNL     1      63.071   6.904   4.269  1.00  0.00     0.168 C 
HETATM   11  C   UNL     1      63.279   8.411   4.131  1.00  0.00     0.026 C 
HETATM   12  C   UNL     1      64.401   8.921   5.009  1.00  0.00     0.005 C 
HETATM   13  C   UNL     1      65.626   8.051   4.766  1.00  0.00     0.042 C 
ENDBRANCH   1   8
TORSDOF 1
ENDMDL
MODEL 4
REMARK VINA RESULT:      -4.6      1.944      2.384
REMARK  1 active torsions:
REMARK  status: ('A' for Active; 'I' for Inactive)
REMARK       I    between atoms: C_1  and  N_2 
REMARK    1  A    between atoms: C_1  and  C_3 
ROOT
HETATM    1  C   UNL     1      66.175   6.242   6.631  1.00  0.00     0.248 C 
HETATM    2  N   UNL     1      65.140   6.932   6.047  1.00  0.00    -0.350 N 
HETATM    3  O   UNL     1      67.315   6.352   6.167  1.00  0.00    -0.270 OA
HETATM    4  C   UNL     1      65.373   7.784   4.898  1.00  0.00     0.126 C 
HETATM    5  C   UNL     1      63.748   6.960   6.450  1.00  0.00     0.126 C 
HETATM    6  C   UNL     1      63.081   7.941   5.485  1.00  0.00     0.021 C 
HETATM    7  C   UNL     1      64.222   8.768   4.922  1.00  0.00     0.021 C 
ENDROOT
BRANCH   1   8
HETATM    8  C   UNL     1      65.922   5.421   7.941  1.00  0.00     0.213 C 
HETATM    9  O   UNL     1      66.256   4.045   8.056  1.00  0.00    -0.376 OA
HETATM   10  C   UNL     1      67.620   3.708   8.305  1.00  0.00     0.168 C 
HETATM   11  C   UNL     1      68.390   4.618   9.261  1.00  0.00     0.026 C 
HETATM   12  C   UNL     1      68.024   6.076   9.091  1.00  0.00     0.005 C 
HETATM   13  C   UNL     1      66.506   6.192   9.133  1.00  0.00     0.042 C 
ENDBRANCH   1   8
TORSDOF 1
ENDMDL
MODEL 5
REMARK VINA RESULT:      -4.4      3.510      6.383
REMARK  1 active torsions:
REMARK  status: ('A' for Active; 'I' for Inactive)
REMARK       I    between atoms: C_1  and  N_2 
REMARK    1  A    between atoms: C_1  and  C_3 
ROOT
HETATM    1  C   UNL     1      65.287   7.777   5.751  1.00  0.00     0.248 C 
HETATM    2  N   UNL     1      65.974   6.768   6.382  1.00  0.00    -0.350 N 
HETATM    3  O   UNL     1      65.912   8.618   5.096  1.00  0.00    -0.270 OA
HETATM    4  C   UNL     1      67.418   6.682   6.288  1.00  0.00     0.126 C 
HETATM    5  C   UNL     1      65.432   5.677   7.170  1.00  0.00     0.126 C 
HETATM    6  C   UNL     1      66.647   4.835   7.559  1.00  0.00     0.021 C 
HETATM    7  C   UNL     1      67.726   5.225   6.565  1.00  0.00     0.021 C 
ENDROOT
BRANCH   1   8
HETATM    8  C   UNL     1      63.721   7.783   5.770  1.00  0.00     0.213 C 
HETATM    9  O   UNL     1      62.965   8.964   5.990  1.00  0.00    -0.376 OA
HETATM   10  C   UNL     1      62.791   9.858   4.891  1.00  0.00     0.168 C 
HETATM   11  C   UNL     1      62.573   9.227   3.517  1.00  0.00     0.026 C 
HETATM   12  C   UNL     1      63.414   7.985   3.314  1.00  0.00     0.005 C 
HETATM   13  C   UNL     1      63.205   7.069   4.512  1.00  0.00     0.042 C 
ENDBRANCH   1   8
TORSDOF 1
ENDMDL
MODEL 6
REMARK VINA RESULT:      -4.4      1.452      2.156
REMARK  1 active torsions:
REMARK  status: ('A' for Active; 'I' for Inactive)
REMARK       I    between atoms: C_1  and  N_2 
REMARK    1  A    between atoms: C_1  and  C_3 
ROOT
HETATM    1  C   UNL     1      67.165   5.428   8.028  1.00  0.00     0.248 C 
HETATM    2  N   UNL     1      66.686   6.320   7.098  1.00  0.00    -0.350 N 
HETATM    3  O   UNL     1      66.390   4.945   8.860  1.00  0.00    -0.270 OA
HETATM    4  C   UNL     1      65.285   6.696   7.085  1.00  0.00     0.126 C 
HETATM    5  C   UNL     1      67.417   6.975   6.031  1.00  0.00     0.126 C 
HETATM    6  C   UNL     1      66.365   7.793   5.281  1.00  0.00     0.021 C 
HETATM    7  C   UNL     1      65.037   7.166   5.667  1.00  0.00     0.021 C 
ENDROOT
BRANCH   1   8
HETATM    8  C   UNL     1      68.654   4.949   7.950  1.00  0.00     0.213 C 
HETATM    9  O   UNL     1      69.474   4.815   9.101  1.00  0.00    -0.376 OA
HETATM   10  C   UNL     1      69.312   3.645   9.903  1.00  0.00     0.168 C 
HETATM   11  C   UNL     1      69.059   2.333   9.164  1.00  0.00     0.026 C 
HETATM   12  C   UNL     1      68.162   2.514   7.958  1.00  0.00     0.005 C 
HETATM   13  C   UNL     1      68.719   3.658   7.121  1.00  0.00     0.042 C 
ENDBRANCH   1   8
TORSDOF 1
ENDMDL
MODEL 7
REMARK VINA RESULT:      -4.4      3.967      5.573
REMARK  1 active torsions:
REMARK  status: ('A' for Active; 'I' for Inactive)
REMARK       I    between atoms: C_1  and  N_2 
REMARK    1  A    between atoms: C_1  and  C_3 
ROOT
HETATM    1  C   UNL     1      63.813   7.796   5.626  1.00  0.00     0.248 C 
HETATM    2  N   UNL     1      62.866   7.834   4.631  1.00  0.00    -0.350 N 
HETATM    3  O   UNL     1      63.530   7.280   6.713  1.00  0.00    -0.270 OA
HETATM    4  C   UNL     1      61.544   7.277   4.844  1.00  0.00     0.126 C 
HETATM    5  C   UNL     1      63.003   8.366   3.289  1.00  0.00     0.126 C 
HETATM    6  C   UNL     1      61.662   8.077   2.615  1.00  0.00     0.021 C 
HETATM    7  C   UNL     1      61.036   6.974   3.450  1.00  0.00     0.021 C 
ENDROOT
BRANCH   1   8
HETATM    8  C   UNL     1      65.268   8.298   5.335  1.00  0.00     0.213 C 
HETATM    9  O   UNL     1      66.132   8.769   6.358  1.00  0.00    -0.376 OA
HETATM   10  C   UNL     1      66.804   7.801   7.162  1.00  0.00     0.168 C 
HETATM   11  C   UNL     1      67.308   6.546   6.452  1.00  0.00     0.026 C 
HETATM   12  C   UNL     1      66.349   6.062   5.386  1.00  0.00     0.005 C 
HETATM   13  C   UNL     1      65.999   7.243   4.491  1.00  0.00     0.042 C 
ENDBRANCH   1   8
TORSDOF 1
ENDMDL
MODEL 8
REMARK VINA RESULT:      -4.1      1.846      5.040
REMARK  1 active torsions:
REMARK  status: ('A' for Active; 'I' for Inactive)
REMARK       I    between atoms: C_1  and  N_2 
REMARK    1  A    between atoms: C_1  and  C_3 
ROOT
HETATM    1  C   UNL     1      67.862   4.963   8.789  1.00  0.00     0.248 C 
HETATM    2  N   UNL     1      68.260   3.724   9.230  1.00  0.00    -0.350 N 
HETATM    3  O   UNL     1      68.580   5.945   9.010  1.00  0.00    -0.270 OA
HETATM    4  C   UNL     1      69.510   3.559   9.948  1.00  0.00     0.126 C 
HETATM    5  C   UNL     1      67.583   2.454   9.053  1.00  0.00     0.126 C 
HETATM    6  C   UNL     1      68.516   1.422   9.686  1.00  0.00     0.021 C 
HETATM    7  C   UNL     1      69.872   2.103   9.739  1.00  0.00     0.021 C 
ENDROOT
BRANCH   1   8
HETATM    8  C   UNL     1      66.569   5.100   7.916  1.00  0.00     0.213 C 
HETATM    9  O   UNL     1      65.787   6.284   7.891  1.00  0.00    -0.376 OA
HETATM   10  C   UNL     1      66.246   7.370   7.087  1.00  0.00     0.168 C 
HETATM   11  C   UNL     1      66.876   7.012   5.741  1.00  0.00     0.026 C 
HETATM   12  C   UNL     1      67.720   5.757   5.816  1.00  0.00     0.005 C 
HETATM   13  C   UNL     1      66.890   4.666   6.479  1.00  0.00     0.042 C 
ENDBRANCH   1   8
TORSDOF 1
ENDMDL
MODEL 9
REMARK VINA RESULT:      -4.1      4.088      5.772
REMARK  1 active torsions:
REMARK  status: ('A' for Active; 'I' for Inactive)
REMARK       I    between atoms: C_1  and  N_2 
REMARK    1  A    between atoms: C_1  and  C_3 
ROOT
HETATM    1  C   UNL     1      64.371   8.655   5.003  1.00  0.00     0.248 C 
HETATM    2  N   UNL     1      63.384   8.931   4.088  1.00  0.00    -0.350 N 
HETATM    3  O   UNL     1      64.697   9.520   5.824  1.00  0.00    -0.270 OA
HETATM    4  C   UNL     1      62.724  10.223   4.076  1.00  0.00     0.126 C 
HETATM    5  C   UNL     1      62.842   8.054   3.069  1.00  0.00     0.126 C 
HETATM    6  C   UNL     1      61.733   8.868   2.401  1.00  0.00     0.021 C 
HETATM    7  C   UNL     1      61.395   9.958   3.403  1.00  0.00     0.021 C 
ENDROOT
BRANCH   1   8
HETATM    8  C   UNL     1      64.987   7.216   5.073  1.00  0.00     0.213 C 
HETATM    9  O   UNL     1      65.911   6.735   4.109  1.00  0.00    -0.376 OA
HETATM   10  C   UNL     1      67.273   7.144   4.228  1.00  0.00     0.168 C 
HETATM   11  C   UNL     1      67.842   7.241   5.642  1.00  0.00     0.026 C 
HETATM   12  C   UNL     1      66.834   7.780   6.634  1.00  0.00     0.005 C 
HETATM   13  C   UNL     1      65.547   6.982   6.483  1.00  0.00     0.042 C 
ENDBRANCH   1   8
TORSDOF 1
ENDMDL
