MODEL 1
REMARK VINA RESULT:      -5.2      0.000      0.000
REMARK  1 active torsions:
REMARK  status: ('A' for Active; 'I' for Inactive)
REMARK       I    between atoms: C_1  and  N_2 
REMARK    1  A    between atoms: C_1  and  C_4 
ROOT
HETATM    1  C   UNL     1      63.683   9.171   5.006  1.00  0.00     0.224 C 
HETATM    2  N   UNL     1      62.611   9.187   4.117  1.00  0.00    -0.352 N 
HETATM    3  O   UNL     1      64.028  10.172   5.634  1.00  0.00    -0.273 OA
HETATM    4  C   UNL     1      61.923  10.447   3.838  1.00  0.00     0.125 C 
HETATM    5  C   UNL     1      62.100   8.049   3.349  1.00  0.00     0.125 C 
HETATM    6  C   UNL     1      62.253   8.318   1.855  1.00  0.00     0.020 C 
HETATM    7  C   UNL     1      62.030  10.783   2.349  1.00  0.00     0.020 C 
HETATM    8  C   UNL     1      61.556   9.621   1.470  1.00  0.00     0.003 C 
ENDROOT
BRANCH   1   9
HETATM    9  C   UNL     1      64.470   7.866   5.125  1.00  0.00     0.082 C 
HETATM   10  C   UNL     1      64.038   7.010   6.318  1.00  0.00     0.040 C 
HETATM   11  C   UNL     1      64.913   5.761   6.378  1.00  0.00     0.168 C 
HETATM   12  O   UNL     1      66.291   6.110   6.488  1.00  0.00    -0.391 OA
HETATM   13  C   UNL     1      66.756   6.875   5.378  1.00  0.00     0.168 C 
HETATM   14  C   UNL     1      65.966   8.168   5.244  1.00  0.00     0.040 C 
ENDBRANCH   1   9
TORSDOF 1
ENDMDL
MODEL 2
REMARK VINA RESULT:      -5.1      4.218      6.090
REMARK  1 active torsions:
REMARK  status: ('A' for Active; 'I' for Inactive)
REMARK       I    between atoms: C_1  and  N_2 
REMARK    1  A    between atoms: C_1  and  C_4 
ROOT
HETATM    1  C   UNL     1      66.801   5.052   8.070  1.00  0.00     0.224 C 
HETATM    2  N   UNL     1      66.504   5.557   6.806  1.00  0.00    -0.352 N 
HETATM    3  O   UNL     1      66.033   5.178   9.023  1.00  0.00    -0.273 OA
HETATM    4  C   UNL     1      65.291   6.349   6.613  1.00  0.00     0.125 C 
HETATM    5  C   UNL     1      67.330   5.432   5.602  1.00  0.00     0.125 C 
HETATM    6  C   UNL     1      67.770   6.813   5.127  1.00  0.00     0.020 C 
HETATM    7  C   UNL     1      65.653   7.755   6.129  1.00  0.00     0.020 C 
HETATM    8  C   UNL     1      66.558   7.712   4.894  1.00  0.00     0.003 C 
ENDROOT
BRANCH   1   9
HETATM    9  C   UNL     1      68.164   4.382   8.249  1.00  0.00     0.082 C 
HETATM   10  C   UNL     1      68.132   3.207   9.228  1.00  0.00     0.040 C 
HETATM   11  C   UNL     1      69.543   2.643   9.376  1.00  0.00     0.168 C 
HETATM   12  O   UNL     1      70.447   3.647   9.832  1.00  0.00    -0.391 OA
HETATM   13  C   UNL     1      70.545   4.750   8.932  1.00  0.00     0.168 C 
HETATM   14  C   UNL     1      69.189   5.410   8.737  1.00  0.00     0.040 C 
ENDBRANCH   1   9
TORSDOF 1
ENDMDL
MODEL 3
REMARK VINA RESULT:      -4.9      1.866      5.265
REMARK  1 active torsions:
REMARK  status: ('A' for Active; 'I' for Inactive)
REMARK       I    between atoms: C_1  and  N_2 
REMARK    1  A    between atoms: C_1  and  C_4 
ROOT
HETATM    1  C   UNL     1      64.073   7.880   5.874  1.00  0.00     0.224 C 
HETATM    2  N   UNL     1      65.406   7.474   5.912  1.00  0.00    -0.352 N 
HETATM    3  O   UNL     1      63.259   7.538   6.732  1.00  0.00    -0.273 OA
HETATM    4  C   UNL     1      65.844   6.534   6.942  1.00  0.00     0.125 C 
HETATM    5  C   UNL     1      66.458   7.851   4.964  1.00  0.00     0.125 C 
HETATM    6  C   UNL     1      66.977   6.610   4.244  1.00  0.00     0.020 C 
HETATM    7  C   UNL     1      66.386   5.259   6.292  1.00  0.00     0.020 C 
HETATM    8  C   UNL     1      67.464   5.570   5.249  1.00  0.00     0.003 C 
ENDROOT
BRANCH   1   9
HETATM    9  C   UNL     1      63.636   8.724   4.676  1.00  0.00     0.082 C 
HETATM   10  C   UNL     1      62.657   9.838   5.051  1.00  0.00     0.040 C 
HETATM   11  C   UNL     1      62.245  10.586   3.785  1.00  0.00     0.168 C 
HETATM   12  O   UNL     1      61.651   9.697   2.840  1.00  0.00    -0.391 OA
HETATM   13  C   UNL     1      62.539   8.660   2.426  1.00  0.00     0.168 C 
HETATM   14  C   UNL     1      62.991   7.827   3.616  1.00  0.00     0.040 C 
ENDBRANCH   1   9
TORSDOF 1
ENDMDL
MODEL 4
REMARK VINA RESULT:      -4.7      3.928      7.538
REMARK  1 active torsions:
REMARK  status: ('A' for Active; 'I' for Inactive)
REMARK       I    between atoms: C_1  and  N_2 
REMARK    1  A    between atoms: C_1  and  C_4 
ROOT
HETATM    1  C   UNL     1      66.627   4.965   7.335  1.00  0.00     0.224 C 
HETATM    2  N   UNL     1      67.497   4.664   8.380  1.00  0.00    -0.352 N 
HETATM    3  O   UNL     1      65.887   4.118   6.833  1.00  0.00    -0.273 OA
HETATM    4  C   UNL     1      67.619   3.282   8.842  1.00  0.00     0.125 C 
HETATM    5  C   UNL     1      68.390   5.600   9.067  1.00  0.00     0.125 C 
HETATM    6  C   UNL     1      69.843   5.185   8.854  1.00  0.00     0.020 C 
HETATM    7  C   UNL     1      69.058   2.794   8.664  1.00  0.00     0.020 C 
HETATM    8  C   UNL     1      70.064   3.747   9.317  1.00  0.00     0.003 C 
ENDROOT
BRANCH   1   9
HETATM    9  C   UNL     1      66.670   6.389   6.781  1.00  0.00     0.082 C 
HETATM   10  C   UNL     1      65.307   6.888   6.296  1.00  0.00     0.040 C 
HETATM   11  C   UNL     1      65.467   8.292   5.718  1.00  0.00     0.168 C 
HETATM   12  O   UNL     1      66.410   8.297   4.648  1.00  0.00    -0.391 OA
HETATM   13  C   UNL     1      67.710   7.878   5.057  1.00  0.00     0.168 C 
HETATM   14  C   UNL     1      67.671   6.468   5.624  1.00  0.00     0.040 C 
ENDBRANCH   1   9
TORSDOF 1
ENDMDL
MODEL 5
REMARK VINA RESULT:      -4.7      2.022      5.189
REMARK  1 active torsions:
REMARK  status: ('A' for Active; 'I' for Inactive)
REMARK       I    between atoms: C_1  and  N_2 
REMARK    1  A    between atoms: C_1  and  C_4 
ROOT
HETATM    1  C   UNL     1      64.549   8.686   5.176  1.00  0.00     0.224 C 
HETATM    2  N   UNL     1      65.610   7.802   5.364  1.00  0.00    -0.352 N 
HETATM    3  O   UNL     1      64.521   9.797   5.705  1.00  0.00    -0.273 OA
HETATM    4  C   UNL     1      66.684   8.151   6.293  1.00  0.00     0.125 C 
HETATM    5  C   UNL     1      65.757   6.477   4.757  1.00  0.00     0.125 C 
HETATM    6  C   UNL     1      65.773   5.406   5.844  1.00  0.00     0.020 C 
HETATM    7  C   UNL     1      66.765   7.114   7.415  1.00  0.00     0.020 C 
HETATM    8  C   UNL     1      66.875   5.689   6.861  1.00  0.00     0.003 C 
ENDROOT
BRANCH   1   9
HETATM    9  C   UNL     1      63.375   8.193   4.331  1.00  0.00     0.082 C 
HETATM   10  C   UNL     1      62.669   9.317   3.569  1.00  0.00     0.040 C 
HETATM   11  C   UNL     1      61.487   8.733   2.800  1.00  0.00     0.168 C 
HETATM   12  O   UNL     1      60.577   8.083   3.685  1.00  0.00    -0.391 OA
HETATM   13  C   UNL     1      61.175   6.998   4.392  1.00  0.00     0.168 C 
HETATM   14  C   UNL     1      62.355   7.478   5.222  1.00  0.00     0.040 C 
ENDBRANCH   1   9
TORSDOF 1
ENDMDL
MODEL 6
REMARK VINA RESULT:      -4.6      4.544      8.101
REMARK  1 active torsions:
REMARK  status: ('A' for Active; 'I' for Inactive)
REMARK       I    between atoms: C_1  and  N_2 
REMARK    1  A    between atoms: C_1  and  C_4 
ROOT
HETATM    1  C   UNL     1      68.121   5.459   8.381  1.00  0.00     0.224 C 
HETATM    2  N   UNL     1      68.903   4.306   8.333  1.00  0.00    -0.352 N 
HETATM    3  O   UNL     1      68.152   6.231   9.339  1.00  0.00    -0.273 OA
HETATM    4  C   UNL     1      69.717   3.938   9.490  1.00  0.00     0.125 C 
HETATM    5  C   UNL     1      68.966   3.343   7.231  1.00  0.00     0.125 C 
HETATM    6  C   UNL     1      68.476   1.978   7.704  1.00  0.00     0.020 C 
HETATM    7  C   UNL     1      69.285   2.569  10.021  1.00  0.00     0.020 C 
HETATM    8  C   UNL     1      69.280   1.509   8.915  1.00  0.00     0.003 C 
ENDROOT
BRANCH   1   9
HETATM    9  C   UNL     1      67.162   5.699   7.216  1.00  0.00     0.082 C 
HETATM   10  C   UNL     1      67.738   6.627   6.144  1.00  0.00     0.040 C 
HETATM   11  C   UNL     1      66.690   6.843   5.055  1.00  0.00     0.168 C 
HETATM   12  O   UNL     1      65.494   7.395   5.603  1.00  0.00    -0.391 OA
HETATM   13  C   UNL     1      64.893   6.547   6.580  1.00  0.00     0.168 C 
HETATM   14  C   UNL     1      65.849   6.291   7.735  1.00  0.00     0.040 C 
ENDBRANCH   1   9
TORSDOF 1
ENDMDL
MODEL 7
REMARK VINA RESULT:      -4.6      2.974      6.510
REMARK  1 active torsions:
REMARK  status: ('A' for Active; 'I' for Inactive)
REMARK       I    between atoms: C_1  and  N_2 
REMARK    1  A    between atoms: C_1  and  C_4 
ROOT
HETATM    1  C   UNL     1      66.102   5.748   6.024  1.00  0.00     0.224 C 
HETATM    2  N   UNL     1      66.632   5.257   7.215  1.00  0.00    -0.352 N 
HETATM    3  O   UNL     1      66.473   5.341   4.923  1.00  0.00    -0.273 OA
HETATM    4  C   UNL     1      67.734   4.296   7.172  1.00  0.00     0.125 C 
HETATM    5  C   UNL     1      66.238   5.648   8.570  1.00  0.00     0.125 C 
HETATM    6  C   UNL     1      67.419   6.291   9.291  1.00  0.00     0.020 C 
HETATM    7  C   UNL     1      68.960   4.872   7.883  1.00  0.00     0.020 C 
HETATM    8  C   UNL     1      68.621   5.350   9.299  1.00  0.00     0.003 C 
ENDROOT
BRANCH   1   9
HETATM    9  C   UNL     1      65.075   6.876   6.132  1.00  0.00     0.082 C 
HETATM   10  C   UNL     1      63.629   6.375   6.114  1.00  0.00     0.040 C 
HETATM   11  C   UNL     1      62.686   7.575   6.175  1.00  0.00     0.168 C 
HETATM   12  O   UNL     1      62.920   8.461   5.083  1.00  0.00    -0.391 OA
HETATM   13  C   UNL     1      64.245   8.990   5.076  1.00  0.00     0.168 C 
HETATM   14  C   UNL     1      65.272   7.872   4.986  1.00  0.00     0.040 C 
ENDBRANCH   1   9
TORSDOF 1
ENDMDL
MODEL 8
REMARK VINA RESULT:      -4.4      2.710      4.147
REMARK  1 active torsions:
REMARK  status: ('A' for Active; 'I' for Inactive)
REMARK       I    between atoms: C_1  and  N_2 
REMARK    1  A    between atoms: C_1  and  C_4 
ROOT
HETATM    1  C   UNL     1      66.019   5.642   5.500  1.00  0.00     0.224 C 
HETATM    2  N   UNL     1      65.517   6.675   4.712  1.00  0.00    -0.352 N 
HETATM    3  O   UNL     1      65.755   4.460   5.277  1.00  0.00    -0.273 OA
HETATM    4  C   UNL     1      64.568   6.370   3.642  1.00  0.00     0.125 C 
HETATM    5  C   UNL     1      65.795   8.105   4.869  1.00  0.00     0.125 C 
HETATM    6  C   UNL     1      64.506   8.853   5.191  1.00  0.00     0.020 C 
HETATM    7  C   UNL     1      63.244   7.094   3.894  1.00  0.00     0.020 C 
HETATM    8  C   UNL     1      63.452   8.595   4.116  1.00  0.00     0.003 C 
ENDROOT
BRANCH   1   9
HETATM    9  C   UNL     1      66.868   6.037   6.708  1.00  0.00     0.082 C 
HETATM   10  C   UNL     1      67.990   5.041   7.007  1.00  0.00     0.040 C 
HETATM   11  C   UNL     1      68.742   5.497   8.255  1.00  0.00     0.168 C 
HETATM   12  O   UNL     1      67.860   5.604   9.370  1.00  0.00    -0.391 OA
HETATM   13  C   UNL     1      66.816   6.553   9.159  1.00  0.00     0.168 C 
HETATM   14  C   UNL     1      65.978   6.174   7.948  1.00  0.00     0.040 C 
ENDBRANCH   1   9
TORSDOF 1
ENDMDL
MODEL 9
REMARK VINA RESULT:      -4.2      2.637      6.068
REMARK  1 active torsions:
REMARK  status: ('A' for Active; 'I' for Inactive)
REMARK       I    between atoms: C_1  and  N_2 
REMARK    1  A    between atoms: C_1  and  C_4 
ROOT
HETATM    1  C   UNL     1      66.163   7.254   6.459  1.00  0.00     0.224 C 
HETATM    2  N   UNL     1      66.832   6.043   6.623  1.00  0.00    -0.352 N 
HETATM    3  O   UNL     1      66.519   8.283   7.033  1.00  0.00    -0.273 OA
HETATM    4  C   UNL     1      67.935   5.953   7.580  1.00  0.00     0.125 C 
HETATM    5  C   UNL     1      66.512   4.775   5.963  1.00  0.00     0.125 C 
HETATM    6  C   UNL     1      66.115   3.733   7.004  1.00  0.00     0.020 C 
HETATM    7  C   UNL     1      67.609   4.917   8.658  1.00  0.00     0.020 C 
HETATM    8  C   UNL     1      67.218   3.568   8.047  1.00  0.00     0.003 C 
ENDROOT
BRANCH   1   9
HETATM    9  C   UNL     1      64.913   7.245   5.579  1.00  0.00     0.082 C 
HETATM   10  C   UNL     1      64.679   8.572   4.853  1.00  0.00     0.040 C 
HETATM   11  C   UNL     1      63.387   8.476   4.045  1.00  0.00     0.168 C 
HETATM   12  O   UNL     1      62.280   8.169   4.891  1.00  0.00    -0.391 OA
HETATM   13  C   UNL     1      62.430   6.919   5.562  1.00  0.00     0.168 C 
HETATM   14  C   UNL     1      63.681   6.916   6.427  1.00  0.00     0.040 C 
ENDBRANCH   1   9
TORSDOF 1
ENDMDL
