MODEL 1
REMARK VINA RESULT:      -6.0      0.000      0.000
REMARK  2 active torsions:
REMARK  status: ('A' for Active; 'I' for Inactive)
REMARK    1  A    between atoms: C_4  and  N_15 
REMARK    2  A    between atoms: C_5  and  C_8 
ROOT
HETATM    1  C   UNL     1      62.693   9.563   4.100  1.00  0.00     0.046 A 
HETATM    2  N   UNL     1      62.878  10.675   6.081  1.00  0.00    -0.244 N 
ATOM      3  HN  UNL     1      63.066  10.894   7.059  1.00  0.00     0.196 HD
HETATM    4  C   UNL     1      63.071   9.505   5.467  1.00  0.00     0.132 A 
HETATM    5  C   UNL     1      62.664   8.692   2.995  1.00  0.00     0.034 A 
HETATM    6  O   UNL     1      62.368  11.529   5.115  1.00  0.00    -0.235 OA
HETATM    7  C   UNL     1      62.197   9.175   1.754  1.00  0.00     0.049 A 
HETATM    8  C   UNL     1      62.260  10.865   3.934  1.00  0.00     0.113 A 
HETATM    9  C   UNL     1      61.770  10.512   1.640  1.00  0.00     0.019 A 
HETATM   10  C   UNL     1      61.792  11.389   2.733  1.00  0.00     0.041 A 
ENDROOT
BRANCH   7  11
HETATM   11  C   UNL     1      62.153   8.265   0.547  1.00  0.00     0.417 C 
HETATM   12  F   UNL     1      62.858   8.741  -0.516  1.00  0.00    -0.166 F 
HETATM   13  F   UNL     1      62.661   7.030   0.810  1.00  0.00    -0.166 F 
HETATM   14  F   UNL     1      60.885   8.062   0.095  1.00  0.00    -0.166 F 
ENDBRANCH   7  11
BRANCH   4  15
HETATM   15  N   UNL     1      63.567   8.407   6.061  1.00  0.00    -0.383 N 
HETATM   16  H   UNL     1      64.117   7.774   5.545  1.00  0.00     0.157 HD
HETATM   17  H   UNL     1      63.381   8.236   7.013  1.00  0.00     0.157 HD
ENDBRANCH   4  15
TORSDOF 2
ENDMDL
MODEL 2
REMARK VINA RESULT:      -5.6      7.695      9.188
REMARK  2 active torsions:
REMARK  status: ('A' for Active; 'I' for Inactive)
REMARK    1  A    between atoms: C_4  and  N_15 
REMARK    2  A    between atoms: C_5  and  C_8 
ROOT
HETATM    1  C   UNL     1      67.501   6.336   6.626  1.00  0.00     0.046 A 
HETATM    2  N   UNL     1      66.062   7.700   5.502  1.00  0.00    -0.244 N 
ATOM      3  HN  UNL     1      65.562   8.182   4.755  1.00  0.00     0.196 HD
HETATM    4  C   UNL     1      67.032   6.793   5.367  1.00  0.00     0.132 A 
HETATM    5  C   UNL     1      68.464   5.430   7.107  1.00  0.00     0.034 A 
HETATM    6  O   UNL     1      65.873   7.851   6.868  1.00  0.00    -0.235 OA
HETATM    7  C   UNL     1      68.612   5.262   8.500  1.00  0.00     0.049 A 
HETATM    8  C   UNL     1      66.731   7.035   7.537  1.00  0.00     0.113 A 
HETATM    9  C   UNL     1      67.799   5.998   9.383  1.00  0.00     0.019 A 
HETATM   10  C   UNL     1      66.837   6.905   8.918  1.00  0.00     0.041 A 
ENDROOT
BRANCH   7  11
HETATM   11  C   UNL     1      69.638   4.296   9.049  1.00  0.00     0.417 C 
HETATM   12  F   UNL     1      69.620   3.081   8.435  1.00  0.00    -0.166 F 
HETATM   13  F   UNL     1      70.911   4.762   8.918  1.00  0.00    -0.166 F 
HETATM   14  F   UNL     1      69.462   4.048  10.375  1.00  0.00    -0.166 F 
ENDBRANCH   7  11
BRANCH   4  15
HETATM   15  N   UNL     1      67.507   6.359   4.188  1.00  0.00    -0.383 N 
HETATM   16  H   UNL     1      68.201   6.874   3.716  1.00  0.00     0.157 HD
HETATM   17  H   UNL     1      67.162   5.524   3.796  1.00  0.00     0.157 HD
ENDBRANCH   4  15
TORSDOF 2
ENDMDL
MODEL 3
REMARK VINA RESULT:      -5.3      8.236      9.640
REMARK  2 active torsions:
REMARK  status: ('A' for Active; 'I' for Inactive)
REMARK    1  A    between atoms: C_4  and  N_15 
REMARK    2  A    between atoms: C_5  and  C_8 
ROOT
HETATM    1  C   UNL     1      67.619   6.080   6.925  1.00  0.00     0.046 A 
HETATM    2  N   UNL     1      66.302   7.017   5.319  1.00  0.00    -0.244 N 
ATOM      3  HN  UNL     1      65.740   7.682   4.788  1.00  0.00     0.196 HD
HETATM    4  C   UNL     1      66.937   7.239   6.471  1.00  0.00     0.132 A 
HETATM    5  C   UNL     1      68.421   5.711   8.021  1.00  0.00     0.034 A 
HETATM    6  O   UNL     1      66.562   5.694   4.991  1.00  0.00    -0.235 OA
HETATM    7  C   UNL     1      68.927   4.396   8.088  1.00  0.00     0.049 A 
HETATM    8  C   UNL     1      67.350   5.138   5.949  1.00  0.00     0.113 A 
HETATM    9  C   UNL     1      68.624   3.477   7.065  1.00  0.00     0.019 A 
HETATM   10  C   UNL     1      67.825   3.830   5.969  1.00  0.00     0.041 A 
ENDROOT
BRANCH   7  11
HETATM   11  C   UNL     1      69.792   3.968   9.252  1.00  0.00     0.417 C 
HETATM   12  F   UNL     1      69.258   4.280  10.466  1.00  0.00    -0.166 F 
HETATM   13  F   UNL     1      70.007   2.624   9.273  1.00  0.00    -0.166 F 
HETATM   14  F   UNL     1      71.024   4.547   9.226  1.00  0.00    -0.166 F 
ENDBRANCH   7  11
BRANCH   4  15
HETATM   15  N   UNL     1      66.940   8.413   7.125  1.00  0.00    -0.383 N 
HETATM   16  H   UNL     1      66.655   8.453   8.066  1.00  0.00     0.157 HD
HETATM   17  H   UNL     1      67.226   9.233   6.661  1.00  0.00     0.157 HD
ENDBRANCH   4  15
TORSDOF 2
ENDMDL
MODEL 4
REMARK VINA RESULT:      -5.2      3.547      4.387
REMARK  2 active torsions:
REMARK  status: ('A' for Active; 'I' for Inactive)
REMARK    1  A    between atoms: C_4  and  N_15 
REMARK    2  A    between atoms: C_5  and  C_8 
ROOT
HETATM    1  C   UNL     1      65.262   8.067   5.149  1.00  0.00     0.046 A 
HETATM    2  N   UNL     1      66.976   6.647   5.636  1.00  0.00    -0.244 N 
ATOM      3  HN  UNL     1      67.800   6.229   6.069  1.00  0.00     0.196 HD
HETATM    4  C   UNL     1      66.384   7.795   5.974  1.00  0.00     0.132 A 
HETATM    5  C   UNL     1      64.287   9.075   5.024  1.00  0.00     0.034 A 
HETATM    6  O   UNL     1      66.241   6.140   4.574  1.00  0.00    -0.235 OA
HETATM    7  C   UNL     1      63.297   8.951   4.027  1.00  0.00     0.049 A 
HETATM    8  C   UNL     1      65.217   6.987   4.287  1.00  0.00     0.113 A 
HETATM    9  C   UNL     1      63.297   7.828   3.177  1.00  0.00     0.019 A 
HETATM   10  C   UNL     1      64.262   6.818   3.289  1.00  0.00     0.041 A 
ENDROOT
BRANCH   7  11
HETATM   11  C   UNL     1      62.236  10.016   3.866  1.00  0.00     0.417 C 
HETATM   12  F   UNL     1      62.294  10.661   2.668  1.00  0.00    -0.166 F 
HETATM   13  F   UNL     1      60.975   9.512   3.959  1.00  0.00    -0.166 F 
HETATM   14  F   UNL     1      62.324  10.986   4.817  1.00  0.00    -0.166 F 
ENDBRANCH   7  11
BRANCH   4  15
HETATM   15  N   UNL     1      66.791   8.596   6.973  1.00  0.00    -0.383 N 
HETATM   16  H   UNL     1      66.550   8.383   7.903  1.00  0.00     0.157 HD
HETATM   17  H   UNL     1      67.331   9.394   6.774  1.00  0.00     0.157 HD
ENDBRANCH   4  15
TORSDOF 2
ENDMDL
MODEL 5
REMARK VINA RESULT:      -5.2      3.355      4.367
REMARK  2 active torsions:
REMARK  status: ('A' for Active; 'I' for Inactive)
REMARK    1  A    between atoms: C_4  and  N_15 
REMARK    2  A    between atoms: C_5  and  C_8 
ROOT
HETATM    1  C   UNL     1      62.391   9.711   3.153  1.00  0.00     0.046 A 
HETATM    2  N   UNL     1      61.459  11.367   1.896  1.00  0.00    -0.244 N 
ATOM      3  HN  UNL     1      61.039  11.881   1.121  1.00  0.00     0.196 HD
HETATM    4  C   UNL     1      61.843  10.089   1.900  1.00  0.00     0.132 A 
HETATM    5  C   UNL     1      62.943   8.556   3.738  1.00  0.00     0.034 A 
HETATM    6  O   UNL     1      61.748  11.853   3.162  1.00  0.00    -0.235 OA
HETATM    7  C   UNL     1      63.384   8.609   5.077  1.00  0.00     0.049 A 
HETATM    8  C   UNL     1      62.302  10.864   3.911  1.00  0.00     0.113 A 
HETATM    9  C   UNL     1      63.268   9.809   5.804  1.00  0.00     0.019 A 
HETATM   10  C   UNL     1      62.722  10.967   5.234  1.00  0.00     0.041 A 
ENDROOT
BRANCH   7  11
HETATM   11  C   UNL     1      63.981   7.385   5.734  1.00  0.00     0.417 C 
HETATM   12  F   UNL     1      64.193   6.355   4.868  1.00  0.00    -0.166 F 
HETATM   13  F   UNL     1      65.187   7.642   6.312  1.00  0.00    -0.166 F 
HETATM   14  F   UNL     1      63.189   6.886   6.722  1.00  0.00    -0.166 F 
ENDBRANCH   7  11
BRANCH   4  15
HETATM   15  N   UNL     1      61.724   9.255   0.853  1.00  0.00    -0.383 N 
HETATM   16  H   UNL     1      61.777   9.608  -0.065  1.00  0.00     0.157 HD
HETATM   17  H   UNL     1      61.584   8.293   1.004  1.00  0.00     0.157 HD
ENDBRANCH   4  15
TORSDOF 2
ENDMDL
MODEL 6
REMARK VINA RESULT:      -5.2      8.998     10.469
REMARK  2 active torsions:
REMARK  status: ('A' for Active; 'I' for Inactive)
REMARK    1  A    between atoms: C_4  and  N_15 
REMARK    2  A    between atoms: C_5  and  C_8 
ROOT
HETATM    1  C   UNL     1      68.357   3.173   9.459  1.00  0.00     0.046 A 
HETATM    2  N   UNL     1      69.394   1.419  10.477  1.00  0.00    -0.244 N 
ATOM      3  HN  UNL     1      69.566   0.529  10.946  1.00  0.00     0.196 HD
HETATM    4  C   UNL     1      68.218   1.900  10.070  1.00  0.00     0.132 A 
HETATM    5  C   UNL     1      67.519   4.136   8.865  1.00  0.00     0.034 A 
HETATM    6  O   UNL     1      70.336   2.377  10.132  1.00  0.00    -0.235 OA
HETATM    7  C   UNL     1      68.090   5.319   8.352  1.00  0.00     0.049 A 
HETATM    8  C   UNL     1      69.715   3.422   9.523  1.00  0.00     0.113 A 
HETATM    9  C   UNL     1      69.481   5.520   8.441  1.00  0.00     0.019 A 
HETATM   10  C   UNL     1      70.327   4.572   9.032  1.00  0.00     0.041 A 
ENDROOT
BRANCH   7  11
HETATM   11  C   UNL     1      67.217   6.372   7.708  1.00  0.00     0.417 C 
HETATM   12  F   UNL     1      67.066   7.491   8.471  1.00  0.00    -0.166 F 
HETATM   13  F   UNL     1      67.713   6.798   6.513  1.00  0.00    -0.166 F 
HETATM   14  F   UNL     1      65.958   5.921   7.453  1.00  0.00    -0.166 F 
ENDBRANCH   7  11
BRANCH   4  15
HETATM   15  N   UNL     1      67.044   1.262  10.213  1.00  0.00    -0.383 N 
HETATM   16  H   UNL     1      66.201   1.733  10.021  1.00  0.00     0.157 HD
HETATM   17  H   UNL     1      67.027   0.323  10.510  1.00  0.00     0.157 HD
ENDBRANCH   4  15
TORSDOF 2
ENDMDL
MODEL 7
REMARK VINA RESULT:      -5.1      2.217      2.946
REMARK  2 active torsions:
REMARK  status: ('A' for Active; 'I' for Inactive)
REMARK    1  A    between atoms: C_4  and  N_15 
REMARK    2  A    between atoms: C_5  and  C_8 
ROOT
HETATM    1  C   UNL     1      63.548   7.539   4.224  1.00  0.00     0.046 A 
HETATM    2  N   UNL     1      64.426   6.544   6.076  1.00  0.00    -0.244 N 
ATOM      3  HN  UNL     1      64.869   5.869   6.700  1.00  0.00     0.196 HD
HETATM    4  C   UNL     1      64.182   6.394   4.772  1.00  0.00     0.132 A 
HETATM    5  C   UNL     1      63.064   7.956   2.970  1.00  0.00     0.034 A 
HETATM    6  O   UNL     1      63.955   7.805   6.407  1.00  0.00    -0.235 OA
HETATM    7  C   UNL     1      62.481   9.235   2.851  1.00  0.00     0.049 A 
HETATM    8  C   UNL     1      63.434   8.398   5.301  1.00  0.00     0.113 A 
HETATM    9  C   UNL     1      62.392  10.071   3.980  1.00  0.00     0.019 A 
HETATM   10  C   UNL     1      62.868   9.668   5.235  1.00  0.00     0.041 A 
ENDROOT
BRANCH   7  11
HETATM   11  C   UNL     1      61.952   9.713   1.517  1.00  0.00     0.417 C 
HETATM   12  F   UNL     1      62.696   9.290   0.457  1.00  0.00    -0.166 F 
HETATM   13  F   UNL     1      60.682   9.282   1.278  1.00  0.00    -0.166 F 
HETATM   14  F   UNL     1      61.912  11.070   1.428  1.00  0.00    -0.166 F 
ENDBRANCH   7  11
BRANCH   4  15
HETATM   15  N   UNL     1      64.499   5.300   4.059  1.00  0.00    -0.383 N 
HETATM   16  H   UNL     1      64.987   5.391   3.209  1.00  0.00     0.157 HD
HETATM   17  H   UNL     1      64.243   4.408   4.387  1.00  0.00     0.157 HD
ENDBRANCH   4  15
TORSDOF 2
ENDMDL
MODEL 8
REMARK VINA RESULT:      -4.8      8.636      9.905
REMARK  2 active torsions:
REMARK  status: ('A' for Active; 'I' for Inactive)
REMARK    1  A    between atoms: C_4  and  N_15 
REMARK    2  A    between atoms: C_5  and  C_8 
ROOT
HETATM    1  C   UNL     1      68.962   2.997   8.557  1.00  0.00     0.046 A 
HETATM    2  N   UNL     1      69.911   2.353  10.526  1.00  0.00    -0.244 N 
ATOM      3  HN  UNL     1      70.300   1.784  11.278  1.00  0.00     0.196 HD
HETATM    4  C   UNL     1      69.423   1.922   9.361  1.00  0.00     0.132 A 
HETATM    5  C   UNL     1      68.372   3.166   7.290  1.00  0.00     0.034 A 
HETATM    6  O   UNL     1      69.781   3.734  10.503  1.00  0.00    -0.235 OA
HETATM    7  C   UNL     1      68.062   4.468   6.847  1.00  0.00     0.049 A 
HETATM    8  C   UNL     1      69.218   4.116   9.327  1.00  0.00     0.113 A 
HETATM    9  C   UNL     1      68.345   5.574   7.672  1.00  0.00     0.019 A 
HETATM   10  C   UNL     1      68.931   5.420   8.935  1.00  0.00     0.041 A 
ENDROOT
BRANCH   7  11
HETATM   11  C   UNL     1      67.427   4.684   5.491  1.00  0.00     0.417 C 
HETATM   12  F   UNL     1      67.695   3.686   4.604  1.00  0.00    -0.166 F 
HETATM   13  F   UNL     1      66.070   4.767   5.561  1.00  0.00    -0.166 F 
HETATM   14  F   UNL     1      67.845   5.835   4.898  1.00  0.00    -0.166 F 
ENDBRANCH   7  11
BRANCH   4  15
HETATM   15  N   UNL     1      69.375   0.632   8.986  1.00  0.00    -0.383 N 
HETATM   16  H   UNL     1      70.209   0.139   8.811  1.00  0.00     0.157 HD
HETATM   17  H   UNL     1      68.505   0.181   8.888  1.00  0.00     0.157 HD
ENDBRANCH   4  15
TORSDOF 2
ENDMDL
MODEL 9
REMARK VINA RESULT:      -4.7      7.335      8.790
REMARK  2 active torsions:
REMARK  status: ('A' for Active; 'I' for Inactive)
REMARK    1  A    between atoms: C_4  and  N_15 
REMARK    2  A    between atoms: C_5  and  C_8 
ROOT
HETATM    1  C   UNL     1      68.235   4.460   7.577  1.00  0.00     0.046 A 
HETATM    2  N   UNL     1      69.248   2.728   8.658  1.00  0.00    -0.244 N 
ATOM      3  HN  UNL     1      69.717   1.843   8.851  1.00  0.00     0.196 HD
HETATM    4  C   UNL     1      68.861   3.191   7.467  1.00  0.00     0.132 A 
HETATM    5  C   UNL     1      67.646   5.404   6.716  1.00  0.00     0.034 A 
HETATM    6  O   UNL     1      68.882   3.699   9.578  1.00  0.00    -0.235 OA
HETATM    7  C   UNL     1      67.123   6.596   7.259  1.00  0.00     0.049 A 
HETATM    8  C   UNL     1      68.280   4.732   8.932  1.00  0.00     0.113 A 
HETATM    9  C   UNL     1      67.197   6.823   8.646  1.00  0.00     0.019 A 
HETATM   10  C   UNL     1      67.780   5.892   9.517  1.00  0.00     0.041 A 
ENDROOT
BRANCH   7  11
HETATM   11  C   UNL     1      66.483   7.630   6.360  1.00  0.00     0.417 C 
HETATM   12  F   UNL     1      65.133   7.486   6.246  1.00  0.00    -0.166 F 
HETATM   13  F   UNL     1      66.688   8.901   6.802  1.00  0.00    -0.166 F 
HETATM   14  F   UNL     1      66.971   7.589   5.090  1.00  0.00    -0.166 F 
ENDBRANCH   7  11
BRANCH   4  15
HETATM   15  N   UNL     1      69.042   2.544   6.304  1.00  0.00    -0.383 N 
HETATM   16  H   UNL     1      68.827   1.585   6.235  1.00  0.00     0.157 HD
HETATM   17  H   UNL     1      69.391   3.028   5.521  1.00  0.00     0.157 HD
ENDBRANCH   4  15
TORSDOF 2
ENDMDL
