MODEL 1
REMARK VINA RESULT:      -5.9      0.000      0.000
REMARK  3 active torsions:
REMARK  status: ('A' for Active; 'I' for Inactive)
REMARK       I    between atoms: N_1  and  C_2 
REMARK    1  A    between atoms: C_2  and  C_3 
REMARK    2  A    between atoms: C_3  and  S_5 
REMARK    3  A    between atoms: S_5  and  C_6 
ROOT
HETATM    1  N   UNL     1      62.854   9.014   4.194  1.00  0.00    -0.351 N 
HETATM    2  C   UNL     1      63.979   9.062   5.019  1.00  0.00     0.229 C 
HETATM    3  O   UNL     1      64.277  10.098   5.616  1.00  0.00    -0.273 OA
HETATM    4  C   UNL     1      61.985  10.190   4.107  1.00  0.00     0.125 C 
HETATM    5  C   UNL     1      62.518   7.951   3.250  1.00  0.00     0.125 C 
HETATM    6  C   UNL     1      62.572   8.480   1.817  1.00  0.00     0.020 C 
HETATM    7  C   UNL     1      62.003  10.777   2.698  1.00  0.00     0.020 C 
HETATM    8  C   UNL     1      61.684   9.713   1.647  1.00  0.00     0.003 C 
ENDROOT
BRANCH   2   9
HETATM    9  C   UNL     1      64.838   7.793   5.126  1.00  0.00     0.182 C 
BRANCH   9  10
HETATM   10  S   UNL     1      64.289   6.748   6.524  1.00  0.00    -0.121 SA
BRANCH  10  11
HETATM   11  C   UNL     1      65.846   6.207   7.208  1.00  0.00     0.001 A 
HETATM   12  C   UNL     1      66.772   5.589   6.360  1.00  0.00     0.018 A 
HETATM   13  C   UNL     1      68.053   5.269   6.817  1.00  0.00     0.001 A 
HETATM   14  C   UNL     1      68.421   5.575   8.124  1.00  0.00     0.000 A 
HETATM   15  C   UNL     1      67.504   6.184   8.981  1.00  0.00     0.001 A 
HETATM   16  C   UNL     1      66.219   6.500   8.524  1.00  0.00     0.018 A 
ENDBRANCH  10  11
ENDBRANCH   9  10
ENDBRANCH   2   9
TORSDOF 3
ENDMDL
MODEL 2
REMARK VINA RESULT:      -5.7      2.130      7.194
REMARK  3 active torsions:
REMARK  status: ('A' for Active; 'I' for Inactive)
REMARK       I    between atoms: N_1  and  C_2 
REMARK    1  A    between atoms: C_2  and  C_3 
REMARK    2  A    between atoms: C_3  and  S_5 
REMARK    3  A    between atoms: S_5  and  C_6 
ROOT
HETATM    1  N   UNL     1      66.771   5.865   6.853  1.00  0.00    -0.351 N 
HETATM    2  C   UNL     1      66.623   6.554   5.648  1.00  0.00     0.229 C 
HETATM    3  O   UNL     1      67.443   6.414   4.739  1.00  0.00    -0.273 OA
HETATM    4  C   UNL     1      67.875   4.912   6.996  1.00  0.00     0.125 C 
HETATM    5  C   UNL     1      66.028   6.110   8.087  1.00  0.00     0.125 C 
HETATM    6  C   UNL     1      66.968   6.626   9.176  1.00  0.00     0.020 C 
HETATM    7  C   UNL     1      68.861   5.378   8.065  1.00  0.00     0.020 C 
HETATM    8  C   UNL     1      68.149   5.679   9.385  1.00  0.00     0.003 C 
ENDROOT
BRANCH   2   9
HETATM    9  C   UNL     1      65.425   7.506   5.514  1.00  0.00     0.182 C 
BRANCH   9  10
HETATM   10  S   UNL     1      64.409   7.077   4.053  1.00  0.00    -0.121 SA
BRANCH  10  11
HETATM   11  C   UNL     1      63.354   8.510   3.912  1.00  0.00     0.001 A 
HETATM   12  C   UNL     1      63.340   9.438   4.959  1.00  0.00     0.018 A 
HETATM   13  C   UNL     1      62.634  10.638   4.837  1.00  0.00     0.001 A 
HETATM   14  C   UNL     1      61.943  10.922   3.663  1.00  0.00     0.000 A 
HETATM   15  C   UNL     1      61.943   9.999   2.616  1.00  0.00     0.001 A 
HETATM   16  C   UNL     1      62.646   8.796   2.740  1.00  0.00     0.018 A 
ENDBRANCH  10  11
ENDBRANCH   9  10
ENDBRANCH   2   9
TORSDOF 3
ENDMDL
MODEL 3
REMARK VINA RESULT:      -5.7      2.055      6.754
REMARK  3 active torsions:
REMARK  status: ('A' for Active; 'I' for Inactive)
REMARK       I    between atoms: N_1  and  C_2 
REMARK    1  A    between atoms: C_2  and  C_3 
REMARK    2  A    between atoms: C_3  and  S_5 
REMARK    3  A    between atoms: S_5  and  C_6 
ROOT
HETATM    1  N   UNL     1      66.678   6.805   5.463  1.00  0.00    -0.351 N 
HETATM    2  C   UNL     1      65.686   7.555   6.098  1.00  0.00     0.229 C 
HETATM    3  O   UNL     1      65.445   7.391   7.296  1.00  0.00    -0.273 OA
HETATM    4  C   UNL     1      67.483   5.874   6.256  1.00  0.00     0.125 C 
HETATM    5  C   UNL     1      66.905   6.716   4.022  1.00  0.00     0.125 C 
HETATM    6  C   UNL     1      66.622   5.298   3.528  1.00  0.00     0.020 C 
HETATM    7  C   UNL     1      67.236   4.431   5.819  1.00  0.00     0.020 C 
HETATM    8  C   UNL     1      67.432   4.265   4.312  1.00  0.00     0.003 C 
ENDROOT
BRANCH   2   9
HETATM    9  C   UNL     1      64.896   8.559   5.245  1.00  0.00     0.182 C 
BRANCH   9  10
HETATM   10  S   UNL     1      63.122   8.113   5.187  1.00  0.00    -0.121 SA
BRANCH  10  11
HETATM   11  C   UNL     1      62.507   9.231   3.939  1.00  0.00     0.001 A 
HETATM   12  C   UNL     1      62.259  10.562   4.295  1.00  0.00     0.018 A 
HETATM   13  C   UNL     1      61.905  11.504   3.326  1.00  0.00     0.001 A 
HETATM   14  C   UNL     1      61.805  11.123   1.991  1.00  0.00     0.000 A 
HETATM   15  C   UNL     1      62.041   9.798   1.626  1.00  0.00     0.001 A 
HETATM   16  C   UNL     1      62.392   8.853   2.598  1.00  0.00     0.018 A 
ENDBRANCH  10  11
ENDBRANCH   9  10
ENDBRANCH   2   9
TORSDOF 3
ENDMDL
MODEL 4
REMARK VINA RESULT:      -5.5      1.691      6.717
REMARK  3 active torsions:
REMARK  status: ('A' for Active; 'I' for Inactive)
REMARK       I    between atoms: N_1  and  C_2 
REMARK    1  A    between atoms: C_2  and  C_3 
REMARK    2  A    between atoms: C_3  and  S_5 
REMARK    3  A    between atoms: S_5  and  C_6 
ROOT
HETATM    1  N   UNL     1      65.482   6.736   5.346  1.00  0.00    -0.351 N 
HETATM    2  C   UNL     1      64.725   7.908   5.384  1.00  0.00     0.229 C 
HETATM    3  O   UNL     1      65.238   8.997   5.119  1.00  0.00    -0.273 OA
HETATM    4  C   UNL     1      66.879   6.805   4.911  1.00  0.00     0.125 C 
HETATM    5  C   UNL     1      65.080   5.430   5.862  1.00  0.00     0.125 C 
HETATM    6  C   UNL     1      65.968   5.030   7.040  1.00  0.00     0.020 C 
HETATM    7  C   UNL     1      67.823   6.429   6.051  1.00  0.00     0.020 C 
HETATM    8  C   UNL     1      67.448   5.077   6.661  1.00  0.00     0.003 C 
ENDROOT
BRANCH   2   9
HETATM    9  C   UNL     1      63.249   7.790   5.794  1.00  0.00     0.182 C 
BRANCH   9  10
HETATM   10  S   UNL     1      62.234   7.162   4.408  1.00  0.00    -0.121 SA
BRANCH  10  11
HETATM   11  C   UNL     1      62.008   8.635   3.425  1.00  0.00     0.001 A 
HETATM   12  C   UNL     1      61.950   9.872   4.077  1.00  0.00     0.018 A 
HETATM   13  C   UNL     1      61.908  11.061   3.344  1.00  0.00     0.001 A 
HETATM   14  C   UNL     1      61.934  11.021   1.953  1.00  0.00     0.000 A 
HETATM   15  C   UNL     1      61.984   9.793   1.293  1.00  0.00     0.001 A 
HETATM   16  C   UNL     1      62.021   8.602   2.027  1.00  0.00     0.018 A 
ENDBRANCH  10  11
ENDBRANCH   9  10
ENDBRANCH   2   9
TORSDOF 3
ENDMDL
MODEL 5
REMARK VINA RESULT:      -5.2      4.740      6.964
REMARK  3 active torsions:
REMARK  status: ('A' for Active; 'I' for Inactive)
REMARK       I    between atoms: N_1  and  C_2 
REMARK    1  A    between atoms: C_2  and  C_3 
REMARK    2  A    between atoms: C_3  and  S_5 
REMARK    3  A    between atoms: S_5  and  C_6 
ROOT
HETATM    1  N   UNL     1      59.109   5.975   6.078  1.00  0.00    -0.351 N 
HETATM    2  C   UNL     1      60.474   6.271   6.082  1.00  0.00     0.229 C 
HETATM    3  O   UNL     1      61.114   6.272   7.135  1.00  0.00    -0.273 OA
HETATM    4  C   UNL     1      58.462   5.590   7.335  1.00  0.00     0.125 C 
HETATM    5  C   UNL     1      58.185   6.170   4.964  1.00  0.00     0.125 C 
HETATM    6  C   UNL     1      57.150   7.238   5.316  1.00  0.00     0.020 C 
HETATM    7  C   UNL     1      57.421   6.627   7.751  1.00  0.00     0.020 C 
HETATM    8  C   UNL     1      56.428   6.903   6.621  1.00  0.00     0.003 C 
ENDROOT
BRANCH   2   9
HETATM    9  C   UNL     1      61.130   6.620   4.738  1.00  0.00     0.182 C 
BRANCH   9  10
HETATM   10  S   UNL     1      62.529   7.776   4.975  1.00  0.00    -0.121 SA
BRANCH  10  11
HETATM   11  C   UNL     1      62.163   9.042   3.771  1.00  0.00     0.001 A 
HETATM   12  C   UNL     1      62.077  10.371   4.202  1.00  0.00     0.018 A 
HETATM   13  C   UNL     1      61.925  11.410   3.279  1.00  0.00     0.001 A 
HETATM   14  C   UNL     1      61.866  11.127   1.918  1.00  0.00     0.000 A 
HETATM   15  C   UNL     1      61.941   9.805   1.478  1.00  0.00     0.001 A 
HETATM   16  C   UNL     1      62.089   8.764   2.403  1.00  0.00     0.018 A 
ENDBRANCH  10  11
ENDBRANCH   9  10
ENDBRANCH   2   9
TORSDOF 3
ENDMDL
MODEL 6
REMARK VINA RESULT:      -5.2      2.662      7.242
REMARK  3 active torsions:
REMARK  status: ('A' for Active; 'I' for Inactive)
REMARK       I    between atoms: N_1  and  C_2 
REMARK    1  A    between atoms: C_2  and  C_3 
REMARK    2  A    between atoms: C_3  and  S_5 
REMARK    3  A    between atoms: S_5  and  C_6 
ROOT
HETATM    1  N   UNL     1      66.844   4.598   7.940  1.00  0.00    -0.351 N 
HETATM    2  C   UNL     1      65.883   5.054   7.036  1.00  0.00     0.229 C 
HETATM    3  O   UNL     1      65.518   4.346   6.095  1.00  0.00    -0.273 OA
HETATM    4  C   UNL     1      67.360   3.233   7.801  1.00  0.00     0.125 C 
HETATM    5  C   UNL     1      67.540   5.401   8.941  1.00  0.00     0.125 C 
HETATM    6  C   UNL     1      69.030   5.484   8.611  1.00  0.00     0.020 C 
HETATM    7  C   UNL     1      68.848   3.246   7.457  1.00  0.00     0.020 C 
HETATM    8  C   UNL     1      69.642   4.092   8.452  1.00  0.00     0.003 C 
ENDROOT
BRANCH   2   9
HETATM    9  C   UNL     1      65.327   6.471   7.243  1.00  0.00     0.182 C 
BRANCH   9  10
HETATM   10  S   UNL     1      66.164   7.668   6.140  1.00  0.00    -0.121 SA
BRANCH  10  11
HETATM   11  C   UNL     1      64.897   7.989   4.924  1.00  0.00     0.001 A 
HETATM   12  C   UNL     1      64.688   7.047   3.911  1.00  0.00     0.018 A 
HETATM   13  C   UNL     1      63.623   7.188   3.016  1.00  0.00     0.001 A 
HETATM   14  C   UNL     1      62.755   8.269   3.135  1.00  0.00     0.000 A 
HETATM   15  C   UNL     1      62.960   9.219   4.136  1.00  0.00     0.001 A 
HETATM   16  C   UNL     1      64.029   9.080   5.029  1.00  0.00     0.018 A 
ENDBRANCH  10  11
ENDBRANCH   9  10
ENDBRANCH   2   9
TORSDOF 3
ENDMDL
MODEL 7
REMARK VINA RESULT:      -5.2      1.963      6.856
REMARK  3 active torsions:
REMARK  status: ('A' for Active; 'I' for Inactive)
REMARK       I    between atoms: N_1  and  C_2 
REMARK    1  A    between atoms: C_2  and  C_3 
REMARK    2  A    between atoms: C_3  and  S_5 
REMARK    3  A    between atoms: S_5  and  C_6 
ROOT
HETATM    1  N   UNL     1      65.777   7.210   6.498  1.00  0.00    -0.351 N 
HETATM    2  C   UNL     1      64.509   7.654   6.120  1.00  0.00     0.229 C 
HETATM    3  O   UNL     1      63.510   7.329   6.766  1.00  0.00    -0.273 OA
HETATM    4  C   UNL     1      65.918   6.414   7.719  1.00  0.00     0.125 C 
HETATM    5  C   UNL     1      67.000   7.311   5.705  1.00  0.00     0.125 C 
HETATM    6  C   UNL     1      67.493   5.918   5.314  1.00  0.00     0.020 C 
HETATM    7  C   UNL     1      66.397   5.001   7.396  1.00  0.00     0.020 C 
HETATM    8  C   UNL     1      67.666   5.025   6.543  1.00  0.00     0.003 C 
ENDROOT
BRANCH   2   9
HETATM    9  C   UNL     1      64.406   8.530   4.863  1.00  0.00     0.182 C 
BRANCH   9  10
HETATM   10  S   UNL     1      62.983   9.675   4.979  1.00  0.00    -0.121 SA
BRANCH  10  11
HETATM   11  C   UNL     1      61.976   9.145   3.604  1.00  0.00     0.001 A 
HETATM   12  C   UNL     1      62.194   9.727   2.350  1.00  0.00     0.018 A 
HETATM   13  C   UNL     1      61.525   9.252   1.219  1.00  0.00     0.001 A 
HETATM   14  C   UNL     1      60.639   8.185   1.333  1.00  0.00     0.000 A 
HETATM   15  C   UNL     1      60.407   7.603   2.579  1.00  0.00     0.001 A 
HETATM   16  C   UNL     1      61.074   8.082   3.713  1.00  0.00     0.018 A 
ENDBRANCH  10  11
ENDBRANCH   9  10
ENDBRANCH   2   9
TORSDOF 3
ENDMDL
MODEL 8
REMARK VINA RESULT:      -5.0      2.379      6.737
REMARK  3 active torsions:
REMARK  status: ('A' for Active; 'I' for Inactive)
REMARK       I    between atoms: N_1  and  C_2 
REMARK    1  A    between atoms: C_2  and  C_3 
REMARK    2  A    between atoms: C_3  and  S_5 
REMARK    3  A    between atoms: S_5  and  C_6 
ROOT
HETATM    1  N   UNL     1      65.002   6.325   5.127  1.00  0.00    -0.351 N 
HETATM    2  C   UNL     1      64.076   5.899   4.173  1.00  0.00     0.229 C 
HETATM    3  O   UNL     1      63.302   4.971   4.417  1.00  0.00    -0.273 OA
HETATM    4  C   UNL     1      64.990   5.706   6.455  1.00  0.00     0.125 C 
HETATM    5  C   UNL     1      66.125   7.231   4.899  1.00  0.00     0.125 C 
HETATM    6  C   UNL     1      67.448   6.492   5.094  1.00  0.00     0.020 C 
HETATM    7  C   UNL     1      66.285   4.937   6.708  1.00  0.00     0.020 C 
HETATM    8  C   UNL     1      67.512   5.818   6.465  1.00  0.00     0.003 C 
ENDROOT
BRANCH   2   9
HETATM    9  C   UNL     1      64.083   6.606   2.809  1.00  0.00     0.182 C 
BRANCH   9  10
HETATM   10  S   UNL     1      62.381   7.021   2.280  1.00  0.00    -0.121 SA
BRANCH  10  11
HETATM   11  C   UNL     1      62.304   8.768   2.641  1.00  0.00     0.001 A 
HETATM   12  C   UNL     1      62.018   9.655   1.597  1.00  0.00     0.018 A 
HETATM   13  C   UNL     1      61.817  11.015   1.853  1.00  0.00     0.001 A 
HETATM   14  C   UNL     1      61.890  11.494   3.158  1.00  0.00     0.000 A 
HETATM   15  C   UNL     1      62.182  10.619   4.204  1.00  0.00     0.001 A 
HETATM   16  C   UNL     1      62.389   9.259   3.947  1.00  0.00     0.018 A 
ENDBRANCH  10  11
ENDBRANCH   9  10
ENDBRANCH   2   9
TORSDOF 3
ENDMDL
MODEL 9
REMARK VINA RESULT:      -4.9      2.093      6.862
REMARK  3 active torsions:
REMARK  status: ('A' for Active; 'I' for Inactive)
REMARK       I    between atoms: N_1  and  C_2 
REMARK    1  A    between atoms: C_2  and  C_3 
REMARK    2  A    between atoms: C_3  and  S_5 
REMARK    3  A    between atoms: S_5  and  C_6 
ROOT
HETATM    1  N   UNL     1      66.483   6.071   6.903  1.00  0.00    -0.351 N 
HETATM    2  C   UNL     1      65.134   6.255   6.595  1.00  0.00     0.229 C 
HETATM    3  O   UNL     1      64.440   7.036   7.249  1.00  0.00    -0.273 OA
HETATM    4  C   UNL     1      67.086   6.878   7.967  1.00  0.00     0.125 C 
HETATM    5  C   UNL     1      67.353   5.019   6.383  1.00  0.00     0.125 C 
HETATM    6  C   UNL     1      67.780   4.081   7.512  1.00  0.00     0.020 C 
HETATM    7  C   UNL     1      67.525   5.997   9.135  1.00  0.00     0.020 C 
HETATM    8  C   UNL     1      68.423   4.853   8.663  1.00  0.00     0.003 C 
ENDROOT
BRANCH   2   9
HETATM    9  C   UNL     1      64.548   5.430   5.439  1.00  0.00     0.182 C 
BRANCH   9  10
HETATM   10  S   UNL     1      64.770   6.295   3.841  1.00  0.00    -0.121 SA
BRANCH  10  11
HETATM   11  C   UNL     1      63.424   7.466   3.872  1.00  0.00     0.001 A 
HETATM   12  C   UNL     1      63.687   8.779   4.279  1.00  0.00     0.018 A 
HETATM   13  C   UNL     1      62.698   9.763   4.194  1.00  0.00     0.001 A 
HETATM   14  C   UNL     1      61.441   9.442   3.690  1.00  0.00     0.000 A 
HETATM   15  C   UNL     1      61.165   8.135   3.289  1.00  0.00     0.001 A 
HETATM   16  C   UNL     1      62.154   7.148   3.379  1.00  0.00     0.018 A 
ENDBRANCH  10  11
ENDBRANCH   9  10
ENDBRANCH   2   9
TORSDOF 3
ENDMDL
