MODEL 1
REMARK VINA RESULT:      -4.1      0.000      0.000
REMARK  1 active torsions:
REMARK  status: ('A' for Active; 'I' for Inactive)
REMARK    1  A    between atoms: C_5  and  N_9 
ROOT
HETATM    1  N   UNL     1      78.842  11.003  20.131  1.00  0.00    -0.350 N 
ATOM      2  HN  UNL     1      79.387  10.158  19.956  1.00  0.00     0.166 HD
HETATM    3  N   UNL     1      77.306  13.338  20.597  1.00  0.00    -0.365 N 
ATOM      4  HN  UNL     1      76.763  14.184  20.772  1.00  0.00     0.165 HD
HETATM    5  C   UNL     1      79.200  11.903  21.063  1.00  0.00     0.114 A 
HETATM    6  C   UNL     1      78.428  13.039  21.297  1.00  0.00     0.136 A 
HETATM    7  C   UNL     1      76.955  12.437  19.651  1.00  0.00     0.020 A 
HETATM    8  C   UNL     1      77.711  11.288  19.439  1.00  0.00     0.114 A 
HETATM    9  C   UNL     1      75.729  12.708  18.840  1.00  0.00     0.069 C 
ENDROOT
BRANCH   5  10
HETATM   10  N   UNL     1      80.348  11.624  21.801  1.00  0.00    -0.384 N 
HETATM   11  H   UNL     1      81.134  12.211  21.727  1.00  0.00     0.157 HD
HETATM   12  H   UNL     1      80.372  10.839  22.394  1.00  0.00     0.157 HD
ENDBRANCH   5  10
TORSDOF 1
ENDMDL
MODEL 2
REMARK VINA RESULT:      -4.0      8.072      9.300
REMARK  1 active torsions:
REMARK  status: ('A' for Active; 'I' for Inactive)
REMARK    1  A    between atoms: C_5  and  N_9 
ROOT
HETATM    1  N   UNL     1      74.888   3.496  16.865  1.00  0.00    -0.350 N 
ATOM      2  HN  UNL     1      74.039   3.190  16.387  1.00  0.00     0.166 HD
HETATM    3  N   UNL     1      77.237   4.376  18.183  1.00  0.00    -0.365 N 
ATOM      4  HN  UNL     1      78.087   4.679  18.659  1.00  0.00     0.165 HD
HETATM    5  C   UNL     1      75.638   2.654  17.598  1.00  0.00     0.114 A 
HETATM    6  C   UNL     1      76.780   3.101  18.257  1.00  0.00     0.136 A 
HETATM    7  C   UNL     1      76.488   5.217  17.433  1.00  0.00     0.020 A 
HETATM    8  C   UNL     1      75.330   4.776  16.800  1.00  0.00     0.114 A 
HETATM    9  C   UNL     1      76.938   6.637  17.307  1.00  0.00     0.069 C 
ENDROOT
BRANCH   5  10
HETATM   10  N   UNL     1      75.194   1.337  17.695  1.00  0.00    -0.384 N 
HETATM   11  H   UNL     1      74.649   0.948  16.973  1.00  0.00     0.157 HD
HETATM   12  H   UNL     1      75.425   0.797  18.484  1.00  0.00     0.157 HD
ENDBRANCH   5  10
TORSDOF 1
ENDMDL
MODEL 3
REMARK VINA RESULT:      -4.0     21.019     22.654
REMARK  1 active torsions:
REMARK  status: ('A' for Active; 'I' for Inactive)
REMARK    1  A    between atoms: C_5  and  N_9 
ROOT
HETATM    1  N   UNL     1      62.259  11.670   4.447  1.00  0.00    -0.350 N 
ATOM      2  HN  UNL     1      62.041  12.638   4.687  1.00  0.00     0.166 HD
HETATM    3  N   UNL     1      62.850   8.988   3.751  1.00  0.00    -0.365 N 
ATOM      4  HN  UNL     1      63.067   8.019   3.513  1.00  0.00     0.165 HD
HETATM    5  C   UNL     1      62.957  10.869   5.271  1.00  0.00     0.114 A 
HETATM    6  C   UNL     1      63.259   9.558   4.911  1.00  0.00     0.136 A 
HETATM    7  C   UNL     1      62.137   9.792   2.930  1.00  0.00     0.020 A 
HETATM    8  C   UNL     1      61.862  11.111   3.277  1.00  0.00     0.114 A 
HETATM    9  C   UNL     1      61.653   9.224   1.634  1.00  0.00     0.069 C 
ENDROOT
BRANCH   5  10
HETATM   10  N   UNL     1      63.392  11.427   6.471  1.00  0.00    -0.384 N 
HETATM   11  H   UNL     1      62.754  11.899   7.054  1.00  0.00     0.157 HD
HETATM   12  H   UNL     1      64.337  11.350   6.736  1.00  0.00     0.157 HD
ENDBRANCH   5  10
TORSDOF 1
ENDMDL
MODEL 4
REMARK VINA RESULT:      -3.9      9.027     10.179
REMARK  1 active torsions:
REMARK  status: ('A' for Active; 'I' for Inactive)
REMARK    1  A    between atoms: C_5  and  N_9 
ROOT
HETATM    1  N   UNL     1      75.372   4.042  16.985  1.00  0.00    -0.350 N 
ATOM      2  HN  UNL     1      75.040   4.852  16.459  1.00  0.00     0.166 HD
HETATM    3  N   UNL     1      76.268   1.776  18.431  1.00  0.00    -0.365 N 
ATOM      4  HN  UNL     1      76.600   0.969  18.959  1.00  0.00     0.165 HD
HETATM    5  C   UNL     1      76.518   4.067  17.687  1.00  0.00     0.114 A 
HETATM    6  C   UNL     1      76.960   2.942  18.379  1.00  0.00     0.136 A 
HETATM    7  C   UNL     1      75.109   1.759  17.735  1.00  0.00     0.020 A 
HETATM    8  C   UNL     1      74.684   2.874  17.019  1.00  0.00     0.114 A 
HETATM    9  C   UNL     1      74.296   0.504  17.754  1.00  0.00     0.069 C 
ENDROOT
BRANCH   5  10
HETATM   10  N   UNL     1      77.252   5.250  17.652  1.00  0.00    -0.384 N 
HETATM   11  H   UNL     1      77.295   5.826  18.449  1.00  0.00     0.157 HD
HETATM   12  H   UNL     1      77.727   5.511  16.830  1.00  0.00     0.157 HD
ENDBRANCH   5  10
TORSDOF 1
ENDMDL
MODEL 5
REMARK VINA RESULT:      -3.7      9.689     11.064
REMARK  1 active torsions:
REMARK  status: ('A' for Active; 'I' for Inactive)
REMARK    1  A    between atoms: C_5  and  N_9 
ROOT
HETATM    1  N   UNL     1      77.669   3.008  19.512  1.00  0.00    -0.350 N 
ATOM      2  HN  UNL     1      77.633   3.884  20.034  1.00  0.00     0.166 HD
HETATM    3  N   UNL     1      77.787   0.560  18.088  1.00  0.00    -0.365 N 
ATOM      4  HN  UNL     1      77.824  -0.315  17.565  1.00  0.00     0.165 HD
HETATM    5  C   UNL     1      76.996   2.832  18.362  1.00  0.00     0.114 A 
HETATM    6  C   UNL     1      77.045   1.619  17.679  1.00  0.00     0.136 A 
HETATM    7  C   UNL     1      78.474   0.744  19.239  1.00  0.00     0.020 A 
HETATM    8  C   UNL     1      78.399   1.947  19.936  1.00  0.00     0.114 A 
HETATM    9  C   UNL     1      79.315  -0.384  19.745  1.00  0.00     0.069 C 
ENDROOT
BRANCH   5  10
HETATM   10  N   UNL     1      76.223   3.902  17.915  1.00  0.00    -0.384 N 
HETATM   11  H   UNL     1      76.416   4.318  17.044  1.00  0.00     0.157 HD
HETATM   12  H   UNL     1      75.485   4.242  18.471  1.00  0.00     0.157 HD
ENDBRANCH   5  10
TORSDOF 1
ENDMDL
MODEL 6
REMARK VINA RESULT:      -3.5      2.328      3.156
REMARK  1 active torsions:
REMARK  status: ('A' for Active; 'I' for Inactive)
REMARK    1  A    between atoms: C_5  and  N_9 
ROOT
HETATM    1  N   UNL     1      78.703  10.099  19.470  1.00  0.00    -0.350 N 
ATOM      2  HN  UNL     1      79.369   9.768  20.168  1.00  0.00     0.166 HD
HETATM    3  N   UNL     1      76.860  10.992  17.511  1.00  0.00    -0.365 N 
ATOM      4  HN  UNL     1      76.194  11.326  16.813  1.00  0.00     0.165 HD
HETATM    5  C   UNL     1      77.859  11.117  19.713  1.00  0.00     0.114 A 
HETATM    6  C   UNL     1      76.944  11.536  18.750  1.00  0.00     0.136 A 
HETATM    7  C   UNL     1      77.719   9.977  17.264  1.00  0.00     0.020 A 
HETATM    8  C   UNL     1      78.612   9.539  18.238  1.00  0.00     0.114 A 
HETATM    9  C   UNL     1      77.681   9.335  15.915  1.00  0.00     0.069 C 
ENDROOT
BRANCH   5  10
HETATM   10  N   UNL     1      77.920  11.696  20.978  1.00  0.00    -0.384 N 
HETATM   11  H   UNL     1      78.174  12.642  21.074  1.00  0.00     0.157 HD
HETATM   12  H   UNL     1      77.709  11.159  21.776  1.00  0.00     0.157 HD
ENDBRANCH   5  10
TORSDOF 1
ENDMDL
MODEL 7
REMARK VINA RESULT:      -3.5     16.902     18.270
REMARK  1 active torsions:
REMARK  status: ('A' for Active; 'I' for Inactive)
REMARK    1  A    between atoms: C_5  and  N_9 
ROOT
HETATM    1  N   UNL     1      65.548   6.882   7.880  1.00  0.00    -0.350 N 
ATOM      2  HN  UNL     1      64.591   7.043   8.197  1.00  0.00     0.166 HD
HETATM    3  N   UNL     1      68.209   6.415   7.024  1.00  0.00    -0.365 N 
ATOM      4  HN  UNL     1      69.165   6.257   6.706  1.00  0.00     0.165 HD
HETATM    5  C   UNL     1      66.008   7.377   6.717  1.00  0.00     0.114 A 
HETATM    6  C   UNL     1      67.311   7.126   6.297  1.00  0.00     0.136 A 
HETATM    7  C   UNL     1      67.747   5.930   8.199  1.00  0.00     0.020 A 
HETATM    8  C   UNL     1      66.435   6.156   8.604  1.00  0.00     0.114 A 
HETATM    9  C   UNL     1      68.687   5.139   9.051  1.00  0.00     0.069 C 
ENDROOT
BRANCH   5  10
HETATM   10  N   UNL     1      65.109   8.111   5.946  1.00  0.00    -0.384 N 
HETATM   11  H   UNL     1      64.148   7.899   5.976  1.00  0.00     0.157 HD
HETATM   12  H   UNL     1      65.435   8.841   5.372  1.00  0.00     0.157 HD
ENDBRANCH   5  10
TORSDOF 1
ENDMDL
MODEL 8
REMARK VINA RESULT:      -3.5     16.288     17.779
REMARK  1 active torsions:
REMARK  status: ('A' for Active; 'I' for Inactive)
REMARK    1  A    between atoms: C_5  and  N_9 
ROOT
HETATM    1  N   UNL     1      66.796   5.614   6.717  1.00  0.00    -0.350 N 
ATOM      2  HN  UNL     1      66.344   5.349   5.841  1.00  0.00     0.166 HD
HETATM    3  N   UNL     1      68.077   6.330   9.142  1.00  0.00    -0.365 N 
ATOM      4  HN  UNL     1      68.526   6.593  10.019  1.00  0.00     0.165 HD
HETATM    5  C   UNL     1      66.251   6.508   7.561  1.00  0.00     0.114 A 
HETATM    6  C   UNL     1      66.898   6.867   8.741  1.00  0.00     0.136 A 
HETATM    7  C   UNL     1      68.616   5.421   8.298  1.00  0.00     0.020 A 
HETATM    8  C   UNL     1      67.983   5.085   7.104  1.00  0.00     0.114 A 
HETATM    9  C   UNL     1      69.915   4.787   8.681  1.00  0.00     0.069 C 
ENDROOT
BRANCH   5  10
HETATM   10  N   UNL     1      65.040   7.079   7.177  1.00  0.00    -0.384 N 
HETATM   11  H   UNL     1      64.602   7.741   7.759  1.00  0.00     0.157 HD
HETATM   12  H   UNL     1      64.622   6.820   6.324  1.00  0.00     0.157 HD
ENDBRANCH   5  10
TORSDOF 1
ENDMDL
MODEL 9
REMARK VINA RESULT:      -3.5     15.816     17.159
REMARK  1 active torsions:
REMARK  status: ('A' for Active; 'I' for Inactive)
REMARK    1  A    between atoms: C_5  and  N_9 
ROOT
HETATM    1  N   UNL     1      67.408   2.845   9.227  1.00  0.00    -0.350 N 
ATOM      2  HN  UNL     1      66.443   2.808   8.898  1.00  0.00     0.166 HD
HETATM    3  N   UNL     1      70.093   2.974  10.127  1.00  0.00    -0.365 N 
ATOM      4  HN  UNL     1      71.058   3.008  10.456  1.00  0.00     0.165 HD
HETATM    5  C   UNL     1      67.910   1.927  10.073  1.00  0.00     0.114 A 
HETATM    6  C   UNL     1      69.225   2.011  10.524  1.00  0.00     0.136 A 
HETATM    7  C   UNL     1      69.590   3.887   9.266  1.00  0.00     0.020 A 
HETATM    8  C   UNL     1      68.267   3.820   8.840  1.00  0.00     0.114 A 
HETATM    9  C   UNL     1      70.495   4.976   8.786  1.00  0.00     0.069 C 
ENDROOT
BRANCH   5  10
HETATM   10  N   UNL     1      67.042   0.925  10.501  1.00  0.00    -0.384 N 
HETATM   11  H   UNL     1      66.116   0.902  10.169  1.00  0.00     0.157 HD
HETATM   12  H   UNL     1      67.356   0.240  11.135  1.00  0.00     0.157 HD
ENDBRANCH   5  10
TORSDOF 1
ENDMDL
