MODEL 1
REMARK VINA RESULT:      -6.5      0.000      0.000
REMARK  1 active torsions:
REMARK  status: ('A' for Active; 'I' for Inactive)
REMARK    1  A    between atoms: C_2  and  C_4 
REMARK       I    between atoms: C_4  and  N_9 
ROOT
HETATM    1  C   UNL     1      77.860  11.506  19.565  1.00  0.00     0.092 A 
HETATM    2  C   UNL     1      78.247  12.219  20.692  1.00  0.00     0.065 A 
HETATM    3  O   UNL     1      78.473  10.371  19.101  1.00  0.00    -0.339 OA
HETATM    4  C   UNL     1      76.787  11.907  18.782  1.00  0.00    -0.021 A 
HETATM    5  C   UNL     1      77.676   9.914  17.975  1.00  0.00     0.064 C 
HETATM    6  C   UNL     1      76.622  10.988  17.630  1.00  0.00     0.079 C 
HETATM    7  C   UNL     1      77.508  13.366  21.020  1.00  0.00     0.020 A 
HETATM    8  C   UNL     1      76.055  13.039  19.097  1.00  0.00     0.010 A 
HETATM    9  C   UNL     1      76.420  13.771  20.229  1.00  0.00     0.002 A 
HETATM   10  C   UNL     1      77.023   8.593  18.396  1.00  0.00     0.046 C 
HETATM   11  C   UNL     1      78.649   9.683  16.818  1.00  0.00     0.046 C 
ENDROOT
BRANCH   2  12
HETATM   12  C   UNL     1      79.393  11.829  21.556  1.00  0.00     0.252 C 
HETATM   13  O   UNL     1      79.457  12.173  22.732  1.00  0.00    -0.268 OA
HETATM   14  N   UNL     1      80.382  11.072  21.001  1.00  0.00    -0.366 N 
HETATM   15  H   UNL     1      80.323  10.800  20.057  1.00  0.00     0.159 HD
HETATM   16  H   UNL     1      81.155  10.796  21.545  1.00  0.00     0.159 HD
ENDBRANCH   2  12
TORSDOF 1
ENDMDL
MODEL 2
REMARK VINA RESULT:      -6.3      3.270      6.113
REMARK  1 active torsions:
REMARK  status: ('A' for Active; 'I' for Inactive)
REMARK    1  A    between atoms: C_2  and  C_4 
REMARK       I    between atoms: C_4  and  N_9 
ROOT
HETATM    1  C   UNL     1      77.493   8.958  16.430  1.00  0.00     0.092 A 
HETATM    2  C   UNL     1      77.390   8.643  15.081  1.00  0.00     0.065 A 
HETATM    3  O   UNL     1      77.903  10.168  16.928  1.00  0.00    -0.339 OA
HETATM    4  C   UNL     1      77.187   8.035  17.420  1.00  0.00    -0.021 A 
HETATM    5  C   UNL     1      77.754  10.082  18.370  1.00  0.00     0.064 C 
HETATM    6  C   UNL     1      77.419   8.626  18.760  1.00  0.00     0.079 C 
HETATM    7  C   UNL     1      76.958   7.350  14.749  1.00  0.00     0.020 A 
HETATM    8  C   UNL     1      76.764   6.756  17.100  1.00  0.00     0.010 A 
HETATM    9  C   UNL     1      76.646   6.415  15.751  1.00  0.00     0.002 A 
HETATM   10  C   UNL     1      76.631  11.047  18.764  1.00  0.00     0.046 C 
HETATM   11  C   UNL     1      79.084  10.537  18.973  1.00  0.00     0.046 C 
ENDROOT
BRANCH   2  12
HETATM   12  C   UNL     1      77.712   9.598  13.988  1.00  0.00     0.252 C 
HETATM   13  O   UNL     1      78.002   9.209  12.861  1.00  0.00    -0.268 OA
HETATM   14  N   UNL     1      77.676  10.930  14.274  1.00  0.00    -0.366 N 
HETATM   15  H   UNL     1      77.442  11.233  15.181  1.00  0.00     0.159 HD
HETATM   16  H   UNL     1      77.884  11.591  13.574  1.00  0.00     0.159 HD
ENDBRANCH   2  12
TORSDOF 1
ENDMDL
MODEL 3
REMARK VINA RESULT:      -6.1     19.485     21.222
REMARK  1 active torsions:
REMARK  status: ('A' for Active; 'I' for Inactive)
REMARK    1  A    between atoms: C_2  and  C_4 
REMARK       I    between atoms: C_4  and  N_9 
ROOT
HETATM    1  C   UNL     1      63.622   8.897   4.443  1.00  0.00     0.092 A 
HETATM    2  C   UNL     1      62.729   9.916   4.141  1.00  0.00     0.065 A 
HETATM    3  O   UNL     1      64.489   8.897   5.506  1.00  0.00    -0.339 OA
HETATM    4  C   UNL     1      63.721   7.757   3.658  1.00  0.00    -0.021 A 
HETATM    5  C   UNL     1      65.144   7.600   5.492  1.00  0.00     0.064 C 
HETATM    6  C   UNL     1      64.773   6.858   4.190  1.00  0.00     0.079 C 
HETATM    7  C   UNL     1      61.917   9.753   3.008  1.00  0.00     0.020 A 
HETATM    8  C   UNL     1      62.926   7.589   2.537  1.00  0.00     0.010 A 
HETATM    9  C   UNL     1      62.015   8.597   2.214  1.00  0.00     0.002 A 
HETATM   10  C   UNL     1      64.665   6.842   6.734  1.00  0.00     0.046 C 
HETATM   11  C   UNL     1      66.647   7.872   5.580  1.00  0.00     0.046 C 
ENDROOT
BRANCH   2  12
HETATM   12  C   UNL     1      62.594  11.156   4.950  1.00  0.00     0.252 C 
HETATM   13  O   UNL     1      61.876  12.084   4.590  1.00  0.00    -0.268 OA
HETATM   14  N   UNL     1      63.296  11.236   6.117  1.00  0.00    -0.366 N 
HETATM   15  H   UNL     1      63.869  10.488   6.399  1.00  0.00     0.159 HD
HETATM   16  H   UNL     1      63.230  12.043   6.678  1.00  0.00     0.159 HD
ENDBRANCH   2  12
TORSDOF 1
ENDMDL
MODEL 4
REMARK VINA RESULT:      -5.4     21.007     22.570
REMARK  1 active torsions:
REMARK  status: ('A' for Active; 'I' for Inactive)
REMARK    1  A    between atoms: C_2  and  C_4 
REMARK       I    between atoms: C_4  and  N_9 
ROOT
HETATM    1  C   UNL     1      62.405   8.773   3.441  1.00  0.00     0.092 A 
HETATM    2  C   UNL     1      62.862   8.959   4.740  1.00  0.00     0.065 A 
HETATM    3  O   UNL     1      62.387   7.573   2.777  1.00  0.00    -0.339 OA
HETATM    4  C   UNL     1      61.923   9.827   2.679  1.00  0.00    -0.021 A 
HETATM    5  C   UNL     1      61.736   7.828   1.503  1.00  0.00     0.064 C 
HETATM    6  C   UNL     1      61.539   9.350   1.328  1.00  0.00     0.079 C 
HETATM    7  C   UNL     1      62.814  10.260   5.263  1.00  0.00     0.020 A 
HETATM    8  C   UNL     1      61.875  11.114   3.187  1.00  0.00     0.010 A 
HETATM    9  C   UNL     1      62.323  11.328   4.493  1.00  0.00     0.002 A 
HETATM   10  C   UNL     1      60.397   7.082   1.526  1.00  0.00     0.046 C 
HETATM   11  C   UNL     1      62.651   7.248   0.423  1.00  0.00     0.046 C 
ENDROOT
BRANCH   2  12
HETATM   12  C   UNL     1      63.392   7.860   5.589  1.00  0.00     0.252 C 
HETATM   13  O   UNL     1      63.048   7.730   6.760  1.00  0.00    -0.268 OA
HETATM   14  N   UNL     1      64.280   6.991   5.027  1.00  0.00    -0.366 N 
HETATM   15  H   UNL     1      64.550   7.102   4.087  1.00  0.00     0.159 HD
HETATM   16  H   UNL     1      64.651   6.251   5.561  1.00  0.00     0.159 HD
ENDBRANCH   2  12
TORSDOF 1
ENDMDL
MODEL 5
REMARK VINA RESULT:      -5.3     20.921     22.519
REMARK  1 active torsions:
REMARK  status: ('A' for Active; 'I' for Inactive)
REMARK    1  A    between atoms: C_2  and  C_4 
REMARK       I    between atoms: C_4  and  N_9 
ROOT
HETATM    1  C   UNL     1      62.800   8.424   3.210  1.00  0.00     0.092 A 
HETATM    2  C   UNL     1      62.635   9.595   3.940  1.00  0.00     0.065 A 
HETATM    3  O   UNL     1      63.305   7.251   3.708  1.00  0.00    -0.339 OA
HETATM    4  C   UNL     1      62.463   8.349   1.867  1.00  0.00    -0.021 A 
HETATM    5  C   UNL     1      63.195   6.278   2.634  1.00  0.00     0.064 C 
HETATM    6  C   UNL     1      62.775   7.000   1.335  1.00  0.00     0.079 C 
HETATM    7  C   UNL     1      62.107  10.708   3.268  1.00  0.00     0.020 A 
HETATM    8  C   UNL     1      61.945   9.444   1.196  1.00  0.00     0.010 A 
HETATM    9  C   UNL     1      61.764  10.632   1.908  1.00  0.00     0.002 A 
HETATM   10  C   UNL     1      62.152   5.244   3.070  1.00  0.00     0.046 C 
HETATM   11  C   UNL     1      64.570   5.623   2.498  1.00  0.00     0.046 C 
ENDROOT
BRANCH   2  12
HETATM   12  C   UNL     1      62.987   9.722   5.379  1.00  0.00     0.252 C 
HETATM   13  O   UNL     1      63.289  10.804   5.873  1.00  0.00    -0.268 OA
HETATM   14  N   UNL     1      62.964   8.593   6.143  1.00  0.00    -0.366 N 
HETATM   15  H   UNL     1      62.720   7.730   5.739  1.00  0.00     0.159 HD
HETATM   16  H   UNL     1      63.191   8.641   7.100  1.00  0.00     0.159 HD
ENDBRANCH   2  12
TORSDOF 1
ENDMDL
MODEL 6
REMARK VINA RESULT:      -5.3     20.547     22.221
REMARK  1 active torsions:
REMARK  status: ('A' for Active; 'I' for Inactive)
REMARK    1  A    between atoms: C_2  and  C_4 
REMARK       I    between atoms: C_4  and  N_9 
ROOT
HETATM    1  C   UNL     1      62.849   8.758   3.789  1.00  0.00     0.092 A 
HETATM    2  C   UNL     1      63.479   9.481   4.794  1.00  0.00     0.065 A 
HETATM    3  O   UNL     1      61.691   9.132   3.156  1.00  0.00    -0.339 OA
HETATM    4  C   UNL     1      63.354   7.549   3.334  1.00  0.00    -0.021 A 
HETATM    5  C   UNL     1      61.463   8.143   2.116  1.00  0.00     0.064 C 
HETATM    6  C   UNL     1      62.467   6.983   2.289  1.00  0.00     0.079 C 
HETATM    7  C   UNL     1      64.657   8.945   5.336  1.00  0.00     0.020 A 
HETATM    8  C   UNL     1      64.515   7.012   3.866  1.00  0.00     0.010 A 
HETATM    9  C   UNL     1      65.171   7.722   4.874  1.00  0.00     0.002 A 
HETATM   10  C   UNL     1      61.646   8.856   0.772  1.00  0.00     0.046 C 
HETATM   11  C   UNL     1      60.017   7.670   2.276  1.00  0.00     0.046 C 
ENDROOT
BRANCH   2  12
HETATM   12  C   UNL     1      62.970  10.777   5.315  1.00  0.00     0.252 C 
HETATM   13  O   UNL     1      63.186  11.134   6.469  1.00  0.00    -0.268 OA
HETATM   14  N   UNL     1      62.249  11.566   4.469  1.00  0.00    -0.366 N 
HETATM   15  H   UNL     1      62.081  11.272   3.545  1.00  0.00     0.159 HD
HETATM   16  H   UNL     1      61.897  12.431   4.781  1.00  0.00     0.159 HD
ENDBRANCH   2  12
TORSDOF 1
ENDMDL
MODEL 7
REMARK VINA RESULT:      -5.1     21.100     22.900
REMARK  1 active torsions:
REMARK  status: ('A' for Active; 'I' for Inactive)
REMARK    1  A    between atoms: C_2  and  C_4 
REMARK       I    between atoms: C_4  and  N_9 
ROOT
HETATM    1  C   UNL     1      62.647   8.764   3.217  1.00  0.00     0.092 A 
HETATM    2  C   UNL     1      62.299   8.713   1.874  1.00  0.00     0.065 A 
HETATM    3  O   UNL     1      63.119   7.706   3.950  1.00  0.00    -0.339 OA
HETATM    4  C   UNL     1      62.530   9.932   3.957  1.00  0.00    -0.021 A 
HETATM    5  C   UNL     1      63.449   8.239   5.261  1.00  0.00     0.064 C 
HETATM    6  C   UNL     1      62.936   9.691   5.363  1.00  0.00     0.079 C 
HETATM    7  C   UNL     1      61.825   9.894   1.281  1.00  0.00     0.020 A 
HETATM    8  C   UNL     1      62.061  11.101   3.380  1.00  0.00     0.010 A 
HETATM    9  C   UNL     1      61.709  11.078   2.029  1.00  0.00     0.002 A 
HETATM   10  C   UNL     1      64.973   8.164   5.405  1.00  0.00     0.046 C 
HETATM   11  C   UNL     1      62.772   7.326   6.284  1.00  0.00     0.046 C 
ENDROOT
BRANCH   2  12
HETATM   12  C   UNL     1      62.402   7.482   1.045  1.00  0.00     0.252 C 
HETATM   13  O   UNL     1      61.691   7.310   0.060  1.00  0.00    -0.268 OA
HETATM   14  N   UNL     1      63.317   6.541   1.413  1.00  0.00    -0.366 N 
HETATM   15  H   UNL     1      63.883   6.687   2.204  1.00  0.00     0.159 HD
HETATM   16  H   UNL     1      63.412   5.714   0.887  1.00  0.00     0.159 HD
ENDBRANCH   2  12
TORSDOF 1
ENDMDL
MODEL 8
REMARK VINA RESULT:      -5.0     15.719     16.985
REMARK  1 active torsions:
REMARK  status: ('A' for Active; 'I' for Inactive)
REMARK    1  A    between atoms: C_2  and  C_4 
REMARK       I    between atoms: C_4  and  N_9 
ROOT
HETATM    1  C   UNL     1      67.970   3.491   9.126  1.00  0.00     0.092 A 
HETATM    2  C   UNL     1      67.642   4.693   8.510  1.00  0.00     0.065 A 
HETATM    3  O   UNL     1      67.086   2.480   9.400  1.00  0.00    -0.339 OA
HETATM    4  C   UNL     1      69.265   3.212   9.536  1.00  0.00    -0.021 A 
HETATM    5  C   UNL     1      67.878   1.389   9.941  1.00  0.00     0.064 C 
HETATM    6  C   UNL     1      69.320   1.882  10.190  1.00  0.00     0.079 C 
HETATM    7  C   UNL     1      68.675   5.622   8.311  1.00  0.00     0.020 A 
HETATM    8  C   UNL     1      70.289   4.125   9.346  1.00  0.00     0.010 A 
HETATM    9  C   UNL     1      69.988   5.338   8.725  1.00  0.00     0.002 A 
HETATM   10  C   UNL     1      67.836   0.252   8.914  1.00  0.00     0.046 C 
HETATM   11  C   UNL     1      67.195   0.958  11.240  1.00  0.00     0.046 C 
ENDROOT
BRANCH   2  12
HETATM   12  C   UNL     1      66.267   5.036   8.059  1.00  0.00     0.252 C 
HETATM   13  O   UNL     1      65.869   6.197   8.041  1.00  0.00    -0.268 OA
HETATM   14  N   UNL     1      65.453   4.017   7.661  1.00  0.00    -0.366 N 
HETATM   15  H   UNL     1      65.782   3.090   7.678  1.00  0.00     0.159 HD
HETATM   16  H   UNL     1      64.537   4.209   7.356  1.00  0.00     0.159 HD
ENDBRANCH   2  12
TORSDOF 1
ENDMDL
MODEL 9
REMARK VINA RESULT:      -5.0     15.854     17.839
REMARK  1 active torsions:
REMARK  status: ('A' for Active; 'I' for Inactive)
REMARK    1  A    between atoms: C_2  and  C_4 
REMARK       I    between atoms: C_4  and  N_9 
ROOT
HETATM    1  C   UNL     1      67.999   5.393   6.640  1.00  0.00     0.092 A 
HETATM    2  C   UNL     1      67.276   6.165   5.739  1.00  0.00     0.065 A 
HETATM    3  O   UNL     1      68.630   5.872   7.760  1.00  0.00    -0.339 OA
HETATM    4  C   UNL     1      68.155   4.026   6.468  1.00  0.00    -0.021 A 
HETATM    5  C   UNL     1      69.160   4.710   8.452  1.00  0.00     0.064 C 
HETATM    6  C   UNL     1      68.997   3.465   7.553  1.00  0.00     0.079 C 
HETATM    7  C   UNL     1      66.699   5.509   4.641  1.00  0.00     0.020 A 
HETATM    8  C   UNL     1      67.591   3.372   5.385  1.00  0.00     0.010 A 
HETATM    9  C   UNL     1      66.855   4.123   4.467  1.00  0.00     0.002 A 
HETATM   10  C   UNL     1      68.376   4.571   9.761  1.00  0.00     0.046 C 
HETATM   11  C   UNL     1      70.632   5.010   8.741  1.00  0.00     0.046 C 
ENDROOT
BRANCH   2  12
HETATM   12  C   UNL     1      67.089   7.633   5.882  1.00  0.00     0.252 C 
HETATM   13  O   UNL     1      67.176   8.388   4.918  1.00  0.00    -0.268 OA
HETATM   14  N   UNL     1      66.813   8.124   7.124  1.00  0.00    -0.366 N 
HETATM   15  H   UNL     1      66.743   7.511   7.891  1.00  0.00     0.159 HD
HETATM   16  H   UNL     1      66.682   9.091   7.254  1.00  0.00     0.159 HD
ENDBRANCH   2  12
TORSDOF 1
ENDMDL
