MODEL 1
REMARK VINA RESULT:      -4.7      0.000      0.000
REMARK  2 active torsions:
REMARK  status: ('A' for Active; 'I' for Inactive)
REMARK    1  A    between atoms: C_1  and  S_2 
REMARK    2  A    between atoms: S_2  and  N_8 
ROOT
HETATM    1  C   UNL     1      67.439   6.486   6.529  1.00  0.00     0.161 A 
HETATM    2  N   UNL     1      68.051   6.458   7.773  1.00  0.00    -0.335 N 
ATOM      3  HN  UNL     1      68.115   7.223   8.444  1.00  0.00     0.168 HD
HETATM    4  C   UNL     1      67.542   5.254   5.921  1.00  0.00     0.135 A 
HETATM    5  C   UNL     1      68.534   5.238   7.911  1.00  0.00     0.079 A 
HETATM    6  N   UNL     1      68.219   4.472   6.811  1.00  0.00    -0.348 N 
HETATM    7  C   UNL     1      68.542   3.079   6.618  1.00  0.00     0.156 C 
HETATM    8  C   UNL     1      69.310   4.758   9.083  1.00  0.00     0.089 C 
ENDROOT
BRANCH   1   9
HETATM    9  S   UNL     1      66.670   7.905   5.856  1.00  0.00     0.260 S 
HETATM   10  O   UNL     1      66.646   8.845   6.959  1.00  0.00    -0.204 OA
HETATM   11  O   UNL     1      67.432   8.177   4.650  1.00  0.00    -0.204 OA
BRANCH   9  12
HETATM   12  N   UNL     1      65.061   7.528   5.419  1.00  0.00    -0.213 NA
HETATM   13  C   UNL     1      64.275   6.888   6.490  1.00  0.00     0.129 C 
HETATM   14  C   UNL     1      64.329   8.625   4.754  1.00  0.00     0.129 C 
ENDBRANCH   9  12
ENDBRANCH   1   9
TORSDOF 2
ENDMDL
MODEL 2
REMARK VINA RESULT:      -4.7      3.472      6.801
REMARK  2 active torsions:
REMARK  status: ('A' for Active; 'I' for Inactive)
REMARK    1  A    between atoms: C_1  and  S_2 
REMARK    2  A    between atoms: S_2  and  N_8 
ROOT
HETATM    1  C   UNL     1      62.889   8.362   4.557  1.00  0.00     0.161 A 
HETATM    2  N   UNL     1      62.761   7.909   3.252  1.00  0.00    -0.335 N 
ATOM      3  HN  UNL     1      62.914   6.959   2.914  1.00  0.00     0.168 HD
HETATM    4  C   UNL     1      62.581   9.703   4.625  1.00  0.00     0.135 A 
HETATM    5  C   UNL     1      62.401   8.958   2.538  1.00  0.00     0.079 A 
HETATM    6  N   UNL     1      62.258  10.061   3.349  1.00  0.00    -0.348 N 
HETATM    7  C   UNL     1      61.838  11.379   2.935  1.00  0.00     0.156 C 
HETATM    8  C   UNL     1      62.183   8.953   1.069  1.00  0.00     0.089 C 
ENDROOT
BRANCH   1   9
HETATM    9  S   UNL     1      63.386   7.350   5.893  1.00  0.00     0.260 S 
HETATM   10  O   UNL     1      62.533   7.770   6.985  1.00  0.00    -0.204 OA
HETATM   11  O   UNL     1      63.315   6.002   5.355  1.00  0.00    -0.204 OA
BRANCH   9  12
HETATM   12  N   UNL     1      65.011   7.697   6.297  1.00  0.00    -0.213 NA
HETATM   13  C   UNL     1      65.618   6.742   7.241  1.00  0.00     0.129 C 
HETATM   14  C   UNL     1      65.884   7.991   5.143  1.00  0.00     0.129 C 
ENDBRANCH   9  12
ENDBRANCH   1   9
TORSDOF 2
ENDMDL
MODEL 3
REMARK VINA RESULT:      -4.7      2.526      5.560
REMARK  2 active torsions:
REMARK  status: ('A' for Active; 'I' for Inactive)
REMARK    1  A    between atoms: C_1  and  S_2 
REMARK    2  A    between atoms: S_2  and  N_8 
ROOT
HETATM    1  C   UNL     1      64.804   8.295   5.204  1.00  0.00     0.161 A 
HETATM    2  N   UNL     1      64.091   9.465   5.419  1.00  0.00    -0.335 N 
ATOM      3  HN  UNL     1      64.235  10.142   6.168  1.00  0.00     0.168 HD
HETATM    4  C   UNL     1      64.331   7.652   4.080  1.00  0.00     0.135 A 
HETATM    5  C   UNL     1      63.191   9.523   4.457  1.00  0.00     0.079 A 
HETATM    6  N   UNL     1      63.327   8.446   3.610  1.00  0.00    -0.348 N 
HETATM    7  C   UNL     1      62.548   8.188   2.423  1.00  0.00     0.156 C 
HETATM    8  C   UNL     1      62.173  10.594   4.308  1.00  0.00     0.089 C 
ENDROOT
BRANCH   1   9
HETATM    9  S   UNL     1      66.098   7.740   6.240  1.00  0.00     0.260 S 
HETATM   10  O   UNL     1      66.930   6.943   5.362  1.00  0.00    -0.204 OA
HETATM   11  O   UNL     1      66.599   8.958   6.855  1.00  0.00    -0.204 OA
BRANCH   9  12
HETATM   12  N   UNL     1      65.458   6.729   7.461  1.00  0.00    -0.213 NA
HETATM   13  C   UNL     1      64.931   5.442   6.969  1.00  0.00     0.129 C 
HETATM   14  C   UNL     1      66.321   6.574   8.649  1.00  0.00     0.129 C 
ENDBRANCH   9  12
ENDBRANCH   1   9
TORSDOF 2
ENDMDL
MODEL 4
REMARK VINA RESULT:      -4.3      3.129      6.752
REMARK  2 active torsions:
REMARK  status: ('A' for Active; 'I' for Inactive)
REMARK    1  A    between atoms: C_1  and  S_2 
REMARK    2  A    between atoms: S_2  and  N_8 
ROOT
HETATM    1  C   UNL     1      63.230   8.743   4.215  1.00  0.00     0.161 A 
HETATM    2  N   UNL     1      62.793  10.056   4.115  1.00  0.00    -0.335 N 
ATOM      3  HN  UNL     1      62.861  10.782   4.828  1.00  0.00     0.168 HD
HETATM    4  C   UNL     1      62.981   8.071   3.038  1.00  0.00     0.135 A 
HETATM    5  C   UNL     1      62.272  10.174   2.909  1.00  0.00     0.079 A 
HETATM    6  N   UNL     1      62.394   8.990   2.218  1.00  0.00    -0.348 N 
HETATM    7  C   UNL     1      61.977   8.745   0.858  1.00  0.00     0.156 C 
HETATM    8  C   UNL     1      61.641  11.407   2.372  1.00  0.00     0.089 C 
ENDROOT
BRANCH   1   9
HETATM    9  S   UNL     1      63.970   8.071   5.649  1.00  0.00     0.260 S 
HETATM   10  O   UNL     1      65.134   8.907   5.864  1.00  0.00    -0.204 OA
HETATM   11  O   UNL     1      62.884   8.026   6.613  1.00  0.00    -0.204 OA
BRANCH   9  12
HETATM   12  N   UNL     1      64.489   6.475   5.327  1.00  0.00    -0.213 NA
HETATM   13  C   UNL     1      65.928   6.247   5.555  1.00  0.00     0.129 C 
HETATM   14  C   UNL     1      63.644   5.420   5.922  1.00  0.00     0.129 C 
ENDBRANCH   9  12
ENDBRANCH   1   9
TORSDOF 2
ENDMDL
MODEL 5
REMARK VINA RESULT:      -4.1      1.644      5.180
REMARK  2 active torsions:
REMARK  status: ('A' for Active; 'I' for Inactive)
REMARK    1  A    between atoms: C_1  and  S_2 
REMARK    2  A    between atoms: S_2  and  N_8 
ROOT
HETATM    1  C   UNL     1      64.881   7.701   5.886  1.00  0.00     0.161 A 
HETATM    2  N   UNL     1      63.931   6.979   6.594  1.00  0.00    -0.335 N 
ATOM      3  HN  UNL     1      64.085   6.414   7.428  1.00  0.00     0.168 HD
HETATM    4  C   UNL     1      64.288   8.354   4.827  1.00  0.00     0.135 A 
HETATM    5  C   UNL     1      62.787   7.174   5.967  1.00  0.00     0.079 A 
HETATM    6  N   UNL     1      62.966   8.027   4.901  1.00  0.00    -0.348 N 
HETATM    7  C   UNL     1      61.939   8.505   4.006  1.00  0.00     0.156 C 
HETATM    8  C   UNL     1      61.491   6.560   6.351  1.00  0.00     0.089 C 
ENDROOT
BRANCH   1   9
HETATM    9  S   UNL     1      66.579   7.739   6.300  1.00  0.00     0.260 S 
HETATM   10  O   UNL     1      67.250   7.488   5.041  1.00  0.00    -0.204 OA
HETATM   11  O   UNL     1      66.739   9.002   7.002  1.00  0.00    -0.204 OA
BRANCH   9  12
HETATM   12  N   UNL     1      66.932   6.460   7.378  1.00  0.00    -0.213 NA
HETATM   13  C   UNL     1      68.080   5.627   6.976  1.00  0.00     0.129 C 
HETATM   14  C   UNL     1      66.982   6.850   8.802  1.00  0.00     0.129 C 
ENDBRANCH   9  12
ENDBRANCH   1   9
TORSDOF 2
ENDMDL
MODEL 6
REMARK VINA RESULT:      -4.1      2.863      3.551
REMARK  2 active torsions:
REMARK  status: ('A' for Active; 'I' for Inactive)
REMARK    1  A    between atoms: C_1  and  S_2 
REMARK    2  A    between atoms: S_2  and  N_8 
ROOT
HETATM    1  C   UNL     1      64.708   7.762   6.055  1.00  0.00     0.161 A 
HETATM    2  N   UNL     1      65.177   7.039   7.142  1.00  0.00    -0.335 N 
ATOM      3  HN  UNL     1      64.623   6.647   7.904  1.00  0.00     0.168 HD
HETATM    4  C   UNL     1      65.756   8.107   5.228  1.00  0.00     0.135 A 
HETATM    5  C   UNL     1      66.484   6.961   6.990  1.00  0.00     0.079 A 
HETATM    6  N   UNL     1      66.866   7.580   5.820  1.00  0.00    -0.348 N 
HETATM    7  C   UNL     1      68.208   7.665   5.296  1.00  0.00     0.156 C 
HETATM    8  C   UNL     1      67.415   6.304   7.943  1.00  0.00     0.089 C 
ENDROOT
BRANCH   1   9
HETATM    9  S   UNL     1      63.026   8.171   5.812  1.00  0.00     0.260 S 
HETATM   10  O   UNL     1      62.350   7.544   6.929  1.00  0.00    -0.204 OA
HETATM   11  O   UNL     1      63.038   9.615   5.651  1.00  0.00    -0.204 OA
BRANCH   9  12
HETATM   12  N   UNL     1      62.471   7.459   4.360  1.00  0.00    -0.213 NA
HETATM   13  C   UNL     1      61.165   6.784   4.477  1.00  0.00     0.129 C 
HETATM   14  C   UNL     1      62.556   8.333   3.173  1.00  0.00     0.129 C 
ENDBRANCH   9  12
ENDBRANCH   1   9
TORSDOF 2
ENDMDL
MODEL 7
REMARK VINA RESULT:      -4.0     25.313     26.375
REMARK  2 active torsions:
REMARK  status: ('A' for Active; 'I' for Inactive)
REMARK    1  A    between atoms: C_1  and  S_2 
REMARK    2  A    between atoms: S_2  and  N_8 
ROOT
HETATM    1  C   UNL     1      48.805  20.088  19.708  1.00  0.00     0.161 A 
HETATM    2  N   UNL     1      48.421  18.761  19.829  1.00  0.00    -0.335 N 
ATOM      3  HN  UNL     1      48.696  18.106  20.561  1.00  0.00     0.168 HD
HETATM    4  C   UNL     1      48.214  20.654  18.600  1.00  0.00     0.135 A 
HETATM    5  C   UNL     1      47.627  18.519  18.804  1.00  0.00     0.079 A 
HETATM    6  N   UNL     1      47.460  19.658  18.050  1.00  0.00    -0.348 N 
HETATM    7  C   UNL     1      46.632  19.794  16.876  1.00  0.00     0.156 C 
HETATM    8  C   UNL     1      47.003  17.205  18.503  1.00  0.00     0.089 C 
ENDROOT
BRANCH   1   9
HETATM    9  S   UNL     1      49.897  20.888  20.814  1.00  0.00     0.260 S 
HETATM   10  O   UNL     1      49.529  22.286  20.717  1.00  0.00    -0.204 OA
HETATM   11  O   UNL     1      49.739  20.151  22.056  1.00  0.00    -0.204 OA
BRANCH   9  12
HETATM   12  N   UNL     1      51.505  20.701  20.264  1.00  0.00    -0.213 NA
HETATM   13  C   UNL     1      52.318  21.929  20.338  1.00  0.00     0.129 C 
HETATM   14  C   UNL     1      52.208  19.518  20.801  1.00  0.00     0.129 C 
ENDBRANCH   9  12
ENDBRANCH   1   9
TORSDOF 2
ENDMDL
MODEL 8
REMARK VINA RESULT:      -4.0     13.585     15.405
REMARK  2 active torsions:
REMARK  status: ('A' for Active; 'I' for Inactive)
REMARK    1  A    between atoms: C_1  and  S_2 
REMARK    2  A    between atoms: S_2  and  N_8 
ROOT
HETATM    1  C   UNL     1      76.010   0.385  16.716  1.00  0.00     0.161 A 
HETATM    2  N   UNL     1      75.033   0.400  15.732  1.00  0.00    -0.335 N 
ATOM      3  HN  UNL     1      74.066   0.707  15.832  1.00  0.00     0.168 HD
HETATM    4  C   UNL     1      77.199  -0.081  16.196  1.00  0.00     0.135 A 
HETATM    5  C   UNL     1      75.610  -0.065  14.641  1.00  0.00     0.079 A 
HETATM    6  N   UNL     1      76.936  -0.344  14.883  1.00  0.00    -0.348 N 
HETATM    7  C   UNL     1      77.898  -0.830  13.924  1.00  0.00     0.156 C 
HETATM    8  C   UNL     1      74.928  -0.265  13.337  1.00  0.00     0.089 C 
ENDROOT
BRANCH   1   9
HETATM    9  S   UNL     1      75.732   0.878  18.369  1.00  0.00     0.260 S 
HETATM   10  O   UNL     1      74.396   1.439  18.346  1.00  0.00    -0.204 OA
HETATM   11  O   UNL     1      76.037  -0.312  19.145  1.00  0.00    -0.204 OA
BRANCH   9  12
HETATM   12  N   UNL     1      76.840   2.110  18.791  1.00  0.00    -0.213 NA
HETATM   13  C   UNL     1      78.179   1.619  19.167  1.00  0.00     0.129 C 
HETATM   14  C   UNL     1      76.894   3.242  17.843  1.00  0.00     0.129 C 
ENDBRANCH   9  12
ENDBRANCH   1   9
TORSDOF 2
ENDMDL
MODEL 9
REMARK VINA RESULT:      -4.0      2.095      2.804
REMARK  2 active torsions:
REMARK  status: ('A' for Active; 'I' for Inactive)
REMARK    1  A    between atoms: C_1  and  S_2 
REMARK    2  A    between atoms: S_2  and  N_8 
ROOT
HETATM    1  C   UNL     1      65.277   6.759   6.326  1.00  0.00     0.161 A 
HETATM    2  N   UNL     1      65.945   5.874   5.493  1.00  0.00    -0.335 N 
ATOM      3  HN  UNL     1      65.849   5.791   4.482  1.00  0.00     0.168 HD
HETATM    4  C   UNL     1      65.685   6.583   7.631  1.00  0.00     0.135 A 
HETATM    5  C   UNL     1      66.731   5.161   6.278  1.00  0.00     0.079 A 
HETATM    6  N   UNL     1      66.614   5.585   7.583  1.00  0.00    -0.348 N 
HETATM    7  C   UNL     1      67.345   5.073   8.717  1.00  0.00     0.156 C 
HETATM    8  C   UNL     1      67.612   4.056   5.822  1.00  0.00     0.089 C 
ENDROOT
BRANCH   1   9
HETATM    9  S   UNL     1      64.083   7.907   5.766  1.00  0.00     0.260 S 
HETATM   10  O   UNL     1      63.024   7.816   6.751  1.00  0.00    -0.204 OA
HETATM   11  O   UNL     1      64.838   9.134   5.581  1.00  0.00    -0.204 OA
BRANCH   9  12
HETATM   12  N   UNL     1      63.472   7.401   4.251  1.00  0.00    -0.213 NA
HETATM   13  C   UNL     1      62.481   6.312   4.330  1.00  0.00     0.129 C 
HETATM   14  C   UNL     1      63.043   8.499   3.361  1.00  0.00     0.129 C 
ENDBRANCH   9  12
ENDBRANCH   1   9
TORSDOF 2
ENDMDL
