MODEL 1
REMARK VINA RESULT:      -5.7      0.000      0.000
REMARK  1 active torsions:
REMARK  status: ('A' for Active; 'I' for Inactive)
REMARK    1  A    between atoms: C_1  and  C_2 
REMARK       I    between atoms: C_1  and  N_5 
ROOT
HETATM    1  C   UNL     1      69.174   3.035   9.390  1.00  0.00     0.034 A 
HETATM    2  C   UNL     1      67.820   3.285   9.155  1.00  0.00     0.049 A 
HETATM    3  C   UNL     1      67.389   4.484   8.610  1.00  0.00     0.060 A 
HETATM    4  N   UNL     1      66.087   4.620   8.296  1.00  0.00    -0.363 N 
ATOM      5  HN  UNL     1      65.410   3.877   8.471  1.00  0.00     0.165 HD
HETATM    6  N   UNL     1      67.937   6.699   7.836  1.00  0.00    -0.363 N 
ATOM      7  HN  UNL     1      68.598   7.461   7.681  1.00  0.00     0.165 HD
HETATM    8  C   UNL     1      68.321   5.524   8.372  1.00  0.00     0.059 A 
HETATM    9  C   UNL     1      70.087   4.078   9.192  1.00  0.00     0.019 A 
HETATM   10  C   UNL     1      69.653   5.313   8.700  1.00  0.00     0.033 A 
HETATM   11  C   UNL     1      65.726   5.793   7.735  1.00  0.00     0.105 A 
HETATM   12  C   UNL     1      66.628   6.813   7.514  1.00  0.00     0.105 A 
ENDROOT
BRANCH   1  13
HETATM   13  C   UNL     1      69.701   1.732   9.890  1.00  0.00     0.253 C 
HETATM   14  N   UNL     1      69.792   0.608   9.062  1.00  0.00    -0.357 N 
HETATM   15  C   UNL     1      70.319  -0.625   9.628  1.00  0.00     0.152 C 
HETATM   16  C   UNL     1      69.428   0.537   7.653  1.00  0.00     0.152 C 
HETATM   17  O   UNL     1      70.088   1.714  11.060  1.00  0.00    -0.267 OA
ENDBRANCH   1  13
TORSDOF 1
ENDMDL
MODEL 2
REMARK VINA RESULT:      -5.6      1.877      2.614
REMARK  1 active torsions:
REMARK  status: ('A' for Active; 'I' for Inactive)
REMARK    1  A    between atoms: C_1  and  C_2 
REMARK       I    between atoms: C_1  and  N_5 
ROOT
HETATM    1  C   UNL     1      68.579   4.824   8.616  1.00  0.00     0.034 A 
HETATM    2  C   UNL     1      68.388   4.887   7.233  1.00  0.00     0.049 A 
HETATM    3  C   UNL     1      67.656   5.909   6.648  1.00  0.00     0.060 A 
HETATM    4  N   UNL     1      67.609   5.983   5.305  1.00  0.00    -0.363 N 
ATOM      5  HN  UNL     1      68.074   5.296   4.711  1.00  0.00     0.165 HD
HETATM    6  N   UNL     1      66.288   7.871   6.932  1.00  0.00    -0.363 N 
ATOM      7  HN  UNL     1      65.795   8.549   7.514  1.00  0.00     0.165 HD
HETATM    8  C   UNL     1      67.000   6.861   7.467  1.00  0.00     0.059 A 
HETATM    9  C   UNL     1      67.897   5.741   9.423  1.00  0.00     0.019 A 
HETATM   10  C   UNL     1      67.106   6.740   8.846  1.00  0.00     0.033 A 
HETATM   11  C   UNL     1      66.914   7.016   4.787  1.00  0.00     0.105 A 
HETATM   12  C   UNL     1      66.262   7.938   5.581  1.00  0.00     0.105 A 
ENDROOT
BRANCH   1  13
HETATM   13  C   UNL     1      69.430   3.799   9.288  1.00  0.00     0.253 C 
HETATM   14  N   UNL     1      68.961   2.506   9.543  1.00  0.00    -0.357 N 
HETATM   15  C   UNL     1      69.856   1.566  10.202  1.00  0.00     0.152 C 
HETATM   16  C   UNL     1      67.651   1.973   9.194  1.00  0.00     0.152 C 
HETATM   17  O   UNL     1      70.579   4.146   9.569  1.00  0.00    -0.267 OA
ENDBRANCH   1  13
TORSDOF 1
ENDMDL
MODEL 3
REMARK VINA RESULT:      -5.4      2.621      5.362
REMARK  1 active torsions:
REMARK  status: ('A' for Active; 'I' for Inactive)
REMARK    1  A    between atoms: C_1  and  C_2 
REMARK       I    between atoms: C_1  and  N_5 
ROOT
HETATM    1  C   UNL     1      67.376   5.448   7.848  1.00  0.00     0.034 A 
HETATM    2  C   UNL     1      66.991   4.169   8.259  1.00  0.00     0.049 A 
HETATM    3  C   UNL     1      67.831   3.368   9.017  1.00  0.00     0.060 A 
HETATM    4  N   UNL     1      67.358   2.197   9.483  1.00  0.00    -0.363 N 
ATOM      5  HN  UNL     1      66.414   1.874   9.272  1.00  0.00     0.165 HD
HETATM    6  N   UNL     1      69.986   3.055  10.047  1.00  0.00    -0.363 N 
ATOM      7  HN  UNL     1      70.942   3.352  10.243  1.00  0.00     0.165 HD
HETATM    8  C   UNL     1      69.147   3.805   9.306  1.00  0.00     0.059 A 
HETATM    9  C   UNL     1      68.690   5.859   8.101  1.00  0.00     0.019 A 
HETATM   10  C   UNL     1      69.565   5.033   8.813  1.00  0.00     0.033 A 
HETATM   11  C   UNL     1      68.204   1.472  10.245  1.00  0.00     0.105 A 
HETATM   12  C   UNL     1      69.491   1.888  10.518  1.00  0.00     0.105 A 
ENDROOT
BRANCH   1  13
HETATM   13  C   UNL     1      66.481   6.385   7.109  1.00  0.00     0.253 C 
HETATM   14  N   UNL     1      66.489   6.462   5.712  1.00  0.00    -0.357 N 
HETATM   15  C   UNL     1      65.583   7.402   5.068  1.00  0.00     0.152 C 
HETATM   16  C   UNL     1      67.310   5.672   4.805  1.00  0.00     0.152 C 
HETATM   17  O   UNL     1      65.707   7.055   7.796  1.00  0.00    -0.267 OA
ENDBRANCH   1  13
TORSDOF 1
ENDMDL
MODEL 4
REMARK VINA RESULT:      -5.4     10.715     12.118
REMARK  1 active torsions:
REMARK  status: ('A' for Active; 'I' for Inactive)
REMARK    1  A    between atoms: C_1  and  C_2 
REMARK       I    between atoms: C_1  and  N_5 
ROOT
HETATM    1  C   UNL     1      75.995   0.750  18.120  1.00  0.00     0.034 A 
HETATM    2  C   UNL     1      76.867   1.834  18.254  1.00  0.00     0.049 A 
HETATM    3  C   UNL     1      76.524   3.099  17.803  1.00  0.00     0.060 A 
HETATM    4  N   UNL     1      77.353   4.126  18.068  1.00  0.00    -0.363 N 
ATOM      5  HN  UNL     1      78.233   3.992  18.567  1.00  0.00     0.165 HD
HETATM    6  N   UNL     1      74.940   4.507  16.657  1.00  0.00    -0.363 N 
ATOM      7  HN  UNL     1      74.076   4.650  16.133  1.00  0.00     0.165 HD
HETATM    8  C   UNL     1      75.308   3.290  17.102  1.00  0.00     0.059 A 
HETATM    9  C   UNL     1      74.814   0.933  17.392  1.00  0.00     0.019 A 
HETATM   10  C   UNL     1      74.488   2.192  16.880  1.00  0.00     0.033 A 
HETATM   11  C   UNL     1      76.956   5.341  17.639  1.00  0.00     0.105 A 
HETATM   12  C   UNL     1      75.778   5.529  16.943  1.00  0.00     0.105 A 
ENDROOT
BRANCH   1  13
HETATM   13  C   UNL     1      76.275  -0.610  18.666  1.00  0.00     0.253 C 
HETATM   14  N   UNL     1      76.930  -1.587  17.908  1.00  0.00    -0.357 N 
HETATM   15  C   UNL     1      77.165  -2.888  18.516  1.00  0.00     0.152 C 
HETATM   16  C   UNL     1      77.433  -1.438  16.549  1.00  0.00     0.152 C 
HETATM   17  O   UNL     1      75.934  -0.809  19.834  1.00  0.00    -0.267 OA
ENDBRANCH   1  13
TORSDOF 1
ENDMDL
MODEL 5
REMARK VINA RESULT:      -5.2      6.319      8.754
REMARK  1 active torsions:
REMARK  status: ('A' for Active; 'I' for Inactive)
REMARK    1  A    between atoms: C_1  and  C_2 
REMARK       I    between atoms: C_1  and  N_5 
ROOT
HETATM    1  C   UNL     1      64.036   8.416   4.854  1.00  0.00     0.034 A 
HETATM    2  C   UNL     1      63.823   7.637   3.714  1.00  0.00     0.049 A 
HETATM    3  C   UNL     1      62.919   8.017   2.735  1.00  0.00     0.060 A 
HETATM    4  N   UNL     1      62.846   7.289   1.605  1.00  0.00    -0.363 N 
ATOM      5  HN  UNL     1      63.416   6.455   1.464  1.00  0.00     0.165 HD
HETATM    6  N   UNL     1      61.232   9.570   1.995  1.00  0.00    -0.363 N 
ATOM      7  HN  UNL     1      60.635  10.385   2.135  1.00  0.00     0.165 HD
HETATM    8  C   UNL     1      62.115   9.168   2.929  1.00  0.00     0.059 A 
HETATM    9  C   UNL     1      63.213   9.529   5.062  1.00  0.00     0.019 A 
HETATM   10  C   UNL     1      62.255   9.886   4.108  1.00  0.00     0.033 A 
HETATM   11  C   UNL     1      61.975   7.722   0.670  1.00  0.00     0.105 A 
HETATM   12  C   UNL     1      61.181   8.835   0.861  1.00  0.00     0.105 A 
ENDROOT
BRANCH   1  13
HETATM   13  C   UNL     1      65.060   8.101   5.893  1.00  0.00     0.253 C 
HETATM   14  N   UNL     1      65.027   6.906   6.619  1.00  0.00    -0.357 N 
HETATM   15  C   UNL     1      66.064   6.675   7.614  1.00  0.00     0.152 C 
HETATM   16  C   UNL     1      64.058   5.828   6.473  1.00  0.00     0.152 C 
HETATM   17  O   UNL     1      65.955   8.934   6.045  1.00  0.00    -0.267 OA
ENDBRANCH   1  13
TORSDOF 1
ENDMDL
MODEL 6
REMARK VINA RESULT:      -5.2      3.167      6.103
REMARK  1 active torsions:
REMARK  status: ('A' for Active; 'I' for Inactive)
REMARK    1  A    between atoms: C_1  and  C_2 
REMARK       I    between atoms: C_1  and  N_5 
ROOT
HETATM    1  C   UNL     1      66.987   6.585   7.087  1.00  0.00     0.034 A 
HETATM    2  C   UNL     1      67.523   5.407   6.560  1.00  0.00     0.049 A 
HETATM    3  C   UNL     1      68.093   4.442   7.376  1.00  0.00     0.060 A 
HETATM    4  N   UNL     1      68.483   3.278   6.824  1.00  0.00    -0.363 N 
ATOM      5  HN  UNL     1      68.395   3.100   5.824  1.00  0.00     0.165 HD
HETATM    6  N   UNL     1      68.770   3.767   9.588  1.00  0.00    -0.363 N 
ATOM      7  HN  UNL     1      68.890   3.943  10.586  1.00  0.00     0.165 HD
HETATM    8  C   UNL     1      68.228   4.687   8.765  1.00  0.00     0.059 A 
HETATM    9  C   UNL     1      67.158   6.841   8.453  1.00  0.00     0.019 A 
HETATM   10  C   UNL     1      67.787   5.900   9.274  1.00  0.00     0.033 A 
HETATM   11  C   UNL     1      68.998   2.359   7.668  1.00  0.00     0.105 A 
HETATM   12  C   UNL     1      69.144   2.599   9.019  1.00  0.00     0.105 A 
ENDROOT
BRANCH   1  13
HETATM   13  C   UNL     1      66.283   7.613   6.267  1.00  0.00     0.253 C 
HETATM   14  N   UNL     1      64.921   7.510   5.968  1.00  0.00    -0.357 N 
HETATM   15  C   UNL     1      64.311   8.558   5.162  1.00  0.00     0.152 C 
HETATM   16  C   UNL     1      64.015   6.455   6.400  1.00  0.00     0.152 C 
HETATM   17  O   UNL     1      66.962   8.577   5.904  1.00  0.00    -0.267 OA
ENDBRANCH   1  13
TORSDOF 1
ENDMDL
MODEL 7
REMARK VINA RESULT:      -5.1      3.786      6.817
REMARK  1 active torsions:
REMARK  status: ('A' for Active; 'I' for Inactive)
REMARK    1  A    between atoms: C_1  and  C_2 
REMARK       I    between atoms: C_1  and  N_5 
ROOT
HETATM    1  C   UNL     1      64.734   6.903   6.458  1.00  0.00     0.034 A 
HETATM    2  C   UNL     1      65.029   5.734   7.163  1.00  0.00     0.049 A 
HETATM    3  C   UNL     1      66.310   5.466   7.619  1.00  0.00     0.060 A 
HETATM    4  N   UNL     1      66.507   4.384   8.395  1.00  0.00    -0.363 N 
ATOM      5  HN  UNL     1      65.747   3.746   8.632  1.00  0.00     0.165 HD
HETATM    6  N   UNL     1      68.628   6.117   7.719  1.00  0.00    -0.363 N 
ATOM      7  HN  UNL     1      69.402   6.731   7.466  1.00  0.00     0.165 HD
HETATM    8  C   UNL     1      67.372   6.343   7.285  1.00  0.00     0.059 A 
HETATM    9  C   UNL     1      65.792   7.746   6.095  1.00  0.00     0.019 A 
HETATM   10  C   UNL     1      67.098   7.453   6.499  1.00  0.00     0.033 A 
HETATM   11  C   UNL     1      67.765   4.189   8.841  1.00  0.00     0.105 A 
HETATM   12  C   UNL     1      68.805   5.033   8.508  1.00  0.00     0.105 A 
ENDROOT
BRANCH   1  13
HETATM   13  C   UNL     1      63.358   7.283   6.022  1.00  0.00     0.253 C 
HETATM   14  N   UNL     1      62.885   6.986   4.740  1.00  0.00    -0.357 N 
HETATM   15  C   UNL     1      61.529   7.390   4.395  1.00  0.00     0.152 C 
HETATM   16  C   UNL     1      63.607   6.281   3.690  1.00  0.00     0.152 C 
HETATM   17  O   UNL     1      62.652   7.835   6.869  1.00  0.00    -0.267 OA
ENDBRANCH   1  13
TORSDOF 1
ENDMDL
MODEL 8
REMARK VINA RESULT:      -5.0     10.784     11.712
REMARK  1 active torsions:
REMARK  status: ('A' for Active; 'I' for Inactive)
REMARK    1  A    between atoms: C_1  and  C_2 
REMARK       I    between atoms: C_1  and  N_5 
ROOT
HETATM    1  C   UNL     1      75.866   0.499  17.579  1.00  0.00     0.034 A 
HETATM    2  C   UNL     1      75.141   1.617  17.155  1.00  0.00     0.049 A 
HETATM    3  C   UNL     1      75.630   2.903  17.322  1.00  0.00     0.060 A 
HETATM    4  N   UNL     1      74.943   3.929  16.787  1.00  0.00    -0.363 N 
ATOM      5  HN  UNL     1      74.065   3.788  16.287  1.00  0.00     0.165 HD
HETATM    6  N   UNL     1      77.351   4.345  18.197  1.00  0.00    -0.363 N 
ATOM      7  HN  UNL     1      78.213   4.504  18.719  1.00  0.00     0.165 HD
HETATM    8  C   UNL     1      76.844   3.109  18.024  1.00  0.00     0.059 A 
HETATM    9  C   UNL     1      77.044   0.708  18.307  1.00  0.00     0.019 A 
HETATM   10  C   UNL     1      77.514   2.005  18.534  1.00  0.00     0.033 A 
HETATM   11  C   UNL     1      75.480   5.156  16.947  1.00  0.00     0.105 A 
HETATM   12  C   UNL     1      76.655   5.363  17.642  1.00  0.00     0.105 A 
ENDROOT
BRANCH   1  13
HETATM   13  C   UNL     1      75.430  -0.908  17.344  1.00  0.00     0.253 C 
HETATM   14  N   UNL     1      75.770  -1.598  16.176  1.00  0.00    -0.357 N 
HETATM   15  C   UNL     1      75.305  -2.970  16.026  1.00  0.00     0.152 C 
HETATM   16  C   UNL     1      76.574  -1.092  15.072  1.00  0.00     0.152 C 
HETATM   17  O   UNL     1      74.790  -1.438  18.255  1.00  0.00    -0.267 OA
ENDBRANCH   1  13
TORSDOF 1
ENDMDL
MODEL 9
REMARK VINA RESULT:      -4.9      3.717      6.876
REMARK  1 active torsions:
REMARK  status: ('A' for Active; 'I' for Inactive)
REMARK    1  A    between atoms: C_1  and  C_2 
REMARK       I    between atoms: C_1  and  N_5 
ROOT
HETATM    1  C   UNL     1      64.663   6.342   6.736  1.00  0.00     0.034 A 
HETATM    2  C   UNL     1      65.802   6.791   7.409  1.00  0.00     0.049 A 
HETATM    3  C   UNL     1      66.756   5.907   7.888  1.00  0.00     0.060 A 
HETATM    4  N   UNL     1      67.888   6.404   8.420  1.00  0.00    -0.363 N 
ATOM      5  HN  UNL     1      68.048   7.408   8.503  1.00  0.00     0.165 HD
HETATM    6  N   UNL     1      67.447   3.624   8.232  1.00  0.00    -0.363 N 
ATOM      7  HN  UNL     1      67.287   2.618   8.181  1.00  0.00     0.165 HD
HETATM    8  C   UNL     1      66.536   4.511   7.785  1.00  0.00     0.059 A 
HETATM    9  C   UNL     1      64.429   4.963   6.672  1.00  0.00     0.019 A 
HETATM   10  C   UNL     1      65.357   4.063   7.207  1.00  0.00     0.033 A 
HETATM   11  C   UNL     1      68.800   5.501   8.837  1.00  0.00     0.105 A 
HETATM   12  C   UNL     1      68.583   4.141   8.752  1.00  0.00     0.105 A 
ENDROOT
BRANCH   1  13
HETATM   13  C   UNL     1      63.650   7.251   6.124  1.00  0.00     0.253 C 
HETATM   14  N   UNL     1      63.655   7.541   4.755  1.00  0.00    -0.357 N 
HETATM   15  C   UNL     1      62.631   8.436   4.237  1.00  0.00     0.152 C 
HETATM   16  C   UNL     1      64.581   7.017   3.760  1.00  0.00     0.152 C 
HETATM   17  O   UNL     1      62.789   7.697   6.884  1.00  0.00    -0.267 OA
ENDBRANCH   1  13
TORSDOF 1
ENDMDL
