MODEL 1
REMARK VINA RESULT:      -5.3      0.000      0.000
REMARK  1 active torsions:
REMARK  status: ('A' for Active; 'I' for Inactive)
REMARK    1  A    between atoms: C_1  and  C_3 
REMARK       I    between atoms: C_3  and  N_7 
ROOT
HETATM    1  C   UNL     1      62.875   8.592   4.679  1.00  0.00     0.120 A 
HETATM    2  N   UNL     1      62.652   9.944   4.560  1.00  0.00    -0.291 N 
HETATM    3  N   UNL     1      62.249  10.318   3.326  1.00  0.00    -0.303 N 
ATOM      4  HN  UNL     1      62.058  11.262   2.989  1.00  0.00     0.186 HD
HETATM    5  C   UNL     1      62.456   8.068   3.467  1.00  0.00     0.063 A 
HETATM    6  C   UNL     1      62.158   9.172   2.648  1.00  0.00     0.024 A 
HETATM    7  C   UNL     1      62.874  10.980   5.543  1.00  0.00     0.178 C 
HETATM    8  C   UNL     1      61.820   9.174   1.206  1.00  0.00     0.070 C 
ENDROOT
BRANCH   1   9
HETATM    9  C   UNL     1      63.362   7.923   5.863  1.00  0.00     0.272 C 
HETATM   10  N   UNL     1      64.689   7.488   5.861  1.00  0.00    -0.343 N 
HETATM   11  C   UNL     1      65.155   6.589   6.917  1.00  0.00     0.152 C 
HETATM   12  C   UNL     1      65.796   8.100   5.110  1.00  0.00     0.152 C 
HETATM   13  C   UNL     1      66.092   5.538   6.314  1.00  0.00     0.187 C 
HETATM   14  O   UNL     1      67.201   6.162   5.643  1.00  0.00    -0.388 OA
HETATM   15  C   UNL     1      66.746   7.018   4.583  1.00  0.00     0.187 C 
HETATM   16  O   UNL     1      62.626   7.700   6.824  1.00  0.00    -0.266 OA
ENDBRANCH   1   9
TORSDOF 1
ENDMDL
MODEL 2
REMARK VINA RESULT:      -5.1     18.045     18.808
REMARK  1 active torsions:
REMARK  status: ('A' for Active; 'I' for Inactive)
REMARK    1  A    between atoms: C_1  and  C_3 
REMARK       I    between atoms: C_3  and  N_7 
ROOT
HETATM    1  C   UNL     1      75.876   2.327  17.773  1.00  0.00     0.120 A 
HETATM    2  N   UNL     1      77.034   2.718  18.403  1.00  0.00    -0.291 N 
HETATM    3  N   UNL     1      77.403   3.985  18.117  1.00  0.00    -0.303 N 
ATOM      4  HN  UNL     1      78.237   4.481  18.434  1.00  0.00     0.186 HD
HETATM    5  C   UNL     1      75.419   3.479  17.151  1.00  0.00     0.063 A 
HETATM    6  C   UNL     1      76.430   4.442  17.326  1.00  0.00     0.024 A 
HETATM    7  C   UNL     1      77.913   1.928  19.235  1.00  0.00     0.178 C 
HETATM    8  C   UNL     1      76.518   5.792  16.725  1.00  0.00     0.070 C 
ENDROOT
BRANCH   1   9
HETATM    9  C   UNL     1      75.279   1.014  17.851  1.00  0.00     0.272 C 
HETATM   10  N   UNL     1      75.650   0.076  16.886  1.00  0.00    -0.343 N 
HETATM   11  C   UNL     1      74.895  -1.171  16.764  1.00  0.00     0.152 C 
HETATM   12  C   UNL     1      76.942   0.025  16.184  1.00  0.00     0.152 C 
HETATM   13  C   UNL     1      74.733  -1.526  15.283  1.00  0.00     0.187 C 
HETATM   14  O   UNL     1      76.013  -1.634  14.636  1.00  0.00    -0.388 OA
HETATM   15  C   UNL     1      76.741  -0.400  14.725  1.00  0.00     0.187 C 
HETATM   16  O   UNL     1      74.438   0.740  18.708  1.00  0.00    -0.266 OA
ENDBRANCH   1   9
TORSDOF 1
ENDMDL
MODEL 3
REMARK VINA RESULT:      -5.0      1.092      1.722
REMARK  1 active torsions:
REMARK  status: ('A' for Active; 'I' for Inactive)
REMARK    1  A    between atoms: C_1  and  C_3 
REMARK       I    between atoms: C_3  and  N_7 
ROOT
HETATM    1  C   UNL     1      62.900   8.591   4.742  1.00  0.00     0.120 A 
HETATM    2  N   UNL     1      62.594   8.018   3.530  1.00  0.00    -0.291 N 
HETATM    3  N   UNL     1      62.147   8.902   2.612  1.00  0.00    -0.303 N 
ATOM      4  HN  UNL     1      61.827   8.710   1.662  1.00  0.00     0.186 HD
HETATM    5  C   UNL     1      62.757   9.952   4.523  1.00  0.00     0.063 A 
HETATM    6  C   UNL     1      62.218  10.083   3.230  1.00  0.00     0.024 A 
HETATM    7  C   UNL     1      62.614   6.618   3.169  1.00  0.00     0.178 C 
HETATM    8  C   UNL     1      61.725  11.312   2.566  1.00  0.00     0.070 C 
ENDROOT
BRANCH   1   9
HETATM    9  C   UNL     1      63.346   7.881   5.918  1.00  0.00     0.272 C 
HETATM   10  N   UNL     1      64.665   7.425   5.938  1.00  0.00    -0.343 N 
HETATM   11  C   UNL     1      65.090   6.490   6.979  1.00  0.00     0.152 C 
HETATM   12  C   UNL     1      65.801   8.040   5.234  1.00  0.00     0.152 C 
HETATM   13  C   UNL     1      66.026   5.441   6.371  1.00  0.00     0.187 C 
HETATM   14  O   UNL     1      67.162   6.066   5.747  1.00  0.00    -0.388 OA
HETATM   15  C   UNL     1      66.748   6.958   4.701  1.00  0.00     0.187 C 
HETATM   16  O   UNL     1      62.581   7.643   6.854  1.00  0.00    -0.266 OA
ENDBRANCH   1   9
TORSDOF 1
ENDMDL
MODEL 4
REMARK VINA RESULT:      -4.9      2.038      5.133
REMARK  1 active torsions:
REMARK  status: ('A' for Active; 'I' for Inactive)
REMARK    1  A    between atoms: C_1  and  C_3 
REMARK       I    between atoms: C_3  and  N_7 
ROOT
HETATM    1  C   UNL     1      64.274   8.311   5.205  1.00  0.00     0.120 A 
HETATM    2  N   UNL     1      63.985   7.098   5.786  1.00  0.00    -0.291 N 
HETATM    3  N   UNL     1      65.019   6.230   5.765  1.00  0.00    -0.303 N 
ATOM      4  HN  UNL     1      65.034   5.266   6.101  1.00  0.00     0.186 HD
HETATM    5  C   UNL     1      65.628   8.239   4.917  1.00  0.00     0.063 A 
HETATM    6  C   UNL     1      66.016   6.918   5.205  1.00  0.00     0.024 A 
HETATM    7  C   UNL     1      62.723   6.637   6.319  1.00  0.00     0.178 C 
HETATM    8  C   UNL     1      67.317   6.267   4.927  1.00  0.00     0.070 C 
ENDROOT
BRANCH   1   9
HETATM    9  C   UNL     1      63.345   9.404   5.038  1.00  0.00     0.272 C 
HETATM   10  N   UNL     1      62.616   9.459   3.849  1.00  0.00    -0.343 N 
HETATM   11  C   UNL     1      61.860  10.667   3.521  1.00  0.00     0.152 C 
HETATM   12  C   UNL     1      62.223   8.305   3.025  1.00  0.00     0.152 C 
HETATM   13  C   UNL     1      61.991  10.959   2.023  1.00  0.00     0.187 C 
HETATM   14  O   UNL     1      61.539   9.841   1.239  1.00  0.00    -0.388 OA
HETATM   15  C   UNL     1      62.303   8.661   1.536  1.00  0.00     0.187 C 
HETATM   16  O   UNL     1      63.230  10.286   5.891  1.00  0.00    -0.266 OA
ENDBRANCH   1   9
TORSDOF 1
ENDMDL
MODEL 5
REMARK VINA RESULT:      -4.8      2.610      6.199
REMARK  1 active torsions:
REMARK  status: ('A' for Active; 'I' for Inactive)
REMARK    1  A    between atoms: C_1  and  C_3 
REMARK       I    between atoms: C_3  and  N_7 
ROOT
HETATM    1  C   UNL     1      67.044   6.679   7.178  1.00  0.00     0.120 A 
HETATM    2  N   UNL     1      67.560   5.657   6.418  1.00  0.00    -0.291 N 
HETATM    3  N   UNL     1      68.263   4.753   7.134  1.00  0.00    -0.303 N 
ATOM      4  HN  UNL     1      68.765   3.934   6.789  1.00  0.00     0.186 HD
HETATM    5  C   UNL     1      67.335   6.316   8.484  1.00  0.00     0.063 A 
HETATM    6  C   UNL     1      68.151   5.173   8.396  1.00  0.00     0.024 A 
HETATM    7  C   UNL     1      67.512   5.494   4.982  1.00  0.00     0.178 C 
HETATM    8  C   UNL     1      68.869   4.477   9.489  1.00  0.00     0.070 C 
ENDROOT
BRANCH   1   9
HETATM    9  C   UNL     1      66.300   7.809   6.672  1.00  0.00     0.272 C 
HETATM   10  N   UNL     1      65.068   7.555   6.066  1.00  0.00    -0.343 N 
HETATM   11  C   UNL     1      64.400   8.618   5.316  1.00  0.00     0.152 C 
HETATM   12  C   UNL     1      64.171   6.431   6.375  1.00  0.00     0.152 C 
HETATM   13  C   UNL     1      63.760   8.028   4.056  1.00  0.00     0.187 C 
HETATM   14  O   UNL     1      62.838   6.977   4.390  1.00  0.00    -0.388 OA
HETATM   15  C   UNL     1      63.500   5.916   5.096  1.00  0.00     0.187 C 
HETATM   16  O   UNL     1      66.752   8.954   6.729  1.00  0.00    -0.266 OA
ENDBRANCH   1   9
TORSDOF 1
ENDMDL
MODEL 6
REMARK VINA RESULT:      -4.6      3.730      7.017
REMARK  1 active torsions:
REMARK  status: ('A' for Active; 'I' for Inactive)
REMARK    1  A    between atoms: C_1  and  C_3 
REMARK       I    between atoms: C_3  and  N_7 
ROOT
HETATM    1  C   UNL     1      67.170   4.329   8.101  1.00  0.00     0.120 A 
HETATM    2  N   UNL     1      67.840   5.085   9.034  1.00  0.00    -0.291 N 
HETATM    3  N   UNL     1      68.823   4.412   9.670  1.00  0.00    -0.303 N 
ATOM      4  HN  UNL     1      69.427   4.748  10.421  1.00  0.00     0.186 HD
HETATM    5  C   UNL     1      67.872   3.135   8.060  1.00  0.00     0.063 A 
HETATM    6  C   UNL     1      68.822   3.207   9.095  1.00  0.00     0.024 A 
HETATM    7  C   UNL     1      67.565   6.441   9.455  1.00  0.00     0.178 C 
HETATM    8  C   UNL     1      69.720   2.137   9.587  1.00  0.00     0.070 C 
ENDROOT
BRANCH   1   9
HETATM    9  C   UNL     1      66.043   4.772   7.313  1.00  0.00     0.272 C 
HETATM   10  N   UNL     1      66.264   5.788   6.381  1.00  0.00    -0.343 N 
HETATM   11  C   UNL     1      65.122   6.445   5.746  1.00  0.00     0.152 C 
HETATM   12  C   UNL     1      67.531   6.059   5.685  1.00  0.00     0.152 C 
HETATM   13  C   UNL     1      65.402   7.946   5.623  1.00  0.00     0.187 C 
HETATM   14  O   UNL     1      66.610   8.185   4.880  1.00  0.00    -0.388 OA
HETATM   15  C   UNL     1      67.739   7.569   5.522  1.00  0.00     0.187 C 
HETATM   16  O   UNL     1      64.916   4.306   7.485  1.00  0.00    -0.266 OA
ENDBRANCH   1   9
TORSDOF 1
ENDMDL
MODEL 7
REMARK VINA RESULT:      -4.6      2.047      5.493
REMARK  1 active torsions:
REMARK  status: ('A' for Active; 'I' for Inactive)
REMARK    1  A    between atoms: C_1  and  C_3 
REMARK       I    between atoms: C_3  and  N_7 
ROOT
HETATM    1  C   UNL     1      65.768   6.719   5.917  1.00  0.00     0.120 A 
HETATM    2  N   UNL     1      67.032   7.230   6.090  1.00  0.00    -0.291 N 
HETATM    3  N   UNL     1      67.454   7.204   7.373  1.00  0.00    -0.303 N 
ATOM      4  HN  UNL     1      68.334   7.557   7.750  1.00  0.00     0.186 HD
HETATM    5  C   UNL     1      65.427   6.218   7.163  1.00  0.00     0.063 A 
HETATM    6  C   UNL     1      66.458   6.612   8.035  1.00  0.00     0.024 A 
HETATM    7  C   UNL     1      67.893   7.846   5.106  1.00  0.00     0.178 C 
HETATM    8  C   UNL     1      66.511   6.474   9.509  1.00  0.00     0.070 C 
ENDROOT
BRANCH   1   9
HETATM    9  C   UNL     1      65.045   6.671   4.667  1.00  0.00     0.272 C 
HETATM   10  N   UNL     1      64.153   7.710   4.395  1.00  0.00    -0.343 N 
HETATM   11  C   UNL     1      63.217   7.584   3.277  1.00  0.00     0.152 C 
HETATM   12  C   UNL     1      64.264   9.092   4.885  1.00  0.00     0.152 C 
HETATM   13  C   UNL     1      61.858   8.161   3.684  1.00  0.00     0.187 C 
HETATM   14  O   UNL     1      61.985   9.534   4.095  1.00  0.00    -0.388 OA
HETATM   15  C   UNL     1      62.877   9.655   5.215  1.00  0.00     0.187 C 
HETATM   16  O   UNL     1      65.172   5.727   3.886  1.00  0.00    -0.266 OA
ENDBRANCH   1   9
TORSDOF 1
ENDMDL
MODEL 8
REMARK VINA RESULT:      -4.5      2.705      5.564
REMARK  1 active torsions:
REMARK  status: ('A' for Active; 'I' for Inactive)
REMARK    1  A    between atoms: C_1  and  C_3 
REMARK       I    between atoms: C_3  and  N_7 
ROOT
HETATM    1  C   UNL     1      65.931   6.431   6.982  1.00  0.00     0.120 A 
HETATM    2  N   UNL     1      67.141   6.919   6.549  1.00  0.00    -0.291 N 
HETATM    3  N   UNL     1      68.190   6.499   7.290  1.00  0.00    -0.303 N 
ATOM      4  HN  UNL     1      69.172   6.753   7.185  1.00  0.00     0.186 HD
HETATM    5  C   UNL     1      66.262   5.537   7.988  1.00  0.00     0.063 A 
HETATM    6  C   UNL     1      67.647   5.676   8.191  1.00  0.00     0.024 A 
HETATM    7  C   UNL     1      67.399   7.863   5.484  1.00  0.00     0.178 C 
HETATM    8  C   UNL     1      68.480   5.070   9.255  1.00  0.00     0.070 C 
ENDROOT
BRANCH   1   9
HETATM    9  C   UNL     1      64.643   6.757   6.415  1.00  0.00     0.272 C 
HETATM   10  N   UNL     1      64.379   6.321   5.115  1.00  0.00    -0.343 N 
HETATM   11  C   UNL     1      63.208   6.835   4.406  1.00  0.00     0.152 C 
HETATM   12  C   UNL     1      64.948   5.125   4.474  1.00  0.00     0.152 C 
HETATM   13  C   UNL     1      63.570   7.085   2.939  1.00  0.00     0.187 C 
HETATM   14  O   UNL     1      64.061   5.884   2.318  1.00  0.00    -0.388 OA
HETATM   15  C   UNL     1      65.232   5.398   2.992  1.00  0.00     0.187 C 
HETATM   16  O   UNL     1      63.821   7.434   7.033  1.00  0.00    -0.266 OA
ENDBRANCH   1   9
TORSDOF 1
ENDMDL
MODEL 9
REMARK VINA RESULT:      -4.3      2.769      6.484
REMARK  1 active torsions:
REMARK  status: ('A' for Active; 'I' for Inactive)
REMARK    1  A    between atoms: C_1  and  C_3 
REMARK       I    between atoms: C_3  and  N_7 
ROOT
HETATM    1  C   UNL     1      67.657   5.278   6.330  1.00  0.00     0.120 A 
HETATM    2  N   UNL     1      68.143   4.878   7.552  1.00  0.00    -0.291 N 
HETATM    3  N   UNL     1      68.275   3.539   7.670  1.00  0.00    -0.303 N 
ATOM      4  HN  UNL     1      68.580   3.009   8.487  1.00  0.00     0.186 HD
HETATM    5  C   UNL     1      67.604   4.111   5.584  1.00  0.00     0.063 A 
HETATM    6  C   UNL     1      67.916   3.067   6.474  1.00  0.00     0.024 A 
HETATM    7  C   UNL     1      68.436   5.692   8.711  1.00  0.00     0.178 C 
HETATM    8  C   UNL     1      67.847   1.607   6.230  1.00  0.00     0.070 C 
ENDROOT
BRANCH   1   9
HETATM    9  C   UNL     1      67.365   6.639   5.947  1.00  0.00     0.272 C 
HETATM   10  N   UNL     1      66.042   7.073   6.055  1.00  0.00    -0.343 N 
HETATM   11  C   UNL     1      65.647   8.343   5.448  1.00  0.00     0.152 C 
HETATM   12  C   UNL     1      65.047   6.572   7.016  1.00  0.00     0.152 C 
HETATM   13  C   UNL     1      64.260   8.196   4.815  1.00  0.00     0.187 C 
HETATM   14  O   UNL     1      63.292   7.770   5.790  1.00  0.00    -0.388 OA
HETATM   15  C   UNL     1      63.661   6.505   6.363  1.00  0.00     0.187 C 
HETATM   16  O   UNL     1      68.238   7.382   5.496  1.00  0.00    -0.266 OA
ENDBRANCH   1   9
TORSDOF 1
ENDMDL
