MODEL 1
REMARK VINA RESULT:      -4.9      0.000      0.000
REMARK  1 active torsions:
REMARK  status: ('A' for Active; 'I' for Inactive)
REMARK    1  A    between atoms: C_1  and  C_2 
REMARK       I    between atoms: C_1  and  N_4 
ROOT
HETATM    1  C   UNL     1      63.130   7.743   5.970  1.00  0.00     0.270 C 
HETATM    2  N   UNL     1      64.425   7.224   5.906  1.00  0.00    -0.343 N 
HETATM    3  O   UNL     1      62.296   7.235   6.727  1.00  0.00    -0.266 OA
HETATM    4  O   UNL     1      67.023   7.143   7.090  1.00  0.00    -0.388 OA
HETATM    5  C   UNL     1      65.585   7.825   5.233  1.00  0.00     0.152 C 
HETATM    6  C   UNL     1      64.803   6.137   6.813  1.00  0.00     0.152 C 
HETATM    7  C   UNL     1      65.884   6.617   7.792  1.00  0.00     0.187 C 
HETATM    8  C   UNL     1      66.639   8.248   6.260  1.00  0.00     0.187 C 
ENDROOT
BRANCH   1   9
HETATM    9  C   UNL     1      62.795   8.912   5.173  1.00  0.00     0.102 C 
HETATM   10  N   UNL     1      62.324   8.874   3.870  1.00  0.00    -0.357 N 
HETATM   11  C   UNL     1      62.025  10.144   3.438  1.00  0.00     0.091 C 
HETATM   12  C   UNL     1      62.128   7.705   3.037  1.00  0.00     0.156 C 
HETATM   13  C   UNL     1      62.391  11.028   4.419  1.00  0.00     0.020 C 
HETATM   14  C   UNL     1      62.938  10.266   5.474  1.00  0.00     0.037 C 
ENDBRANCH   1   9
TORSDOF 1
ENDMDL
MODEL 2
REMARK VINA RESULT:      -4.5      4.567      6.232
REMARK  1 active torsions:
REMARK  status: ('A' for Active; 'I' for Inactive)
REMARK    1  A    between atoms: C_1  and  C_2 
REMARK       I    between atoms: C_1  and  N_4 
ROOT
HETATM    1  C   UNL     1      66.904   3.713   7.627  1.00  0.00     0.270 C 
HETATM    2  N   UNL     1      68.099   3.142   8.072  1.00  0.00    -0.343 N 
HETATM    3  O   UNL     1      65.837   3.108   7.774  1.00  0.00    -0.266 OA
HETATM    4  O   UNL     1      69.830   2.659  10.292  1.00  0.00    -0.388 OA
HETATM    5  C   UNL     1      69.409   3.800   8.171  1.00  0.00     0.152 C 
HETATM    6  C   UNL     1      68.055   1.868   8.795  1.00  0.00     0.152 C 
HETATM    7  C   UNL     1      68.520   2.066  10.245  1.00  0.00     0.187 C 
HETATM    8  C   UNL     1      69.832   3.934   9.636  1.00  0.00     0.187 C 
ENDROOT
BRANCH   1   9
HETATM    9  C   UNL     1      66.930   5.040   7.036  1.00  0.00     0.102 C 
HETATM   10  N   UNL     1      66.742   6.223   7.736  1.00  0.00    -0.357 N 
HETATM   11  C   UNL     1      66.914   7.299   6.899  1.00  0.00     0.091 C 
HETATM   12  C   UNL     1      66.434   6.375   9.143  1.00  0.00     0.156 C 
HETATM   13  C   UNL     1      67.117   6.827   5.628  1.00  0.00     0.020 C 
HETATM   14  C   UNL     1      67.056   5.418   5.700  1.00  0.00     0.037 C 
ENDBRANCH   1   9
TORSDOF 1
ENDMDL
MODEL 3
REMARK VINA RESULT:      -4.5      2.506      3.647
REMARK  1 active torsions:
REMARK  status: ('A' for Active; 'I' for Inactive)
REMARK    1  A    between atoms: C_1  and  C_2 
REMARK       I    between atoms: C_1  and  N_4 
ROOT
HETATM    1  C   UNL     1      66.007   7.644   6.592  1.00  0.00     0.270 C 
HETATM    2  N   UNL     1      65.918   6.676   7.595  1.00  0.00    -0.343 N 
HETATM    3  O   UNL     1      66.708   8.647   6.760  1.00  0.00    -0.266 OA
HETATM    4  O   UNL     1      67.126   4.401   8.828  1.00  0.00    -0.388 OA
HETATM    5  C   UNL     1      65.313   5.342   7.483  1.00  0.00     0.152 C 
HETATM    6  C   UNL     1      66.737   6.822   8.801  1.00  0.00     0.152 C 
HETATM    7  C   UNL     1      67.767   5.687   8.883  1.00  0.00     0.187 C 
HETATM    8  C   UNL     1      66.385   4.256   7.608  1.00  0.00     0.187 C 
ENDROOT
BRANCH   1   9
HETATM    9  C   UNL     1      65.306   7.430   5.337  1.00  0.00     0.102 C 
HETATM   10  N   UNL     1      65.758   6.622   4.304  1.00  0.00    -0.357 N 
HETATM   11  C   UNL     1      64.821   6.570   3.300  1.00  0.00     0.091 C 
HETATM   12  C   UNL     1      67.007   5.893   4.238  1.00  0.00     0.156 C 
HETATM   13  C   UNL     1      63.795   7.421   3.625  1.00  0.00     0.020 C 
HETATM   14  C   UNL     1      64.131   8.012   4.863  1.00  0.00     0.037 C 
ENDBRANCH   1   9
TORSDOF 1
ENDMDL
MODEL 4
REMARK VINA RESULT:      -4.4      3.300      6.443
REMARK  1 active torsions:
REMARK  status: ('A' for Active; 'I' for Inactive)
REMARK    1  A    between atoms: C_1  and  C_2 
REMARK       I    between atoms: C_1  and  N_4 
ROOT
HETATM    1  C   UNL     1      66.974   6.278   7.818  1.00  0.00     0.270 C 
HETATM    2  N   UNL     1      66.973   6.861   6.548  1.00  0.00    -0.343 N 
HETATM    3  O   UNL     1      66.107   6.589   8.642  1.00  0.00    -0.266 OA
HETATM    4  O   UNL     1      65.874   6.831   3.912  1.00  0.00    -0.388 OA
HETATM    5  C   UNL     1      67.785   6.458   5.392  1.00  0.00     0.152 C 
HETATM    6  C   UNL     1      65.881   7.766   6.179  1.00  0.00     0.152 C 
HETATM    7  C   UNL     1      65.048   7.156   5.044  1.00  0.00     0.187 C 
HETATM    8  C   UNL     1      66.894   5.893   4.283  1.00  0.00     0.187 C 
ENDROOT
BRANCH   1   9
HETATM    9  C   UNL     1      67.975   5.274   8.136  1.00  0.00     0.102 C 
HETATM   10  N   UNL     1      67.825   3.912   7.924  1.00  0.00    -0.357 N 
HETATM   11  C   UNL     1      68.985   3.252   8.252  1.00  0.00     0.091 C 
HETATM   12  C   UNL     1      66.659   3.222   7.412  1.00  0.00     0.156 C 
HETATM   13  C   UNL     1      69.865   4.165   8.774  1.00  0.00     0.020 C 
HETATM   14  C   UNL     1      69.209   5.415   8.768  1.00  0.00     0.037 C 
ENDBRANCH   1   9
TORSDOF 1
ENDMDL
MODEL 5
REMARK VINA RESULT:      -4.4      2.013      4.854
REMARK  1 active torsions:
REMARK  status: ('A' for Active; 'I' for Inactive)
REMARK    1  A    between atoms: C_1  and  C_2 
REMARK       I    between atoms: C_1  and  N_4 
ROOT
HETATM    1  C   UNL     1      63.862   7.715   3.982  1.00  0.00     0.270 C 
HETATM    2  N   UNL     1      62.812   8.586   4.281  1.00  0.00    -0.343 N 
HETATM    3  O   UNL     1      63.928   7.184   2.869  1.00  0.00    -0.266 OA
HETATM    4  O   UNL     1      61.778  11.239   4.058  1.00  0.00    -0.388 OA
HETATM    5  C   UNL     1      62.695   9.456   5.459  1.00  0.00     0.152 C 
HETATM    6  C   UNL     1      61.852   8.932   3.230  1.00  0.00     0.152 C 
HETATM    7  C   UNL     1      61.956  10.424   2.887  1.00  0.00     0.187 C 
HETATM    8  C   UNL     1      62.771  10.929   5.046  1.00  0.00     0.187 C 
ENDROOT
BRANCH   1   9
HETATM    9  C   UNL     1      64.894   7.481   4.979  1.00  0.00     0.102 C 
HETATM   10  N   UNL     1      64.813   6.546   5.999  1.00  0.00    -0.357 N 
HETATM   11  C   UNL     1      65.988   6.520   6.711  1.00  0.00     0.091 C 
HETATM   12  C   UNL     1      63.698   5.675   6.310  1.00  0.00     0.156 C 
HETATM   13  C   UNL     1      66.807   7.506   6.223  1.00  0.00     0.020 C 
HETATM   14  C   UNL     1      66.097   8.154   5.189  1.00  0.00     0.037 C 
ENDBRANCH   1   9
TORSDOF 1
ENDMDL
MODEL 6
REMARK VINA RESULT:      -4.0      1.571      2.546
REMARK  1 active torsions:
REMARK  status: ('A' for Active; 'I' for Inactive)
REMARK    1  A    between atoms: C_1  and  C_2 
REMARK       I    between atoms: C_1  and  N_4 
ROOT
HETATM    1  C   UNL     1      62.280   7.091   3.909  1.00  0.00     0.270 C 
HETATM    2  N   UNL     1      63.538   6.704   4.377  1.00  0.00    -0.343 N 
HETATM    3  O   UNL     1      61.259   6.701   4.485  1.00  0.00    -0.266 OA
HETATM    4  O   UNL     1      65.628   7.174   6.266  1.00  0.00    -0.388 OA
HETATM    5  C   UNL     1      64.840   7.236   3.951  1.00  0.00     0.152 C 
HETATM    6  C   UNL     1      63.629   5.914   5.607  1.00  0.00     0.152 C 
HETATM    7  C   UNL     1      64.335   6.723   6.705  1.00  0.00     0.187 C 
HETATM    8  C   UNL     1      65.507   7.999   5.099  1.00  0.00     0.187 C 
ENDROOT
BRANCH   1   9
HETATM    9  C   UNL     1      62.193   7.991   2.771  1.00  0.00     0.102 C 
HETATM   10  N   UNL     1      62.121   9.373   2.858  1.00  0.00    -0.357 N 
HETATM   11  C   UNL     1      62.137   9.927   1.600  1.00  0.00     0.091 C 
HETATM   12  C   UNL     1      62.062  10.179   4.060  1.00  0.00     0.156 C 
HETATM   13  C   UNL     1      62.119   8.908   0.682  1.00  0.00     0.020 C 
HETATM   14  C   UNL     1      62.082   7.700   1.412  1.00  0.00     0.037 C 
ENDBRANCH   1   9
TORSDOF 1
ENDMDL
MODEL 7
REMARK VINA RESULT:      -4.0      1.851      5.054
REMARK  1 active torsions:
REMARK  status: ('A' for Active; 'I' for Inactive)
REMARK    1  A    between atoms: C_1  and  C_2 
REMARK       I    between atoms: C_1  and  N_4 
ROOT
HETATM    1  C   UNL     1      63.689   7.301   6.121  1.00  0.00     0.270 C 
HETATM    2  N   UNL     1      63.611   7.629   4.766  1.00  0.00    -0.343 N 
HETATM    3  O   UNL     1      62.833   7.717   6.909  1.00  0.00    -0.266 OA
HETATM    4  O   UNL     1      62.429   7.038   2.234  1.00  0.00    -0.388 OA
HETATM    5  C   UNL     1      64.407   7.056   3.672  1.00  0.00     0.152 C 
HETATM    6  C   UNL     1      62.455   8.388   4.281  1.00  0.00     0.152 C 
HETATM    7  C   UNL     1      61.623   7.529   3.319  1.00  0.00     0.187 C 
HETATM    8  C   UNL     1      63.515   6.243   2.729  1.00  0.00     0.187 C 
ENDROOT
BRANCH   1   9
HETATM    9  C   UNL     1      64.758   6.430   6.579  1.00  0.00     0.102 C 
HETATM   10  N   UNL     1      66.063   6.835   6.817  1.00  0.00    -0.357 N 
HETATM   11  C   UNL     1      66.798   5.789   7.321  1.00  0.00     0.091 C 
HETATM   12  C   UNL     1      66.628   8.153   6.613  1.00  0.00     0.156 C 
HETATM   13  C   UNL     1      66.007   4.669   7.322  1.00  0.00     0.020 C 
HETATM   14  C   UNL     1      64.755   5.052   6.792  1.00  0.00     0.037 C 
ENDBRANCH   1   9
TORSDOF 1
ENDMDL
MODEL 8
REMARK VINA RESULT:      -4.0      2.550      3.818
REMARK  1 active torsions:
REMARK  status: ('A' for Active; 'I' for Inactive)
REMARK    1  A    between atoms: C_1  and  C_2 
REMARK       I    between atoms: C_1  and  N_4 
ROOT
HETATM    1  C   UNL     1      61.529   9.000   3.579  1.00  0.00     0.270 C 
HETATM    2  N   UNL     1      62.396   8.160   4.282  1.00  0.00    -0.343 N 
HETATM    3  O   UNL     1      61.399  10.180   3.919  1.00  0.00    -0.266 OA
HETATM    4  O   UNL     1      65.092   7.304   4.671  1.00  0.00    -0.388 OA
HETATM    5  C   UNL     1      62.827   6.811   3.892  1.00  0.00     0.152 C 
HETATM    6  C   UNL     1      63.214   8.721   5.360  1.00  0.00     0.152 C 
HETATM    7  C   UNL     1      64.701   8.651   4.988  1.00  0.00     0.187 C 
HETATM    8  C   UNL     1      64.324   6.800   3.570  1.00  0.00     0.187 C 
ENDROOT
BRANCH   1   9
HETATM    9  C   UNL     1      60.823   8.479   2.420  1.00  0.00     0.102 C 
HETATM   10  N   UNL     1      59.659   7.726   2.473  1.00  0.00    -0.357 N 
HETATM   11  C   UNL     1      59.206   7.467   1.202  1.00  0.00     0.091 C 
HETATM   12  C   UNL     1      58.959   7.269   3.655  1.00  0.00     0.156 C 
HETATM   13  C   UNL     1      60.121   7.963   0.310  1.00  0.00     0.020 C 
HETATM   14  C   UNL     1      61.167   8.532   1.070  1.00  0.00     0.037 C 
ENDBRANCH   1   9
TORSDOF 1
ENDMDL
MODEL 9
REMARK VINA RESULT:      -3.9      2.226      2.999
REMARK  1 active torsions:
REMARK  status: ('A' for Active; 'I' for Inactive)
REMARK    1  A    between atoms: C_1  and  C_2 
REMARK       I    between atoms: C_1  and  N_4 
ROOT
HETATM    1  C   UNL     1      60.985   7.812   3.722  1.00  0.00     0.270 C 
HETATM    2  N   UNL     1      61.950   6.964   4.270  1.00  0.00    -0.343 N 
HETATM    3  O   UNL     1      59.800   7.465   3.694  1.00  0.00    -0.266 OA
HETATM    4  O   UNL     1      63.210   6.008   6.648  1.00  0.00    -0.388 OA
HETATM    5  C   UNL     1      63.348   7.298   4.575  1.00  0.00     0.152 C 
HETATM    6  C   UNL     1      61.524   5.708   4.893  1.00  0.00     0.152 C 
HETATM    7  C   UNL     1      61.820   5.736   6.399  1.00  0.00     0.187 C 
HETATM    8  C   UNL     1      63.587   7.273   6.087  1.00  0.00     0.187 C 
ENDROOT
BRANCH   1   9
HETATM    9  C   UNL     1      61.388   9.120   3.232  1.00  0.00     0.102 C 
HETATM   10  N   UNL     1      61.598   9.437   1.899  1.00  0.00    -0.357 N 
HETATM   11  C   UNL     1      61.885  10.774   1.770  1.00  0.00     0.091 C 
HETATM   12  C   UNL     1      61.517   8.547   0.758  1.00  0.00     0.156 C 
HETATM   13  C   UNL     1      61.963  11.320   3.025  1.00  0.00     0.020 C 
HETATM   14  C   UNL     1      61.723  10.272   3.942  1.00  0.00     0.037 C 
ENDBRANCH   1   9
TORSDOF 1
ENDMDL
