MODEL 1
REMARK VINA RESULT:      -5.0      0.000      0.000
REMARK  2 active torsions:
REMARK  status: ('A' for Active; 'I' for Inactive)
REMARK    1  A    between atoms: S_1  and  C_2 
REMARK    2  A    between atoms: S_1  and  N_3 
ROOT
HETATM    1  S   UNL     1      63.843   8.518   5.409  1.00  0.00     0.250 S 
HETATM    2  O   UNL     1      62.782   8.173   6.332  1.00  0.00    -0.205 OA
HETATM    3  O   UNL     1      64.695   9.661   5.656  1.00  0.00    -0.205 OA
ENDROOT
BRANCH   1   4
HETATM    4  C   UNL     1      63.027   8.904   3.875  1.00  0.00     0.115 A 
HETATM    5  S   UNL     1      62.171  10.384   3.811  1.00  0.00    -0.089 SA
HETATM    6  C   UNL     1      61.732  10.134   2.175  1.00  0.00     0.051 A 
HETATM    7  C   UNL     1      62.217   8.941   1.686  1.00  0.00     0.009 A 
HETATM    8  C   UNL     1      62.964   8.230   2.668  1.00  0.00     0.033 A 
ENDBRANCH   1   4
BRANCH   1   9
HETATM    9  N   UNL     1      64.827   7.141   5.186  1.00  0.00    -0.202 NA
HETATM   10  C   UNL     1      66.244   7.397   4.789  1.00  0.00     0.134 C 
HETATM   11  C   UNL     1      67.098   7.814   5.998  1.00  0.00     0.183 C 
HETATM   12  O   UNL     1      67.022   6.848   7.059  1.00  0.00    -0.389 OA
HETATM   13  C   UNL     1      65.665   6.639   7.483  1.00  0.00     0.183 C 
HETATM   14  C   UNL     1      64.803   6.153   6.314  1.00  0.00     0.134 C 
ENDBRANCH   1   9
TORSDOF 2
ENDMDL
MODEL 2
REMARK VINA RESULT:      -4.9      1.688      2.314
REMARK  2 active torsions:
REMARK  status: ('A' for Active; 'I' for Inactive)
REMARK    1  A    between atoms: S_1  and  C_2 
REMARK    2  A    between atoms: S_1  and  N_3 
ROOT
HETATM    1  S   UNL     1      64.379   7.756   5.411  1.00  0.00     0.250 S 
HETATM    2  O   UNL     1      64.180   6.714   4.424  1.00  0.00    -0.205 OA
HETATM    3  O   UNL     1      63.944   7.572   6.778  1.00  0.00    -0.205 OA
ENDROOT
BRANCH   1   4
HETATM    4  C   UNL     1      63.425   9.142   4.830  1.00  0.00     0.115 A 
HETATM    5  S   UNL     1      62.603   8.940   3.343  1.00  0.00    -0.089 SA
HETATM    6  C   UNL     1      61.919  10.508   3.434  1.00  0.00     0.051 A 
HETATM    7  C   UNL     1      62.317  11.180   4.569  1.00  0.00     0.009 A 
HETATM    8  C   UNL     1      63.187  10.391   5.375  1.00  0.00     0.033 A 
ENDBRANCH   1   4
BRANCH   1   9
HETATM    9  N   UNL     1      66.032   8.179   5.414  1.00  0.00    -0.202 NA
HETATM   10  C   UNL     1      66.692   8.261   6.753  1.00  0.00     0.134 C 
HETATM   11  C   UNL     1      67.046   6.864   7.289  1.00  0.00     0.183 C 
HETATM   12  O   UNL     1      67.853   6.128   6.356  1.00  0.00    -0.389 OA
HETATM   13  C   UNL     1      67.199   5.998   5.083  1.00  0.00     0.183 C 
HETATM   14  C   UNL     1      66.897   7.378   4.488  1.00  0.00     0.134 C 
ENDBRANCH   1   9
TORSDOF 2
ENDMDL
MODEL 3
REMARK VINA RESULT:      -4.7      3.710      6.942
REMARK  2 active torsions:
REMARK  status: ('A' for Active; 'I' for Inactive)
REMARK    1  A    between atoms: S_1  and  C_2 
REMARK    2  A    between atoms: S_1  and  N_3 
ROOT
HETATM    1  S   UNL     1      66.307   5.329   7.959  1.00  0.00     0.250 S 
HETATM    2  O   UNL     1      66.073   6.476   8.811  1.00  0.00    -0.205 OA
HETATM    3  O   UNL     1      65.381   4.217   7.943  1.00  0.00    -0.205 OA
ENDROOT
BRANCH   1   4
HETATM    4  C   UNL     1      67.834   4.617   8.536  1.00  0.00     0.115 A 
HETATM    5  S   UNL     1      67.852   2.922   8.768  1.00  0.00    -0.089 SA
HETATM    6  C   UNL     1      69.500   2.938   9.233  1.00  0.00     0.051 A 
HETATM    7  C   UNL     1      70.027   4.211   9.225  1.00  0.00     0.009 A 
HETATM    8  C   UNL     1      69.064   5.181   8.823  1.00  0.00     0.033 A 
ENDBRANCH   1   4
BRANCH   1   9
HETATM    9  N   UNL     1      66.521   5.885   6.359  1.00  0.00    -0.202 NA
HETATM   10  C   UNL     1      65.275   6.134   5.573  1.00  0.00     0.134 C 
HETATM   11  C   UNL     1      64.630   7.477   5.956  1.00  0.00     0.183 C 
HETATM   12  O   UNL     1      65.556   8.567   5.822  1.00  0.00    -0.389 OA
HETATM   13  C   UNL     1      66.733   8.358   6.621  1.00  0.00     0.183 C 
HETATM   14  C   UNL     1      67.439   7.061   6.212  1.00  0.00     0.134 C 
ENDBRANCH   1   9
TORSDOF 2
ENDMDL
MODEL 4
REMARK VINA RESULT:      -4.7      2.573      3.425
REMARK  2 active torsions:
REMARK  status: ('A' for Active; 'I' for Inactive)
REMARK    1  A    between atoms: S_1  and  C_2 
REMARK    2  A    between atoms: S_1  and  N_3 
ROOT
HETATM    1  S   UNL     1      66.499   7.592   6.506  1.00  0.00     0.250 S 
HETATM    2  O   UNL     1      66.738   8.929   7.009  1.00  0.00    -0.205 OA
HETATM    3  O   UNL     1      67.549   6.853   5.839  1.00  0.00    -0.205 OA
ENDROOT
BRANCH   1   4
HETATM    4  C   UNL     1      65.236   7.775   5.264  1.00  0.00     0.115 A 
HETATM    5  S   UNL     1      65.194   6.590   4.030  1.00  0.00    -0.089 SA
HETATM    6  C   UNL     1      63.825   7.310   3.296  1.00  0.00     0.051 A 
HETATM    7  C   UNL     1      63.411   8.439   3.968  1.00  0.00     0.009 A 
HETATM    8  C   UNL     1      64.227   8.708   5.105  1.00  0.00     0.033 A 
ENDBRANCH   1   4
BRANCH   1   9
HETATM    9  N   UNL     1      65.888   6.641   7.785  1.00  0.00    -0.202 NA
HETATM   10  C   UNL     1      65.650   5.197   7.482  1.00  0.00     0.134 C 
HETATM   11  C   UNL     1      66.963   4.396   7.509  1.00  0.00     0.183 C 
HETATM   12  O   UNL     1      67.657   4.558   8.757  1.00  0.00    -0.389 OA
HETATM   13  C   UNL     1      67.937   5.942   9.027  1.00  0.00     0.183 C 
HETATM   14  C   UNL     1      66.639   6.755   9.077  1.00  0.00     0.134 C 
ENDBRANCH   1   9
TORSDOF 2
ENDMDL
MODEL 5
REMARK VINA RESULT:      -4.7      1.837      2.310
REMARK  2 active torsions:
REMARK  status: ('A' for Active; 'I' for Inactive)
REMARK    1  A    between atoms: S_1  and  C_2 
REMARK    2  A    between atoms: S_1  and  N_3 
ROOT
HETATM    1  S   UNL     1      65.081   8.172   5.493  1.00  0.00     0.250 S 
HETATM    2  O   UNL     1      65.691   9.311   6.147  1.00  0.00    -0.205 OA
HETATM    3  O   UNL     1      65.825   7.384   4.533  1.00  0.00    -0.205 OA
ENDROOT
BRANCH   1   4
HETATM    4  C   UNL     1      63.724   8.839   4.553  1.00  0.00     0.115 A 
HETATM    5  S   UNL     1      62.996  10.264   5.161  1.00  0.00    -0.089 SA
HETATM    6  C   UNL     1      61.907  10.347   3.841  1.00  0.00     0.051 A 
HETATM    7  C   UNL     1      62.083   9.305   2.959  1.00  0.00     0.009 A 
HETATM    8  C   UNL     1      63.133   8.433   3.370  1.00  0.00     0.033 A 
ENDBRANCH   1   4
BRANCH   1   9
HETATM    9  N   UNL     1      64.466   7.130   6.696  1.00  0.00    -0.202 NA
HETATM   10  C   UNL     1      63.438   6.140   6.253  1.00  0.00     0.134 C 
HETATM   11  C   UNL     1      64.087   4.940   5.542  1.00  0.00     0.183 C 
HETATM   12  O   UNL     1      65.090   4.317   6.362  1.00  0.00    -0.389 OA
HETATM   13  C   UNL     1      66.110   5.253   6.746  1.00  0.00     0.183 C 
HETATM   14  C   UNL     1      65.502   6.427   7.520  1.00  0.00     0.134 C 
ENDBRANCH   1   9
TORSDOF 2
ENDMDL
MODEL 6
REMARK VINA RESULT:      -4.6      3.722      4.970
REMARK  2 active torsions:
REMARK  status: ('A' for Active; 'I' for Inactive)
REMARK    1  A    between atoms: S_1  and  C_2 
REMARK    2  A    between atoms: S_1  and  N_3 
ROOT
HETATM    1  S   UNL     1      66.688   5.789   8.362  1.00  0.00     0.250 S 
HETATM    2  O   UNL     1      65.921   4.578   8.571  1.00  0.00    -0.205 OA
HETATM    3  O   UNL     1      66.904   6.723   9.446  1.00  0.00    -0.205 OA
ENDROOT
BRANCH   1   4
HETATM    4  C   UNL     1      65.775   6.723   7.153  1.00  0.00     0.115 A 
HETATM    5  S   UNL     1      66.620   7.979   6.356  1.00  0.00    -0.089 SA
HETATM    6  C   UNL     1      65.260   8.369   5.390  1.00  0.00     0.051 A 
HETATM    7  C   UNL     1      64.177   7.567   5.675  1.00  0.00     0.009 A 
HETATM    8  C   UNL     1      64.474   6.617   6.695  1.00  0.00     0.033 A 
ENDBRANCH   1   4
BRANCH   1   9
HETATM    9  N   UNL     1      68.202   5.355   7.704  1.00  0.00    -0.202 NA
HETATM   10  C   UNL     1      69.361   5.362   8.648  1.00  0.00     0.134 C 
HETATM   11  C   UNL     1      69.376   4.097   9.523  1.00  0.00     0.183 C 
HETATM   12  O   UNL     1      69.361   2.901   8.727  1.00  0.00    -0.389 OA
HETATM   13  C   UNL     1      68.218   2.864   7.857  1.00  0.00     0.183 C 
HETATM   14  C   UNL     1      68.213   4.077   6.921  1.00  0.00     0.134 C 
ENDBRANCH   1   9
TORSDOF 2
ENDMDL
MODEL 7
REMARK VINA RESULT:      -4.4      1.898      5.204
REMARK  2 active torsions:
REMARK  status: ('A' for Active; 'I' for Inactive)
REMARK    1  A    between atoms: S_1  and  C_2 
REMARK    2  A    between atoms: S_1  and  N_3 
ROOT
HETATM    1  S   UNL     1      64.042   8.259   5.569  1.00  0.00     0.250 S 
HETATM    2  O   UNL     1      64.250   9.689   5.477  1.00  0.00    -0.205 OA
HETATM    3  O   UNL     1      63.235   7.695   6.630  1.00  0.00    -0.205 OA
ENDROOT
BRANCH   1   4
HETATM    4  C   UNL     1      65.660   7.563   5.834  1.00  0.00     0.115 A 
HETATM    5  S   UNL     1      65.849   6.561   7.207  1.00  0.00    -0.089 SA
HETATM    6  C   UNL     1      67.487   6.238   6.826  1.00  0.00     0.051 A 
HETATM    7  C   UNL     1      67.890   6.890   5.682  1.00  0.00     0.009 A 
HETATM    8  C   UNL     1      66.834   7.656   5.109  1.00  0.00     0.033 A 
ENDBRANCH   1   4
BRANCH   1   9
HETATM    9  N   UNL     1      63.438   7.709   4.071  1.00  0.00    -0.202 NA
HETATM   10  C   UNL     1      62.503   6.544   4.121  1.00  0.00     0.134 C 
HETATM   11  C   UNL     1      61.087   6.980   4.535  1.00  0.00     0.183 C 
HETATM   12  O   UNL     1      60.581   8.017   3.679  1.00  0.00    -0.389 OA
HETATM   13  C   UNL     1      61.449   9.162   3.671  1.00  0.00     0.183 C 
HETATM   14  C   UNL     1      62.851   8.773   3.192  1.00  0.00     0.134 C 
ENDBRANCH   1   9
TORSDOF 2
ENDMDL
MODEL 8
REMARK VINA RESULT:      -4.4      2.713      5.872
REMARK  2 active torsions:
REMARK  status: ('A' for Active; 'I' for Inactive)
REMARK    1  A    between atoms: S_1  and  C_2 
REMARK    2  A    between atoms: S_1  and  N_3 
ROOT
HETATM    1  S   UNL     1      65.181   6.323   6.536  1.00  0.00     0.250 S 
HETATM    2  O   UNL     1      64.322   7.153   7.357  1.00  0.00    -0.205 OA
HETATM    3  O   UNL     1      64.733   5.028   6.071  1.00  0.00    -0.205 OA
ENDROOT
BRANCH   1   4
HETATM    4  C   UNL     1      66.595   5.957   7.554  1.00  0.00     0.115 A 
HETATM    5  S   UNL     1      67.794   4.948   6.867  1.00  0.00    -0.089 SA
HETATM    6  C   UNL     1      68.782   5.064   8.262  1.00  0.00     0.051 A 
HETATM    7  C   UNL     1      68.206   5.846   9.239  1.00  0.00     0.009 A 
HETATM    8  C   UNL     1      66.943   6.361   8.830  1.00  0.00     0.033 A 
ENDBRANCH   1   4
BRANCH   1   9
HETATM    9  N   UNL     1      65.686   7.244   5.190  1.00  0.00    -0.202 NA
HETATM   10  C   UNL     1      65.702   6.538   3.874  1.00  0.00     0.134 C 
HETATM   11  C   UNL     1      64.288   6.435   3.276  1.00  0.00     0.183 C 
HETATM   12  O   UNL     1      63.664   7.725   3.167  1.00  0.00    -0.389 OA
HETATM   13  C   UNL     1      63.596   8.385   4.442  1.00  0.00     0.183 C 
HETATM   14  C   UNL     1      64.999   8.567   5.031  1.00  0.00     0.134 C 
ENDBRANCH   1   9
TORSDOF 2
ENDMDL
MODEL 9
REMARK VINA RESULT:      -4.3      3.859      7.040
REMARK  2 active torsions:
REMARK  status: ('A' for Active; 'I' for Inactive)
REMARK    1  A    between atoms: S_1  and  C_2 
REMARK    2  A    between atoms: S_1  and  N_3 
ROOT
HETATM    1  S   UNL     1      67.014   4.835   6.810  1.00  0.00     0.250 S 
HETATM    2  O   UNL     1      66.225   3.670   6.465  1.00  0.00    -0.205 OA
HETATM    3  O   UNL     1      67.829   5.497   5.814  1.00  0.00    -0.205 OA
ENDROOT
BRANCH   1   4
HETATM    4  C   UNL     1      68.184   4.268   8.026  1.00  0.00     0.115 A 
HETATM    5  S   UNL     1      67.883   2.737   8.727  1.00  0.00    -0.089 SA
HETATM    6  C   UNL     1      69.308   2.818   9.674  1.00  0.00     0.051 A 
HETATM    7  C   UNL     1      69.997   3.993   9.472  1.00  0.00     0.009 A 
HETATM    8  C   UNL     1      69.347   4.832   8.521  1.00  0.00     0.033 A 
ENDBRANCH   1   4
BRANCH   1   9
HETATM    9  N   UNL     1      65.979   5.988   7.526  1.00  0.00    -0.202 NA
HETATM   10  C   UNL     1      66.599   7.299   7.887  1.00  0.00     0.134 C 
HETATM   11  C   UNL     1      66.755   8.203   6.652  1.00  0.00     0.183 C 
HETATM   12  O   UNL     1      65.504   8.388   5.969  1.00  0.00    -0.389 OA
HETATM   13  C   UNL     1      64.932   7.132   5.572  1.00  0.00     0.183 C 
HETATM   14  C   UNL     1      64.696   6.235   6.791  1.00  0.00     0.134 C 
ENDBRANCH   1   9
TORSDOF 2
ENDMDL
