MODEL 1
REMARK VINA RESULT:      -5.0      0.000      0.000
REMARK  3 active torsions:
REMARK  status: ('A' for Active; 'I' for Inactive)
REMARK    1  A    between atoms: S_1  and  C_4 
REMARK    2  A    between atoms: S_1  and  C_5 
REMARK    3  A    between atoms: C_3  and  C_5 
ROOT
HETATM    1  C   UNL     1      62.941   8.868   4.661  1.00  0.00     0.001 A 
HETATM    2  C   UNL     1      62.004  10.880   2.937  1.00  0.00    -0.062 A 
HETATM    3  C   UNL     1      62.797  10.179   5.121  1.00  0.00     0.019 A 
HETATM    4  C   UNL     1      62.637   8.570   3.332  1.00  0.00     0.019 A 
HETATM    5  C   UNL     1      62.326  11.178   4.265  1.00  0.00     0.008 A 
HETATM    6  C   UNL     1      62.166   9.570   2.475  1.00  0.00     0.008 A 
HETATM    7  C   UNL     1      61.502  11.963   2.029  1.00  0.00     0.048 C 
ENDROOT
BRANCH   1   8
HETATM    8  S   UNL     1      63.531   7.578   5.738  1.00  0.00    -0.123 SA
BRANCH   8   9
HETATM    9  C   UNL     1      65.108   7.209   4.913  1.00  0.00     0.157 C 
BRANCH   9  10
HETATM   10  C   UNL     1      66.234   8.008   5.531  1.00  0.00     0.132 C 
HETATM   11  O   UNL     1      66.013   8.851   6.405  1.00  0.00    -0.298 OA
HETATM   12  C   UNL     1      67.645   7.688   5.107  1.00  0.00     0.091 C 
ENDBRANCH   9  10
ENDBRANCH   8   9
ENDBRANCH   1   8
TORSDOF 3
ENDMDL
MODEL 2
REMARK VINA RESULT:      -4.7      3.957      7.122
REMARK  3 active torsions:
REMARK  status: ('A' for Active; 'I' for Inactive)
REMARK    1  A    between atoms: S_1  and  C_4 
REMARK    2  A    between atoms: S_1  and  C_5 
REMARK    3  A    between atoms: C_3  and  C_5 
ROOT
HETATM    1  C   UNL     1      66.436   5.567   7.465  1.00  0.00     0.001 A 
HETATM    2  C   UNL     1      68.934   4.841   8.528  1.00  0.00    -0.062 A 
HETATM    3  C   UNL     1      66.901   6.162   8.640  1.00  0.00     0.019 A 
HETATM    4  C   UNL     1      67.213   4.593   6.835  1.00  0.00     0.019 A 
HETATM    5  C   UNL     1      68.146   5.804   9.165  1.00  0.00     0.008 A 
HETATM    6  C   UNL     1      68.458   4.234   7.361  1.00  0.00     0.008 A 
HETATM    7  C   UNL     1      70.268   4.466   9.105  1.00  0.00     0.048 C 
ENDROOT
BRANCH   1   8
HETATM    8  S   UNL     1      64.857   6.014   6.773  1.00  0.00    -0.123 SA
BRANCH   8   9
HETATM    9  C   UNL     1      65.425   6.761   5.214  1.00  0.00     0.157 C 
BRANCH   9  10
HETATM   10  C   UNL     1      66.322   7.947   5.486  1.00  0.00     0.132 C 
HETATM   11  O   UNL     1      65.932   8.901   6.165  1.00  0.00    -0.298 OA
HETATM   12  C   UNL     1      67.739   7.896   4.973  1.00  0.00     0.091 C 
ENDBRANCH   9  10
ENDBRANCH   8   9
ENDBRANCH   1   8
TORSDOF 3
ENDMDL
MODEL 3
REMARK VINA RESULT:      -4.7      3.257      7.225
REMARK  3 active torsions:
REMARK  status: ('A' for Active; 'I' for Inactive)
REMARK    1  A    between atoms: S_1  and  C_4 
REMARK    2  A    between atoms: S_1  and  C_5 
REMARK    3  A    between atoms: C_3  and  C_5 
ROOT
HETATM    1  C   UNL     1      66.363   5.983   7.385  1.00  0.00     0.001 A 
HETATM    2  C   UNL     1      68.760   4.995   8.469  1.00  0.00    -0.062 A 
HETATM    3  C   UNL     1      67.131   5.059   6.672  1.00  0.00     0.019 A 
HETATM    4  C   UNL     1      66.808   6.428   8.631  1.00  0.00     0.019 A 
HETATM    5  C   UNL     1      68.320   4.565   7.214  1.00  0.00     0.008 A 
HETATM    6  C   UNL     1      67.998   5.933   9.173  1.00  0.00     0.008 A 
HETATM    7  C   UNL     1      70.040   4.457   9.037  1.00  0.00     0.048 C 
ENDROOT
BRANCH   1   8
HETATM    8  S   UNL     1      64.839   6.619   6.718  1.00  0.00    -0.123 SA
BRANCH   8   9
HETATM    9  C   UNL     1      65.519   7.861   5.576  1.00  0.00     0.157 C 
BRANCH   9  10
HETATM   10  C   UNL     1      64.454   8.858   5.177  1.00  0.00     0.132 C 
HETATM   11  O   UNL     1      64.398   9.976   5.698  1.00  0.00    -0.298 OA
HETATM   12  C   UNL     1      63.510   8.479   4.064  1.00  0.00     0.091 C 
ENDBRANCH   9  10
ENDBRANCH   8   9
ENDBRANCH   1   8
TORSDOF 3
ENDMDL
MODEL 4
REMARK VINA RESULT:      -4.5      3.556      7.461
REMARK  3 active torsions:
REMARK  status: ('A' for Active; 'I' for Inactive)
REMARK    1  A    between atoms: S_1  and  C_4 
REMARK    2  A    between atoms: S_1  and  C_5 
REMARK    3  A    between atoms: C_3  and  C_5 
ROOT
HETATM    1  C   UNL     1      67.077   6.500   7.189  1.00  0.00     0.001 A 
HETATM    2  C   UNL     1      68.551   4.844   8.916  1.00  0.00    -0.062 A 
HETATM    3  C   UNL     1      67.790   5.411   6.683  1.00  0.00     0.019 A 
HETATM    4  C   UNL     1      67.120   6.772   8.558  1.00  0.00     0.019 A 
HETATM    5  C   UNL     1      68.518   4.585   7.543  1.00  0.00     0.008 A 
HETATM    6  C   UNL     1      67.849   5.946   9.418  1.00  0.00     0.008 A 
HETATM    7  C   UNL     1      69.339   3.950   9.827  1.00  0.00     0.048 C 
ENDROOT
BRANCH   1   8
HETATM    8  S   UNL     1      66.134   7.560   6.112  1.00  0.00    -0.123 SA
BRANCH   8   9
HETATM    9  C   UNL     1      64.554   6.660   6.130  1.00  0.00     0.157 C 
BRANCH   9  10
HETATM   10  C   UNL     1      63.391   7.620   6.024  1.00  0.00     0.132 C 
HETATM   11  O   UNL     1      62.569   7.732   6.938  1.00  0.00    -0.298 OA
HETATM   12  C   UNL     1      63.307   8.500   4.802  1.00  0.00     0.091 C 
ENDBRANCH   9  10
ENDBRANCH   8   9
ENDBRANCH   1   8
TORSDOF 3
ENDMDL
MODEL 5
REMARK VINA RESULT:      -4.5      3.874      7.915
REMARK  3 active torsions:
REMARK  status: ('A' for Active; 'I' for Inactive)
REMARK    1  A    between atoms: S_1  and  C_4 
REMARK    2  A    between atoms: S_1  and  C_5 
REMARK    3  A    between atoms: C_3  and  C_5 
ROOT
HETATM    1  C   UNL     1      67.824   5.180   6.641  1.00  0.00     0.001 A 
HETATM    2  C   UNL     1      68.982   4.106   8.966  1.00  0.00    -0.062 A 
HETATM    3  C   UNL     1      68.293   3.864   6.652  1.00  0.00     0.019 A 
HETATM    4  C   UNL     1      67.956   5.964   7.789  1.00  0.00     0.019 A 
HETATM    5  C   UNL     1      68.864   3.329   7.810  1.00  0.00     0.008 A 
HETATM    6  C   UNL     1      68.528   5.429   8.947  1.00  0.00     0.008 A 
HETATM    7  C   UNL     1      69.599   3.519  10.202  1.00  0.00     0.048 C 
ENDROOT
BRANCH   1   8
HETATM    8  S   UNL     1      67.085   5.878   5.179  1.00  0.00    -0.123 SA
BRANCH   8   9
HETATM    9  C   UNL     1      67.069   7.629   5.670  1.00  0.00     0.157 C 
BRANCH   9  10
HETATM   10  C   UNL     1      65.651   8.140   5.781  1.00  0.00     0.132 C 
HETATM   11  O   UNL     1      65.413   9.346   5.897  1.00  0.00    -0.298 OA
HETATM   12  C   UNL     1      64.526   7.142   5.664  1.00  0.00     0.091 C 
ENDBRANCH   9  10
ENDBRANCH   8   9
ENDBRANCH   1   8
TORSDOF 3
ENDMDL
MODEL 6
REMARK VINA RESULT:      -4.1      2.613      3.603
REMARK  3 active torsions:
REMARK  status: ('A' for Active; 'I' for Inactive)
REMARK    1  A    between atoms: S_1  and  C_4 
REMARK    2  A    between atoms: S_1  and  C_5 
REMARK    3  A    between atoms: C_3  and  C_5 
ROOT
HETATM    1  C   UNL     1      65.354   7.776   5.161  1.00  0.00     0.001 A 
HETATM    2  C   UNL     1      63.396   7.719   3.147  1.00  0.00    -0.062 A 
HETATM    3  C   UNL     1      65.318   6.724   4.244  1.00  0.00     0.019 A 
HETATM    4  C   UNL     1      64.396   8.788   5.082  1.00  0.00     0.019 A 
HETATM    5  C   UNL     1      64.347   6.698   3.239  1.00  0.00     0.008 A 
HETATM    6  C   UNL     1      63.424   8.763   4.077  1.00  0.00     0.008 A 
HETATM    7  C   UNL     1      62.358   7.678   2.064  1.00  0.00     0.048 C 
ENDROOT
BRANCH   1   8
HETATM    8  S   UNL     1      66.589   7.833   6.443  1.00  0.00    -0.123 SA
BRANCH   8   9
HETATM    9  C   UNL     1      65.812   6.711   7.645  1.00  0.00     0.157 C 
BRANCH   9  10
HETATM   10  C   UNL     1      66.588   5.417   7.747  1.00  0.00     0.132 C 
HETATM   11  O   UNL     1      66.288   4.557   8.581  1.00  0.00    -0.298 OA
HETATM   12  C   UNL     1      67.689   5.170   6.748  1.00  0.00     0.091 C 
ENDBRANCH   9  10
ENDBRANCH   8   9
ENDBRANCH   1   8
TORSDOF 3
ENDMDL
MODEL 7
REMARK VINA RESULT:      -4.0      6.070      8.318
REMARK  3 active torsions:
REMARK  status: ('A' for Active; 'I' for Inactive)
REMARK    1  A    between atoms: S_1  and  C_4 
REMARK    2  A    between atoms: S_1  and  C_5 
REMARK    3  A    between atoms: C_3  and  C_5 
ROOT
HETATM    1  C   UNL     1      68.561   4.920   8.745  1.00  0.00     0.001 A 
HETATM    2  C   UNL     1      66.805   6.498   7.220  1.00  0.00    -0.062 A 
HETATM    3  C   UNL     1      68.376   4.656   7.386  1.00  0.00     0.019 A 
HETATM    4  C   UNL     1      67.849   5.961   9.344  1.00  0.00     0.019 A 
HETATM    5  C   UNL     1      67.507   5.444   6.627  1.00  0.00     0.008 A 
HETATM    6  C   UNL     1      66.979   6.749   8.585  1.00  0.00     0.008 A 
HETATM    7  C   UNL     1      65.874   7.335   6.393  1.00  0.00     0.048 C 
ENDROOT
BRANCH   1   8
HETATM    8  S   UNL     1      69.671   3.935   9.729  1.00  0.00    -0.123 SA
BRANCH   8   9
HETATM    9  C   UNL     1      68.681   2.414   9.849  1.00  0.00     0.157 C 
BRANCH   9  10
HETATM   10  C   UNL     1      69.571   1.193   9.813  1.00  0.00     0.132 C 
HETATM   11  O   UNL     1      70.514   1.067  10.599  1.00  0.00    -0.298 OA
HETATM   12  C   UNL     1      69.225   0.092   8.842  1.00  0.00     0.091 C 
ENDBRANCH   9  10
ENDBRANCH   8   9
ENDBRANCH   1   8
TORSDOF 3
ENDMDL
MODEL 8
REMARK VINA RESULT:      -3.9      2.896      4.175
REMARK  3 active torsions:
REMARK  status: ('A' for Active; 'I' for Inactive)
REMARK    1  A    between atoms: S_1  and  C_4 
REMARK    2  A    between atoms: S_1  and  C_5 
REMARK    3  A    between atoms: C_3  and  C_5 
ROOT
HETATM    1  C   UNL     1      65.272   6.274   6.374  1.00  0.00     0.001 A 
HETATM    2  C   UNL     1      63.800   8.399   5.272  1.00  0.00    -0.062 A 
HETATM    3  C   UNL     1      65.928   7.331   5.739  1.00  0.00     0.019 A 
HETATM    4  C   UNL     1      63.878   6.272   6.438  1.00  0.00     0.019 A 
HETATM    5  C   UNL     1      65.196   8.390   5.196  1.00  0.00     0.008 A 
HETATM    6  C   UNL     1      63.145   7.331   5.894  1.00  0.00     0.008 A 
HETATM    7  C   UNL     1      63.026   9.542   4.683  1.00  0.00     0.048 C 
ENDROOT
BRANCH   1   8
HETATM    8  S   UNL     1      66.187   4.919   7.082  1.00  0.00    -0.123 SA
BRANCH   8   9
HETATM    9  C   UNL     1      67.844   5.669   7.104  1.00  0.00     0.157 C 
BRANCH   9  10
HETATM   10  C   UNL     1      68.422   5.643   8.501  1.00  0.00     0.132 C 
HETATM   11  O   UNL     1      67.806   6.125   9.456  1.00  0.00    -0.298 OA
HETATM   12  C   UNL     1      69.739   4.940   8.711  1.00  0.00     0.091 C 
ENDBRANCH   9  10
ENDBRANCH   8   9
ENDBRANCH   1   8
TORSDOF 3
ENDMDL
MODEL 9
REMARK VINA RESULT:      -3.9      3.787      5.001
REMARK  3 active torsions:
REMARK  status: ('A' for Active; 'I' for Inactive)
REMARK    1  A    between atoms: S_1  and  C_4 
REMARK    2  A    between atoms: S_1  and  C_5 
REMARK    3  A    between atoms: C_3  and  C_5 
ROOT
HETATM    1  C   UNL     1      60.524   8.014   2.466  1.00  0.00     0.001 A 
HETATM    2  C   UNL     1      57.846   7.192   2.248  1.00  0.00    -0.062 A 
HETATM    3  C   UNL     1      59.794   7.679   3.609  1.00  0.00     0.019 A 
HETATM    4  C   UNL     1      59.905   7.957   1.217  1.00  0.00     0.019 A 
HETATM    5  C   UNL     1      58.464   7.265   3.499  1.00  0.00     0.008 A 
HETATM    6  C   UNL     1      58.574   7.544   1.106  1.00  0.00     0.008 A 
HETATM    7  C   UNL     1      56.416   6.748   2.145  1.00  0.00     0.048 C 
ENDROOT
BRANCH   1   8
HETATM    8  S   UNL     1      62.223   8.534   2.583  1.00  0.00    -0.123 SA
BRANCH   8   9
HETATM    9  C   UNL     1      61.974  10.335   2.602  1.00  0.00     0.157 C 
BRANCH   9  10
HETATM   10  C   UNL     1      62.213  10.892   3.988  1.00  0.00     0.132 C 
HETATM   11  O   UNL     1      61.836  12.028   4.293  1.00  0.00    -0.298 OA
HETATM   12  C   UNL     1      62.852   9.991   5.014  1.00  0.00     0.091 C 
ENDBRANCH   9  10
ENDBRANCH   8   9
ENDBRANCH   1   8
TORSDOF 3
ENDMDL
