MODEL 1
REMARK VINA RESULT:      -6.5      0.000      0.000
REMARK  1 active torsions:
REMARK  status: ('A' for Active; 'I' for Inactive)
REMARK    1  A    between atoms: C_7  and  N_9 
ROOT
HETATM    1  C   UNL     1      77.345   8.424  16.432  1.00  0.00     0.016 A 
HETATM    2  C   UNL     1      77.177   7.562  15.339  1.00  0.00    -0.042 A 
HETATM    3  C   UNL     1      77.019   7.963  17.808  1.00  0.00     0.160 C 
HETATM    4  C   UNL     1      77.761   9.744  16.235  1.00  0.00     0.018 A 
HETATM    5  C   UNL     1      77.391   8.064  14.044  1.00  0.00     0.037 A 
HETATM    6  O   UNL     1      77.267   8.664  18.783  1.00  0.00    -0.292 OA
HETATM    7  C   UNL     1      77.826   9.377  13.835  1.00  0.00     0.026 A 
HETATM    8  C   UNL     1      77.976  10.219  14.940  1.00  0.00     0.030 A 
HETATM    9  C   UNL     1      76.699   6.143  15.510  1.00  0.00     0.040 C 
HETATM   10  C   UNL     1      76.294   6.644  17.929  1.00  0.00     0.084 C 
HETATM   11  C   UNL     1      76.868   5.642  16.942  1.00  0.00     0.012 C 
ENDROOT
BRANCH   7  12
HETATM   12  N   UNL     1      77.868   9.903  12.540  1.00  0.00    -0.399 N 
HETATM   13  H   UNL     1      78.713   9.901  12.034  1.00  0.00     0.156 HD
HETATM   14  H   UNL     1      77.052  10.275  12.133  1.00  0.00     0.156 HD
ENDBRANCH   7  12
TORSDOF 1
ENDMDL
MODEL 2
REMARK VINA RESULT:      -5.9      4.141      5.485
REMARK  1 active torsions:
REMARK  status: ('A' for Active; 'I' for Inactive)
REMARK    1  A    between atoms: C_7  and  N_9 
ROOT
HETATM    1  C   UNL     1      78.292  11.272  19.717  1.00  0.00     0.016 A 
HETATM    2  C   UNL     1      77.125  11.507  18.977  1.00  0.00    -0.042 A 
HETATM    3  C   UNL     1      78.645  12.154  20.861  1.00  0.00     0.160 C 
HETATM    4  C   UNL     1      79.169  10.246  19.350  1.00  0.00     0.018 A 
HETATM    5  C   UNL     1      76.878  10.721  17.838  1.00  0.00     0.037 A 
HETATM    6  O   UNL     1      79.600  11.896  21.585  1.00  0.00    -0.292 OA
HETATM    7  C   UNL     1      77.737   9.679  17.472  1.00  0.00     0.026 A 
HETATM    8  C   UNL     1      78.899   9.473  18.219  1.00  0.00     0.030 A 
HETATM    9  C   UNL     1      76.174  12.623  19.323  1.00  0.00     0.040 C 
HETATM   10  C   UNL     1      77.830  13.416  21.023  1.00  0.00     0.084 C 
HETATM   11  C   UNL     1      76.364  13.127  20.750  1.00  0.00     0.012 C 
ENDROOT
BRANCH   7  12
HETATM   12  N   UNL     1      77.564   9.026  16.248  1.00  0.00    -0.399 N 
HETATM   13  H   UNL     1      78.342   8.654  15.773  1.00  0.00     0.156 HD
HETATM   14  H   UNL     1      76.663   8.936  15.861  1.00  0.00     0.156 HD
ENDBRANCH   7  12
TORSDOF 1
ENDMDL
MODEL 3
REMARK VINA RESULT:      -5.4     18.516     19.436
REMARK  1 active torsions:
REMARK  status: ('A' for Active; 'I' for Inactive)
REMARK    1  A    between atoms: C_7  and  N_9 
ROOT
HETATM    1  C   UNL     1      62.355   9.276   3.028  1.00  0.00     0.016 A 
HETATM    2  C   UNL     1      63.252   8.682   3.927  1.00  0.00    -0.042 A 
HETATM    3  C   UNL     1      61.998   8.586   1.760  1.00  0.00     0.160 C 
HETATM    4  C   UNL     1      61.836  10.549   3.282  1.00  0.00     0.018 A 
HETATM    5  C   UNL     1      63.650   9.409   5.063  1.00  0.00     0.037 A 
HETATM    6  O   UNL     1      61.132   9.037   1.019  1.00  0.00    -0.292 OA
HETATM    7  C   UNL     1      63.122  10.676   5.338  1.00  0.00     0.026 A 
HETATM    8  C   UNL     1      62.239  11.250   4.420  1.00  0.00     0.030 A 
HETATM    9  C   UNL     1      63.856   7.326   3.671  1.00  0.00     0.040 C 
HETATM   10  C   UNL     1      62.811   7.366   1.397  1.00  0.00     0.084 C 
HETATM   11  C   UNL     1      63.071   6.526   2.636  1.00  0.00     0.012 C 
ENDROOT
BRANCH   7  12
HETATM   12  N   UNL     1      63.657  11.447   6.375  1.00  0.00    -0.399 N 
HETATM   13  H   UNL     1      63.553  12.426   6.365  1.00  0.00     0.156 HD
HETATM   14  H   UNL     1      64.137  11.010   7.116  1.00  0.00     0.156 HD
ENDBRANCH   7  12
TORSDOF 1
ENDMDL
MODEL 4
REMARK VINA RESULT:      -5.3      5.873      7.251
REMARK  1 active torsions:
REMARK  status: ('A' for Active; 'I' for Inactive)
REMARK    1  A    between atoms: C_7  and  N_9 
ROOT
HETATM    1  C   UNL     1      78.613  11.559  20.101  1.00  0.00     0.016 A 
HETATM    2  C   UNL     1      77.815  12.543  20.704  1.00  0.00    -0.042 A 
HETATM    3  C   UNL     1      78.125  10.832  18.899  1.00  0.00     0.160 C 
HETATM    4  C   UNL     1      79.845  11.208  20.659  1.00  0.00     0.018 A 
HETATM    5  C   UNL     1      78.260  13.133  21.899  1.00  0.00     0.037 A 
HETATM    6  O   UNL     1      78.854  10.052  18.296  1.00  0.00    -0.292 OA
HETATM    7  C   UNL     1      79.500  12.804  22.456  1.00  0.00     0.026 A 
HETATM    8  C   UNL     1      80.271  11.813  21.843  1.00  0.00     0.030 A 
HETATM    9  C   UNL     1      76.467  12.924  20.150  1.00  0.00     0.040 C 
HETATM   10  C   UNL     1      76.677  11.035  18.522  1.00  0.00     0.084 C 
HETATM   11  C   UNL     1      76.293  12.494  18.696  1.00  0.00     0.012 C 
ENDROOT
BRANCH   7  12
HETATM   12  N   UNL     1      79.844  13.275  23.728  1.00  0.00    -0.399 N 
HETATM   13  H   UNL     1      80.788  13.442  23.953  1.00  0.00     0.156 HD
HETATM   14  H   UNL     1      79.142  13.440  24.398  1.00  0.00     0.156 HD
ENDBRANCH   7  12
TORSDOF 1
ENDMDL
MODEL 5
REMARK VINA RESULT:      -5.2     18.242     19.244
REMARK  1 active torsions:
REMARK  status: ('A' for Active; 'I' for Inactive)
REMARK    1  A    between atoms: C_7  and  N_9 
ROOT
HETATM    1  C   UNL     1      62.812   9.286   3.788  1.00  0.00     0.016 A 
HETATM    2  C   UNL     1      62.994   8.247   2.863  1.00  0.00    -0.042 A 
HETATM    3  C   UNL     1      62.094  10.526   3.391  1.00  0.00     0.160 C 
HETATM    4  C   UNL     1      63.356   9.193   5.072  1.00  0.00     0.018 A 
HETATM    5  C   UNL     1      63.769   7.137   3.239  1.00  0.00     0.037 A 
HETATM    6  O   UNL     1      61.829  11.392   4.217  1.00  0.00    -0.292 OA
HETATM    7  C   UNL     1      64.303   7.024   4.527  1.00  0.00     0.026 A 
HETATM    8  C   UNL     1      64.117   8.077   5.426  1.00  0.00     0.030 A 
HETATM    9  C   UNL     1      62.450   8.326   1.460  1.00  0.00     0.040 C 
HETATM   10  C   UNL     1      61.795  10.698   1.920  1.00  0.00     0.084 C 
HETATM   11  C   UNL     1      61.350   9.375   1.322  1.00  0.00     0.012 C 
ENDROOT
BRANCH   7  12
HETATM   12  N   UNL     1      65.207   5.999   4.823  1.00  0.00    -0.399 N 
HETATM   13  H   UNL     1      64.923   5.236   5.378  1.00  0.00     0.156 HD
HETATM   14  H   UNL     1      66.127   6.039   4.476  1.00  0.00     0.156 HD
ENDBRANCH   7  12
TORSDOF 1
ENDMDL
MODEL 6
REMARK VINA RESULT:      -5.1     18.989     19.891
REMARK  1 active torsions:
REMARK  status: ('A' for Active; 'I' for Inactive)
REMARK    1  A    between atoms: C_7  and  N_9 
ROOT
HETATM    1  C   UNL     1      62.367   9.598   2.842  1.00  0.00     0.016 A 
HETATM    2  C   UNL     1      62.982   8.373   3.139  1.00  0.00    -0.042 A 
HETATM    3  C   UNL     1      62.332  10.685   3.856  1.00  0.00     0.160 C 
HETATM    4  C   UNL     1      61.726   9.789   1.614  1.00  0.00     0.018 A 
HETATM    5  C   UNL     1      62.903   7.332   2.199  1.00  0.00     0.037 A 
HETATM    6  O   UNL     1      61.899  11.797   3.573  1.00  0.00    -0.292 OA
HETATM    7  C   UNL     1      62.281   7.517   0.959  1.00  0.00     0.026 A 
HETATM    8  C   UNL     1      61.666   8.742   0.692  1.00  0.00     0.030 A 
HETATM    9  C   UNL     1      63.654   8.121   4.464  1.00  0.00     0.040 C 
HETATM   10  C   UNL     1      62.768  10.324   5.256  1.00  0.00     0.084 C 
HETATM   11  C   UNL     1      63.983   9.414   5.204  1.00  0.00     0.012 C 
ENDROOT
BRANCH   7  12
HETATM   12  N   UNL     1      62.065   6.423   0.114  1.00  0.00    -0.399 N 
HETATM   13  H   UNL     1      62.589   6.331  -0.715  1.00  0.00     0.156 HD
HETATM   14  H   UNL     1      61.392   5.745   0.349  1.00  0.00     0.156 HD
ENDBRANCH   7  12
TORSDOF 1
ENDMDL
MODEL 7
REMARK VINA RESULT:      -5.0     18.533     19.547
REMARK  1 active torsions:
REMARK  status: ('A' for Active; 'I' for Inactive)
REMARK    1  A    between atoms: C_7  and  N_9 
ROOT
HETATM    1  C   UNL     1      63.125   8.315   3.187  1.00  0.00     0.016 A 
HETATM    2  C   UNL     1      62.394   9.500   3.015  1.00  0.00    -0.042 A 
HETATM    3  C   UNL     1      63.080   7.250   2.151  1.00  0.00     0.160 C 
HETATM    4  C   UNL     1      63.852   8.096   4.361  1.00  0.00     0.018 A 
HETATM    5  C   UNL     1      62.373  10.438   4.062  1.00  0.00     0.037 A 
HETATM    6  O   UNL     1      63.799   6.260   2.233  1.00  0.00    -0.292 OA
HETATM    7  C   UNL     1      63.112  10.239   5.233  1.00  0.00     0.026 A 
HETATM    8  C   UNL     1      63.823   9.046   5.384  1.00  0.00     0.030 A 
HETATM    9  C   UNL     1      61.573   9.756   1.778  1.00  0.00     0.040 C 
HETATM   10  C   UNL     1      62.051   7.408   1.057  1.00  0.00     0.084 C 
HETATM   11  C   UNL     1      61.981   8.859   0.614  1.00  0.00     0.012 C 
ENDROOT
BRANCH   7  12
HETATM   12  N   UNL     1      62.942  11.099   6.323  1.00  0.00    -0.399 N 
HETATM   13  H   UNL     1      62.136  11.030   6.883  1.00  0.00     0.156 HD
HETATM   14  H   UNL     1      63.629  11.772   6.531  1.00  0.00     0.156 HD
ENDBRANCH   7  12
TORSDOF 1
ENDMDL
MODEL 8
REMARK VINA RESULT:      -4.9     18.174     18.937
REMARK  1 active torsions:
REMARK  status: ('A' for Active; 'I' for Inactive)
REMARK    1  A    between atoms: C_7  and  N_9 
ROOT
HETATM    1  C   UNL     1      62.738   8.718   4.628  1.00  0.00     0.016 A 
HETATM    2  C   UNL     1      62.545   8.443   3.267  1.00  0.00    -0.042 A 
HETATM    3  C   UNL     1      63.035   7.615   5.580  1.00  0.00     0.160 C 
HETATM    4  C   UNL     1      62.591  10.020   5.116  1.00  0.00     0.018 A 
HETATM    5  C   UNL     1      62.159   9.493   2.415  1.00  0.00     0.037 A 
HETATM    6  O   UNL     1      63.317   7.850   6.750  1.00  0.00    -0.292 OA
HETATM    7  C   UNL     1      62.028  10.803   2.887  1.00  0.00     0.026 A 
HETATM    8  C   UNL     1      62.215  11.048   4.250  1.00  0.00     0.030 A 
HETATM    9  C   UNL     1      62.662   7.048   2.711  1.00  0.00     0.040 C 
HETATM   10  C   UNL     1      62.884   6.205   5.058  1.00  0.00     0.084 C 
HETATM   11  C   UNL     1      63.430   6.114   3.643  1.00  0.00     0.012 C 
ENDROOT
BRANCH   7  12
HETATM   12  N   UNL     1      61.482  11.793   2.064  1.00  0.00    -0.399 N 
HETATM   13  H   UNL     1      61.385  11.632   1.097  1.00  0.00     0.156 HD
HETATM   14  H   UNL     1      61.192  12.650   2.451  1.00  0.00     0.156 HD
ENDBRANCH   7  12
TORSDOF 1
ENDMDL
MODEL 9
REMARK VINA RESULT:      -4.9     11.304     12.288
REMARK  1 active torsions:
REMARK  status: ('A' for Active; 'I' for Inactive)
REMARK    1  A    between atoms: C_7  and  N_9 
ROOT
HETATM    1  C   UNL     1      69.250   2.884   9.144  1.00  0.00     0.016 A 
HETATM    2  C   UNL     1      68.843   2.777   7.807  1.00  0.00    -0.042 A 
HETATM    3  C   UNL     1      69.545   1.662   9.939  1.00  0.00     0.160 C 
HETATM    4  C   UNL     1      69.323   4.135   9.764  1.00  0.00     0.018 A 
HETATM    5  C   UNL     1      68.470   3.944   7.119  1.00  0.00     0.037 A 
HETATM    6  O   UNL     1      70.009   1.743  11.070  1.00  0.00    -0.292 OA
HETATM    7  C   UNL     1      68.557   5.203   7.722  1.00  0.00     0.026 A 
HETATM    8  C   UNL     1      68.954   5.282   9.059  1.00  0.00     0.030 A 
HETATM    9  C   UNL     1      68.722   1.443   7.116  1.00  0.00     0.040 C 
HETATM   10  C   UNL     1      69.163   0.339   9.319  1.00  0.00     0.084 C 
HETATM   11  C   UNL     1      69.496   0.343   7.837  1.00  0.00     0.012 C 
ENDROOT
BRANCH   7  12
HETATM   12  N   UNL     1      68.021   6.326   7.081  1.00  0.00    -0.399 N 
HETATM   13  H   UNL     1      67.977   7.188   7.553  1.00  0.00     0.156 HD
HETATM   14  H   UNL     1      67.690   6.253   6.157  1.00  0.00     0.156 HD
ENDBRANCH   7  12
TORSDOF 1
ENDMDL
