MODEL 1
REMARK VINA RESULT:      -6.1      0.000      0.000
REMARK  2 active torsions:
REMARK  status: ('A' for Active; 'I' for Inactive)
REMARK       I    between atoms: C_1  and  N_2 
REMARK    1  A    between atoms: C_1  and  C_4 
REMARK    2  A    between atoms: N_2  and  C_7 
ROOT
HETATM    1  C   UNL     1      76.460   5.899  16.589  1.00  0.00     0.256 C 
HETATM    2  N   UNL     1      76.500   4.959  17.606  1.00  0.00    -0.323 N 
HETATM    3  O   UNL     1      76.093   5.688  15.437  1.00  0.00    -0.267 OA
HETATM    4  H   UNL     1      76.807   5.266  18.490  1.00  0.00     0.169 HD
ENDROOT
BRANCH   2   5
HETATM    5  C   UNL     1      76.137   3.595  17.488  1.00  0.00     0.037 A 
HETATM    6  C   UNL     1      74.923   3.165  16.959  1.00  0.00     0.046 A 
HETATM    7  C   UNL     1      74.658   1.806  16.920  1.00  0.00     0.090 A 
HETATM    8  N   UNL     1      75.510   0.860  17.365  1.00  0.00    -0.375 N 
HETATM    9  C   UNL     1      76.686   1.298  17.859  1.00  0.00     0.090 A 
ATOM     10  HN  UNL     1      75.278  -0.132  17.330  1.00  0.00     0.164 HD
HETATM   11  C   UNL     1      77.048   2.636  17.927  1.00  0.00     0.046 A 
ENDBRANCH   2   5
BRANCH   1  12
HETATM   12  C   UNL     1      76.896   7.287  16.925  1.00  0.00     0.032 A 
HETATM   13  C   UNL     1      77.344   8.092  15.866  1.00  0.00     0.017 A 
HETATM   14  C   UNL     1      77.743   9.410  16.091  1.00  0.00     0.001 A 
HETATM   15  C   UNL     1      77.692   9.937  17.377  1.00  0.00     0.000 A 
HETATM   16  C   UNL     1      77.238   9.151  18.436  1.00  0.00     0.001 A 
HETATM   17  C   UNL     1      76.835   7.828  18.216  1.00  0.00     0.017 A 
ENDBRANCH   1  12
TORSDOF 2
ENDMDL
MODEL 2
REMARK VINA RESULT:      -5.8     15.968     16.777
REMARK  2 active torsions:
REMARK  status: ('A' for Active; 'I' for Inactive)
REMARK       I    between atoms: C_1  and  N_2 
REMARK    1  A    between atoms: C_1  and  C_4 
REMARK    2  A    between atoms: N_2  and  C_7 
ROOT
HETATM    1  C   UNL     1      64.985   8.277   5.573  1.00  0.00     0.256 C 
HETATM    2  N   UNL     1      65.207   6.962   5.948  1.00  0.00    -0.323 N 
HETATM    3  O   UNL     1      65.598   9.252   5.997  1.00  0.00    -0.267 OA
HETATM    4  H   UNL     1      64.648   6.272   5.521  1.00  0.00     0.169 HD
ENDROOT
BRANCH   2   5
HETATM    5  C   UNL     1      66.167   6.520   6.890  1.00  0.00     0.037 A 
HETATM    6  C   UNL     1      65.988   6.605   8.269  1.00  0.00     0.046 A 
HETATM    7  C   UNL     1      67.007   6.172   9.100  1.00  0.00     0.090 A 
HETATM    8  N   UNL     1      68.176   5.667   8.657  1.00  0.00    -0.375 N 
HETATM    9  C   UNL     1      68.323   5.580   7.319  1.00  0.00     0.090 A 
ATOM     10  HN  UNL     1      68.911   5.366   9.298  1.00  0.00     0.164 HD
HETATM   11  C   UNL     1      67.355   5.974   6.407  1.00  0.00     0.046 A 
ENDBRANCH   2   5
BRANCH   1  12
HETATM   12  C   UNL     1      63.913   8.528   4.565  1.00  0.00     0.032 A 
HETATM   13  C   UNL     1      63.115   9.669   4.747  1.00  0.00     0.017 A 
HETATM   14  C   UNL     1      62.110   9.990   3.835  1.00  0.00     0.001 A 
HETATM   15  C   UNL     1      61.896   9.176   2.727  1.00  0.00     0.000 A 
HETATM   16  C   UNL     1      62.689   8.045   2.529  1.00  0.00     0.001 A 
HETATM   17  C   UNL     1      63.701   7.719   3.441  1.00  0.00     0.017 A 
ENDBRANCH   1  12
TORSDOF 2
ENDMDL
MODEL 3
REMARK VINA RESULT:      -5.8     15.934     16.755
REMARK  2 active torsions:
REMARK  status: ('A' for Active; 'I' for Inactive)
REMARK       I    between atoms: C_1  and  N_2 
REMARK    1  A    between atoms: C_1  and  C_4 
REMARK    2  A    between atoms: N_2  and  C_7 
ROOT
HETATM    1  C   UNL     1      65.036   8.266   5.561  1.00  0.00     0.256 C 
HETATM    2  N   UNL     1      65.303   6.948   5.899  1.00  0.00    -0.323 N 
HETATM    3  O   UNL     1      65.606   9.249   6.024  1.00  0.00    -0.267 OA
HETATM    4  H   UNL     1      64.776   6.252   5.442  1.00  0.00     0.169 HD
ENDROOT
BRANCH   2   5
HETATM    5  C   UNL     1      66.266   6.514   6.842  1.00  0.00     0.037 A 
HETATM    6  C   UNL     1      67.515   6.008   6.490  1.00  0.00     0.046 A 
HETATM    7  C   UNL     1      68.367   5.582   7.494  1.00  0.00     0.090 A 
HETATM    8  N   UNL     1      68.065   5.627   8.808  1.00  0.00    -0.375 N 
HETATM    9  C   UNL     1      66.857   6.134   9.127  1.00  0.00     0.090 A 
ATOM     10  HN  UNL     1      68.714   5.295   9.521  1.00  0.00     0.164 HD
HETATM   11  C   UNL     1      65.940   6.599   8.195  1.00  0.00     0.046 A 
ENDBRANCH   2   5
BRANCH   1  12
HETATM   12  C   UNL     1      63.970   8.507   4.545  1.00  0.00     0.032 A 
HETATM   13  C   UNL     1      63.855   7.573   3.502  1.00  0.00     0.017 A 
HETATM   14  C   UNL     1      62.867   7.710   2.527  1.00  0.00     0.001 A 
HETATM   15  C   UNL     1      61.979   8.780   2.589  1.00  0.00     0.000 A 
HETATM   16  C   UNL     1      62.076   9.708   3.625  1.00  0.00     0.001 A 
HETATM   17  C   UNL     1      63.065   9.575   4.607  1.00  0.00     0.017 A 
ENDBRANCH   1  12
TORSDOF 2
ENDMDL
MODEL 4
REMARK VINA RESULT:      -5.8     16.154     17.267
REMARK  2 active torsions:
REMARK  status: ('A' for Active; 'I' for Inactive)
REMARK       I    between atoms: C_1  and  N_2 
REMARK    1  A    between atoms: C_1  and  C_4 
REMARK    2  A    between atoms: N_2  and  C_7 
ROOT
HETATM    1  C   UNL     1      65.519   7.967   5.761  1.00  0.00     0.256 C 
HETATM    2  N   UNL     1      64.148   8.111   5.905  1.00  0.00    -0.323 N 
HETATM    3  O   UNL     1      66.209   8.528   4.915  1.00  0.00    -0.267 OA
HETATM    4  H   UNL     1      63.718   7.609   6.635  1.00  0.00     0.169 HD
ENDROOT
BRANCH   2   5
HETATM    5  C   UNL     1      63.311   8.916   5.095  1.00  0.00     0.037 A 
HETATM    6  C   UNL     1      63.159  10.289   5.270  1.00  0.00     0.046 A 
HETATM    7  C   UNL     1      62.288  10.974   4.440  1.00  0.00     0.090 A 
HETATM    8  N   UNL     1      61.568  10.391   3.459  1.00  0.00    -0.375 N 
HETATM    9  C   UNL     1      61.742   9.064   3.297  1.00  0.00     0.090 A 
ATOM     10  HN  UNL     1      60.928  10.926   2.872  1.00  0.00     0.164 HD
HETATM   11  C   UNL     1      62.601   8.295   4.069  1.00  0.00     0.046 A 
ENDBRANCH   2   5
BRANCH   1  12
HETATM   12  C   UNL     1      66.214   7.058   6.720  1.00  0.00     0.032 A 
HETATM   13  C   UNL     1      67.507   6.633   6.377  1.00  0.00     0.017 A 
HETATM   14  C   UNL     1      68.236   5.805   7.231  1.00  0.00     0.001 A 
HETATM   15  C   UNL     1      67.680   5.398   8.440  1.00  0.00     0.000 A 
HETATM   16  C   UNL     1      66.400   5.823   8.796  1.00  0.00     0.001 A 
HETATM   17  C   UNL     1      65.664   6.655   7.944  1.00  0.00     0.017 A 
ENDBRANCH   1  12
TORSDOF 2
ENDMDL
MODEL 5
REMARK VINA RESULT:      -5.8     16.068     17.199
REMARK  2 active torsions:
REMARK  status: ('A' for Active; 'I' for Inactive)
REMARK       I    between atoms: C_1  and  N_2 
REMARK    1  A    between atoms: C_1  and  C_4 
REMARK    2  A    between atoms: N_2  and  C_7 
ROOT
HETATM    1  C   UNL     1      65.603   7.914   5.760  1.00  0.00     0.256 C 
HETATM    2  N   UNL     1      64.227   7.963   5.919  1.00  0.00    -0.323 N 
HETATM    3  O   UNL     1      66.243   8.523   4.908  1.00  0.00    -0.267 OA
HETATM    4  H   UNL     1      63.841   7.431   6.652  1.00  0.00     0.169 HD
ENDROOT
BRANCH   2   5
HETATM    5  C   UNL     1      63.327   8.710   5.122  1.00  0.00     0.037 A 
HETATM    6  C   UNL     1      62.549   8.153   4.110  1.00  0.00     0.046 A 
HETATM    7  C   UNL     1      61.726   8.984   3.369  1.00  0.00     0.090 A 
HETATM    8  N   UNL     1      61.625  10.314   3.566  1.00  0.00    -0.375 N 
HETATM    9  C   UNL     1      62.375  10.830   4.561  1.00  0.00     0.090 A 
ATOM     10  HN  UNL     1      61.014  10.898   2.995  1.00  0.00     0.164 HD
HETATM   11  C   UNL     1      63.219  10.079   5.365  1.00  0.00     0.046 A 
ENDBRANCH   2   5
BRANCH   1  12
HETATM   12  C   UNL     1      66.370   7.053   6.707  1.00  0.00     0.032 A 
HETATM   13  C   UNL     1      65.751   6.733   7.926  1.00  0.00     0.017 A 
HETATM   14  C   UNL     1      66.388   5.911   8.855  1.00  0.00     0.001 A 
HETATM   15  C   UNL     1      67.649   5.395   8.572  1.00  0.00     0.000 A 
HETATM   16  C   UNL     1      68.269   5.697   7.360  1.00  0.00     0.001 A 
HETATM   17  C   UNL     1      67.634   6.520   6.422  1.00  0.00     0.017 A 
ENDBRANCH   1  12
TORSDOF 2
ENDMDL
MODEL 6
REMARK VINA RESULT:      -5.5     17.604     18.368
REMARK  2 active torsions:
REMARK  status: ('A' for Active; 'I' for Inactive)
REMARK       I    between atoms: C_1  and  N_2 
REMARK    1  A    between atoms: C_1  and  C_4 
REMARK    2  A    between atoms: N_2  and  C_7 
ROOT
HETATM    1  C   UNL     1      63.061   8.206   5.123  1.00  0.00     0.256 C 
HETATM    2  N   UNL     1      63.619   6.979   4.798  1.00  0.00    -0.323 N 
HETATM    3  O   UNL     1      62.906   8.639   6.261  1.00  0.00    -0.267 OA
HETATM    4  H   UNL     1      63.693   6.758   3.841  1.00  0.00     0.169 HD
ENDROOT
BRANCH   2   5
HETATM    5  C   UNL     1      64.093   6.015   5.721  1.00  0.00     0.037 A 
HETATM    6  C   UNL     1      65.308   6.125   6.394  1.00  0.00     0.046 A 
HETATM    7  C   UNL     1      65.688   5.106   7.251  1.00  0.00     0.090 A 
HETATM    8  N   UNL     1      64.950   4.001   7.481  1.00  0.00    -0.375 N 
HETATM    9  C   UNL     1      63.771   3.923   6.832  1.00  0.00     0.090 A 
ATOM     10  HN  UNL     1      65.266   3.265   8.112  1.00  0.00     0.164 HD
HETATM   11  C   UNL     1      63.297   4.897   5.964  1.00  0.00     0.046 A 
ENDBRANCH   2   5
BRANCH   1  12
HETATM   12  C   UNL     1      62.615   9.072   3.993  1.00  0.00     0.032 A 
HETATM   13  C   UNL     1      62.289  10.404   4.296  1.00  0.00     0.017 A 
HETATM   14  C   UNL     1      61.890  11.288   3.294  1.00  0.00     0.001 A 
HETATM   15  C   UNL     1      61.819  10.850   1.975  1.00  0.00     0.000 A 
HETATM   16  C   UNL     1      62.151   9.532   1.659  1.00  0.00     0.001 A 
HETATM   17  C   UNL     1      62.553   8.641   2.661  1.00  0.00     0.017 A 
ENDBRANCH   1  12
TORSDOF 2
ENDMDL
MODEL 7
REMARK VINA RESULT:      -5.2     13.118     14.092
REMARK  2 active torsions:
REMARK  status: ('A' for Active; 'I' for Inactive)
REMARK       I    between atoms: C_1  and  N_2 
REMARK    1  A    between atoms: C_1  and  C_4 
REMARK    2  A    between atoms: N_2  and  C_7 
ROOT
HETATM    1  C   UNL     1      66.367   6.277   7.899  1.00  0.00     0.256 C 
HETATM    2  N   UNL     1      67.251   5.293   7.486  1.00  0.00    -0.323 N 
HETATM    3  O   UNL     1      66.277   6.720   9.041  1.00  0.00    -0.267 OA
HETATM    4  H   UNL     1      67.225   5.036   6.536  1.00  0.00     0.169 HD
ENDROOT
BRANCH   2   5
HETATM    5  C   UNL     1      68.189   4.623   8.309  1.00  0.00     0.037 A 
HETATM    6  C   UNL     1      69.476   5.096   8.552  1.00  0.00     0.046 A 
HETATM    7  C   UNL     1      70.323   4.343   9.349  1.00  0.00     0.090 A 
HETATM    8  N   UNL     1      69.978   3.168   9.913  1.00  0.00    -0.375 N 
HETATM    9  C   UNL     1      68.722   2.736   9.677  1.00  0.00     0.090 A 
ATOM     10  HN  UNL     1      70.631   2.634  10.487  1.00  0.00     0.164 HD
HETATM   11  C   UNL     1      67.798   3.425   8.905  1.00  0.00     0.046 A 
ENDBRANCH   2   5
BRANCH   1  12
HETATM   12  C   UNL     1      65.453   6.849   6.868  1.00  0.00     0.032 A 
HETATM   13  C   UNL     1      65.945   7.911   6.093  1.00  0.00     0.017 A 
HETATM   14  C   UNL     1      65.164   8.484   5.089  1.00  0.00     0.001 A 
HETATM   15  C   UNL     1      63.884   7.996   4.847  1.00  0.00     0.000 A 
HETATM   16  C   UNL     1      63.388   6.934   5.603  1.00  0.00     0.001 A 
HETATM   17  C   UNL     1      64.167   6.354   6.611  1.00  0.00     0.017 A 
ENDBRANCH   1  12
TORSDOF 2
ENDMDL
MODEL 8
REMARK VINA RESULT:      -5.2     12.927     13.899
REMARK  2 active torsions:
REMARK  status: ('A' for Active; 'I' for Inactive)
REMARK       I    between atoms: C_1  and  N_2 
REMARK    1  A    between atoms: C_1  and  C_4 
REMARK    2  A    between atoms: N_2  and  C_7 
ROOT
HETATM    1  C   UNL     1      66.421   6.066   8.019  1.00  0.00     0.256 C 
HETATM    2  N   UNL     1      67.325   5.088   7.634  1.00  0.00    -0.323 N 
HETATM    3  O   UNL     1      66.171   6.388   9.176  1.00  0.00    -0.267 OA
HETATM    4  H   UNL     1      67.438   4.935   6.667  1.00  0.00     0.169 HD
ENDROOT
BRANCH   2   5
HETATM    5  C   UNL     1      68.102   4.289   8.507  1.00  0.00     0.037 A 
HETATM    6  C   UNL     1      67.663   3.078   9.037  1.00  0.00     0.046 A 
HETATM    7  C   UNL     1      68.493   2.393   9.909  1.00  0.00     0.090 A 
HETATM    8  N   UNL     1      69.715   2.826  10.281  1.00  0.00    -0.375 N 
HETATM    9  C   UNL     1      70.126   3.993   9.745  1.00  0.00     0.090 A 
ATOM     10  HN  UNL     1      70.297   2.300  10.934  1.00  0.00     0.164 HD
HETATM   11  C   UNL     1      69.373   4.744   8.854  1.00  0.00     0.046 A 
ENDBRANCH   2   5
BRANCH   1  12
HETATM   12  C   UNL     1      65.696   6.789   6.933  1.00  0.00     0.032 A 
HETATM   13  C   UNL     1      64.339   6.477   6.751  1.00  0.00     0.017 A 
HETATM   14  C   UNL     1      63.582   7.128   5.777  1.00  0.00     0.001 A 
HETATM   15  C   UNL     1      64.174   8.103   4.979  1.00  0.00     0.000 A 
HETATM   16  C   UNL     1      65.518   8.429   5.158  1.00  0.00     0.001 A 
HETATM   17  C   UNL     1      66.282   7.780   6.135  1.00  0.00     0.017 A 
ENDBRANCH   1  12
TORSDOF 2
ENDMDL
MODEL 9
REMARK VINA RESULT:      -5.1     16.641     17.705
REMARK  2 active torsions:
REMARK  status: ('A' for Active; 'I' for Inactive)
REMARK       I    between atoms: C_1  and  N_2 
REMARK    1  A    between atoms: C_1  and  C_4 
REMARK    2  A    between atoms: N_2  and  C_7 
ROOT
HETATM    1  C   UNL     1      64.325   7.147   6.225  1.00  0.00     0.256 C 
HETATM    2  N   UNL     1      64.149   7.370   4.868  1.00  0.00    -0.323 N 
HETATM    3  O   UNL     1      63.503   7.400   7.101  1.00  0.00    -0.267 OA
HETATM    4  H   UNL     1      64.888   7.111   4.271  1.00  0.00     0.169 HD
ENDROOT
BRANCH   2   5
HETATM    5  C   UNL     1      63.001   7.938   4.265  1.00  0.00     0.037 A 
HETATM    6  C   UNL     1      61.915   7.189   3.818  1.00  0.00     0.046 A 
HETATM    7  C   UNL     1      60.857   7.846   3.212  1.00  0.00     0.090 A 
HETATM    8  N   UNL     1      60.808   9.181   3.026  1.00  0.00    -0.375 N 
HETATM    9  C   UNL     1      61.862   9.888   3.479  1.00  0.00     0.090 A 
ATOM     10  HN  UNL     1      60.016   9.631   2.567  1.00  0.00     0.164 HD
HETATM   11  C   UNL     1      62.961   9.323   4.110  1.00  0.00     0.046 A 
ENDBRANCH   2   5
BRANCH   1  12
HETATM   12  C   UNL     1      65.620   6.543   6.654  1.00  0.00     0.032 A 
HETATM   13  C   UNL     1      66.372   5.875   5.675  1.00  0.00     0.017 A 
HETATM   14  C   UNL     1      67.607   5.308   5.987  1.00  0.00     0.001 A 
HETATM   15  C   UNL     1      68.106   5.407   7.282  1.00  0.00     0.000 A 
HETATM   16  C   UNL     1      67.373   6.077   8.261  1.00  0.00     0.001 A 
HETATM   17  C   UNL     1      66.134   6.651   7.953  1.00  0.00     0.017 A 
ENDBRANCH   1  12
TORSDOF 2
ENDMDL
