MODEL 1
REMARK VINA RESULT:      -5.2      0.000      0.000
REMARK  1 active torsions:
REMARK  status: ('A' for Active; 'I' for Inactive)
REMARK    1  A    between atoms: C_8  and  O_9 
ROOT
HETATM    1  C   UNL     1      62.921   8.464   3.162  1.00  0.00     0.056 A 
HETATM    2  C   UNL     1      62.252   9.372   2.305  1.00  0.00    -0.038 A 
HETATM    3  C   UNL     1      63.236   8.845   4.484  1.00  0.00    -0.038 A 
HETATM    4  N   UNL     1      63.570   6.098   2.304  1.00  0.00    -0.191 NA
HETATM    5  C   UNL     1      63.280   7.153   2.686  1.00  0.00     0.100 C 
HETATM    6  C   UNL     1      62.880  10.127   4.933  1.00  0.00     0.044 A 
HETATM    7  C   UNL     1      61.911  10.651   2.785  1.00  0.00     0.044 A 
HETATM    8  C   UNL     1      62.227  11.014   4.088  1.00  0.00     0.066 A 
HETATM    9  C   UNL     1      63.946   7.941   5.457  1.00  0.00     0.050 C 
HETATM   10  C   UNL     1      61.881   9.031   0.885  1.00  0.00     0.050 C 
ENDROOT
BRANCH   8  11
HETATM   11  O   UNL     1      61.914  12.242   4.590  1.00  0.00    -0.361 OA
HETATM   12  H   UNL     1      62.355  12.563   5.352  1.00  0.00     0.217 HD
ENDBRANCH   8  11
TORSDOF 1
ENDMDL
MODEL 2
REMARK VINA RESULT:      -5.1      0.067      2.635
REMARK  1 active torsions:
REMARK  status: ('A' for Active; 'I' for Inactive)
REMARK    1  A    between atoms: C_8  and  O_9 
ROOT
HETATM    1  C   UNL     1      62.954   8.470   3.199  1.00  0.00     0.056 A 
HETATM    2  C   UNL     1      63.291   8.836   4.525  1.00  0.00    -0.038 A 
HETATM    3  C   UNL     1      62.271   9.384   2.367  1.00  0.00    -0.038 A 
HETATM    4  N   UNL     1      63.587   6.117   2.294  1.00  0.00    -0.191 NA
HETATM    5  C   UNL     1      63.305   7.166   2.698  1.00  0.00     0.100 C 
HETATM    6  C   UNL     1      61.935  10.651   2.871  1.00  0.00     0.044 A 
HETATM    7  C   UNL     1      62.936  10.114   5.000  1.00  0.00     0.044 A 
HETATM    8  C   UNL     1      62.265  11.004   4.172  1.00  0.00     0.066 A 
HETATM    9  C   UNL     1      61.876   9.073   0.948  1.00  0.00     0.050 C 
HETATM   10  C   UNL     1      64.022   7.913   5.466  1.00  0.00     0.050 C 
ENDROOT
BRANCH   8  11
HETATM   11  O   UNL     1      61.905  12.249   4.594  1.00  0.00    -0.361 OA
HETATM   12  H   UNL     1      61.058  12.589   4.382  1.00  0.00     0.217 HD
ENDBRANCH   8  11
TORSDOF 1
ENDMDL
MODEL 3
REMARK VINA RESULT:      -4.9      2.269      3.294
REMARK  1 active torsions:
REMARK  status: ('A' for Active; 'I' for Inactive)
REMARK    1  A    between atoms: C_8  and  O_9 
ROOT
HETATM    1  C   UNL     1      63.678   8.794   4.376  1.00  0.00     0.056 A 
HETATM    2  C   UNL     1      62.759   9.868   4.461  1.00  0.00    -0.038 A 
HETATM    3  C   UNL     1      63.501   7.791   3.398  1.00  0.00    -0.038 A 
HETATM    4  N   UNL     1      65.691   8.665   6.015  1.00  0.00    -0.191 NA
HETATM    5  C   UNL     1      64.794   8.723   5.284  1.00  0.00     0.100 C 
HETATM    6  C   UNL     1      62.407   7.873   2.520  1.00  0.00     0.044 A 
HETATM    7  C   UNL     1      61.672   9.919   3.567  1.00  0.00     0.044 A 
HETATM    8  C   UNL     1      61.508   8.926   2.610  1.00  0.00     0.066 A 
HETATM    9  C   UNL     1      64.431   6.616   3.241  1.00  0.00     0.050 C 
HETATM   10  C   UNL     1      62.889  10.975   5.476  1.00  0.00     0.050 C 
ENDROOT
BRANCH   8  11
HETATM   11  O   UNL     1      60.470   8.941   1.727  1.00  0.00    -0.361 OA
HETATM   12  H   UNL     1      59.664   9.358   1.959  1.00  0.00     0.217 HD
ENDBRANCH   8  11
TORSDOF 1
ENDMDL
MODEL 4
REMARK VINA RESULT:      -4.9      2.252      3.214
REMARK  1 active torsions:
REMARK  status: ('A' for Active; 'I' for Inactive)
REMARK    1  A    between atoms: C_8  and  O_9 
ROOT
HETATM    1  C   UNL     1      63.622   8.795   4.288  1.00  0.00     0.056 A 
HETATM    2  C   UNL     1      63.467   7.771   3.323  1.00  0.00    -0.038 A 
HETATM    3  C   UNL     1      62.703   9.865   4.334  1.00  0.00    -0.038 A 
HETATM    4  N   UNL     1      65.600   8.711   5.973  1.00  0.00    -0.191 NA
HETATM    5  C   UNL     1      64.718   8.748   5.222  1.00  0.00     0.100 C 
HETATM    6  C   UNL     1      61.640   9.897   3.416  1.00  0.00     0.044 A 
HETATM    7  C   UNL     1      62.392   7.834   2.415  1.00  0.00     0.044 A 
HETATM    8  C   UNL     1      61.493   8.892   2.471  1.00  0.00     0.066 A 
HETATM    9  C   UNL     1      62.797  10.994   5.327  1.00  0.00     0.050 C 
HETATM   10  C   UNL     1      64.408   6.598   3.219  1.00  0.00     0.050 C 
ENDROOT
BRANCH   8  11
HETATM   11  O   UNL     1      60.440   8.989   1.611  1.00  0.00    -0.361 OA
HETATM   12  H   UNL     1      59.708   9.533   1.827  1.00  0.00     0.217 HD
ENDBRANCH   8  11
TORSDOF 1
ENDMDL
MODEL 5
REMARK VINA RESULT:      -4.8      2.781      4.213
REMARK  1 active torsions:
REMARK  status: ('A' for Active; 'I' for Inactive)
REMARK    1  A    between atoms: C_8  and  O_9 
ROOT
HETATM    1  C   UNL     1      62.635   9.478   3.569  1.00  0.00     0.056 A 
HETATM    2  C   UNL     1      62.971   8.106   3.486  1.00  0.00    -0.038 A 
HETATM    3  C   UNL     1      62.116  10.147   2.439  1.00  0.00    -0.038 A 
HETATM    4  N   UNL     1      62.973  10.772   5.799  1.00  0.00    -0.191 NA
HETATM    5  C   UNL     1      62.822  10.195   4.805  1.00  0.00     0.100 C 
HETATM    6  C   UNL     1      61.940   9.436   1.241  1.00  0.00     0.044 A 
HETATM    7  C   UNL     1      62.785   7.422   2.269  1.00  0.00     0.044 A 
HETATM    8  C   UNL     1      62.274   8.091   1.164  1.00  0.00     0.066 A 
HETATM    9  C   UNL     1      61.735  11.604   2.444  1.00  0.00     0.050 C 
HETATM   10  C   UNL     1      63.525   7.329   4.652  1.00  0.00     0.050 C 
ENDROOT
BRANCH   8  11
HETATM   11  O   UNL     1      62.079   7.464  -0.031  1.00  0.00    -0.361 OA
HETATM   12  H   UNL     1      61.832   6.560  -0.051  1.00  0.00     0.217 HD
ENDBRANCH   8  11
TORSDOF 1
ENDMDL
MODEL 6
REMARK VINA RESULT:      -4.7      2.781      3.548
REMARK  1 active torsions:
REMARK  status: ('A' for Active; 'I' for Inactive)
REMARK    1  A    between atoms: C_8  and  O_9 
ROOT
HETATM    1  C   UNL     1      62.268   9.967   2.993  1.00  0.00     0.056 A 
HETATM    2  C   UNL     1      62.266   8.789   2.209  1.00  0.00    -0.038 A 
HETATM    3  C   UNL     1      62.609   9.902   4.362  1.00  0.00    -0.038 A 
HETATM    4  N   UNL     1      61.642  12.251   1.921  1.00  0.00    -0.191 NA
HETATM    5  C   UNL     1      61.921  11.232   2.399  1.00  0.00     0.100 C 
HETATM    6  C   UNL     1      62.944   8.660   4.927  1.00  0.00     0.044 A 
HETATM    7  C   UNL     1      62.603   7.559   2.807  1.00  0.00     0.044 A 
HETATM    8  C   UNL     1      62.938   7.508   4.154  1.00  0.00     0.066 A 
HETATM    9  C   UNL     1      62.635  11.106   5.265  1.00  0.00     0.050 C 
HETATM   10  C   UNL     1      61.915   8.785   0.742  1.00  0.00     0.050 C 
ENDROOT
BRANCH   8  11
HETATM   11  O   UNL     1      63.271   6.339   4.770  1.00  0.00    -0.361 OA
HETATM   12  H   UNL     1      62.750   5.572   4.632  1.00  0.00     0.217 HD
ENDBRANCH   8  11
TORSDOF 1
ENDMDL
MODEL 7
REMARK VINA RESULT:      -4.7      2.785      4.213
REMARK  1 active torsions:
REMARK  status: ('A' for Active; 'I' for Inactive)
REMARK    1  A    between atoms: C_8  and  O_9 
ROOT
HETATM    1  C   UNL     1      62.266   9.967   3.030  1.00  0.00     0.056 A 
HETATM    2  C   UNL     1      62.613   9.910   4.401  1.00  0.00    -0.038 A 
HETATM    3  C   UNL     1      62.258   8.787   2.255  1.00  0.00    -0.038 A 
HETATM    4  N   UNL     1      61.646  12.241   1.934  1.00  0.00    -0.191 NA
HETATM    5  C   UNL     1      61.922  11.227   2.423  1.00  0.00     0.100 C 
HETATM    6  C   UNL     1      62.597   7.566   2.860  1.00  0.00     0.044 A 
HETATM    7  C   UNL     1      62.951   8.670   4.977  1.00  0.00     0.044 A 
HETATM    8  C   UNL     1      62.939   7.516   4.204  1.00  0.00     0.066 A 
HETATM    9  C   UNL     1      61.903   8.761   0.791  1.00  0.00     0.050 C 
HETATM   10  C   UNL     1      62.639  11.129   5.288  1.00  0.00     0.050 C 
ENDROOT
BRANCH   8  11
HETATM   11  O   UNL     1      63.259   6.297   4.725  1.00  0.00    -0.361 OA
HETATM   12  H   UNL     1      63.569   5.615   4.163  1.00  0.00     0.217 HD
ENDBRANCH   8  11
TORSDOF 1
ENDMDL
MODEL 8
REMARK VINA RESULT:      -4.6      8.636     10.247
REMARK  1 active torsions:
REMARK  status: ('A' for Active; 'I' for Inactive)
REMARK    1  A    between atoms: C_8  and  O_9 
ROOT
HETATM    1  C   UNL     1      68.482   3.702   7.695  1.00  0.00     0.056 A 
HETATM    2  C   UNL     1      68.834   2.331   7.708  1.00  0.00    -0.038 A 
HETATM    3  C   UNL     1      68.631   4.479   8.864  1.00  0.00    -0.038 A 
HETATM    4  N   UNL     1      67.558   4.792   5.523  1.00  0.00    -0.191 NA
HETATM    5  C   UNL     1      67.970   4.306   6.492  1.00  0.00     0.100 C 
HETATM    6  C   UNL     1      69.130   3.875  10.031  1.00  0.00     0.044 A 
HETATM    7  C   UNL     1      69.328   1.755   8.894  1.00  0.00     0.044 A 
HETATM    8  C   UNL     1      69.471   2.530  10.038  1.00  0.00     0.066 A 
HETATM    9  C   UNL     1      68.280   5.942   8.935  1.00  0.00     0.050 C 
HETATM   10  C   UNL     1      68.704   1.443   6.496  1.00  0.00     0.050 C 
ENDROOT
BRANCH   8  11
HETATM   11  O   UNL     1      69.947   2.011  11.205  1.00  0.00    -0.361 OA
HETATM   12  H   UNL     1      70.398   1.189  11.203  1.00  0.00     0.217 HD
ENDBRANCH   8  11
TORSDOF 1
ENDMDL
MODEL 9
REMARK VINA RESULT:      -4.5      7.638      9.303
REMARK  1 active torsions:
REMARK  status: ('A' for Active; 'I' for Inactive)
REMARK    1  A    between atoms: C_8  and  O_9 
ROOT
HETATM    1  C   UNL     1      68.122   4.454   7.128  1.00  0.00     0.056 A 
HETATM    2  C   UNL     1      68.008   5.341   8.225  1.00  0.00    -0.038 A 
HETATM    3  C   UNL     1      68.789   3.220   7.286  1.00  0.00    -0.038 A 
HETATM    4  N   UNL     1      67.106   5.093   4.822  1.00  0.00    -0.191 NA
HETATM    5  C   UNL     1      67.558   4.809   5.850  1.00  0.00     0.100 C 
HETATM    6  C   UNL     1      69.334   2.889   8.537  1.00  0.00     0.044 A 
HETATM    7  C   UNL     1      68.568   4.981   9.466  1.00  0.00     0.044 A 
HETATM    8  C   UNL     1      69.222   3.764   9.609  1.00  0.00     0.066 A 
HETATM    9  C   UNL     1      68.954   2.222   6.170  1.00  0.00     0.050 C 
HETATM   10  C   UNL     1      67.306   6.672   8.130  1.00  0.00     0.050 C 
ENDROOT
BRANCH   8  11
HETATM   11  O   UNL     1      69.776   3.378  10.793  1.00  0.00    -0.361 OA
HETATM   12  H   UNL     1      70.460   3.890  11.179  1.00  0.00     0.217 HD
ENDBRANCH   8  11
TORSDOF 1
ENDMDL
