MODEL 1
REMARK VINA RESULT:      -5.0      0.000      0.000
REMARK  2 active torsions:
REMARK  status: ('A' for Active; 'I' for Inactive)
REMARK    1  A    between atoms: C_1  and  C_2 
REMARK    2  A    between atoms: C_4  and  N_5 
ROOT
HETATM    1  C   UNL     1      77.281  11.616  19.022  1.00  0.00    -0.048 A 
HETATM    2  C   UNL     1      78.485  11.296  19.680  1.00  0.00     0.037 A 
HETATM    3  C   UNL     1      79.240  10.163  19.345  1.00  0.00     0.026 A 
HETATM    4  C   UNL     1      76.880  10.772  17.970  1.00  0.00     0.008 A 
HETATM    5  C   UNL     1      77.656   9.676  17.585  1.00  0.00     0.003 A 
HETATM    6  C   UNL     1      78.842   9.389  18.258  1.00  0.00     0.029 A 
ENDROOT
BRANCH   1   7
HETATM    7  C   UNL     1      76.436  12.845  19.396  1.00  0.00    -0.024 C 
HETATM    8  C   UNL     1      77.124  14.192  19.079  1.00  0.00     0.019 C 
HETATM    9  C   UNL     1      75.104  12.817  18.615  1.00  0.00     0.019 C 
HETATM   10  C   UNL     1      76.131  12.837  20.909  1.00  0.00     0.019 C 
ENDBRANCH   1   7
BRANCH   3  11
HETATM   11  N   UNL     1      80.492   9.955  19.941  1.00  0.00    -0.399 N 
HETATM   12  H   UNL     1      80.551   9.733  20.898  1.00  0.00     0.156 HD
HETATM   13  H   UNL     1      81.312  10.029  19.402  1.00  0.00     0.156 HD
ENDBRANCH   3  11
TORSDOF 2
ENDMDL
MODEL 2
REMARK VINA RESULT:      -4.6     19.746     21.113
REMARK  2 active torsions:
REMARK  status: ('A' for Active; 'I' for Inactive)
REMARK    1  A    between atoms: C_1  and  C_2 
REMARK    2  A    between atoms: C_4  and  N_5 
ROOT
HETATM    1  C   UNL     1      63.326   8.533   4.055  1.00  0.00    -0.048 A 
HETATM    2  C   UNL     1      63.704   9.365   5.127  1.00  0.00     0.037 A 
HETATM    3  C   UNL     1      63.224  10.675   5.260  1.00  0.00     0.026 A 
HETATM    4  C   UNL     1      62.402   9.056   3.132  1.00  0.00     0.008 A 
HETATM    5  C   UNL     1      61.868  10.338   3.288  1.00  0.00     0.003 A 
HETATM    6  C   UNL     1      62.263  11.133   4.362  1.00  0.00     0.029 A 
ENDROOT
BRANCH   1   7
HETATM    7  C   UNL     1      63.862   7.101   3.889  1.00  0.00    -0.024 C 
HETATM    8  C   UNL     1      63.193   6.075   4.831  1.00  0.00     0.019 C 
HETATM    9  C   UNL     1      63.620   6.620   2.442  1.00  0.00     0.019 C 
HETATM   10  C   UNL     1      65.377   7.067   4.184  1.00  0.00     0.019 C 
ENDBRANCH   1   7
BRANCH   3  11
HETATM   11  N   UNL     1      63.529  11.419   6.409  1.00  0.00    -0.399 N 
HETATM   12  H   UNL     1      63.613  10.968   7.280  1.00  0.00     0.156 HD
HETATM   13  H   UNL     1      63.660  12.393   6.345  1.00  0.00     0.156 HD
ENDBRANCH   3  11
TORSDOF 2
ENDMDL
MODEL 3
REMARK VINA RESULT:      -4.6     21.368     22.920
REMARK  2 active torsions:
REMARK  status: ('A' for Active; 'I' for Inactive)
REMARK    1  A    between atoms: C_1  and  C_2 
REMARK    2  A    between atoms: C_4  and  N_5 
ROOT
HETATM    1  C   UNL     1      62.147   9.136   2.262  1.00  0.00    -0.048 A 
HETATM    2  C   UNL     1      62.578   8.874   3.577  1.00  0.00     0.037 A 
HETATM    3  C   UNL     1      62.682   9.885   4.543  1.00  0.00     0.026 A 
HETATM    4  C   UNL     1      61.775  10.458   1.959  1.00  0.00     0.008 A 
HETATM    5  C   UNL     1      61.814  11.462   2.930  1.00  0.00     0.003 A 
HETATM    6  C   UNL     1      62.246  11.168   4.222  1.00  0.00     0.029 A 
ENDROOT
BRANCH   1   7
HETATM    7  C   UNL     1      62.048   8.038   1.190  1.00  0.00    -0.024 C 
HETATM    8  C   UNL     1      62.725   8.413  -0.148  1.00  0.00     0.019 C 
HETATM    9  C   UNL     1      62.730   6.750   1.701  1.00  0.00     0.019 C 
HETATM   10  C   UNL     1      60.567   7.732   0.879  1.00  0.00     0.019 C 
ENDBRANCH   1   7
BRANCH   3  11
HETATM   11  N   UNL     1      62.995   9.556   5.870  1.00  0.00    -0.399 N 
HETATM   12  H   UNL     1      63.864   9.147   6.084  1.00  0.00     0.156 HD
HETATM   13  H   UNL     1      62.346   9.736   6.588  1.00  0.00     0.156 HD
ENDBRANCH   3  11
TORSDOF 2
ENDMDL
MODEL 4
REMARK VINA RESULT:      -4.5     19.654     21.215
REMARK  2 active torsions:
REMARK  status: ('A' for Active; 'I' for Inactive)
REMARK    1  A    between atoms: C_1  and  C_2 
REMARK    2  A    between atoms: C_4  and  N_5 
ROOT
HETATM    1  C   UNL     1      63.461   8.881   4.534  1.00  0.00    -0.048 A 
HETATM    2  C   UNL     1      62.765   8.842   3.309  1.00  0.00     0.037 A 
HETATM    3  C   UNL     1      61.932   9.888   2.891  1.00  0.00     0.026 A 
HETATM    4  C   UNL     1      63.323  10.044   5.313  1.00  0.00     0.008 A 
HETATM    5  C   UNL     1      62.546  11.120   4.878  1.00  0.00     0.003 A 
HETATM    6  C   UNL     1      61.872  11.048   3.661  1.00  0.00     0.029 A 
ENDROOT
BRANCH   1   7
HETATM    7  C   UNL     1      64.362   7.729   5.011  1.00  0.00    -0.024 C 
HETATM    8  C   UNL     1      65.720   8.197   5.579  1.00  0.00     0.019 C 
HETATM    9  C   UNL     1      63.647   6.939   6.127  1.00  0.00     0.019 C 
HETATM   10  C   UNL     1      64.667   6.775   3.836  1.00  0.00     0.019 C 
ENDBRANCH   1   7
BRANCH   3  11
HETATM   11  N   UNL     1      61.361   9.860   1.610  1.00  0.00    -0.399 N 
HETATM   12  H   UNL     1      61.898  10.114   0.826  1.00  0.00     0.156 HD
HETATM   13  H   UNL     1      60.423   9.584   1.496  1.00  0.00     0.156 HD
ENDBRANCH   3  11
TORSDOF 2
ENDMDL
MODEL 5
REMARK VINA RESULT:      -4.3     20.741     22.120
REMARK  2 active torsions:
REMARK  status: ('A' for Active; 'I' for Inactive)
REMARK    1  A    between atoms: C_1  and  C_2 
REMARK    2  A    between atoms: C_4  and  N_5 
ROOT
HETATM    1  C   UNL     1      62.881   8.723   3.430  1.00  0.00    -0.048 A 
HETATM    2  C   UNL     1      63.107   7.557   2.672  1.00  0.00     0.037 A 
HETATM    3  C   UNL     1      62.658   7.427   1.351  1.00  0.00     0.026 A 
HETATM    4  C   UNL     1      62.216   9.785   2.791  1.00  0.00     0.008 A 
HETATM    5  C   UNL     1      61.818   9.691   1.454  1.00  0.00     0.003 A 
HETATM    6  C   UNL     1      62.059   8.524   0.734  1.00  0.00     0.029 A 
ENDROOT
BRANCH   1   7
HETATM    7  C   UNL     1      63.353   8.867   4.886  1.00  0.00    -0.024 C 
HETATM    8  C   UNL     1      64.869   8.635   5.074  1.00  0.00     0.019 C 
HETATM    9  C   UNL     1      63.042  10.291   5.395  1.00  0.00     0.019 C 
HETATM   10  C   UNL     1      62.624   7.843   5.783  1.00  0.00     0.019 C 
ENDBRANCH   1   7
BRANCH   3  11
HETATM   11  N   UNL     1      63.016   6.301   0.597  1.00  0.00    -0.399 N 
HETATM   12  H   UNL     1      62.685   5.410   0.855  1.00  0.00     0.156 HD
HETATM   13  H   UNL     1      63.596   6.400  -0.192  1.00  0.00     0.156 HD
ENDBRANCH   3  11
TORSDOF 2
ENDMDL
MODEL 6
REMARK VINA RESULT:      -4.2     22.415     23.940
REMARK  2 active torsions:
REMARK  status: ('A' for Active; 'I' for Inactive)
REMARK    1  A    between atoms: C_1  and  C_2 
REMARK    2  A    between atoms: C_4  and  N_5 
ROOT
HETATM    1  C   UNL     1      61.631   8.503   1.792  1.00  0.00    -0.048 A 
HETATM    2  C   UNL     1      61.619   9.857   1.402  1.00  0.00     0.037 A 
HETATM    3  C   UNL     1      61.776  10.900   2.325  1.00  0.00     0.026 A 
HETATM    4  C   UNL     1      61.853   8.229   3.154  1.00  0.00     0.008 A 
HETATM    5  C   UNL     1      62.074   9.258   4.073  1.00  0.00     0.003 A 
HETATM    6  C   UNL     1      62.056  10.586   3.653  1.00  0.00     0.029 A 
ENDROOT
BRANCH   1   7
HETATM    7  C   UNL     1      61.440   7.352   0.790  1.00  0.00    -0.024 C 
HETATM    8  C   UNL     1      61.556   5.949   1.426  1.00  0.00     0.019 C 
HETATM    9  C   UNL     1      60.039   7.449   0.149  1.00  0.00     0.019 C 
HETATM   10  C   UNL     1      62.508   7.435  -0.322  1.00  0.00     0.019 C 
ENDBRANCH   1   7
BRANCH   3  11
HETATM   11  N   UNL     1      61.883  12.224   1.874  1.00  0.00    -0.399 N 
HETATM   12  H   UNL     1      61.180  12.876   2.092  1.00  0.00     0.156 HD
HETATM   13  H   UNL     1      62.663  12.500   1.340  1.00  0.00     0.156 HD
ENDBRANCH   3  11
TORSDOF 2
ENDMDL
MODEL 7
REMARK VINA RESULT:      -4.2      6.664      8.072
REMARK  2 active torsions:
REMARK  status: ('A' for Active; 'I' for Inactive)
REMARK    1  A    between atoms: C_1  and  C_2 
REMARK    2  A    between atoms: C_4  and  N_5 
ROOT
HETATM    1  C   UNL     1      78.733  10.915  26.481  1.00  0.00    -0.048 A 
HETATM    2  C   UNL     1      79.301  11.453  25.309  1.00  0.00     0.037 A 
HETATM    3  C   UNL     1      80.413  12.305  25.343  1.00  0.00     0.026 A 
HETATM    4  C   UNL     1      79.357  11.233  27.701  1.00  0.00     0.008 A 
HETATM    5  C   UNL     1      80.503  12.030  27.742  1.00  0.00     0.003 A 
HETATM    6  C   UNL     1      81.039  12.545  26.564  1.00  0.00     0.029 A 
ENDROOT
BRANCH   1   7
HETATM    7  C   UNL     1      77.501   9.995  26.456  1.00  0.00    -0.024 C 
HETATM    8  C   UNL     1      77.006   9.658  25.031  1.00  0.00     0.019 C 
HETATM    9  C   UNL     1      77.837   8.657  27.150  1.00  0.00     0.019 C 
HETATM   10  C   UNL     1      76.325  10.665  27.198  1.00  0.00     0.019 C 
ENDBRANCH   1   7
BRANCH   3  11
HETATM   11  N   UNL     1      81.019  12.714  24.146  1.00  0.00    -0.399 N 
HETATM   12  H   UNL     1      81.640  13.477  24.144  1.00  0.00     0.156 HD
HETATM   13  H   UNL     1      80.824  12.236  23.307  1.00  0.00     0.156 HD
ENDBRANCH   3  11
TORSDOF 2
ENDMDL
MODEL 8
REMARK VINA RESULT:      -4.1     14.994     16.300
REMARK  2 active torsions:
REMARK  status: ('A' for Active; 'I' for Inactive)
REMARK    1  A    between atoms: C_1  and  C_2 
REMARK    2  A    between atoms: C_4  and  N_5 
ROOT
HETATM    1  C   UNL     1      67.827   4.891   7.983  1.00  0.00    -0.048 A 
HETATM    2  C   UNL     1      67.356   3.712   8.593  1.00  0.00     0.037 A 
HETATM    3  C   UNL     1      68.168   2.925   9.421  1.00  0.00     0.026 A 
HETATM    4  C   UNL     1      69.146   5.282   8.274  1.00  0.00     0.008 A 
HETATM    5  C   UNL     1      69.946   4.540   9.148  1.00  0.00     0.003 A 
HETATM    6  C   UNL     1      69.447   3.378   9.734  1.00  0.00     0.029 A 
ENDROOT
BRANCH   1   7
HETATM    7  C   UNL     1      66.949   5.750   7.057  1.00  0.00    -0.024 C 
HETATM    8  C   UNL     1      66.766   7.204   7.548  1.00  0.00     0.019 C 
HETATM    9  C   UNL     1      67.587   5.818   5.653  1.00  0.00     0.019 C 
HETATM   10  C   UNL     1      65.540   5.131   6.939  1.00  0.00     0.019 C 
ENDBRANCH   1   7
BRANCH   3  11
HETATM   11  N   UNL     1      67.620   1.830  10.105  1.00  0.00    -0.399 N 
HETATM   12  H   UNL     1      66.771   1.436   9.801  1.00  0.00     0.156 HD
HETATM   13  H   UNL     1      68.084   1.455  10.888  1.00  0.00     0.156 HD
ENDBRANCH   3  11
TORSDOF 2
ENDMDL
MODEL 9
REMARK VINA RESULT:      -4.1      8.977     11.074
REMARK  2 active torsions:
REMARK  status: ('A' for Active; 'I' for Inactive)
REMARK    1  A    between atoms: C_1  and  C_2 
REMARK    2  A    between atoms: C_4  and  N_5 
ROOT
HETATM    1  C   UNL     1      75.651   1.067  16.822  1.00  0.00    -0.048 A 
HETATM    2  C   UNL     1      76.785   0.956  17.651  1.00  0.00     0.037 A 
HETATM    3  C   UNL     1      77.378   2.073  18.255  1.00  0.00     0.026 A 
HETATM    4  C   UNL     1      75.100   2.350  16.655  1.00  0.00     0.008 A 
HETATM    5  C   UNL     1      75.645   3.462  17.303  1.00  0.00     0.003 A 
HETATM    6  C   UNL     1      76.767   3.316  18.116  1.00  0.00     0.029 A 
ENDROOT
BRANCH   1   7
HETATM    7  C   UNL     1      75.005  -0.150  16.138  1.00  0.00    -0.024 C 
HETATM    8  C   UNL     1      73.725  -0.652  16.844  1.00  0.00     0.019 C 
HETATM    9  C   UNL     1      74.615   0.214  14.690  1.00  0.00     0.019 C 
HETATM   10  C   UNL     1      75.999  -1.331  16.110  1.00  0.00     0.019 C 
ENDBRANCH   1   7
BRANCH   3  11
HETATM   11  N   UNL     1      78.426   1.899  19.171  1.00  0.00    -0.399 N 
HETATM   12  H   UNL     1      78.262   1.440  20.026  1.00  0.00     0.156 HD
HETATM   13  H   UNL     1      79.327   2.235  18.958  1.00  0.00     0.156 HD
ENDBRANCH   3  11
TORSDOF 2
ENDMDL
