MODEL 1
REMARK VINA RESULT:      -5.3      0.000      0.000
REMARK  2 active torsions:
REMARK  status: ('A' for Active; 'I' for Inactive)
REMARK    1  A    between atoms: C_1  and  C_2 
REMARK    2  A    between atoms: C_3  and  N_9 
ROOT
HETATM    1  C   UNL     1      77.512  11.912  19.804  1.00  0.00     0.076 A 
HETATM    2  C   UNL     1      78.704  12.064  20.524  1.00  0.00     0.056 A 
HETATM    3  N   UNL     1      79.617  10.091  19.400  1.00  0.00    -0.373 N 
ATOM      4  HN  UNL     1      80.387   9.436  19.262  1.00  0.00     0.164 HD
HETATM    5  C   UNL     1      77.413  10.870  18.860  1.00  0.00     0.035 A 
HETATM    6  C   UNL     1      79.690  11.095  20.305  1.00  0.00     0.117 A 
HETATM    7  C   UNL     1      78.478  10.003  18.693  1.00  0.00     0.088 A 
ENDROOT
BRANCH   1   8
HETATM    8  C   UNL     1      76.327  12.823  19.967  1.00  0.00     0.419 C 
HETATM    9  F   UNL     1      76.598  14.151  19.816  1.00  0.00    -0.166 F 
HETATM   10  F   UNL     1      75.733  12.699  21.188  1.00  0.00    -0.166 F 
HETATM   11  F   UNL     1      75.346  12.553  19.056  1.00  0.00    -0.166 F 
ENDBRANCH   1   8
BRANCH   2  12
HETATM   12  N   UNL     1      78.842  12.969  21.583  1.00  0.00    -0.397 N 
HETATM   13  H   UNL     1      79.678  13.481  21.687  1.00  0.00     0.156 HD
HETATM   14  H   UNL     1      78.106  13.093  22.223  1.00  0.00     0.156 HD
ENDBRANCH   2  12
TORSDOF 2
ENDMDL
MODEL 2
REMARK VINA RESULT:      -5.2      2.560      3.527
REMARK  2 active torsions:
REMARK  status: ('A' for Active; 'I' for Inactive)
REMARK    1  A    between atoms: C_1  and  C_2 
REMARK    2  A    between atoms: C_3  and  N_9 
ROOT
HETATM    1  C   UNL     1      77.524  11.285  19.174  1.00  0.00     0.076 A 
HETATM    2  C   UNL     1      78.264  11.782  20.254  1.00  0.00     0.056 A 
HETATM    3  N   UNL     1      76.898  13.812  20.237  1.00  0.00    -0.373 N 
ATOM      4  HN  UNL     1      76.680  14.728  20.630  1.00  0.00     0.164 HD
HETATM    5  C   UNL     1      76.451  12.049  18.673  1.00  0.00     0.035 A 
HETATM    6  C   UNL     1      77.926  13.064  20.701  1.00  0.00     0.117 A 
HETATM    7  C   UNL     1      76.178  13.285  19.232  1.00  0.00     0.088 A 
ENDROOT
BRANCH   1   8
HETATM    8  C   UNL     1      77.797   9.955  18.528  1.00  0.00     0.419 C 
HETATM    9  F   UNL     1      79.109   9.717  18.235  1.00  0.00    -0.166 F 
HETATM   10  F   UNL     1      77.118   9.791  17.357  1.00  0.00    -0.166 F 
HETATM   11  F   UNL     1      77.414   8.912  19.321  1.00  0.00    -0.166 F 
ENDBRANCH   1   8
BRANCH   2  12
HETATM   12  N   UNL     1      79.433  11.169  20.721  1.00  0.00    -0.397 N 
HETATM   13  H   UNL     1      79.417  10.656  21.562  1.00  0.00     0.156 HD
HETATM   14  H   UNL     1      80.270  11.252  20.211  1.00  0.00     0.156 HD
ENDBRANCH   2  12
TORSDOF 2
ENDMDL
MODEL 3
REMARK VINA RESULT:      -5.0      1.338      2.522
REMARK  2 active torsions:
REMARK  status: ('A' for Active; 'I' for Inactive)
REMARK    1  A    between atoms: C_1  and  C_2 
REMARK    2  A    between atoms: C_3  and  N_9 
ROOT
HETATM    1  C   UNL     1      77.833  12.485  20.245  1.00  0.00     0.076 A 
HETATM    2  C   UNL     1      78.203  11.300  19.597  1.00  0.00     0.056 A 
HETATM    3  N   UNL     1      80.161  11.130  21.056  1.00  0.00    -0.373 N 
ATOM      4  HN  UNL     1      81.003  10.631  21.341  1.00  0.00     0.164 HD
HETATM    5  C   UNL     1      78.617  12.948  21.321  1.00  0.00     0.035 A 
HETATM    6  C   UNL     1      79.396  10.706  20.023  1.00  0.00     0.117 A 
HETATM    7  C   UNL     1      79.750  12.244  21.687  1.00  0.00     0.088 A 
ENDROOT
BRANCH   1   8
HETATM    8  C   UNL     1      76.618  13.288  19.870  1.00  0.00     0.419 C 
HETATM    9  F   UNL     1      75.491  12.553  19.644  1.00  0.00    -0.166 F 
HETATM   10  F   UNL     1      76.809  14.034  18.744  1.00  0.00    -0.166 F 
HETATM   11  F   UNL     1      76.273  14.180  20.844  1.00  0.00    -0.166 F 
ENDBRANCH   1   8
BRANCH   2  12
HETATM   12  N   UNL     1      77.578  10.844  18.431  1.00  0.00    -0.397 N 
HETATM   13  H   UNL     1      77.812   9.963  18.058  1.00  0.00     0.156 HD
HETATM   14  H   UNL     1      76.904  11.405  17.982  1.00  0.00     0.156 HD
ENDBRANCH   2  12
TORSDOF 2
ENDMDL
MODEL 4
REMARK VINA RESULT:      -5.0      2.654      3.563
REMARK  2 active torsions:
REMARK  status: ('A' for Active; 'I' for Inactive)
REMARK    1  A    between atoms: C_1  and  C_2 
REMARK    2  A    between atoms: C_3  and  N_9 
ROOT
HETATM    1  C   UNL     1      78.548  12.348  21.090  1.00  0.00     0.076 A 
HETATM    2  C   UNL     1      78.845  11.403  20.100  1.00  0.00     0.056 A 
HETATM    3  N   UNL     1      76.646  11.782  19.097  1.00  0.00    -0.373 N 
ATOM      4  HN  UNL     1      75.964  11.568  18.370  1.00  0.00     0.164 HD
HETATM    5  C   UNL     1      77.313  13.026  21.037  1.00  0.00     0.035 A 
HETATM    6  C   UNL     1      77.835  11.140  19.169  1.00  0.00     0.117 A 
HETATM    7  C   UNL     1      76.412  12.717  20.034  1.00  0.00     0.088 A 
ENDROOT
BRANCH   1   8
HETATM    8  C   UNL     1      79.492  12.703  22.206  1.00  0.00     0.419 C 
HETATM    9  F   UNL     1      80.713  13.157  21.801  1.00  0.00    -0.166 F 
HETATM   10  F   UNL     1      79.741  11.651  23.037  1.00  0.00    -0.166 F 
HETATM   11  F   UNL     1      78.991  13.689  23.006  1.00  0.00    -0.166 F 
ENDBRANCH   1   8
BRANCH   2  12
HETATM   12  N   UNL     1      79.974  10.576  20.154  1.00  0.00    -0.397 N 
HETATM   13  H   UNL     1      80.472  10.369  19.329  1.00  0.00     0.156 HD
HETATM   14  H   UNL     1      80.270  10.202  21.015  1.00  0.00     0.156 HD
ENDBRANCH   2  12
TORSDOF 2
ENDMDL
MODEL 5
REMARK VINA RESULT:      -4.6     20.878     21.892
REMARK  2 active torsions:
REMARK  status: ('A' for Active; 'I' for Inactive)
REMARK    1  A    between atoms: C_1  and  C_2 
REMARK    2  A    between atoms: C_3  and  N_9 
ROOT
HETATM    1  C   UNL     1      63.003   9.355   4.151  1.00  0.00     0.076 A 
HETATM    2  C   UNL     1      62.636  10.611   4.649  1.00  0.00     0.056 A 
HETATM    3  N   UNL     1      61.491  11.096   2.541  1.00  0.00    -0.373 N 
ATOM      4  HN  UNL     1      60.943  11.736   1.966  1.00  0.00     0.164 HD
HETATM    5  C   UNL     1      62.567   8.976   2.865  1.00  0.00     0.035 A 
HETATM    6  C   UNL     1      61.923  11.441   3.776  1.00  0.00     0.117 A 
HETATM    7  C   UNL     1      61.821   9.866   2.113  1.00  0.00     0.088 A 
ENDROOT
BRANCH   1   8
HETATM    8  C   UNL     1      63.826   8.365   4.929  1.00  0.00     0.419 C 
HETATM    9  F   UNL     1      63.275   7.964   6.111  1.00  0.00    -0.166 F 
HETATM   10  F   UNL     1      65.066   8.841   5.238  1.00  0.00    -0.166 F 
HETATM   11  F   UNL     1      64.042   7.215   4.226  1.00  0.00    -0.166 F 
ENDBRANCH   1   8
BRANCH   2  12
HETATM   12  N   UNL     1      63.142  11.132   5.846  1.00  0.00    -0.397 N 
HETATM   13  H   UNL     1      63.037  10.627   6.685  1.00  0.00     0.156 HD
HETATM   14  H   UNL     1      63.601  12.002   5.849  1.00  0.00     0.156 HD
ENDBRANCH   2  12
TORSDOF 2
ENDMDL
MODEL 6
REMARK VINA RESULT:      -4.5     22.195     23.234
REMARK  2 active torsions:
REMARK  status: ('A' for Active; 'I' for Inactive)
REMARK    1  A    between atoms: C_1  and  C_2 
REMARK    2  A    between atoms: C_3  and  N_9 
ROOT
HETATM    1  C   UNL     1      62.362   9.305   2.891  1.00  0.00     0.076 A 
HETATM    2  C   UNL     1      62.145  10.631   3.288  1.00  0.00     0.056 A 
HETATM    3  N   UNL     1      62.976  10.082   5.523  1.00  0.00    -0.373 N 
ATOM      4  HN  UNL     1      63.194  10.375   6.475  1.00  0.00     0.164 HD
HETATM    5  C   UNL     1      62.925   8.400   3.813  1.00  0.00     0.035 A 
HETATM    6  C   UNL     1      62.431  10.934   4.624  1.00  0.00     0.117 A 
HETATM    7  C   UNL     1      63.215   8.831   5.096  1.00  0.00     0.088 A 
ENDROOT
BRANCH   1   8
HETATM    8  C   UNL     1      62.046   8.793   1.513  1.00  0.00     0.419 C 
HETATM    9  F   UNL     1      60.724   8.824   1.177  1.00  0.00    -0.166 F 
HETATM   10  F   UNL     1      62.448   7.503   1.327  1.00  0.00    -0.166 F 
HETATM   11  F   UNL     1      62.679   9.515   0.542  1.00  0.00    -0.166 F 
ENDBRANCH   1   8
BRANCH   2  12
HETATM   12  N   UNL     1      61.457  11.558   2.497  1.00  0.00    -0.397 N 
HETATM   13  H   UNL     1      61.516  11.507   1.515  1.00  0.00     0.156 HD
HETATM   14  H   UNL     1      60.914  12.261   2.921  1.00  0.00     0.156 HD
ENDBRANCH   2  12
TORSDOF 2
ENDMDL
MODEL 7
REMARK VINA RESULT:      -4.5     21.850     22.891
REMARK  2 active torsions:
REMARK  status: ('A' for Active; 'I' for Inactive)
REMARK    1  A    between atoms: C_1  and  C_2 
REMARK    2  A    between atoms: C_3  and  N_9 
ROOT
HETATM    1  C   UNL     1      62.369   9.799   3.158  1.00  0.00     0.076 A 
HETATM    2  C   UNL     1      62.987   8.626   3.612  1.00  0.00     0.056 A 
HETATM    3  N   UNL     1      63.410   9.702   5.769  1.00  0.00    -0.373 N 
ATOM      4  HN  UNL     1      63.792   9.656   6.714  1.00  0.00     0.164 HD
HETATM    5  C   UNL     1      62.246  10.891   4.040  1.00  0.00     0.035 A 
HETATM    6  C   UNL     1      63.521   8.667   4.905  1.00  0.00     0.117 A 
HETATM    7  C   UNL     1      62.770  10.794   5.318  1.00  0.00     0.088 A 
ENDROOT
BRANCH   1   8
HETATM    8  C   UNL     1      61.801   9.951   1.774  1.00  0.00     0.419 C 
HETATM    9  F   UNL     1      62.664   9.644   0.763  1.00  0.00    -0.166 F 
HETATM   10  F   UNL     1      61.365  11.218   1.522  1.00  0.00    -0.166 F 
HETATM   11  F   UNL     1      60.717   9.145   1.575  1.00  0.00    -0.166 F 
ENDBRANCH   1   8
BRANCH   2  12
HETATM   12  N   UNL     1      63.288   7.550   2.769  1.00  0.00    -0.397 N 
HETATM   13  H   UNL     1      63.755   6.760   3.127  1.00  0.00     0.156 HD
HETATM   14  H   UNL     1      63.033   7.583   1.819  1.00  0.00     0.156 HD
ENDBRANCH   2  12
TORSDOF 2
ENDMDL
MODEL 8
REMARK VINA RESULT:      -4.4     15.445     16.567
REMARK  2 active torsions:
REMARK  status: ('A' for Active; 'I' for Inactive)
REMARK    1  A    between atoms: C_1  and  C_2 
REMARK    2  A    between atoms: C_3  and  N_9 
ROOT
HETATM    1  C   UNL     1      69.150   3.781   8.349  1.00  0.00     0.076 A 
HETATM    2  C   UNL     1      69.534   2.908   9.375  1.00  0.00     0.056 A 
HETATM    3  N   UNL     1      69.053   1.004   7.914  1.00  0.00    -0.373 N 
ATOM      4  HN  UNL     1      69.021  -0.005   7.768  1.00  0.00     0.164 HD
HETATM    5  C   UNL     1      68.764   3.244   7.104  1.00  0.00     0.035 A 
HETATM    6  C   UNL     1      69.416   1.540   9.103  1.00  0.00     0.117 A 
HETATM    7  C   UNL     1      68.737   1.871   6.937  1.00  0.00     0.088 A 
ENDROOT
BRANCH   1   8
HETATM    8  C   UNL     1      69.151   5.278   8.494  1.00  0.00     0.419 C 
HETATM    9  F   UNL     1      68.426   5.753   9.548  1.00  0.00    -0.166 F 
HETATM   10  F   UNL     1      68.665   5.913   7.390  1.00  0.00    -0.166 F 
HETATM   11  F   UNL     1      70.410   5.774   8.675  1.00  0.00    -0.166 F 
ENDBRANCH   1   8
BRANCH   2  12
HETATM   12  N   UNL     1      69.787   3.337  10.683  1.00  0.00    -0.397 N 
HETATM   13  H   UNL     1      69.201   3.046  11.419  1.00  0.00     0.156 HD
HETATM   14  H   UNL     1      70.551   3.930  10.867  1.00  0.00     0.156 HD
ENDBRANCH   2  12
TORSDOF 2
ENDMDL
MODEL 9
REMARK VINA RESULT:      -4.4      7.594      8.926
REMARK  2 active torsions:
REMARK  status: ('A' for Active; 'I' for Inactive)
REMARK    1  A    between atoms: C_1  and  C_2 
REMARK    2  A    between atoms: C_3  and  N_9 
ROOT
HETATM    1  C   UNL     1      76.025   4.140  17.362  1.00  0.00     0.076 A 
HETATM    2  C   UNL     1      74.739   3.640  17.119  1.00  0.00     0.056 A 
HETATM    3  N   UNL     1      75.562   1.371  17.524  1.00  0.00    -0.373 N 
ATOM      4  HN  UNL     1      75.383   0.369  17.579  1.00  0.00     0.164 HD
HETATM    5  C   UNL     1      77.049   3.243  17.726  1.00  0.00     0.035 A 
HETATM    6  C   UNL     1      74.594   2.249  17.173  1.00  0.00     0.117 A 
HETATM    7  C   UNL     1      76.772   1.890  17.797  1.00  0.00     0.088 A 
ENDROOT
BRANCH   1   8
HETATM    8  C   UNL     1      76.372   5.602  17.280  1.00  0.00     0.419 C 
HETATM    9  F   UNL     1      75.600   6.419  18.053  1.00  0.00    -0.166 F 
HETATM   10  F   UNL     1      76.282   6.092  16.011  1.00  0.00    -0.166 F 
HETATM   11  F   UNL     1      77.655   5.845  17.675  1.00  0.00    -0.166 F 
ENDBRANCH   1   8
BRANCH   2  12
HETATM   12  N   UNL     1      73.701   4.428  16.610  1.00  0.00    -0.397 N 
HETATM   13  H   UNL     1      72.817   4.419  17.046  1.00  0.00     0.156 HD
HETATM   14  H   UNL     1      73.852   4.990  15.817  1.00  0.00     0.156 HD
ENDBRANCH   2  12
TORSDOF 2
ENDMDL
