MODEL 1
REMARK VINA RESULT:      -5.5      0.000      0.000
REMARK  1 active torsions:
REMARK  status: ('A' for Active; 'I' for Inactive)
REMARK    1  A    between atoms: C_6  and  O_8 
ROOT
HETATM    1  N   UNL     1      62.206  11.882   4.806  1.00  0.00    -0.238 N 
ATOM      2  HN  UNL     1      61.928  12.817   5.103  1.00  0.00     0.197 HD
HETATM    3  C   UNL     1      63.215   9.822   4.754  1.00  0.00     0.053 A 
HETATM    4  O   UNL     1      61.802  11.188   3.662  1.00  0.00    -0.234 OA
HETATM    5  C   UNL     1      62.407   9.961   3.636  1.00  0.00     0.119 A 
HETATM    6  C   UNL     1      63.034  11.042   5.416  1.00  0.00     0.173 A 
HETATM    7  C   UNL     1      62.250   8.983   2.648  1.00  0.00    -0.025 A 
HETATM    8  C   UNL     1      63.939   8.635   4.939  1.00  0.00     0.019 A 
HETATM    9  C   UNL     1      63.811   7.630   3.973  1.00  0.00     0.002 A 
HETATM   10  C   UNL     1      62.985   7.801   2.855  1.00  0.00     0.010 A 
HETATM   11  C   UNL     1      61.368   9.160   1.453  1.00  0.00     0.051 C 
ENDROOT
BRANCH   6  12
HETATM   12  O   UNL     1      63.575  11.469   6.561  1.00  0.00    -0.344 OA
HETATM   13  H   UNL     1      63.065  11.468   7.348  1.00  0.00     0.219 HD
ENDBRANCH   6  12
TORSDOF 1
ENDMDL
MODEL 2
REMARK VINA RESULT:      -5.3      1.638      2.514
REMARK  1 active torsions:
REMARK  status: ('A' for Active; 'I' for Inactive)
REMARK    1  A    between atoms: C_6  and  O_8 
ROOT
HETATM    1  N   UNL     1      63.513   9.348   5.808  1.00  0.00    -0.238 N 
ATOM      2  HN  UNL     1      63.907   9.117   6.720  1.00  0.00     0.197 HD
HETATM    3  C   UNL     1      62.557  10.516   4.081  1.00  0.00     0.053 A 
HETATM    4  O   UNL     1      63.359   8.510   4.702  1.00  0.00    -0.234 OA
HETATM    5  C   UNL     1      62.788   9.211   3.675  1.00  0.00     0.119 A 
HETATM    6  C   UNL     1      63.030  10.515   5.398  1.00  0.00     0.173 A 
HETATM    7  C   UNL     1      62.477   8.711   2.405  1.00  0.00    -0.025 A 
HETATM    8  C   UNL     1      61.974  11.424   3.185  1.00  0.00     0.019 A 
HETATM    9  C   UNL     1      61.646  10.966   1.904  1.00  0.00     0.002 A 
HETATM   10  C   UNL     1      61.893   9.641   1.524  1.00  0.00     0.010 A 
HETATM   11  C   UNL     1      62.740   7.298   1.994  1.00  0.00     0.051 C 
ENDROOT
BRANCH   6  12
HETATM   12  O   UNL     1      63.059  11.514   6.285  1.00  0.00    -0.344 OA
HETATM   13  H   UNL     1      62.899  12.394   6.005  1.00  0.00     0.219 HD
ENDBRANCH   6  12
TORSDOF 1
ENDMDL
MODEL 3
REMARK VINA RESULT:      -5.1     19.714     21.161
REMARK  1 active torsions:
REMARK  status: ('A' for Active; 'I' for Inactive)
REMARK    1  A    between atoms: C_6  and  O_8 
ROOT
HETATM    1  N   UNL     1      77.687   3.040  19.537  1.00  0.00    -0.238 N 
ATOM      2  HN  UNL     1      78.124   3.575  20.288  1.00  0.00     0.197 HD
HETATM    3  C   UNL     1      77.252   1.386  18.009  1.00  0.00     0.053 A 
HETATM    4  O   UNL     1      76.554   3.374  18.792  1.00  0.00    -0.234 OA
HETATM    5  C   UNL     1      76.299   2.384  17.882  1.00  0.00     0.119 A 
HETATM    6  C   UNL     1      78.064   1.866  19.043  1.00  0.00     0.173 A 
HETATM    7  C   UNL     1      75.248   2.361  16.959  1.00  0.00    -0.025 A 
HETATM    8  C   UNL     1      77.190   0.262  17.172  1.00  0.00     0.019 A 
HETATM    9  C   UNL     1      76.154   0.198  16.233  1.00  0.00     0.002 A 
HETATM   10  C   UNL     1      75.206   1.224  16.131  1.00  0.00     0.010 A 
HETATM   11  C   UNL     1      74.232   3.452  16.847  1.00  0.00     0.051 C 
ENDROOT
BRANCH   6  12
HETATM   12  O   UNL     1      79.148   1.312  19.592  1.00  0.00    -0.344 OA
HETATM   13  H   UNL     1      79.169   0.389  19.761  1.00  0.00     0.219 HD
ENDBRANCH   6  12
TORSDOF 1
ENDMDL
MODEL 4
REMARK VINA RESULT:      -4.9      2.405      3.038
REMARK  1 active torsions:
REMARK  status: ('A' for Active; 'I' for Inactive)
REMARK    1  A    between atoms: C_6  and  O_8 
ROOT
HETATM    1  N   UNL     1      64.061   7.065   4.310  1.00  0.00    -0.238 N 
ATOM      2  HN  UNL     1      64.506   6.153   4.416  1.00  0.00     0.197 HD
HETATM    3  C   UNL     1      63.291   9.178   4.759  1.00  0.00     0.053 A 
HETATM    4  O   UNL     1      63.410   7.577   3.185  1.00  0.00    -0.234 OA
HETATM    5  C   UNL     1      62.953   8.838   3.459  1.00  0.00     0.119 A 
HETATM    6  C   UNL     1      63.966   8.038   5.209  1.00  0.00     0.173 A 
HETATM    7  C   UNL     1      62.252   9.671   2.579  1.00  0.00    -0.025 A 
HETATM    8  C   UNL     1      62.921  10.434   5.261  1.00  0.00     0.019 A 
HETATM    9  C   UNL     1      62.218  11.300   4.415  1.00  0.00     0.002 A 
HETATM   10  C   UNL     1      61.893  10.926   3.106  1.00  0.00     0.010 A 
HETATM   11  C   UNL     1      61.904   9.278   1.179  1.00  0.00     0.051 C 
ENDROOT
BRANCH   6  12
HETATM   12  O   UNL     1      64.520   7.800   6.401  1.00  0.00    -0.344 OA
HETATM   13  H   UNL     1      65.363   7.394   6.454  1.00  0.00     0.219 HD
ENDBRANCH   6  12
TORSDOF 1
ENDMDL
MODEL 5
REMARK VINA RESULT:      -4.9     19.091     20.414
REMARK  1 active torsions:
REMARK  status: ('A' for Active; 'I' for Inactive)
REMARK    1  A    between atoms: C_6  and  O_8 
ROOT
HETATM    1  N   UNL     1      75.490   4.516  17.119  1.00  0.00    -0.238 N 
ATOM      2  HN  UNL     1      75.170   5.463  16.915  1.00  0.00     0.197 HD
HETATM    3  C   UNL     1      76.733   2.761  17.917  1.00  0.00     0.053 A 
HETATM    4  O   UNL     1      74.899   3.309  16.739  1.00  0.00    -0.234 OA
HETATM    5  C   UNL     1      75.644   2.266  17.217  1.00  0.00     0.119 A 
HETATM    6  C   UNL     1      76.563   4.146  17.809  1.00  0.00     0.173 A 
HETATM    7  C   UNL     1      75.370   0.905  17.040  1.00  0.00    -0.025 A 
HETATM    8  C   UNL     1      77.643   1.867  18.500  1.00  0.00     0.019 A 
HETATM    9  C   UNL     1      77.407   0.495  18.348  1.00  0.00     0.002 A 
HETATM   10  C   UNL     1      76.296   0.028  17.635  1.00  0.00     0.010 A 
HETATM   11  C   UNL     1      74.185   0.399  16.281  1.00  0.00     0.051 C 
ENDROOT
BRANCH   6  12
HETATM   12  O   UNL     1      77.323   5.130  18.297  1.00  0.00    -0.344 OA
HETATM   13  H   UNL     1      77.123   6.023  18.090  1.00  0.00     0.219 HD
ENDBRANCH   6  12
TORSDOF 1
ENDMDL
MODEL 6
REMARK VINA RESULT:      -4.9      3.295      4.252
REMARK  1 active torsions:
REMARK  status: ('A' for Active; 'I' for Inactive)
REMARK    1  A    between atoms: C_6  and  O_8 
ROOT
HETATM    1  N   UNL     1      66.859   8.595   6.844  1.00  0.00    -0.238 N 
ATOM      2  HN  UNL     1      67.425   8.960   7.610  1.00  0.00     0.197 HD
HETATM    3  C   UNL     1      66.124   7.284   5.111  1.00  0.00     0.053 A 
HETATM    4  O   UNL     1      65.656   9.101   6.348  1.00  0.00    -0.234 OA
HETATM    5  C   UNL     1      65.222   8.316   5.314  1.00  0.00     0.119 A 
HETATM    6  C   UNL     1      67.096   7.528   6.089  1.00  0.00     0.173 A 
HETATM    7  C   UNL     1      64.055   8.506   4.566  1.00  0.00    -0.025 A 
HETATM    8  C   UNL     1      65.883   6.347   4.095  1.00  0.00     0.019 A 
HETATM    9  C   UNL     1      64.726   6.499   3.322  1.00  0.00     0.002 A 
HETATM   10  C   UNL     1      63.835   7.553   3.554  1.00  0.00     0.010 A 
HETATM   11  C   UNL     1      63.098   9.628   4.810  1.00  0.00     0.051 C 
ENDROOT
BRANCH   6  12
HETATM   12  O   UNL     1      68.211   6.845   6.359  1.00  0.00    -0.344 OA
HETATM   13  H   UNL     1      69.013   7.303   6.523  1.00  0.00     0.219 HD
ENDBRANCH   6  12
TORSDOF 1
ENDMDL
MODEL 7
REMARK VINA RESULT:      -4.8      9.005     10.224
REMARK  1 active torsions:
REMARK  status: ('A' for Active; 'I' for Inactive)
REMARK    1  A    between atoms: C_6  and  O_8 
ROOT
HETATM    1  N   UNL     1      67.928   1.634  10.315  1.00  0.00    -0.238 N 
ATOM      2  HN  UNL     1      67.669   0.776  10.802  1.00  0.00     0.197 HD
HETATM    3  C   UNL     1      69.120   3.461   9.606  1.00  0.00     0.053 A 
HETATM    4  O   UNL     1      67.169   2.363   9.397  1.00  0.00    -0.234 OA
HETATM    5  C   UNL     1      67.885   3.452   8.977  1.00  0.00     0.119 A 
HETATM    6  C   UNL     1      69.065   2.315  10.407  1.00  0.00     0.173 A 
HETATM    7  C   UNL     1      67.457   4.417   8.059  1.00  0.00    -0.025 A 
HETATM    8  C   UNL     1      70.028   4.493   9.327  1.00  0.00     0.019 A 
HETATM    9  C   UNL     1      69.641   5.481   8.414  1.00  0.00     0.002 A 
HETATM   10  C   UNL     1      68.385   5.442   7.795  1.00  0.00     0.010 A 
HETATM   11  C   UNL     1      66.118   4.380   7.394  1.00  0.00     0.051 C 
ENDROOT
BRANCH   6  12
HETATM   12  O   UNL     1      69.986   1.822  11.239  1.00  0.00    -0.344 OA
HETATM   13  H   UNL     1      69.797   1.057  11.748  1.00  0.00     0.219 HD
ENDBRANCH   6  12
TORSDOF 1
ENDMDL
MODEL 8
REMARK VINA RESULT:      -4.7     19.946     21.182
REMARK  1 active torsions:
REMARK  status: ('A' for Active; 'I' for Inactive)
REMARK    1  A    between atoms: C_6  and  O_8 
ROOT
HETATM    1  N   UNL     1      77.806   0.086  18.766  1.00  0.00    -0.238 N 
ATOM      2  HN  UNL     1      78.393  -0.633  19.188  1.00  0.00     0.197 HD
HETATM    3  C   UNL     1      76.985   2.131  18.128  1.00  0.00     0.053 A 
HETATM    4  O   UNL     1      76.648  -0.088  18.004  1.00  0.00    -0.234 OA
HETATM    5  C   UNL     1      76.162   1.134  17.627  1.00  0.00     0.119 A 
HETATM    6  C   UNL     1      77.965   1.404  18.813  1.00  0.00     0.173 A 
HETATM    7  C   UNL     1      75.018   1.366  16.856  1.00  0.00    -0.025 A 
HETATM    8  C   UNL     1      76.679   3.474  17.866  1.00  0.00     0.019 A 
HETATM    9  C   UNL     1      75.542   3.752  17.098  1.00  0.00     0.002 A 
HETATM   10  C   UNL     1      74.732   2.721  16.605  1.00  0.00     0.010 A 
HETATM   11  C   UNL     1      74.150   0.270  16.325  1.00  0.00     0.051 C 
ENDROOT
BRANCH   6  12
HETATM   12  O   UNL     1      79.023   1.850  19.497  1.00  0.00    -0.344 OA
HETATM   13  H   UNL     1      79.534   2.560  19.159  1.00  0.00     0.219 HD
ENDBRANCH   6  12
TORSDOF 1
ENDMDL
MODEL 9
REMARK VINA RESULT:      -4.6      7.731      9.174
REMARK  1 active torsions:
REMARK  status: ('A' for Active; 'I' for Inactive)
REMARK    1  A    between atoms: C_6  and  O_8 
ROOT
HETATM    1  N   UNL     1      66.086   5.533   8.176  1.00  0.00    -0.238 N 
ATOM      2  HN  UNL     1      65.170   5.900   7.916  1.00  0.00     0.197 HD
HETATM    3  C   UNL     1      68.346   5.372   8.532  1.00  0.00     0.053 A 
HETATM    4  O   UNL     1      66.391   4.274   8.697  1.00  0.00    -0.234 OA
HETATM    5  C   UNL     1      67.740   4.183   8.908  1.00  0.00     0.119 A 
HETATM    6  C   UNL     1      67.263   6.144   8.096  1.00  0.00     0.173 A 
HETATM    7  C   UNL     1      68.423   3.075   9.421  1.00  0.00    -0.025 A 
HETATM    8  C   UNL     1      69.736   5.509   8.661  1.00  0.00     0.019 A 
HETATM    9  C   UNL     1      70.459   4.424   9.170  1.00  0.00     0.002 A 
HETATM   10  C   UNL     1      69.816   3.236   9.541  1.00  0.00     0.010 A 
HETATM   11  C   UNL     1      67.742   1.805   9.820  1.00  0.00     0.051 C 
ENDROOT
BRANCH   6  12
HETATM   12  O   UNL     1      67.254   7.391   7.617  1.00  0.00    -0.344 OA
HETATM   13  H   UNL     1      67.872   8.020   7.936  1.00  0.00     0.219 HD
ENDBRANCH   6  12
TORSDOF 1
ENDMDL
