MODEL 1
REMARK VINA RESULT:      -6.1      0.000      0.000
REMARK  2 active torsions:
REMARK  status: ('A' for Active; 'I' for Inactive)
REMARK    1  A    between atoms: C_1  and  C_4 
REMARK    2  A    between atoms: C_2  and  C_3 
ROOT
HETATM    1  C   UNL     1      78.318  11.218  19.731  1.00  0.00     0.071 A 
HETATM    2  C   UNL     1      77.851  12.405  20.307  1.00  0.00     0.067 A 
HETATM    3  N   UNL     1      80.280  11.256  21.166  1.00  0.00    -0.374 N 
ATOM      4  HN  UNL     1      81.158  10.836  21.473  1.00  0.00     0.164 HD
HETATM    5  C   UNL     1      79.532  10.700  20.185  1.00  0.00     0.106 A 
HETATM    6  C   UNL     1      78.626  12.988  21.332  1.00  0.00     0.034 A 
HETATM    7  C   UNL     1      79.813  12.390  21.720  1.00  0.00     0.088 A 
ENDROOT
BRANCH   2   8
HETATM    8  C   UNL     1      76.596  13.134  19.908  1.00  0.00     0.418 C 
HETATM    9  F   UNL     1      75.481  12.383  19.728  1.00  0.00    -0.166 F 
HETATM   10  F   UNL     1      76.268  14.111  20.800  1.00  0.00    -0.166 F 
HETATM   11  F   UNL     1      76.766  13.783  18.717  1.00  0.00    -0.166 F 
ENDBRANCH   2   8
BRANCH   1  12
HETATM   12  C   UNL     1      77.667  10.453  18.659  1.00  0.00     0.211 C 
HETATM   13  O   UNL     1      77.419  10.869  17.542  1.00  0.00    -0.644 OA
HETATM   14  O   UNL     1      77.473   9.175  19.004  1.00  0.00    -0.644 OA
ENDBRANCH   1  12
TORSDOF 2
ENDMDL
MODEL 2
REMARK VINA RESULT:      -5.3      2.651      3.397
REMARK  2 active torsions:
REMARK  status: ('A' for Active; 'I' for Inactive)
REMARK    1  A    between atoms: C_1  and  C_4 
REMARK    2  A    between atoms: C_2  and  C_3 
ROOT
HETATM    1  C   UNL     1      77.256  12.436  19.435  1.00  0.00     0.071 A 
HETATM    2  C   UNL     1      78.043  11.284  19.537  1.00  0.00     0.067 A 
HETATM    3  N   UNL     1      78.319  13.374  21.410  1.00  0.00    -0.374 N 
ATOM      4  HN  UNL     1      78.414  14.133  22.085  1.00  0.00     0.164 HD
HETATM    5  C   UNL     1      77.425  13.435  20.396  1.00  0.00     0.106 A 
HETATM    6  C   UNL     1      78.978  11.216  20.591  1.00  0.00     0.034 A 
HETATM    7  C   UNL     1      79.077  12.266  21.488  1.00  0.00     0.088 A 
ENDROOT
BRANCH   2   8
HETATM    8  C   UNL     1      77.960  10.088  18.626  1.00  0.00     0.418 C 
HETATM    9  F   UNL     1      77.314  10.259  17.446  1.00  0.00    -0.166 F 
HETATM   10  F   UNL     1      79.192   9.588  18.328  1.00  0.00    -0.166 F 
HETATM   11  F   UNL     1      77.296   9.058  19.232  1.00  0.00    -0.166 F 
ENDBRANCH   2   8
BRANCH   1  12
HETATM   12  C   UNL     1      76.231  12.707  18.417  1.00  0.00     0.211 C 
HETATM   13  O   UNL     1      75.031  12.581  18.570  1.00  0.00    -0.644 OA
HETATM   14  O   UNL     1      76.758  13.237  17.307  1.00  0.00    -0.644 OA
ENDBRANCH   1  12
TORSDOF 2
ENDMDL
MODEL 3
REMARK VINA RESULT:      -5.2      2.496      3.249
REMARK  2 active torsions:
REMARK  status: ('A' for Active; 'I' for Inactive)
REMARK    1  A    between atoms: C_1  and  C_4 
REMARK    2  A    between atoms: C_2  and  C_3 
ROOT
HETATM    1  C   UNL     1      77.585  11.476  19.227  1.00  0.00     0.071 A 
HETATM    2  C   UNL     1      77.716  12.434  20.238  1.00  0.00     0.067 A 
HETATM    3  N   UNL     1      76.303  13.036  17.873  1.00  0.00    -0.374 N 
ATOM      4  HN  UNL     1      75.793  13.247  17.015  1.00  0.00     0.164 HD
HETATM    5  C   UNL     1      76.865  11.822  18.083  1.00  0.00     0.106 A 
HETATM    6  C   UNL     1      77.134  13.701  20.024  1.00  0.00     0.034 A 
HETATM    7  C   UNL     1      76.448  13.950  18.848  1.00  0.00     0.088 A 
ENDROOT
BRANCH   2   8
HETATM    8  C   UNL     1      78.410  12.221  21.558  1.00  0.00     0.418 C 
HETATM    9  F   UNL     1      79.639  11.651  21.519  1.00  0.00    -0.166 F 
HETATM   10  F   UNL     1      78.539  13.382  22.259  1.00  0.00    -0.166 F 
HETATM   11  F   UNL     1      77.677  11.398  22.366  1.00  0.00    -0.166 F 
ENDBRANCH   2   8
BRANCH   1  12
HETATM   12  C   UNL     1      78.114  10.105  19.249  1.00  0.00     0.211 C 
HETATM   13  O   UNL     1      77.451   9.092  19.360  1.00  0.00    -0.644 OA
HETATM   14  O   UNL     1      79.431  10.074  19.009  1.00  0.00    -0.644 OA
ENDBRANCH   1  12
TORSDOF 2
ENDMDL
MODEL 4
REMARK VINA RESULT:      -5.1     21.430     22.712
REMARK  2 active torsions:
REMARK  status: ('A' for Active; 'I' for Inactive)
REMARK    1  A    between atoms: C_1  and  C_4 
REMARK    2  A    between atoms: C_2  and  C_3 
ROOT
HETATM    1  C   UNL     1      62.813   9.313   4.097  1.00  0.00     0.071 A 
HETATM    2  C   UNL     1      62.880   8.479   2.975  1.00  0.00     0.067 A 
HETATM    3  N   UNL     1      61.643  11.008   2.805  1.00  0.00    -0.374 N 
ATOM      4  HN  UNL     1      61.197  11.924   2.749  1.00  0.00     0.164 HD
HETATM    5  C   UNL     1      62.200  10.559   3.954  1.00  0.00     0.106 A 
HETATM    6  C   UNL     1      62.299   8.940   1.775  1.00  0.00     0.034 A 
HETATM    7  C   UNL     1      61.704  10.191   1.738  1.00  0.00     0.088 A 
ENDROOT
BRANCH   2   8
HETATM    8  C   UNL     1      63.547   7.130   2.930  1.00  0.00     0.418 C 
HETATM    9  F   UNL     1      64.843   7.073   3.327  1.00  0.00    -0.166 F 
HETATM   10  F   UNL     1      62.872   6.203   3.666  1.00  0.00    -0.166 F 
HETATM   11  F   UNL     1      63.558   6.633   1.657  1.00  0.00    -0.166 F 
ENDBRANCH   2   8
BRANCH   1  12
HETATM   12  C   UNL     1      63.350   9.024   5.434  1.00  0.00     0.211 C 
HETATM   13  O   UNL     1      62.832   8.300   6.263  1.00  0.00    -0.644 OA
HETATM   14  O   UNL     1      64.563   9.561   5.612  1.00  0.00    -0.644 OA
ENDBRANCH   1  12
TORSDOF 2
ENDMDL
MODEL 5
REMARK VINA RESULT:      -4.9     22.147     23.021
REMARK  2 active torsions:
REMARK  status: ('A' for Active; 'I' for Inactive)
REMARK    1  A    between atoms: C_1  and  C_4 
REMARK    2  A    between atoms: C_2  and  C_3 
ROOT
HETATM    1  C   UNL     1      62.769   8.584   3.709  1.00  0.00     0.071 A 
HETATM    2  C   UNL     1      62.282   9.773   3.154  1.00  0.00     0.067 A 
HETATM    3  N   UNL     1      63.195   9.708   5.822  1.00  0.00    -0.374 N 
ATOM      4  HN  UNL     1      63.527   9.678   6.787  1.00  0.00     0.164 HD
HETATM    5  C   UNL     1      63.219   8.611   5.030  1.00  0.00     0.106 A 
HETATM    6  C   UNL     1      62.252  10.919   3.976  1.00  0.00     0.034 A 
HETATM    7  C   UNL     1      62.713  10.840   5.280  1.00  0.00     0.088 A 
ENDROOT
BRANCH   2   8
HETATM    8  C   UNL     1      61.807   9.942   1.736  1.00  0.00     0.418 C 
HETATM    9  F   UNL     1      62.673   9.596   0.753  1.00  0.00    -0.166 F 
HETATM   10  F   UNL     1      60.653   9.256   1.500  1.00  0.00    -0.166 F 
HETATM   11  F   UNL     1      61.501  11.250   1.477  1.00  0.00    -0.166 F 
ENDBRANCH   2   8
BRANCH   1  12
HETATM   12  C   UNL     1      62.882   7.285   3.031  1.00  0.00     0.211 C 
HETATM   13  O   UNL     1      63.909   6.804   2.590  1.00  0.00    -0.644 OA
HETATM   14  O   UNL     1      61.727   6.609   3.050  1.00  0.00    -0.644 OA
ENDBRANCH   1  12
TORSDOF 2
ENDMDL
MODEL 6
REMARK VINA RESULT:      -4.8     22.366     23.344
REMARK  2 active torsions:
REMARK  status: ('A' for Active; 'I' for Inactive)
REMARK    1  A    between atoms: C_1  and  C_4 
REMARK    2  A    between atoms: C_2  and  C_3 
ROOT
HETATM    1  C   UNL     1      62.390  10.050   3.627  1.00  0.00     0.071 A 
HETATM    2  C   UNL     1      62.399   8.878   2.862  1.00  0.00     0.067 A 
HETATM    3  N   UNL     1      63.236   8.833   5.555  1.00  0.00    -0.374 N 
ATOM      4  HN  UNL     1      63.537   8.824   6.529  1.00  0.00     0.164 HD
HETATM    5  C   UNL     1      62.802   9.969   4.958  1.00  0.00     0.106 A 
HETATM    6  C   UNL     1      62.852   7.693   3.477  1.00  0.00     0.034 A 
HETATM    7  C   UNL     1      63.251   7.718   4.803  1.00  0.00     0.088 A 
ENDROOT
BRANCH   2   8
HETATM    8  C   UNL     1      61.940   8.767   1.432  1.00  0.00     0.418 C 
HETATM    9  F   UNL     1      60.646   9.083   1.177  1.00  0.00    -0.166 F 
HETATM   10  F   UNL     1      62.700   9.524   0.592  1.00  0.00    -0.166 F 
HETATM   11  F   UNL     1      62.075   7.485   0.975  1.00  0.00    -0.166 F 
ENDBRANCH   2   8
BRANCH   1  12
HETATM   12  C   UNL     1      61.961  11.382   3.179  1.00  0.00     0.211 C 
HETATM   13  O   UNL     1      61.614  11.672   2.050  1.00  0.00    -0.644 OA
HETATM   14  O   UNL     1      61.874  12.247   4.197  1.00  0.00    -0.644 OA
ENDBRANCH   1  12
TORSDOF 2
ENDMDL
MODEL 7
REMARK VINA RESULT:      -4.7      9.730     11.020
REMARK  2 active torsions:
REMARK  status: ('A' for Active; 'I' for Inactive)
REMARK    1  A    between atoms: C_1  and  C_4 
REMARK    2  A    between atoms: C_2  and  C_3 
ROOT
HETATM    1  C   UNL     1      75.141   2.134  17.055  1.00  0.00     0.071 A 
HETATM    2  C   UNL     1      76.413   2.226  17.632  1.00  0.00     0.067 A 
HETATM    3  N   UNL     1      74.992   4.558  16.924  1.00  0.00    -0.374 N 
ATOM      4  HN  UNL     1      74.473   5.397  16.666  1.00  0.00     0.164 HD
HETATM    5  C   UNL     1      74.477   3.320  16.735  1.00  0.00     0.106 A 
HETATM    6  C   UNL     1      76.955   3.513  17.829  1.00  0.00     0.034 A 
HETATM    7  C   UNL     1      76.220   4.630  17.467  1.00  0.00     0.088 A 
ENDROOT
BRANCH   2   8
HETATM    8  C   UNL     1      77.249   1.061  18.088  1.00  0.00     0.418 C 
HETATM    9  F   UNL     1      76.691   0.223  18.996  1.00  0.00    -0.166 F 
HETATM   10  F   UNL     1      77.659   0.288  17.043  1.00  0.00    -0.166 F 
HETATM   11  F   UNL     1      78.402   1.491  18.684  1.00  0.00    -0.166 F 
ENDBRANCH   2   8
BRANCH   1  12
HETATM   12  C   UNL     1      74.401   0.899  16.764  1.00  0.00     0.211 C 
HETATM   13  O   UNL     1      73.860   0.186  17.589  1.00  0.00    -0.644 OA
HETATM   14  O   UNL     1      74.276   0.689  15.448  1.00  0.00    -0.644 OA
ENDBRANCH   1  12
TORSDOF 2
ENDMDL
MODEL 8
REMARK VINA RESULT:      -4.7     15.962     17.166
REMARK  2 active torsions:
REMARK  status: ('A' for Active; 'I' for Inactive)
REMARK    1  A    between atoms: C_1  and  C_4 
REMARK    2  A    between atoms: C_2  and  C_3 
ROOT
HETATM    1  C   UNL     1      69.033   1.912   8.804  1.00  0.00     0.071 A 
HETATM    2  C   UNL     1      69.135   3.209   8.287  1.00  0.00     0.067 A 
HETATM    3  N   UNL     1      68.230   1.088   6.662  1.00  0.00    -0.374 N 
ATOM      4  HN  UNL     1      67.903   0.317   6.079  1.00  0.00     0.164 HD
HETATM    5  C   UNL     1      68.567   0.903   7.960  1.00  0.00     0.106 A 
HETATM    6  C   UNL     1      68.787   3.408   6.934  1.00  0.00     0.034 A 
HETATM    7  C   UNL     1      68.345   2.336   6.175  1.00  0.00     0.088 A 
ENDROOT
BRANCH   2   8
HETATM    8  C   UNL     1      69.565   4.425   9.062  1.00  0.00     0.418 C 
HETATM    9  F   UNL     1      68.868   4.713  10.189  1.00  0.00    -0.166 F 
HETATM   10  F   UNL     1      70.879   4.363   9.421  1.00  0.00    -0.166 F 
HETATM   11  F   UNL     1      69.460   5.554   8.297  1.00  0.00    -0.166 F 
ENDBRANCH   2   8
BRANCH   1  12
HETATM   12  C   UNL     1      69.346   1.492  10.176  1.00  0.00     0.211 C 
HETATM   13  O   UNL     1      70.463   1.317  10.626  1.00  0.00    -0.644 OA
HETATM   14  O   UNL     1      68.251   1.432  10.943  1.00  0.00    -0.644 OA
ENDBRANCH   1  12
TORSDOF 2
ENDMDL
MODEL 9
REMARK VINA RESULT:      -4.7      4.343      5.234
REMARK  2 active torsions:
REMARK  status: ('A' for Active; 'I' for Inactive)
REMARK    1  A    between atoms: C_1  and  C_4 
REMARK    2  A    between atoms: C_2  and  C_3 
ROOT
HETATM    1  C   UNL     1      80.558  12.596  24.189  1.00  0.00     0.071 A 
HETATM    2  C   UNL     1      79.339  12.065  23.752  1.00  0.00     0.067 A 
HETATM    3  N   UNL     1      80.237  11.607  26.387  1.00  0.00    -0.374 N 
ATOM      4  HN  UNL     1      80.567  11.445  27.338  1.00  0.00     0.164 HD
HETATM    5  C   UNL     1      80.949  12.349  25.506  1.00  0.00     0.106 A 
HETATM    6  C   UNL     1      78.594  11.288  24.665  1.00  0.00     0.034 A 
HETATM    7  C   UNL     1      79.074  11.092  25.949  1.00  0.00     0.088 A 
ENDROOT
BRANCH   2   8
HETATM    8  C   UNL     1      78.736  12.272  22.388  1.00  0.00     0.418 C 
HETATM    9  F   UNL     1      79.441  11.805  21.328  1.00  0.00    -0.166 F 
HETATM   10  F   UNL     1      77.488  11.732  22.296  1.00  0.00    -0.166 F 
HETATM   11  F   UNL     1      78.567  13.603  22.127  1.00  0.00    -0.166 F 
ENDBRANCH   2   8
BRANCH   1  12
HETATM   12  C   UNL     1      81.482  13.424  23.402  1.00  0.00     0.211 C 
HETATM   13  O   UNL     1      81.875  13.175  22.278  1.00  0.00    -0.644 OA
HETATM   14  O   UNL     1      81.766  14.578  24.017  1.00  0.00    -0.644 OA
ENDBRANCH   1  12
TORSDOF 2
ENDMDL
