MODEL 1
REMARK VINA RESULT:      -5.3      0.000      0.000
REMARK  3 active torsions:
REMARK  status: ('A' for Active; 'I' for Inactive)
REMARK    1  A    between atoms: C_1  and  O_2 
REMARK    2  A    between atoms: O_2  and  C_6 
REMARK    3  A    between atoms: C_7  and  N_8 
ROOT
HETATM    1  C   UNL     1      77.700   9.893  17.618  1.00  0.00     0.078 A 
HETATM    2  C   UNL     1      77.190   7.755  15.850  1.00  0.00     0.025 A 
HETATM    3  C   UNL     1      77.271   8.642  18.111  1.00  0.00     0.039 A 
HETATM    4  C   UNL     1      77.842  10.059  16.233  1.00  0.00     0.039 A 
HETATM    5  C   UNL     1      77.023   7.583  17.231  1.00  0.00     0.031 A 
HETATM    6  C   UNL     1      77.593   9.000  15.356  1.00  0.00     0.031 A 
ENDROOT
BRANCH   1   7
HETATM    7  O   UNL     1      77.982  10.967  18.407  1.00  0.00    -0.255 OA
BRANCH   7   8
HETATM    8  C   UNL     1      77.145  11.764  19.173  1.00  0.00     0.530 C 
HETATM    9  F   UNL     1      75.875  11.890  18.645  1.00  0.00    -0.144 F 
HETATM   10  F   UNL     1      77.708  13.017  19.312  1.00  0.00    -0.144 F 
HETATM   11  F   UNL     1      77.024  11.191  20.424  1.00  0.00    -0.144 F 
ENDBRANCH   7   8
ENDBRANCH   1   7
BRANCH   2  12
HETATM   12  N   UNL     1      76.953   6.678  14.961  1.00  0.00    -0.399 N 
HETATM   13  H   UNL     1      77.583   6.499  14.226  1.00  0.00     0.156 HD
HETATM   14  H   UNL     1      76.158   6.109  15.078  1.00  0.00     0.156 HD
ENDBRANCH   2  12
TORSDOF 3
ENDMDL
MODEL 2
REMARK VINA RESULT:      -5.2      3.817      5.032
REMARK  3 active torsions:
REMARK  status: ('A' for Active; 'I' for Inactive)
REMARK    1  A    between atoms: C_1  and  O_2 
REMARK    2  A    between atoms: O_2  and  C_6 
REMARK    3  A    between atoms: C_7  and  N_8 
ROOT
HETATM    1  C   UNL     1      77.414  10.537  17.987  1.00  0.00     0.078 A 
HETATM    2  C   UNL     1      77.728  12.351  20.124  1.00  0.00     0.025 A 
HETATM    3  C   UNL     1      76.600  11.686  18.077  1.00  0.00     0.039 A 
HETATM    4  C   UNL     1      78.362  10.302  18.993  1.00  0.00     0.039 A 
HETATM    5  C   UNL     1      76.762  12.585  19.137  1.00  0.00     0.031 A 
HETATM    6  C   UNL     1      78.522  11.200  20.050  1.00  0.00     0.031 A 
ENDROOT
BRANCH   1   7
HETATM    7  O   UNL     1      77.334   9.624  16.979  1.00  0.00    -0.255 OA
BRANCH   7   8
HETATM    8  C   UNL     1      77.821   9.672  15.681  1.00  0.00     0.530 C 
HETATM    9  F   UNL     1      79.196   9.791  15.617  1.00  0.00    -0.144 F 
HETATM   10  F   UNL     1      77.240  10.732  15.014  1.00  0.00    -0.144 F 
HETATM   11  F   UNL     1      77.471   8.499  15.042  1.00  0.00    -0.144 F 
ENDBRANCH   7   8
ENDBRANCH   1   7
BRANCH   2  12
HETATM   12  N   UNL     1      77.902  13.269  21.189  1.00  0.00    -0.399 N 
HETATM   13  H   UNL     1      78.442  14.081  21.055  1.00  0.00     0.156 HD
HETATM   14  H   UNL     1      77.483  13.094  22.062  1.00  0.00     0.156 HD
ENDBRANCH   2  12
TORSDOF 3
ENDMDL
MODEL 3
REMARK VINA RESULT:      -5.0      4.121      5.711
REMARK  3 active torsions:
REMARK  status: ('A' for Active; 'I' for Inactive)
REMARK    1  A    between atoms: C_1  and  O_2 
REMARK    2  A    between atoms: O_2  and  C_6 
REMARK    3  A    between atoms: C_7  and  N_8 
ROOT
HETATM    1  C   UNL     1      78.304  11.561  19.850  1.00  0.00     0.078 A 
HETATM    2  C   UNL     1      79.301  12.595  22.277  1.00  0.00     0.025 A 
HETATM    3  C   UNL     1      77.508  12.412  20.647  1.00  0.00     0.039 A 
HETATM    4  C   UNL     1      79.587  11.220  20.301  1.00  0.00     0.039 A 
HETATM    5  C   UNL     1      78.009  12.925  21.848  1.00  0.00     0.031 A 
HETATM    6  C   UNL     1      80.085  11.734  21.501  1.00  0.00     0.031 A 
ENDROOT
BRANCH   1   7
HETATM    7  O   UNL     1      77.901  11.035  18.660  1.00  0.00    -0.255 OA
BRANCH   7   8
HETATM    8  C   UNL     1      77.905   9.724  18.208  1.00  0.00     0.530 C 
HETATM    9  F   UNL     1      79.173   9.229  17.978  1.00  0.00    -0.144 F 
HETATM   10  F   UNL     1      77.163   9.639  17.046  1.00  0.00    -0.144 F 
HETATM   11  F   UNL     1      77.312   8.931  19.171  1.00  0.00    -0.144 F 
ENDBRANCH   7   8
ENDBRANCH   1   7
BRANCH   2  12
HETATM   12  N   UNL     1      79.813  13.127  23.486  1.00  0.00    -0.399 N 
HETATM   13  H   UNL     1      79.601  12.691  24.344  1.00  0.00     0.156 HD
HETATM   14  H   UNL     1      80.379  13.932  23.469  1.00  0.00     0.156 HD
ENDBRANCH   2  12
TORSDOF 3
ENDMDL
MODEL 4
REMARK VINA RESULT:      -4.8     20.369     21.388
REMARK  3 active torsions:
REMARK  status: ('A' for Active; 'I' for Inactive)
REMARK    1  A    between atoms: C_1  and  O_2 
REMARK    2  A    between atoms: O_2  and  C_6 
REMARK    3  A    between atoms: C_7  and  N_8 
ROOT
HETATM    1  C   UNL     1      62.488   8.978   3.096  1.00  0.00     0.078 A 
HETATM    2  C   UNL     1      63.205  10.615   5.278  1.00  0.00     0.025 A 
HETATM    3  C   UNL     1      61.875  10.236   3.280  1.00  0.00     0.039 A 
HETATM    4  C   UNL     1      63.439   8.548   4.032  1.00  0.00     0.039 A 
HETATM    5  C   UNL     1      62.236  11.046   4.362  1.00  0.00     0.031 A 
HETATM    6  C   UNL     1      63.799   9.359   5.111  1.00  0.00     0.031 A 
ENDROOT
BRANCH   1   7
HETATM    7  O   UNL     1      62.209   8.139   2.060  1.00  0.00    -0.255 OA
BRANCH   7   8
HETATM    8  C   UNL     1      61.845   8.416   0.751  1.00  0.00     0.530 C 
HETATM    9  F   UNL     1      60.534   8.829   0.623  1.00  0.00    -0.144 F 
HETATM   10  F   UNL     1      62.048   7.293  -0.028  1.00  0.00    -0.144 F 
HETATM   11  F   UNL     1      62.654   9.433   0.281  1.00  0.00    -0.144 F 
ENDBRANCH   7   8
ENDBRANCH   1   7
BRANCH   2  12
HETATM   12  N   UNL     1      63.581  11.442   6.365  1.00  0.00    -0.399 N 
HETATM   13  H   UNL     1      63.007  11.497   7.163  1.00  0.00     0.156 HD
HETATM   14  H   UNL     1      64.415  11.962   6.322  1.00  0.00     0.156 HD
ENDBRANCH   2  12
TORSDOF 3
ENDMDL
MODEL 5
REMARK VINA RESULT:      -4.8      2.259      3.257
REMARK  3 active torsions:
REMARK  status: ('A' for Active; 'I' for Inactive)
REMARK    1  A    between atoms: C_1  and  O_2 
REMARK    2  A    between atoms: O_2  and  C_6 
REMARK    3  A    between atoms: C_7  and  N_8 
ROOT
HETATM    1  C   UNL     1      78.543  11.401  19.778  1.00  0.00     0.078 A 
HETATM    2  C   UNL     1      77.718   9.556  17.810  1.00  0.00     0.025 A 
HETATM    3  C   UNL     1      79.375  10.319  19.416  1.00  0.00     0.039 A 
HETATM    4  C   UNL     1      77.291  11.524  19.160  1.00  0.00     0.039 A 
HETATM    5  C   UNL     1      78.962   9.408  18.437  1.00  0.00     0.031 A 
HETATM    6  C   UNL     1      76.881  10.615  18.182  1.00  0.00     0.031 A 
ENDROOT
BRANCH   1   7
HETATM    7  O   UNL     1      78.877  12.341  20.705  1.00  0.00    -0.255 OA
BRANCH   7   8
HETATM    8  C   UNL     1      78.192  12.777  21.830  1.00  0.00     0.530 C 
HETATM    9  F   UNL     1      79.024  13.233  22.834  1.00  0.00    -0.144 F 
HETATM   10  F   UNL     1      77.410  11.749  22.317  1.00  0.00    -0.144 F 
HETATM   11  F   UNL     1      77.370  13.823  21.459  1.00  0.00    -0.144 F 
ENDBRANCH   7   8
ENDBRANCH   1   7
BRANCH   2  12
HETATM   12  N   UNL     1      77.308   8.643  16.808  1.00  0.00    -0.399 N 
HETATM   13  H   UNL     1      76.887   7.790  17.062  1.00  0.00     0.156 HD
HETATM   14  H   UNL     1      77.444   8.861  15.858  1.00  0.00     0.156 HD
ENDBRANCH   2  12
TORSDOF 3
ENDMDL
MODEL 6
REMARK VINA RESULT:      -4.8      3.726      4.990
REMARK  3 active torsions:
REMARK  status: ('A' for Active; 'I' for Inactive)
REMARK    1  A    between atoms: C_1  and  O_2 
REMARK    2  A    between atoms: O_2  and  C_6 
REMARK    3  A    between atoms: C_7  and  N_8 
ROOT
HETATM    1  C   UNL     1      77.660  10.035  18.400  1.00  0.00     0.078 A 
HETATM    2  C   UNL     1      77.145  12.592  19.472  1.00  0.00     0.025 A 
HETATM    3  C   UNL     1      76.748  10.908  17.766  1.00  0.00     0.039 A 
HETATM    4  C   UNL     1      78.282  10.454  19.584  1.00  0.00     0.039 A 
HETATM    5  C   UNL     1      76.499  12.177  18.301  1.00  0.00     0.031 A 
HETATM    6  C   UNL     1      78.032  11.721  20.115  1.00  0.00     0.031 A 
ENDROOT
BRANCH   1   7
HETATM    7  O   UNL     1      77.973   8.794  17.935  1.00  0.00    -0.255 OA
BRANCH   7   8
HETATM    8  C   UNL     1      77.153   7.738  17.565  1.00  0.00     0.530 C 
HETATM    9  F   UNL     1      75.940   7.730  18.226  1.00  0.00    -0.144 F 
HETATM   10  F   UNL     1      77.808   6.546  17.799  1.00  0.00    -0.144 F 
HETATM   11  F   UNL     1      76.893   7.843  16.213  1.00  0.00    -0.144 F 
ENDBRANCH   7   8
ENDBRANCH   1   7
BRANCH   2  12
HETATM   12  N   UNL     1      76.903  13.883  20.004  1.00  0.00    -0.399 N 
HETATM   13  H   UNL     1      77.341  14.160  20.842  1.00  0.00     0.156 HD
HETATM   14  H   UNL     1      76.298  14.502  19.537  1.00  0.00     0.156 HD
ENDBRANCH   2  12
TORSDOF 3
ENDMDL
MODEL 7
REMARK VINA RESULT:      -4.7     18.360     19.278
REMARK  3 active torsions:
REMARK  status: ('A' for Active; 'I' for Inactive)
REMARK    1  A    between atoms: C_1  and  O_2 
REMARK    2  A    between atoms: O_2  and  C_6 
REMARK    3  A    between atoms: C_7  and  N_8 
ROOT
HETATM    1  C   UNL     1      63.154   9.014   5.098  1.00  0.00     0.078 A 
HETATM    2  C   UNL     1      62.007  10.718   3.165  1.00  0.00     0.025 A 
HETATM    3  C   UNL     1      62.900  10.370   5.398  1.00  0.00     0.039 A 
HETATM    4  C   UNL     1      62.851   8.540   3.814  1.00  0.00     0.039 A 
HETATM    5  C   UNL     1      62.327  11.210   4.437  1.00  0.00     0.031 A 
HETATM    6  C   UNL     1      62.279   9.381   2.856  1.00  0.00     0.031 A 
ENDROOT
BRANCH   1   7
HETATM    7  O   UNL     1      63.690   8.126   5.981  1.00  0.00    -0.255 OA
BRANCH   7   8
HETATM    8  C   UNL     1      64.929   7.504   5.990  1.00  0.00     0.530 C 
HETATM    9  F   UNL     1      65.017   6.446   5.107  1.00  0.00    -0.144 F 
HETATM   10  F   UNL     1      65.207   7.056   7.267  1.00  0.00    -0.144 F 
HETATM   11  F   UNL     1      65.886   8.433   5.629  1.00  0.00    -0.144 F 
ENDBRANCH   7   8
ENDBRANCH   1   7
BRANCH   2  12
HETATM   12  N   UNL     1      61.414  11.566   2.198  1.00  0.00    -0.399 N 
HETATM   13  H   UNL     1      61.944  12.283   1.780  1.00  0.00     0.156 HD
HETATM   14  H   UNL     1      60.471  11.439   1.944  1.00  0.00     0.156 HD
ENDBRANCH   2  12
TORSDOF 3
ENDMDL
MODEL 8
REMARK VINA RESULT:      -4.7      0.956      2.052
REMARK  3 active torsions:
REMARK  status: ('A' for Active; 'I' for Inactive)
REMARK    1  A    between atoms: C_1  and  O_2 
REMARK    2  A    between atoms: O_2  and  C_6 
REMARK    3  A    between atoms: C_7  and  N_8 
ROOT
HETATM    1  C   UNL     1      77.142   9.795  17.755  1.00  0.00     0.078 A 
HETATM    2  C   UNL     1      77.337   7.932  15.647  1.00  0.00     0.025 A 
HETATM    3  C   UNL     1      77.531  10.213  16.463  1.00  0.00     0.039 A 
HETATM    4  C   UNL     1      76.881   8.436  17.974  1.00  0.00     0.039 A 
HETATM    5  C   UNL     1      77.623   9.284  15.420  1.00  0.00     0.031 A 
HETATM    6  C   UNL     1      76.973   7.511  16.931  1.00  0.00     0.031 A 
ENDROOT
BRANCH   1   7
HETATM    7  O   UNL     1      77.010  10.636  18.818  1.00  0.00    -0.255 OA
BRANCH   7   8
HETATM    8  C   UNL     1      77.973  11.236  19.616  1.00  0.00     0.530 C 
HETATM    9  F   UNL     1      79.246  10.749  19.395  1.00  0.00    -0.144 F 
HETATM   10  F   UNL     1      77.640  11.059  20.945  1.00  0.00    -0.144 F 
HETATM   11  F   UNL     1      77.986  12.589  19.339  1.00  0.00    -0.144 F 
ENDBRANCH   7   8
ENDBRANCH   1   7
BRANCH   2  12
HETATM   12  N   UNL     1      77.416   6.995  14.587  1.00  0.00    -0.399 N 
HETATM   13  H   UNL     1      78.292   6.649  14.300  1.00  0.00     0.156 HD
HETATM   14  H   UNL     1      76.595   6.692  14.137  1.00  0.00     0.156 HD
ENDBRANCH   2  12
TORSDOF 3
ENDMDL
MODEL 9
REMARK VINA RESULT:      -4.6     17.862     18.764
REMARK  3 active torsions:
REMARK  status: ('A' for Active; 'I' for Inactive)
REMARK    1  A    between atoms: C_1  and  O_2 
REMARK    2  A    between atoms: O_2  and  C_6 
REMARK    3  A    between atoms: C_7  and  N_8 
ROOT
HETATM    1  C   UNL     1      64.020   9.143   4.981  1.00  0.00     0.078 A 
HETATM    2  C   UNL     1      61.949   9.399   3.084  1.00  0.00     0.025 A 
HETATM    3  C   UNL     1      63.835   8.159   3.985  1.00  0.00     0.039 A 
HETATM    4  C   UNL     1      63.140  10.233   5.024  1.00  0.00     0.039 A 
HETATM    5  C   UNL     1      62.808   8.293   3.044  1.00  0.00     0.031 A 
HETATM    6  C   UNL     1      62.115  10.364   4.084  1.00  0.00     0.031 A 
ENDROOT
BRANCH   1   7
HETATM    7  O   UNL     1      65.006   9.098   5.920  1.00  0.00    -0.255 OA
BRANCH   7   8
HETATM    8  C   UNL     1      66.093   8.246   6.044  1.00  0.00     0.530 C 
HETATM    9  F   UNL     1      66.853   8.159   4.894  1.00  0.00    -0.144 F 
HETATM   10  F   UNL     1      65.649   6.986   6.395  1.00  0.00    -0.144 F 
HETATM   11  F   UNL     1      66.909   8.726   7.050  1.00  0.00    -0.144 F 
ENDBRANCH   7   8
ENDBRANCH   1   7
BRANCH   2  12
HETATM   12  N   UNL     1      60.919   9.541   2.122  1.00  0.00    -0.399 N 
HETATM   13  H   UNL     1      60.085  10.008   2.359  1.00  0.00     0.156 HD
HETATM   14  H   UNL     1      61.036   9.173   1.217  1.00  0.00     0.156 HD
ENDBRANCH   2  12
TORSDOF 3
ENDMDL
