MODEL 1
REMARK VINA RESULT:      -6.3      0.000      0.000
REMARK  1 active torsions:
REMARK  status: ('A' for Active; 'I' for Inactive)
REMARK    1  A    between atoms: C_1  and  C_7 
ROOT
HETATM    1  C   UNL     1      75.915   1.050  17.377  1.00  0.00     0.158 C 
HETATM    2  O   UNL     1      77.780   2.656  18.954  1.00  0.00    -0.310 OA
HETATM    3  C   UNL     1      77.080   0.463  18.142  1.00  0.00    -0.005 A 
HETATM    4  C   UNL     1      75.926   2.561  17.368  1.00  0.00    -0.005 A 
HETATM    5  C   UNL     1      77.919   1.292  18.888  1.00  0.00     0.083 A 
HETATM    6  C   UNL     1      76.834   3.261  18.165  1.00  0.00     0.083 A 
HETATM    7  C   UNL     1      77.319  -0.923  18.138  1.00  0.00     0.011 A 
HETATM    8  C   UNL     1      75.012   3.285  16.583  1.00  0.00     0.011 A 
HETATM    9  C   UNL     1      76.819   4.658  18.197  1.00  0.00     0.038 A 
HETATM   10  C   UNL     1      78.970   0.750  19.632  1.00  0.00     0.038 A 
HETATM   11  C   UNL     1      74.998   4.681  16.617  1.00  0.00     0.001 A 
HETATM   12  C   UNL     1      78.367  -1.462  18.886  1.00  0.00     0.001 A 
HETATM   13  C   UNL     1      75.898   5.368  17.428  1.00  0.00     0.003 A 
HETATM   14  C   UNL     1      79.191  -0.626  19.636  1.00  0.00     0.003 A 
ENDROOT
BRANCH   1  15
HETATM   15  C   UNL     1      74.595   0.532  17.939  1.00  0.00     0.186 C 
HETATM   16  O   UNL     1      74.219   0.538  19.100  1.00  0.00    -0.647 OA
HETATM   17  O   UNL     1      73.784   0.021  16.983  1.00  0.00    -0.647 OA
ENDBRANCH   1  15
TORSDOF 1
ENDMDL
MODEL 2
REMARK VINA RESULT:      -6.2     16.633     19.178
REMARK  1 active torsions:
REMARK  status: ('A' for Active; 'I' for Inactive)
REMARK    1  A    between atoms: C_1  and  C_7 
ROOT
HETATM    1  C   UNL     1      64.215   7.260   3.702  1.00  0.00     0.158 C 
HETATM    2  O   UNL     1      65.043   9.098   5.820  1.00  0.00    -0.310 OA
HETATM    3  C   UNL     1      65.473   7.075   4.522  1.00  0.00    -0.005 A 
HETATM    4  C   UNL     1      63.533   8.582   3.971  1.00  0.00    -0.005 A 
HETATM    5  C   UNL     1      65.794   7.986   5.529  1.00  0.00     0.083 A 
HETATM    6  C   UNL     1      63.972   9.399   5.015  1.00  0.00     0.083 A 
HETATM    7  C   UNL     1      66.319   5.974   4.303  1.00  0.00     0.011 A 
HETATM    8  C   UNL     1      62.436   8.999   3.198  1.00  0.00     0.011 A 
HETATM    9  C   UNL     1      63.317  10.600   5.298  1.00  0.00     0.038 A 
HETATM   10  C   UNL     1      66.932   7.797   6.317  1.00  0.00     0.038 A 
HETATM   11  C   UNL     1      61.783  10.199   3.482  1.00  0.00     0.001 A 
HETATM   12  C   UNL     1      67.453   5.784   5.095  1.00  0.00     0.001 A 
HETATM   13  C   UNL     1      62.221  10.998   4.536  1.00  0.00     0.003 A 
HETATM   14  C   UNL     1      67.757   6.694   6.105  1.00  0.00     0.003 A 
ENDROOT
BRANCH   1  15
HETATM   15  C   UNL     1      63.248   6.105   3.946  1.00  0.00     0.186 C 
HETATM   16  O   UNL     1      62.828   5.293   3.139  1.00  0.00    -0.647 OA
HETATM   17  O   UNL     1      62.847   6.024   5.237  1.00  0.00    -0.647 OA
ENDBRANCH   1  15
TORSDOF 1
ENDMDL
MODEL 3
REMARK VINA RESULT:      -6.0     12.027     14.941
REMARK  1 active torsions:
REMARK  status: ('A' for Active; 'I' for Inactive)
REMARK    1  A    between atoms: C_1  and  C_7 
ROOT
HETATM    1  C   UNL     1      68.172   5.572   8.021  1.00  0.00     0.158 C 
HETATM    2  O   UNL     1      67.982   3.327   6.158  1.00  0.00    -0.310 OA
HETATM    3  C   UNL     1      67.768   5.723   6.571  1.00  0.00    -0.005 A 
HETATM    4  C   UNL     1      68.637   4.173   8.353  1.00  0.00    -0.005 A 
HETATM    5  C   UNL     1      67.682   4.602   5.746  1.00  0.00     0.083 A 
HETATM    6  C   UNL     1      68.495   3.146   7.418  1.00  0.00     0.083 A 
HETATM    7  C   UNL     1      67.446   6.986   6.041  1.00  0.00     0.011 A 
HETATM    8  C   UNL     1      69.195   3.876   9.609  1.00  0.00     0.011 A 
HETATM    9  C   UNL     1      68.881   1.841   7.736  1.00  0.00     0.038 A 
HETATM   10  C   UNL     1      67.268   4.730   4.418  1.00  0.00     0.038 A 
HETATM   11  C   UNL     1      69.579   2.572   9.924  1.00  0.00     0.001 A 
HETATM   12  C   UNL     1      67.028   7.111   4.716  1.00  0.00     0.001 A 
HETATM   13  C   UNL     1      69.417   1.552   8.989  1.00  0.00     0.003 A 
HETATM   14  C   UNL     1      66.936   5.983   3.905  1.00  0.00     0.003 A 
ENDROOT
BRANCH   1  15
HETATM   15  C   UNL     1      67.023   5.980   8.938  1.00  0.00     0.186 C 
HETATM   16  O   UNL     1      66.971   6.931   9.700  1.00  0.00    -0.647 OA
HETATM   17  O   UNL     1      65.960   5.147   8.845  1.00  0.00    -0.647 OA
ENDBRANCH   1  15
TORSDOF 1
ENDMDL
MODEL 4
REMARK VINA RESULT:      -5.9     18.838     21.327
REMARK  1 active torsions:
REMARK  status: ('A' for Active; 'I' for Inactive)
REMARK    1  A    between atoms: C_1  and  C_7 
ROOT
HETATM    1  C   UNL     1      63.495   8.010   4.619  1.00  0.00     0.158 C 
HETATM    2  O   UNL     1      62.839   7.718   1.784  1.00  0.00    -0.310 OA
HETATM    3  C   UNL     1      62.868   9.110   3.790  1.00  0.00    -0.005 A 
HETATM    4  C   UNL     1      63.908   6.818   3.787  1.00  0.00    -0.005 A 
HETATM    5  C   UNL     1      62.567   8.890   2.446  1.00  0.00     0.083 A 
HETATM    6  C   UNL     1      63.540   6.738   2.443  1.00  0.00     0.083 A 
HETATM    7  C   UNL     1      62.554  10.354   4.365  1.00  0.00     0.011 A 
HETATM    8  C   UNL     1      64.643   5.762   4.353  1.00  0.00     0.011 A 
HETATM    9  C   UNL     1      63.879   5.617   1.681  1.00  0.00     0.038 A 
HETATM   10  C   UNL     1      61.949   9.887   1.687  1.00  0.00     0.038 A 
HETATM   11  C   UNL     1      64.980   4.643   3.591  1.00  0.00     0.001 A 
HETATM   12  C   UNL     1      61.932  11.347   3.606  1.00  0.00     0.001 A 
HETATM   13  C   UNL     1      64.593   4.568   2.255  1.00  0.00     0.003 A 
HETATM   14  C   UNL     1      61.626  11.112   2.268  1.00  0.00     0.003 A 
ENDROOT
BRANCH   1  15
HETATM   15  C   UNL     1      62.546   7.578   5.732  1.00  0.00     0.186 C 
HETATM   16  O   UNL     1      62.685   7.720   6.936  1.00  0.00    -0.647 OA
HETATM   17  O   UNL     1      61.431   6.970   5.262  1.00  0.00    -0.647 OA
ENDBRANCH   1  15
TORSDOF 1
ENDMDL
MODEL 5
REMARK VINA RESULT:      -5.7     14.440     16.981
REMARK  1 active torsions:
REMARK  status: ('A' for Active; 'I' for Inactive)
REMARK    1  A    between atoms: C_1  and  C_7 
ROOT
HETATM    1  C   UNL     1      66.503   6.082   5.243  1.00  0.00     0.158 C 
HETATM    2  O   UNL     1      64.766   6.994   7.410  1.00  0.00    -0.310 OA
HETATM    3  C   UNL     1      66.920   6.093   6.697  1.00  0.00    -0.005 A 
HETATM    4  C   UNL     1      65.170   6.756   5.013  1.00  0.00    -0.005 A 
HETATM    5  C   UNL     1      66.029   6.526   7.679  1.00  0.00     0.083 A 
HETATM    6  C   UNL     1      64.385   7.146   6.100  1.00  0.00     0.083 A 
HETATM    7  C   UNL     1      68.194   5.642   7.084  1.00  0.00     0.011 A 
HETATM    8  C   UNL     1      64.688   6.979   3.712  1.00  0.00     0.011 A 
HETATM    9  C   UNL     1      63.131   7.728   5.895  1.00  0.00     0.038 A 
HETATM   10  C   UNL     1      66.392   6.498   9.027  1.00  0.00     0.038 A 
HETATM   11  C   UNL     1      63.435   7.560   3.509  1.00  0.00     0.001 A 
HETATM   12  C   UNL     1      68.554   5.610   8.432  1.00  0.00     0.001 A 
HETATM   13  C   UNL     1      62.654   7.930   4.602  1.00  0.00     0.003 A 
HETATM   14  C   UNL     1      67.652   6.035   9.405  1.00  0.00     0.003 A 
ENDROOT
BRANCH   1  15
HETATM   15  C   UNL     1      66.473   4.653   4.709  1.00  0.00     0.186 C 
HETATM   16  O   UNL     1      65.717   3.749   5.024  1.00  0.00    -0.647 OA
HETATM   17  O   UNL     1      67.424   4.425   3.773  1.00  0.00    -0.647 OA
ENDBRANCH   1  15
TORSDOF 1
ENDMDL
MODEL 6
REMARK VINA RESULT:      -5.6     14.145     16.650
REMARK  1 active torsions:
REMARK  status: ('A' for Active; 'I' for Inactive)
REMARK    1  A    between atoms: C_1  and  C_7 
ROOT
HETATM    1  C   UNL     1      65.938   6.684   6.137  1.00  0.00     0.158 C 
HETATM    2  O   UNL     1      67.718   4.464   5.464  1.00  0.00    -0.310 OA
HETATM    3  C   UNL     1      66.915   6.073   7.116  1.00  0.00    -0.005 A 
HETATM    4  C   UNL     1      65.854   5.913   4.839  1.00  0.00    -0.005 A 
HETATM    5  C   UNL     1      67.746   5.026   6.717  1.00  0.00     0.083 A 
HETATM    6  C   UNL     1      66.753   4.877   4.579  1.00  0.00     0.083 A 
HETATM    7  C   UNL     1      67.022   6.565   8.429  1.00  0.00     0.011 A 
HETATM    8  C   UNL     1      64.892   6.237   3.867  1.00  0.00     0.011 A 
HETATM    9  C   UNL     1      66.710   4.191   3.363  1.00  0.00     0.038 A 
HETATM   10  C   UNL     1      68.680   4.486   7.604  1.00  0.00     0.038 A 
HETATM   11  C   UNL     1      64.851   5.551   2.652  1.00  0.00     0.001 A 
HETATM   12  C   UNL     1      67.959   6.028   9.312  1.00  0.00     0.001 A 
HETATM   13  C   UNL     1      65.764   4.530   2.398  1.00  0.00     0.003 A 
HETATM   14  C   UNL     1      68.791   4.990   8.899  1.00  0.00     0.003 A 
ENDROOT
BRANCH   1  15
HETATM   15  C   UNL     1      66.299   8.141   5.865  1.00  0.00     0.186 C 
HETATM   16  O   UNL     1      65.645   9.138   6.121  1.00  0.00    -0.647 OA
HETATM   17  O   UNL     1      67.507   8.277   5.268  1.00  0.00    -0.647 OA
ENDBRANCH   1  15
TORSDOF 1
ENDMDL
MODEL 7
REMARK VINA RESULT:      -5.6     18.077     20.263
REMARK  1 active torsions:
REMARK  status: ('A' for Active; 'I' for Inactive)
REMARK    1  A    between atoms: C_1  and  C_7 
ROOT
HETATM    1  C   UNL     1      64.017   7.750   5.062  1.00  0.00     0.158 C 
HETATM    2  O   UNL     1      62.998   7.822   2.323  1.00  0.00    -0.310 OA
HETATM    3  C   UNL     1      64.036   6.556   4.134  1.00  0.00    -0.005 A 
HETATM    4  C   UNL     1      63.257   8.923   4.487  1.00  0.00    -0.005 A 
HETATM    5  C   UNL     1      63.547   6.671   2.832  1.00  0.00     0.083 A 
HETATM    6  C   UNL     1      62.819   8.894   3.162  1.00  0.00     0.083 A 
HETATM    7  C   UNL     1      64.569   5.325   4.555  1.00  0.00     0.011 A 
HETATM    8  C   UNL     1      63.001  10.067   5.262  1.00  0.00     0.011 A 
HETATM    9  C   UNL     1      62.156   9.993   2.610  1.00  0.00     0.038 A 
HETATM   10  C   UNL     1      63.602   5.584   1.957  1.00  0.00     0.038 A 
HETATM   11  C   UNL     1      62.339  11.165   4.709  1.00  0.00     0.001 A 
HETATM   12  C   UNL     1      64.627   4.241   3.678  1.00  0.00     0.001 A 
HETATM   13  C   UNL     1      61.921  11.130   3.381  1.00  0.00     0.003 A 
HETATM   14  C   UNL     1      64.146   4.372   2.377  1.00  0.00     0.003 A 
ENDROOT
BRANCH   1  15
HETATM   15  C   UNL     1      65.440   8.165   5.423  1.00  0.00     0.186 C 
HETATM   16  O   UNL     1      66.324   8.547   4.674  1.00  0.00    -0.647 OA
HETATM   17  O   UNL     1      65.688   8.082   6.752  1.00  0.00    -0.647 OA
ENDBRANCH   1  15
TORSDOF 1
ENDMDL
MODEL 8
REMARK VINA RESULT:      -5.5     14.623     17.506
REMARK  1 active torsions:
REMARK  status: ('A' for Active; 'I' for Inactive)
REMARK    1  A    between atoms: C_1  and  C_7 
ROOT
HETATM    1  C   UNL     1      66.035   5.549   5.295  1.00  0.00     0.158 C 
HETATM    2  O   UNL     1      64.809   7.017   7.506  1.00  0.00    -0.310 OA
HETATM    3  C   UNL     1      64.625   6.094   5.253  1.00  0.00    -0.005 A 
HETATM    4  C   UNL     1      66.673   5.687   6.659  1.00  0.00    -0.005 A 
HETATM    5  C   UNL     1      64.113   6.801   6.342  1.00  0.00     0.083 A 
HETATM    6  C   UNL     1      66.036   6.422   7.660  1.00  0.00     0.083 A 
HETATM    7  C   UNL     1      63.820   5.923   4.112  1.00  0.00     0.011 A 
HETATM    8  C   UNL     1      67.921   5.104   6.934  1.00  0.00     0.011 A 
HETATM    9  C   UNL     1      66.641   6.592   8.908  1.00  0.00     0.038 A 
HETATM   10  C   UNL     1      62.827   7.343   6.292  1.00  0.00     0.038 A 
HETATM   11  C   UNL     1      68.525   5.275   8.181  1.00  0.00     0.001 A 
HETATM   12  C   UNL     1      62.538   6.470   4.063  1.00  0.00     0.001 A 
HETATM   13  C   UNL     1      67.887   6.024   9.167  1.00  0.00     0.003 A 
HETATM   14  C   UNL     1      62.042   7.184   5.152  1.00  0.00     0.003 A 
ENDROOT
BRANCH   1  15
HETATM   15  C   UNL     1      66.898   6.227   4.235  1.00  0.00     0.186 C 
HETATM   16  O   UNL     1      67.319   7.372   4.228  1.00  0.00    -0.647 OA
HETATM   17  O   UNL     1      67.204   5.403   3.205  1.00  0.00    -0.647 OA
ENDBRANCH   1  15
TORSDOF 1
ENDMDL
MODEL 9
REMARK VINA RESULT:      -5.4     12.425     14.618
REMARK  1 active torsions:
REMARK  status: ('A' for Active; 'I' for Inactive)
REMARK    1  A    between atoms: C_1  and  C_7 
ROOT
HETATM    1  C   UNL     1      67.594   3.421   6.284  1.00  0.00     0.158 C 
HETATM    2  O   UNL     1      68.393   5.929   7.557  1.00  0.00    -0.310 OA
HETATM    3  C   UNL     1      68.356   3.488   7.589  1.00  0.00    -0.005 A 
HETATM    4  C   UNL     1      67.449   4.773   5.624  1.00  0.00    -0.005 A 
HETATM    5  C   UNL     1      68.688   4.724   8.145  1.00  0.00     0.083 A 
HETATM    6  C   UNL     1      67.834   5.931   6.303  1.00  0.00     0.083 A 
HETATM    7  C   UNL     1      68.716   2.314   8.273  1.00  0.00     0.011 A 
HETATM    8  C   UNL     1      66.904   4.892   4.333  1.00  0.00     0.011 A 
HETATM    9  C   UNL     1      67.660   7.187   5.716  1.00  0.00     0.038 A 
HETATM   10  C   UNL     1      69.354   4.793   9.371  1.00  0.00     0.038 A 
HETATM   11  C   UNL     1      66.730   6.148   3.749  1.00  0.00     0.001 A 
HETATM   12  C   UNL     1      69.377   2.385   9.500  1.00  0.00     0.001 A 
HETATM   13  C   UNL     1      67.104   7.297   4.444  1.00  0.00     0.003 A 
HETATM   14  C   UNL     1      69.693   3.624  10.051  1.00  0.00     0.003 A 
ENDROOT
BRANCH   1  15
HETATM   15  C   UNL     1      66.223   2.788   6.501  1.00  0.00     0.186 C 
HETATM   16  O   UNL     1      65.743   1.821   5.933  1.00  0.00    -0.647 OA
HETATM   17  O   UNL     1      65.502   3.419   7.458  1.00  0.00    -0.647 OA
ENDBRANCH   1  15
TORSDOF 1
ENDMDL
