MODEL 1
REMARK VINA RESULT:      -5.7      0.000      0.000
REMARK  2 active torsions:
REMARK  status: ('A' for Active; 'I' for Inactive)
REMARK    1  A    between atoms: C_1  and  C_3 
REMARK    2  A    between atoms: C_3  and  C_4 
ROOT
HETATM    1  C   UNL     1      77.794  11.035  19.195  1.00  0.00    -0.048 A 
HETATM    2  C   UNL     1      76.586  13.391  20.083  1.00  0.00     0.116 A 
HETATM    3  F   UNL     1      76.000  14.515  20.515  1.00  0.00    -0.206 F 
HETATM    4  C   UNL     1      77.679  12.879  20.771  1.00  0.00     0.043 A 
HETATM    5  C   UNL     1      76.094  12.752  18.951  1.00  0.00     0.043 A 
HETATM    6  C   UNL     1      76.698  11.578  18.504  1.00  0.00     0.011 A 
HETATM    7  C   UNL     1      78.287  11.704  20.327  1.00  0.00     0.011 A 
ENDROOT
BRANCH   1   8
HETATM    8  C   UNL     1      78.433   9.750  18.721  1.00  0.00     0.151 C 
BRANCH   8   9
HETATM    9  C   UNL     1      77.565   8.919  17.809  1.00  0.00     0.176 C 
HETATM   10  O   UNL     1      77.476   8.968  16.594  1.00  0.00    -0.648 OA
HETATM   11  O   UNL     1      76.821   8.031  18.505  1.00  0.00    -0.648 OA
ENDBRANCH   8   9
ENDBRANCH   1   8
TORSDOF 2
ENDMDL
MODEL 2
REMARK VINA RESULT:      -5.6     13.205     14.535
REMARK  2 active torsions:
REMARK  status: ('A' for Active; 'I' for Inactive)
REMARK    1  A    between atoms: C_1  and  C_3 
REMARK    2  A    between atoms: C_3  and  C_4 
ROOT
HETATM    1  C   UNL     1      72.018  23.810  14.108  1.00  0.00    -0.048 A 
HETATM    2  C   UNL     1      69.262  24.197  14.340  1.00  0.00     0.116 A 
HETATM    3  F   UNL     1      67.940  24.375  14.461  1.00  0.00    -0.206 F 
HETATM    4  C   UNL     1      70.131  25.007  15.061  1.00  0.00     0.043 A 
HETATM    5  C   UNL     1      69.746  23.204  13.497  1.00  0.00     0.043 A 
HETATM    6  C   UNL     1      71.122  23.012  13.376  1.00  0.00     0.011 A 
HETATM    7  C   UNL     1      71.509  24.818  14.943  1.00  0.00     0.011 A 
ENDROOT
BRANCH   1   8
HETATM    8  C   UNL     1      73.507  23.584  13.992  1.00  0.00     0.151 C 
BRANCH   8   9
HETATM    9  C   UNL     1      74.057  22.542  14.934  1.00  0.00     0.176 C 
HETATM   10  O   UNL     1      73.564  22.113  15.964  1.00  0.00    -0.648 OA
HETATM   11  O   UNL     1      75.251  22.071  14.511  1.00  0.00    -0.648 OA
ENDBRANCH   8   9
ENDBRANCH   1   8
TORSDOF 2
ENDMDL
MODEL 3
REMARK VINA RESULT:      -5.4     20.542     21.439
REMARK  2 active torsions:
REMARK  status: ('A' for Active; 'I' for Inactive)
REMARK    1  A    between atoms: C_1  and  C_3 
REMARK    2  A    between atoms: C_3  and  C_4 
ROOT
HETATM    1  C   UNL     1      62.442   9.004   3.686  1.00  0.00    -0.048 A 
HETATM    2  C   UNL     1      61.818  11.335   2.281  1.00  0.00     0.116 A 
HETATM    3  F   UNL     1      61.531  12.456   1.605  1.00  0.00    -0.206 F 
HETATM    4  C   UNL     1      61.978  10.140   1.590  1.00  0.00     0.043 A 
HETATM    5  C   UNL     1      61.954  11.384   3.663  1.00  0.00     0.043 A 
HETATM    6  C   UNL     1      62.261  10.220   4.367  1.00  0.00     0.011 A 
HETATM    7  C   UNL     1      62.285   8.973   2.291  1.00  0.00     0.011 A 
ENDROOT
BRANCH   1   8
HETATM    8  C   UNL     1      62.797   7.750   4.450  1.00  0.00     0.151 C 
BRANCH   8   9
HETATM    9  C   UNL     1      63.525   7.993   5.748  1.00  0.00     0.176 C 
HETATM   10  O   UNL     1      64.675   8.364   5.917  1.00  0.00    -0.648 OA
HETATM   11  O   UNL     1      62.733   7.747   6.816  1.00  0.00    -0.648 OA
ENDBRANCH   8   9
ENDBRANCH   1   8
TORSDOF 2
ENDMDL
MODEL 4
REMARK VINA RESULT:      -5.0     19.921     20.806
REMARK  2 active torsions:
REMARK  status: ('A' for Active; 'I' for Inactive)
REMARK    1  A    between atoms: C_1  and  C_3 
REMARK    2  A    between atoms: C_3  and  C_4 
ROOT
HETATM    1  C   UNL     1      62.821   9.342   4.503  1.00  0.00    -0.048 A 
HETATM    2  C   UNL     1      61.829  11.261   2.735  1.00  0.00     0.116 A 
HETATM    3  F   UNL     1      61.341  12.178   1.889  1.00  0.00    -0.206 F 
HETATM    4  C   UNL     1      61.998  11.586   4.075  1.00  0.00     0.043 A 
HETATM    5  C   UNL     1      62.158   9.997   2.260  1.00  0.00     0.043 A 
HETATM    6  C   UNL     1      62.657   9.039   3.141  1.00  0.00     0.011 A 
HETATM    7  C   UNL     1      62.498  10.630   4.960  1.00  0.00     0.011 A 
ENDROOT
BRANCH   1   8
HETATM    8  C   UNL     1      63.342   8.294   5.459  1.00  0.00     0.151 C 
BRANCH   8   9
HETATM    9  C   UNL     1      64.831   8.065   5.387  1.00  0.00     0.176 C 
HETATM   10  O   UNL     1      65.430   7.090   4.966  1.00  0.00    -0.648 OA
HETATM   11  O   UNL     1      65.520   9.124   5.868  1.00  0.00    -0.648 OA
ENDBRANCH   8   9
ENDBRANCH   1   8
TORSDOF 2
ENDMDL
MODEL 5
REMARK VINA RESULT:      -4.8     22.169     23.026
REMARK  2 active torsions:
REMARK  status: ('A' for Active; 'I' for Inactive)
REMARK    1  A    between atoms: C_1  and  C_3 
REMARK    2  A    between atoms: C_3  and  C_4 
ROOT
HETATM    1  C   UNL     1      62.108   9.462   1.858  1.00  0.00    -0.048 A 
HETATM    2  C   UNL     1      62.237  11.020   4.172  1.00  0.00     0.116 A 
HETATM    3  F   UNL     1      62.288  11.764   5.284  1.00  0.00    -0.206 F 
HETATM    4  C   UNL     1      62.549   9.667   4.238  1.00  0.00     0.043 A 
HETATM    5  C   UNL     1      61.873  11.610   2.968  1.00  0.00     0.043 A 
HETATM    6  C   UNL     1      61.811  10.834   1.811  1.00  0.00     0.011 A 
HETATM    7  C   UNL     1      62.489   8.887   3.082  1.00  0.00     0.011 A 
ENDROOT
BRANCH   1   8
HETATM    8  C   UNL     1      62.018   8.619   0.607  1.00  0.00     0.151 C 
BRANCH   8   9
HETATM    9  C   UNL     1      60.696   7.920   0.417  1.00  0.00     0.176 C 
HETATM   10  O   UNL     1      59.573   8.348   0.626  1.00  0.00    -0.648 OA
HETATM   11  O   UNL     1      60.862   6.661  -0.048  1.00  0.00    -0.648 OA
ENDBRANCH   8   9
ENDBRANCH   1   8
TORSDOF 2
ENDMDL
MODEL 6
REMARK VINA RESULT:      -4.8      7.686      9.118
REMARK  2 active torsions:
REMARK  status: ('A' for Active; 'I' for Inactive)
REMARK    1  A    between atoms: C_1  and  C_3 
REMARK    2  A    between atoms: C_3  and  C_4 
ROOT
HETATM    1  C   UNL     1      75.208   2.528  17.164  1.00  0.00    -0.048 A 
HETATM    2  C   UNL     1      76.649   4.891  17.536  1.00  0.00     0.116 A 
HETATM    3  F   UNL     1      77.334   6.026  17.724  1.00  0.00    -0.206 F 
HETATM    4  C   UNL     1      77.119   3.707  18.091  1.00  0.00     0.043 A 
HETATM    5  C   UNL     1      75.478   4.913  16.789  1.00  0.00     0.043 A 
HETATM    6  C   UNL     1      74.759   3.733  16.599  1.00  0.00     0.011 A 
HETATM    7  C   UNL     1      76.403   2.524  17.903  1.00  0.00     0.011 A 
ENDROOT
BRANCH   1   8
HETATM    8  C   UNL     1      74.415   1.256  16.976  1.00  0.00     0.151 C 
BRANCH   8   9
HETATM    9  C   UNL     1      74.591   0.240  18.076  1.00  0.00     0.176 C 
HETATM   10  O   UNL     1      74.191   0.290  19.228  1.00  0.00    -0.648 OA
HETATM   11  O   UNL     1      75.291  -0.836  17.652  1.00  0.00    -0.648 OA
ENDBRANCH   8   9
ENDBRANCH   1   8
TORSDOF 2
ENDMDL
MODEL 7
REMARK VINA RESULT:      -4.6     15.258     16.572
REMARK  2 active torsions:
REMARK  status: ('A' for Active; 'I' for Inactive)
REMARK    1  A    between atoms: C_1  and  C_3 
REMARK    2  A    between atoms: C_3  and  C_4 
ROOT
HETATM    1  C   UNL     1      67.032   5.995   7.002  1.00  0.00    -0.048 A 
HETATM    2  C   UNL     1      68.660   4.902   8.991  1.00  0.00     0.116 A 
HETATM    3  F   UNL     1      69.432   4.371   9.948  1.00  0.00    -0.206 F 
HETATM    4  C   UNL     1      68.643   4.327   7.726  1.00  0.00     0.043 A 
HETATM    5  C   UNL     1      67.887   6.021   9.277  1.00  0.00     0.043 A 
HETATM    6  C   UNL     1      67.076   6.571   8.283  1.00  0.00     0.011 A 
HETATM    7  C   UNL     1      67.833   4.874   6.729  1.00  0.00     0.011 A 
ENDROOT
BRANCH   1   8
HETATM    8  C   UNL     1      66.136   6.580   5.936  1.00  0.00     0.151 C 
BRANCH   8   9
HETATM    9  C   UNL     1      66.344   8.052   5.681  1.00  0.00     0.176 C 
HETATM   10  O   UNL     1      65.671   8.993   6.069  1.00  0.00    -0.648 OA
HETATM   11  O   UNL     1      67.438   8.274   4.919  1.00  0.00    -0.648 OA
ENDBRANCH   8   9
ENDBRANCH   1   8
TORSDOF 2
ENDMDL
MODEL 8
REMARK VINA RESULT:      -4.5     14.619     15.491
REMARK  2 active torsions:
REMARK  status: ('A' for Active; 'I' for Inactive)
REMARK    1  A    between atoms: C_1  and  C_3 
REMARK    2  A    between atoms: C_3  and  C_4 
ROOT
HETATM    1  C   UNL     1      68.645   4.920   8.659  1.00  0.00    -0.048 A 
HETATM    2  C   UNL     1      66.713   6.538   7.455  1.00  0.00     0.116 A 
HETATM    3  F   UNL     1      65.778   7.306   6.881  1.00  0.00    -0.206 F 
HETATM    4  C   UNL     1      67.038   6.736   8.792  1.00  0.00     0.043 A 
HETATM    5  C   UNL     1      67.345   5.553   6.706  1.00  0.00     0.043 A 
HETATM    6  C   UNL     1      68.313   4.747   7.305  1.00  0.00     0.011 A 
HETATM    7  C   UNL     1      68.006   5.932   9.394  1.00  0.00     0.011 A 
ENDROOT
BRANCH   1   8
HETATM    8  C   UNL     1      69.678   4.030   9.310  1.00  0.00     0.151 C 
BRANCH   8   9
HETATM    9  C   UNL     1      69.114   2.800   9.975  1.00  0.00     0.176 C 
HETATM   10  O   UNL     1      67.981   2.353   9.909  1.00  0.00    -0.648 OA
HETATM   11  O   UNL     1      70.046   2.166  10.720  1.00  0.00    -0.648 OA
ENDBRANCH   8   9
ENDBRANCH   1   8
TORSDOF 2
ENDMDL
MODEL 9
REMARK VINA RESULT:      -4.4     21.481     22.252
REMARK  2 active torsions:
REMARK  status: ('A' for Active; 'I' for Inactive)
REMARK    1  A    between atoms: C_1  and  C_3 
REMARK    2  A    between atoms: C_3  and  C_4 
ROOT
HETATM    1  C   UNL     1      62.417   8.855   3.485  1.00  0.00    -0.048 A 
HETATM    2  C   UNL     1      61.826  11.291   2.254  1.00  0.00     0.116 A 
HETATM    3  F   UNL     1      61.531  12.457   1.665  1.00  0.00    -0.206 F 
HETATM    4  C   UNL     1      61.983  11.240   3.633  1.00  0.00     0.043 A 
HETATM    5  C   UNL     1      61.972  10.148   1.477  1.00  0.00     0.043 A 
HETATM    6  C   UNL     1      62.271   8.931   2.090  1.00  0.00     0.011 A 
HETATM    7  C   UNL     1      62.282  10.024   4.251  1.00  0.00     0.011 A 
ENDROOT
BRANCH   1   8
HETATM    8  C   UNL     1      62.719   7.531   4.147  1.00  0.00     0.151 C 
BRANCH   8   9
HETATM    9  C   UNL     1      61.549   6.581   4.210  1.00  0.00     0.176 C 
HETATM   10  O   UNL     1      60.358   6.845   4.234  1.00  0.00    -0.648 OA
HETATM   11  O   UNL     1      61.955   5.293   4.239  1.00  0.00    -0.648 OA
ENDBRANCH   8   9
ENDBRANCH   1   8
TORSDOF 2
ENDMDL
