MODEL 1
REMARK VINA RESULT:      -6.1      0.000      0.000
REMARK  1 active torsions:
REMARK  status: ('A' for Active; 'I' for Inactive)
REMARK    1  A    between atoms: C_9  and  O_12 
ROOT
HETATM    1  C   UNL     1      63.988   8.824   4.699  1.00  0.00     0.092 A 
HETATM    2  C   UNL     1      63.968   7.799   3.745  1.00  0.00     0.044 A 
HETATM    3  C   UNL     1      65.043   6.792   3.751  1.00  0.00     0.165 C 
HETATM    4  C   UNL     1      63.022   9.846   4.648  1.00  0.00     0.005 A 
HETATM    5  O   UNL     1      64.923   8.886   5.705  1.00  0.00    -0.339 OA
HETATM    6  C   UNL     1      65.642   7.668   5.975  1.00  0.00     0.067 C 
HETATM    7  C   UNL     1      66.186   7.063   4.682  1.00  0.00     0.121 C 
HETATM    8  C   UNL     1      62.963   7.739   2.777  1.00  0.00     0.021 A 
HETATM    9  C   UNL     1      62.026   9.776   3.663  1.00  0.00     0.074 A 
HETATM   10  O   UNL     1      65.020   5.829   2.992  1.00  0.00    -0.292 OA
HETATM   11  C   UNL     1      61.985   8.729   2.741  1.00  0.00     0.038 A 
HETATM   12  C   UNL     1      63.073  10.981   5.636  1.00  0.00     0.054 C 
HETATM   13  C   UNL     1      64.753   6.688   6.764  1.00  0.00     0.046 C 
HETATM   14  C   UNL     1      66.829   8.054   6.870  1.00  0.00     0.046 C 
ENDROOT
BRANCH   9  15
HETATM   15  O   UNL     1      61.075  10.755   3.610  1.00  0.00    -0.360 OA
HETATM   16  H   UNL     1      61.264  11.612   3.940  1.00  0.00     0.217 HD
ENDBRANCH   9  15
TORSDOF 1
ENDMDL
MODEL 2
REMARK VINA RESULT:      -5.7      1.909      3.469
REMARK  1 active torsions:
REMARK  status: ('A' for Active; 'I' for Inactive)
REMARK    1  A    between atoms: C_9  and  O_12 
ROOT
HETATM    1  C   UNL     1      62.532   8.450   3.439  1.00  0.00     0.092 A 
HETATM    2  C   UNL     1      62.789   8.689   4.794  1.00  0.00     0.044 A 
HETATM    3  C   UNL     1      63.107   7.552   5.676  1.00  0.00     0.165 C 
HETATM    4  C   UNL     1      62.135   9.511   2.604  1.00  0.00     0.005 A 
HETATM    5  O   UNL     1      62.647   7.205   2.867  1.00  0.00    -0.339 OA
HETATM    6  C   UNL     1      63.406   6.235   3.615  1.00  0.00     0.067 C 
HETATM    7  C   UNL     1      62.944   6.191   5.069  1.00  0.00     0.121 C 
HETATM    8  C   UNL     1      62.721   9.980   5.321  1.00  0.00     0.021 A 
HETATM    9  C   UNL     1      62.061  10.800   3.151  1.00  0.00     0.074 A 
HETATM   10  O   UNL     1      63.424   7.722   6.848  1.00  0.00    -0.292 OA
HETATM   11  C   UNL     1      62.360  11.041   4.494  1.00  0.00     0.038 A 
HETATM   12  C   UNL     1      61.802   9.249   1.159  1.00  0.00     0.054 C 
HETATM   13  C   UNL     1      64.914   6.518   3.476  1.00  0.00     0.046 C 
HETATM   14  C   UNL     1      63.121   4.870   2.970  1.00  0.00     0.046 C 
ENDROOT
BRANCH   9  15
HETATM   15  O   UNL     1      61.689  11.842   2.349  1.00  0.00    -0.360 OA
HETATM   16  H   UNL     1      61.123  12.511   2.682  1.00  0.00     0.217 HD
ENDBRANCH   9  15
TORSDOF 1
ENDMDL
MODEL 3
REMARK VINA RESULT:      -5.5      6.164      8.660
REMARK  1 active torsions:
REMARK  status: ('A' for Active; 'I' for Inactive)
REMARK    1  A    between atoms: C_9  and  O_12 
ROOT
HETATM    1  C   UNL     1      67.707   3.222   8.663  1.00  0.00     0.092 A 
HETATM    2  C   UNL     1      68.832   3.122   9.490  1.00  0.00     0.044 A 
HETATM    3  C   UNL     1      68.975   1.947  10.368  1.00  0.00     0.165 C 
HETATM    4  C   UNL     1      67.509   4.381   7.889  1.00  0.00     0.005 A 
HETATM    5  O   UNL     1      66.764   2.227   8.564  1.00  0.00    -0.339 OA
HETATM    6  C   UNL     1      67.164   0.928   9.042  1.00  0.00     0.067 C 
HETATM    7  C   UNL     1      67.788   1.033  10.432  1.00  0.00     0.121 C 
HETATM    8  C   UNL     1      69.798   4.129   9.514  1.00  0.00     0.021 A 
HETATM    9  C   UNL     1      68.484   5.388   7.932  1.00  0.00     0.074 A 
HETATM   10  O   UNL     1      69.983   1.773  11.045  1.00  0.00    -0.292 OA
HETATM   11  C   UNL     1      69.625   5.265   8.727  1.00  0.00     0.038 A 
HETATM   12  C   UNL     1      66.273   4.519   7.041  1.00  0.00     0.054 C 
HETATM   13  C   UNL     1      68.094   0.247   8.020  1.00  0.00     0.046 C 
HETATM   14  C   UNL     1      65.881   0.090   9.145  1.00  0.00     0.046 C 
ENDROOT
BRANCH   9  15
HETATM   15  O   UNL     1      68.311   6.513   7.177  1.00  0.00    -0.360 OA
HETATM   16  H   UNL     1      68.606   6.531   6.288  1.00  0.00     0.217 HD
ENDBRANCH   9  15
TORSDOF 1
ENDMDL
MODEL 4
REMARK VINA RESULT:      -5.4      1.742      3.829
REMARK  1 active torsions:
REMARK  status: ('A' for Active; 'I' for Inactive)
REMARK    1  A    between atoms: C_9  and  O_12 
ROOT
HETATM    1  C   UNL     1      63.365   8.561   3.677  1.00  0.00     0.092 A 
HETATM    2  C   UNL     1      62.316   9.178   2.986  1.00  0.00     0.044 A 
HETATM    3  C   UNL     1      61.762   8.523   1.788  1.00  0.00     0.165 C 
HETATM    4  C   UNL     1      63.967   9.217   4.766  1.00  0.00     0.005 A 
HETATM    5  O   UNL     1      63.850   7.320   3.340  1.00  0.00    -0.339 OA
HETATM    6  C   UNL     1      62.999   6.515   2.502  1.00  0.00     0.067 C 
HETATM    7  C   UNL     1      62.508   7.319   1.299  1.00  0.00     0.121 C 
HETATM    8  C   UNL     1      61.811  10.413   3.400  1.00  0.00     0.021 A 
HETATM    9  C   UNL     1      63.455  10.461   5.163  1.00  0.00     0.074 A 
HETATM   10  O   UNL     1      60.787   8.982   1.201  1.00  0.00    -0.292 OA
HETATM   11  C   UNL     1      62.381  11.054   4.497  1.00  0.00     0.038 A 
HETATM   12  C   UNL     1      65.133   8.584   5.478  1.00  0.00     0.054 C 
HETATM   13  C   UNL     1      61.845   5.918   3.331  1.00  0.00     0.046 C 
HETATM   14  C   UNL     1      63.864   5.353   1.992  1.00  0.00     0.046 C 
ENDROOT
BRANCH   9  15
HETATM   15  O   UNL     1      64.022  11.105   6.227  1.00  0.00    -0.360 OA
HETATM   16  H   UNL     1      64.789  10.752   6.634  1.00  0.00     0.217 HD
ENDBRANCH   9  15
TORSDOF 1
ENDMDL
MODEL 5
REMARK VINA RESULT:      -5.4      3.636      6.654
REMARK  1 active torsions:
REMARK  status: ('A' for Active; 'I' for Inactive)
REMARK    1  A    between atoms: C_9  and  O_12 
ROOT
HETATM    1  C   UNL     1      67.638   5.440   6.702  1.00  0.00     0.092 A 
HETATM    2  C   UNL     1      67.118   6.678   7.097  1.00  0.00     0.044 A 
HETATM    3  C   UNL     1      66.554   7.578   6.076  1.00  0.00     0.165 C 
HETATM    4  C   UNL     1      68.265   4.611   7.650  1.00  0.00     0.005 A 
HETATM    5  O   UNL     1      67.570   4.982   5.408  1.00  0.00    -0.339 OA
HETATM    6  C   UNL     1      66.613   5.640   4.555  1.00  0.00     0.067 C 
HETATM    7  C   UNL     1      66.757   7.157   4.651  1.00  0.00     0.121 C 
HETATM    8  C   UNL     1      67.153   7.078   8.434  1.00  0.00     0.021 A 
HETATM    9  C   UNL     1      68.301   5.032   8.987  1.00  0.00     0.074 A 
HETATM   10  O   UNL     1      66.009   8.633   6.384  1.00  0.00    -0.292 OA
HETATM   11  C   UNL     1      67.743   6.248   9.384  1.00  0.00     0.038 A 
HETATM   12  C   UNL     1      68.877   3.303   7.221  1.00  0.00     0.054 C 
HETATM   13  C   UNL     1      65.187   5.154   4.879  1.00  0.00     0.046 C 
HETATM   14  C   UNL     1      66.944   5.208   3.118  1.00  0.00     0.046 C 
ENDROOT
BRANCH   9  15
HETATM   15  O   UNL     1      68.896   4.230   9.921  1.00  0.00    -0.360 OA
HETATM   16  H   UNL     1      69.638   3.708   9.686  1.00  0.00     0.217 HD
ENDBRANCH   9  15
TORSDOF 1
ENDMDL
MODEL 6
REMARK VINA RESULT:      -5.2      1.579      5.177
REMARK  1 active torsions:
REMARK  status: ('A' for Active; 'I' for Inactive)
REMARK    1  A    between atoms: C_9  and  O_12 
ROOT
HETATM    1  C   UNL     1      63.315   7.942   3.252  1.00  0.00     0.092 A 
HETATM    2  C   UNL     1      63.166   9.098   4.026  1.00  0.00     0.044 A 
HETATM    3  C   UNL     1      62.174  10.109   3.623  1.00  0.00     0.165 C 
HETATM    4  C   UNL     1      64.322   7.011   3.570  1.00  0.00     0.005 A 
HETATM    5  O   UNL     1      62.513   7.660   2.172  1.00  0.00    -0.339 OA
HETATM    6  C   UNL     1      61.277   8.397   2.094  1.00  0.00     0.067 C 
HETATM    7  C   UNL     1      61.527   9.891   2.288  1.00  0.00     0.121 C 
HETATM    8  C   UNL     1      63.962   9.315   5.153  1.00  0.00     0.021 A 
HETATM    9  C   UNL     1      65.120   7.249   4.699  1.00  0.00     0.074 A 
HETATM   10  O   UNL     1      61.948  11.096   4.316  1.00  0.00    -0.292 OA
HETATM   11  C   UNL     1      64.939   8.383   5.493  1.00  0.00     0.038 A 
HETATM   12  C   UNL     1      64.524   5.794   2.707  1.00  0.00     0.054 C 
HETATM   13  C   UNL     1      60.254   7.828   3.095  1.00  0.00     0.046 C 
HETATM   14  C   UNL     1      60.728   8.174   0.677  1.00  0.00     0.046 C 
ENDROOT
BRANCH   9  15
HETATM   15  O   UNL     1      66.093   6.348   5.027  1.00  0.00    -0.360 OA
HETATM   16  H   UNL     1      66.224   5.586   4.497  1.00  0.00     0.217 HD
ENDBRANCH   9  15
TORSDOF 1
ENDMDL
MODEL 7
REMARK VINA RESULT:      -5.2     17.395     19.438
REMARK  1 active torsions:
REMARK  status: ('A' for Active; 'I' for Inactive)
REMARK    1  A    between atoms: C_9  and  O_12 
ROOT
HETATM    1  C   UNL     1      76.603   0.773  17.506  1.00  0.00     0.092 A 
HETATM    2  C   UNL     1      75.558   1.116  16.640  1.00  0.00     0.044 A 
HETATM    3  C   UNL     1      74.990   0.082  15.756  1.00  0.00     0.165 C 
HETATM    4  C   UNL     1      77.218   1.768  18.287  1.00  0.00     0.005 A 
HETATM    5  O   UNL     1      77.071  -0.513  17.636  1.00  0.00    -0.339 OA
HETATM    6  C   UNL     1      76.205  -1.553  17.143  1.00  0.00     0.067 C 
HETATM    7  C   UNL     1      75.719  -1.227  15.732  1.00  0.00     0.121 C 
HETATM    8  C   UNL     1      75.071   2.423  16.584  1.00  0.00     0.021 A 
HETATM    9  C   UNL     1      76.724   3.079  18.212  1.00  0.00     0.074 A 
HETATM   10  O   UNL     1      74.019   0.313  15.044  1.00  0.00    -0.292 OA
HETATM   11  C   UNL     1      75.654   3.407  17.378  1.00  0.00     0.038 A 
HETATM   12  C   UNL     1      78.379   1.416  19.179  1.00  0.00     0.054 C 
HETATM   13  C   UNL     1      75.048  -1.797  18.130  1.00  0.00     0.046 C 
HETATM   14  C   UNL     1      77.054  -2.832  17.084  1.00  0.00     0.046 C 
ENDROOT
BRANCH   9  15
HETATM   15  O   UNL     1      77.304   4.053  18.974  1.00  0.00    -0.360 OA
HETATM   16  H   UNL     1      77.036   4.946  18.877  1.00  0.00     0.217 HD
ENDBRANCH   9  15
TORSDOF 1
ENDMDL
MODEL 8
REMARK VINA RESULT:      -5.0      4.809      7.108
REMARK  1 active torsions:
REMARK  status: ('A' for Active; 'I' for Inactive)
REMARK    1  A    between atoms: C_9  and  O_12 
ROOT
HETATM    1  C   UNL     1      66.802   4.083   7.969  1.00  0.00     0.092 A 
HETATM    2  C   UNL     1      67.802   4.542   8.834  1.00  0.00     0.044 A 
HETATM    3  C   UNL     1      68.739   3.573   9.427  1.00  0.00     0.165 C 
HETATM    4  C   UNL     1      65.842   4.982   7.469  1.00  0.00     0.005 A 
HETATM    5  O   UNL     1      66.705   2.770   7.573  1.00  0.00    -0.339 OA
HETATM    6  C   UNL     1      67.882   1.963   7.769  1.00  0.00     0.067 C 
HETATM    7  C   UNL     1      68.419   2.127   9.189  1.00  0.00     0.121 C 
HETATM    8  C   UNL     1      67.902   5.896   9.161  1.00  0.00     0.021 A 
HETATM    9  C   UNL     1      65.950   6.336   7.816  1.00  0.00     0.074 A 
HETATM   10  O   UNL     1      69.683   3.937  10.120  1.00  0.00    -0.292 OA
HETATM   11  C   UNL     1      66.974   6.797   8.645  1.00  0.00     0.038 A 
HETATM   12  C   UNL     1      64.731   4.483   6.584  1.00  0.00     0.054 C 
HETATM   13  C   UNL     1      68.935   2.285   6.692  1.00  0.00     0.046 C 
HETATM   14  C   UNL     1      67.444   0.503   7.579  1.00  0.00     0.046 C 
ENDROOT
BRANCH   9  15
HETATM   15  O   UNL     1      65.032   7.223   7.328  1.00  0.00    -0.360 OA
HETATM   16  H   UNL     1      64.224   6.911   6.968  1.00  0.00     0.217 HD
ENDBRANCH   9  15
TORSDOF 1
ENDMDL
MODEL 9
REMARK VINA RESULT:      -4.8      5.467      8.314
REMARK  1 active torsions:
REMARK  status: ('A' for Active; 'I' for Inactive)
REMARK    1  A    between atoms: C_9  and  O_12 
ROOT
HETATM    1  C   UNL     1      67.852   3.200   7.967  1.00  0.00     0.092 A 
HETATM    2  C   UNL     1      68.288   4.510   7.740  1.00  0.00     0.044 A 
HETATM    3  C   UNL     1      67.801   5.234   6.553  1.00  0.00     0.165 C 
HETATM    4  C   UNL     1      68.380   2.463   9.042  1.00  0.00     0.005 A 
HETATM    5  O   UNL     1      66.913   2.580   7.176  1.00  0.00    -0.339 OA
HETATM    6  C   UNL     1      66.118   3.446   6.344  1.00  0.00     0.067 C 
HETATM    7  C   UNL     1      67.006   4.422   5.575  1.00  0.00     0.121 C 
HETATM    8  C   UNL     1      69.197   5.124   8.605  1.00  0.00     0.021 A 
HETATM    9  C   UNL     1      69.299   3.090   9.896  1.00  0.00     0.074 A 
HETATM   10  O   UNL     1      68.087   6.411   6.360  1.00  0.00    -0.292 OA
HETATM   11  C   UNL     1      69.699   4.412   9.690  1.00  0.00     0.038 A 
HETATM   12  C   UNL     1      67.956   1.034   9.258  1.00  0.00     0.054 C 
HETATM   13  C   UNL     1      65.042   4.156   7.188  1.00  0.00     0.046 C 
HETATM   14  C   UNL     1      65.401   2.538   5.333  1.00  0.00     0.046 C 
ENDROOT
BRANCH   9  15
HETATM   15  O   UNL     1      69.811   2.390  10.952  1.00  0.00    -0.360 OA
HETATM   16  H   UNL     1      69.956   1.467  10.876  1.00  0.00     0.217 HD
ENDBRANCH   9  15
TORSDOF 1
ENDMDL
