MODEL 1
REMARK VINA RESULT:      -6.3      0.000      0.000
REMARK  2 active torsions:
REMARK  status: ('A' for Active; 'I' for Inactive)
REMARK    1  A    between atoms: C_1  and  C_5 
REMARK    2  A    between atoms: C_5  and  C_7 
ROOT
HETATM    1  C   UNL     1      79.215  12.286  21.530  1.00  0.00    -0.020 A 
HETATM    2  N   UNL     1      79.183  10.774  19.890  1.00  0.00    -0.365 N 
HETATM    3  C   UNL     1      79.892  11.218  20.971  1.00  0.00     0.097 A 
HETATM    4  C   UNL     1      78.059  12.514  20.713  1.00  0.00    -0.001 A 
HETATM    5  C   UNL     1      78.068  11.554  19.698  1.00  0.00     0.042 A 
HETATM    6  C   UNL     1      77.005  13.450  20.739  1.00  0.00     0.014 A 
HETATM    7  C   UNL     1      77.076  11.483  18.712  1.00  0.00     0.030 A 
HETATM    8  C   UNL     1      76.013  13.402  19.752  1.00  0.00     0.001 A 
HETATM    9  C   UNL     1      76.050  12.431  18.755  1.00  0.00     0.002 A 
HETATM   10  H   UNL     1      79.434  10.005  19.328  1.00  0.00     0.165 HD
ENDROOT
BRANCH   1  11
HETATM   11  C   UNL     1      79.622  13.054  22.747  1.00  0.00     0.154 C 
BRANCH  11  12
HETATM   12  C   UNL     1      81.106  12.959  23.015  1.00  0.00     0.177 C 
HETATM   13  O   UNL     1      82.022  13.435  22.366  1.00  0.00    -0.648 OA
HETATM   14  O   UNL     1      81.381  12.297  24.163  1.00  0.00    -0.648 OA
ENDBRANCH  11  12
ENDBRANCH   1  11
TORSDOF 2
ENDMDL
MODEL 2
REMARK VINA RESULT:      -5.5     21.871     24.066
REMARK  2 active torsions:
REMARK  status: ('A' for Active; 'I' for Inactive)
REMARK    1  A    between atoms: C_1  and  C_5 
REMARK    2  A    between atoms: C_5  and  C_7 
ROOT
HETATM    1  C   UNL     1      62.300  10.369   4.071  1.00  0.00    -0.020 A 
HETATM    2  N   UNL     1      61.736  11.125   2.049  1.00  0.00    -0.365 N 
HETATM    3  C   UNL     1      61.864  11.474   3.365  1.00  0.00     0.097 A 
HETATM    4  C   UNL     1      62.400   9.292   3.129  1.00  0.00    -0.001 A 
HETATM    5  C   UNL     1      62.041   9.796   1.877  1.00  0.00     0.042 A 
HETATM    6  C   UNL     1      62.760   7.932   3.224  1.00  0.00     0.014 A 
HETATM    7  C   UNL     1      62.026   9.011   0.718  1.00  0.00     0.030 A 
HETATM    8  C   UNL     1      62.737   7.129   2.077  1.00  0.00     0.001 A 
HETATM    9  C   UNL     1      62.376   7.663   0.843  1.00  0.00     0.002 A 
HETATM   10  H   UNL     1      61.464  11.738   1.327  1.00  0.00     0.165 HD
ENDROOT
BRANCH   1  11
HETATM   11  C   UNL     1      62.600  10.313   5.535  1.00  0.00     0.154 C 
BRANCH  11  12
HETATM   12  C   UNL     1      64.084  10.270   5.815  1.00  0.00     0.177 C 
HETATM   13  O   UNL     1      64.886   9.406   5.502  1.00  0.00    -0.648 OA
HETATM   14  O   UNL     1      64.523  11.385   6.444  1.00  0.00    -0.648 OA
ENDBRANCH  11  12
ENDBRANCH   1  11
TORSDOF 2
ENDMDL
MODEL 3
REMARK VINA RESULT:      -5.5      1.384      2.373
REMARK  2 active torsions:
REMARK  status: ('A' for Active; 'I' for Inactive)
REMARK    1  A    between atoms: C_1  and  C_5 
REMARK    2  A    between atoms: C_5  and  C_7 
ROOT
HETATM    1  C   UNL     1      78.939  12.170  21.234  1.00  0.00    -0.020 A 
HETATM    2  N   UNL     1      77.202  13.302  20.407  1.00  0.00    -0.365 N 
HETATM    3  C   UNL     1      78.129  13.276  21.414  1.00  0.00     0.097 A 
HETATM    4  C   UNL     1      78.444  11.480  20.078  1.00  0.00    -0.001 A 
HETATM    5  C   UNL     1      77.360  12.211  19.586  1.00  0.00     0.042 A 
HETATM    6  C   UNL     1      78.814  10.298  19.405  1.00  0.00     0.014 A 
HETATM    7  C   UNL     1      76.632  11.821  18.456  1.00  0.00     0.030 A 
HETATM    8  C   UNL     1      78.087   9.886  18.281  1.00  0.00     0.001 A 
HETATM    9  C   UNL     1      77.013  10.639  17.816  1.00  0.00     0.002 A 
HETATM   10  H   UNL     1      76.520  14.001  20.288  1.00  0.00     0.165 HD
ENDROOT
BRANCH   1  11
HETATM   11  C   UNL     1      80.101  11.775  22.088  1.00  0.00     0.154 C 
BRANCH  11  12
HETATM   12  C   UNL     1      80.721  12.958  22.796  1.00  0.00     0.177 C 
HETATM   13  O   UNL     1      80.434  13.419  23.888  1.00  0.00    -0.648 OA
HETATM   14  O   UNL     1      81.752  13.492  22.101  1.00  0.00    -0.648 OA
ENDBRANCH  11  12
ENDBRANCH   1  11
TORSDOF 2
ENDMDL
MODEL 4
REMARK VINA RESULT:      -5.4     21.307     23.470
REMARK  2 active torsions:
REMARK  status: ('A' for Active; 'I' for Inactive)
REMARK    1  A    between atoms: C_1  and  C_5 
REMARK    2  A    between atoms: C_5  and  C_7 
ROOT
HETATM    1  C   UNL     1      63.318   8.887   4.798  1.00  0.00    -0.020 A 
HETATM    2  N   UNL     1      62.254  10.730   4.125  1.00  0.00    -0.365 N 
HETATM    3  C   UNL     1      62.877  10.138   5.189  1.00  0.00     0.097 A 
HETATM    4  C   UNL     1      62.901   8.711   3.437  1.00  0.00    -0.001 A 
HETATM    5  C   UNL     1      62.240   9.877   3.047  1.00  0.00     0.042 A 
HETATM    6  C   UNL     1      63.021   7.665   2.499  1.00  0.00     0.014 A 
HETATM    7  C   UNL     1      61.696  10.050   1.768  1.00  0.00     0.030 A 
HETATM    8  C   UNL     1      62.471   7.816   1.220  1.00  0.00     0.001 A 
HETATM    9  C   UNL     1      61.819   8.993   0.863  1.00  0.00     0.002 A 
HETATM   10  H   UNL     1      61.870  11.636   4.130  1.00  0.00     0.165 HD
ENDROOT
BRANCH   1  11
HETATM   11  C   UNL     1      64.076   7.912   5.640  1.00  0.00     0.154 C 
BRANCH  11  12
HETATM   12  C   UNL     1      65.572   8.072   5.495  1.00  0.00     0.177 C 
HETATM   13  O   UNL     1      66.305   7.578   4.655  1.00  0.00    -0.648 OA
HETATM   14  O   UNL     1      66.090   8.925   6.408  1.00  0.00    -0.648 OA
ENDBRANCH  11  12
ENDBRANCH   1  11
TORSDOF 2
ENDMDL
MODEL 5
REMARK VINA RESULT:      -5.3     21.309     23.425
REMARK  2 active torsions:
REMARK  status: ('A' for Active; 'I' for Inactive)
REMARK    1  A    between atoms: C_1  and  C_5 
REMARK    2  A    between atoms: C_5  and  C_7 
ROOT
HETATM    1  C   UNL     1      63.368   7.775   4.175  1.00  0.00    -0.020 A 
HETATM    2  N   UNL     1      62.962   7.487   2.000  1.00  0.00    -0.365 N 
HETATM    3  C   UNL     1      63.471   6.888   3.120  1.00  0.00     0.097 A 
HETATM    4  C   UNL     1      62.802   8.981   3.645  1.00  0.00    -0.001 A 
HETATM    5  C   UNL     1      62.560   8.769   2.287  1.00  0.00     0.042 A 
HETATM    6  C   UNL     1      62.474  10.238   4.195  1.00  0.00     0.014 A 
HETATM    7  C   UNL     1      62.007   9.748   1.452  1.00  0.00     0.030 A 
HETATM    8  C   UNL     1      61.933  11.233   3.371  1.00  0.00     0.001 A 
HETATM    9  C   UNL     1      61.703  10.988   2.021  1.00  0.00     0.002 A 
HETATM   10  H   UNL     1      62.893   7.061   1.115  1.00  0.00     0.165 HD
ENDROOT
BRANCH   1  11
HETATM   11  C   UNL     1      63.778   7.519   5.591  1.00  0.00     0.154 C 
BRANCH  11  12
HETATM   12  C   UNL     1      65.210   7.926   5.855  1.00  0.00     0.177 C 
HETATM   13  O   UNL     1      65.942   8.605   5.155  1.00  0.00    -0.648 OA
HETATM   14  O   UNL     1      65.653   7.497   7.059  1.00  0.00    -0.648 OA
ENDBRANCH  11  12
ENDBRANCH   1  11
TORSDOF 2
ENDMDL
MODEL 6
REMARK VINA RESULT:      -5.3      2.061      3.174
REMARK  2 active torsions:
REMARK  status: ('A' for Active; 'I' for Inactive)
REMARK    1  A    between atoms: C_1  and  C_5 
REMARK    2  A    between atoms: C_5  and  C_7 
ROOT
HETATM    1  C   UNL     1      77.653  12.652  20.357  1.00  0.00    -0.020 A 
HETATM    2  N   UNL     1      76.066  12.382  18.811  1.00  0.00    -0.365 N 
HETATM    3  C   UNL     1      76.451  13.142  19.881  1.00  0.00     0.097 A 
HETATM    4  C   UNL     1      77.982  11.514  19.549  1.00  0.00    -0.001 A 
HETATM    5  C   UNL     1      76.973  11.371  18.595  1.00  0.00     0.042 A 
HETATM    6  C   UNL     1      79.045  10.587  19.542  1.00  0.00     0.014 A 
HETATM    7  C   UNL     1      76.974  10.352  17.635  1.00  0.00     0.030 A 
HETATM    8  C   UNL     1      79.054   9.553  18.597  1.00  0.00     0.001 A 
HETATM    9  C   UNL     1      78.033   9.441  17.658  1.00  0.00     0.002 A 
HETATM   10  H   UNL     1      75.256  12.535  18.273  1.00  0.00     0.165 HD
ENDROOT
BRANCH   1  11
HETATM   11  C   UNL     1      78.446  13.205  21.498  1.00  0.00     0.154 C 
BRANCH  11  12
HETATM   12  C   UNL     1      78.612  12.203  22.618  1.00  0.00     0.177 C 
HETATM   13  O   UNL     1      79.603  11.985  23.294  1.00  0.00    -0.648 OA
HETATM   14  O   UNL     1      77.465  11.539  22.890  1.00  0.00    -0.648 OA
ENDBRANCH  11  12
ENDBRANCH   1  11
TORSDOF 2
ENDMDL
MODEL 7
REMARK VINA RESULT:      -5.1     18.004     19.557
REMARK  2 active torsions:
REMARK  status: ('A' for Active; 'I' for Inactive)
REMARK    1  A    between atoms: C_1  and  C_5 
REMARK    2  A    between atoms: C_5  and  C_7 
ROOT
HETATM    1  C   UNL     1      67.714   5.681   6.192  1.00  0.00    -0.020 A 
HETATM    2  N   UNL     1      67.673   3.485   5.792  1.00  0.00    -0.365 N 
HETATM    3  C   UNL     1      67.313   4.708   5.295  1.00  0.00     0.097 A 
HETATM    4  C   UNL     1      68.310   4.996   7.303  1.00  0.00    -0.001 A 
HETATM    5  C   UNL     1      68.269   3.628   7.022  1.00  0.00     0.042 A 
HETATM    6  C   UNL     1      68.880   5.412   8.524  1.00  0.00     0.014 A 
HETATM    7  C   UNL     1      68.769   2.658   7.899  1.00  0.00     0.030 A 
HETATM    8  C   UNL     1      69.373   4.453   9.418  1.00  0.00     0.001 A 
HETATM    9  C   UNL     1      69.318   3.097   9.107  1.00  0.00     0.002 A 
HETATM   10  H   UNL     1      67.525   2.626   5.335  1.00  0.00     0.165 HD
ENDROOT
BRANCH   1  11
HETATM   11  C   UNL     1      67.547   7.158   6.031  1.00  0.00     0.154 C 
BRANCH  11  12
HETATM   12  C   UNL     1      66.262   7.660   6.650  1.00  0.00     0.177 C 
HETATM   13  O   UNL     1      65.524   7.081   7.429  1.00  0.00    -0.648 OA
HETATM   14  O   UNL     1      65.984   8.936   6.297  1.00  0.00    -0.648 OA
ENDBRANCH  11  12
ENDBRANCH   1  11
TORSDOF 2
ENDMDL
MODEL 8
REMARK VINA RESULT:      -5.0     18.072     19.512
REMARK  2 active torsions:
REMARK  status: ('A' for Active; 'I' for Inactive)
REMARK    1  A    between atoms: C_1  and  C_5 
REMARK    2  A    between atoms: C_5  and  C_7 
ROOT
HETATM    1  C   UNL     1      66.769   6.382   7.211  1.00  0.00    -0.020 A 
HETATM    2  N   UNL     1      67.751   6.538   9.209  1.00  0.00    -0.365 N 
HETATM    3  C   UNL     1      66.900   7.167   8.341  1.00  0.00     0.097 A 
HETATM    4  C   UNL     1      67.618   5.242   7.400  1.00  0.00    -0.001 A 
HETATM    5  C   UNL     1      68.217   5.369   8.655  1.00  0.00     0.042 A 
HETATM    6  C   UNL     1      67.937   4.112   6.618  1.00  0.00     0.014 A 
HETATM    7  C   UNL     1      69.115   4.425   9.168  1.00  0.00     0.030 A 
HETATM    8  C   UNL     1      68.844   3.165   7.110  1.00  0.00     0.001 A 
HETATM    9  C   UNL     1      69.422   3.321   8.367  1.00  0.00     0.002 A 
HETATM   10  H   UNL     1      67.995   6.874  10.101  1.00  0.00     0.165 HD
ENDROOT
BRANCH   1  11
HETATM   11  C   UNL     1      65.910   6.677   6.022  1.00  0.00     0.154 C 
BRANCH  11  12
HETATM   12  C   UNL     1      66.047   8.108   5.558  1.00  0.00     0.177 C 
HETATM   13  O   UNL     1      65.293   9.044   5.765  1.00  0.00    -0.648 OA
HETATM   14  O   UNL     1      67.198   8.322   4.880  1.00  0.00    -0.648 OA
ENDBRANCH  11  12
ENDBRANCH   1  11
TORSDOF 2
ENDMDL
MODEL 9
REMARK VINA RESULT:      -5.0     21.971     23.812
REMARK  2 active torsions:
REMARK  status: ('A' for Active; 'I' for Inactive)
REMARK    1  A    between atoms: C_1  and  C_5 
REMARK    2  A    between atoms: C_5  and  C_7 
ROOT
HETATM    1  C   UNL     1      62.639   9.340   4.076  1.00  0.00    -0.020 A 
HETATM    2  N   UNL     1      64.041   9.826   5.743  1.00  0.00    -0.365 N 
HETATM    3  C   UNL     1      62.911  10.238   5.092  1.00  0.00     0.097 A 
HETATM    4  C   UNL     1      63.687   8.361   4.101  1.00  0.00    -0.001 A 
HETATM    5  C   UNL     1      64.545   8.692   5.152  1.00  0.00     0.042 A 
HETATM    6  C   UNL     1      63.988   7.223   3.325  1.00  0.00     0.014 A 
HETATM    7  C   UNL     1      65.686   7.944   5.465  1.00  0.00     0.030 A 
HETATM    8  C   UNL     1      65.133   6.471   3.616  1.00  0.00     0.001 A 
HETATM    9  C   UNL     1      65.967   6.828   4.672  1.00  0.00     0.002 A 
HETATM   10  H   UNL     1      64.437  10.277   6.524  1.00  0.00     0.165 HD
ENDROOT
BRANCH   1  11
HETATM   11  C   UNL     1      61.478   9.392   3.135  1.00  0.00     0.154 C 
BRANCH  11  12
HETATM   12  C   UNL     1      61.866   9.932   1.777  1.00  0.00     0.177 C 
HETATM   13  O   UNL     1      62.053   9.311   0.744  1.00  0.00    -0.648 OA
HETATM   14  O   UNL     1      61.944  11.282   1.763  1.00  0.00    -0.648 OA
ENDBRANCH  11  12
ENDBRANCH   1  11
TORSDOF 2
ENDMDL
