MODEL 1
REMARK VINA RESULT:      -7.4      0.000      0.000
REMARK  1 active torsions:
REMARK  status: ('A' for Active; 'I' for Inactive)
REMARK    1  A    between atoms: C_1  and  C_8 
REMARK       I    between atoms: N_4  and  C_6 
ROOT
HETATM    1  C   UNL     1      76.736   7.265  17.362  1.00  0.00    -0.026 A 
HETATM    2  C   UNL     1      76.972   8.240  18.311  1.00  0.00     0.096 A 
HETATM    3  N   UNL     1      77.472   9.349  17.674  1.00  0.00    -0.365 N 
HETATM    4  C   UNL     1      77.128   7.818  16.097  1.00  0.00    -0.001 A 
HETATM    5  C   UNL     1      77.553   9.125  16.318  1.00  0.00     0.042 A 
HETATM    6  C   UNL     1      77.130   7.314  14.781  1.00  0.00     0.014 A 
HETATM    7  C   UNL     1      77.966   9.962  15.275  1.00  0.00     0.030 A 
HETATM    8  C   UNL     1      77.531   8.137  13.728  1.00  0.00     0.001 A 
HETATM    9  C   UNL     1      77.940   9.444  13.975  1.00  0.00     0.002 A 
HETATM   10  H   UNL     1      77.734  10.185  18.123  1.00  0.00     0.165 HD
ENDROOT
BRANCH   1  11
HETATM   11  C   UNL     1      76.166   5.886  17.513  1.00  0.00     0.024 C 
HETATM   12  C   UNL     1      75.179   5.441  16.435  1.00  0.00     0.029 C 
HETATM   13  C   UNL     1      74.582   4.088  16.839  1.00  0.00     0.126 C 
HETATM   14  N   UNL     1      75.624   3.093  17.114  1.00  0.00    -0.352 N 
HETATM   15  C   UNL     1      76.674   3.502  18.047  1.00  0.00     0.126 C 
HETATM   16  C   UNL     1      75.403   1.778  16.727  1.00  0.00     0.215 C 
HETATM   17  C   UNL     1      77.280   4.834  17.631  1.00  0.00     0.029 C 
HETATM   18  O   UNL     1      74.419   1.430  16.073  1.00  0.00    -0.274 OA
HETATM   19  C   UNL     1      76.433   0.756  17.138  1.00  0.00     0.117 C 
ENDBRANCH   1  11
TORSDOF 1
ENDMDL
MODEL 2
REMARK VINA RESULT:      -7.3      4.586      7.130
REMARK  1 active torsions:
REMARK  status: ('A' for Active; 'I' for Inactive)
REMARK    1  A    between atoms: C_1  and  C_8 
REMARK       I    between atoms: N_4  and  C_6 
ROOT
HETATM    1  C   UNL     1      77.591   9.067  17.556  1.00  0.00    -0.026 A 
HETATM    2  C   UNL     1      77.043   7.867  17.965  1.00  0.00     0.096 A 
HETATM    3  N   UNL     1      76.779   7.113  16.848  1.00  0.00    -0.365 N 
HETATM    4  C   UNL     1      77.643   9.030  16.123  1.00  0.00    -0.001 A 
HETATM    5  C   UNL     1      77.159   7.791  15.712  1.00  0.00     0.042 A 
HETATM    6  C   UNL     1      78.086   9.947  15.147  1.00  0.00     0.014 A 
HETATM    7  C   UNL     1      77.113   7.417  14.364  1.00  0.00     0.030 A 
HETATM    8  C   UNL     1      78.055   9.587  13.800  1.00  0.00     0.001 A 
HETATM    9  C   UNL     1      77.578   8.338  13.417  1.00  0.00     0.002 A 
HETATM   10  H   UNL     1      76.376   6.215  16.859  1.00  0.00     0.165 HD
ENDROOT
BRANCH   1  11
HETATM   11  C   UNL     1      78.087  10.229  18.365  1.00  0.00     0.024 C 
HETATM   12  C   UNL     1      77.040  10.972  19.193  1.00  0.00     0.029 C 
HETATM   13  C   UNL     1      77.690  12.213  19.815  1.00  0.00     0.126 C 
HETATM   14  N   UNL     1      78.894  11.873  20.579  1.00  0.00    -0.352 N 
HETATM   15  C   UNL     1      79.887  11.053  19.884  1.00  0.00     0.126 C 
HETATM   16  C   UNL     1      79.150  12.564  21.756  1.00  0.00     0.215 C 
HETATM   17  C   UNL     1      79.243   9.811  19.287  1.00  0.00     0.029 C 
HETATM   18  O   UNL     1      78.359  13.376  22.239  1.00  0.00    -0.274 OA
HETATM   19  C   UNL     1      80.459  12.283  22.451  1.00  0.00     0.117 C 
ENDBRANCH   1  11
TORSDOF 1
ENDMDL
MODEL 3
REMARK VINA RESULT:      -6.8     15.758     16.851
REMARK  1 active torsions:
REMARK  status: ('A' for Active; 'I' for Inactive)
REMARK    1  A    between atoms: C_1  and  C_8 
REMARK       I    between atoms: N_4  and  C_6 
ROOT
HETATM    1  C   UNL     1      64.153   7.667   4.208  1.00  0.00    -0.026 A 
HETATM    2  C   UNL     1      63.798   7.069   3.015  1.00  0.00     0.096 A 
HETATM    3  N   UNL     1      62.919   7.898   2.364  1.00  0.00    -0.365 N 
HETATM    4  C   UNL     1      63.439   8.909   4.276  1.00  0.00    -0.001 A 
HETATM    5  C   UNL     1      62.702   9.040   3.102  1.00  0.00     0.042 A 
HETATM    6  C   UNL     1      63.382   9.941   5.235  1.00  0.00     0.014 A 
HETATM    7  C   UNL     1      61.921  10.170   2.834  1.00  0.00     0.030 A 
HETATM    8  C   UNL     1      62.614  11.078   4.981  1.00  0.00     0.001 A 
HETATM    9  C   UNL     1      61.897  11.189   3.794  1.00  0.00     0.002 A 
HETATM   10  H   UNL     1      62.503   7.705   1.493  1.00  0.00     0.165 HD
ENDROOT
BRANCH   1  11
HETATM   11  C   UNL     1      65.102   7.207   5.275  1.00  0.00     0.024 C 
HETATM   12  C   UNL     1      64.476   6.525   6.490  1.00  0.00     0.029 C 
HETATM   13  C   UNL     1      65.568   6.277   7.536  1.00  0.00     0.126 C 
HETATM   14  N   UNL     1      66.700   5.532   6.976  1.00  0.00    -0.352 N 
HETATM   15  C   UNL     1      67.271   6.063   5.738  1.00  0.00     0.126 C 
HETATM   16  C   UNL     1      67.328   4.583   7.773  1.00  0.00     0.215 C 
HETATM   17  C   UNL     1      66.188   6.287   4.695  1.00  0.00     0.029 C 
HETATM   18  O   UNL     1      66.913   4.268   8.889  1.00  0.00    -0.274 OA
HETATM   19  C   UNL     1      68.567   3.927   7.217  1.00  0.00     0.117 C 
ENDBRANCH   1  11
TORSDOF 1
ENDMDL
MODEL 4
REMARK VINA RESULT:      -6.6     15.642     17.144
REMARK  1 active torsions:
REMARK  status: ('A' for Active; 'I' for Inactive)
REMARK    1  A    between atoms: C_1  and  C_8 
REMARK       I    between atoms: N_4  and  C_6 
ROOT
HETATM    1  C   UNL     1      65.908   6.540   5.273  1.00  0.00    -0.026 A 
HETATM    2  C   UNL     1      66.791   5.887   4.436  1.00  0.00     0.096 A 
HETATM    3  N   UNL     1      67.762   5.301   5.209  1.00  0.00    -0.365 N 
HETATM    4  C   UNL     1      66.386   6.344   6.611  1.00  0.00    -0.001 A 
HETATM    5  C   UNL     1      67.524   5.545   6.543  1.00  0.00     0.042 A 
HETATM    6  C   UNL     1      65.925   6.766   7.875  1.00  0.00     0.014 A 
HETATM    7  C   UNL     1      68.215   5.131   7.687  1.00  0.00     0.030 A 
HETATM    8  C   UNL     1      66.596   6.356   9.027  1.00  0.00     0.001 A 
HETATM    9  C   UNL     1      67.724   5.547   8.931  1.00  0.00     0.002 A 
HETATM   10  H   UNL     1      68.521   4.779   4.860  1.00  0.00     0.165 HD
ENDROOT
BRANCH   1  11
HETATM   11  C   UNL     1      64.660   7.307   4.953  1.00  0.00     0.024 C 
HETATM   12  C   UNL     1      64.678   8.798   5.285  1.00  0.00     0.029 C 
HETATM   13  C   UNL     1      63.279   9.376   5.046  1.00  0.00     0.126 C 
HETATM   14  N   UNL     1      62.796   9.093   3.691  1.00  0.00    -0.352 N 
HETATM   15  C   UNL     1      62.867   7.696   3.261  1.00  0.00     0.126 C 
HETATM   16  C   UNL     1      62.056  10.068   3.034  1.00  0.00     0.215 C 
HETATM   17  C   UNL     1      64.263   7.133   3.478  1.00  0.00     0.029 C 
HETATM   18  O   UNL     1      61.875  11.195   3.497  1.00  0.00    -0.274 OA
HETATM   19  C   UNL     1      61.465   9.699   1.696  1.00  0.00     0.117 C 
ENDBRANCH   1  11
TORSDOF 1
ENDMDL
MODEL 5
REMARK VINA RESULT:      -6.4     16.967     18.041
REMARK  1 active torsions:
REMARK  status: ('A' for Active; 'I' for Inactive)
REMARK    1  A    between atoms: C_1  and  C_8 
REMARK       I    between atoms: N_4  and  C_6 
ROOT
HETATM    1  C   UNL     1      62.974   9.090   4.261  1.00  0.00    -0.026 A 
HETATM    2  C   UNL     1      62.323  10.306   4.311  1.00  0.00     0.096 A 
HETATM    3  N   UNL     1      61.695  10.507   3.107  1.00  0.00    -0.365 N 
HETATM    4  C   UNL     1      62.733   8.546   2.956  1.00  0.00    -0.001 A 
HETATM    5  C   UNL     1      61.910   9.435   2.270  1.00  0.00     0.042 A 
HETATM    6  C   UNL     1      63.133   7.355   2.316  1.00  0.00     0.014 A 
HETATM    7  C   UNL     1      61.452   9.179   0.973  1.00  0.00     0.030 A 
HETATM    8  C   UNL     1      62.679   7.080   1.026  1.00  0.00     0.001 A 
HETATM    9  C   UNL     1      61.847   7.980   0.367  1.00  0.00     0.002 A 
HETATM   10  H   UNL     1      61.166  11.304   2.874  1.00  0.00     0.165 HD
ENDROOT
BRANCH   1  11
HETATM   11  C   UNL     1      63.777   8.380   5.310  1.00  0.00     0.024 C 
HETATM   12  C   UNL     1      63.364   6.942   5.620  1.00  0.00     0.029 C 
HETATM   13  C   UNL     1      64.178   6.439   6.817  1.00  0.00     0.126 C 
HETATM   14  N   UNL     1      65.620   6.590   6.597  1.00  0.00    -0.352 N 
HETATM   15  C   UNL     1      66.071   7.917   6.176  1.00  0.00     0.126 C 
HETATM   16  C   UNL     1      66.469   5.598   7.069  1.00  0.00     0.215 C 
HETATM   17  C   UNL     1      65.276   8.403   4.974  1.00  0.00     0.029 C 
HETATM   18  O   UNL     1      66.060   4.550   7.571  1.00  0.00    -0.274 OA
HETATM   19  C   UNL     1      67.953   5.843   6.943  1.00  0.00     0.117 C 
ENDBRANCH   1  11
TORSDOF 1
ENDMDL
MODEL 6
REMARK VINA RESULT:      -6.3     12.057     13.102
REMARK  1 active torsions:
REMARK  status: ('A' for Active; 'I' for Inactive)
REMARK    1  A    between atoms: C_1  and  C_8 
REMARK       I    between atoms: N_4  and  C_6 
ROOT
HETATM    1  C   UNL     1      67.398   5.847   7.328  1.00  0.00    -0.026 A 
HETATM    2  C   UNL     1      66.761   6.873   7.996  1.00  0.00     0.096 A 
HETATM    3  N   UNL     1      65.961   7.539   7.100  1.00  0.00    -0.365 N 
HETATM    4  C   UNL     1      66.966   5.914   5.962  1.00  0.00    -0.001 A 
HETATM    5  C   UNL     1      66.050   6.957   5.856  1.00  0.00     0.042 A 
HETATM    6  C   UNL     1      67.267   5.152   4.814  1.00  0.00     0.014 A 
HETATM    7  C   UNL     1      65.405   7.264   4.653  1.00  0.00     0.030 A 
HETATM    8  C   UNL     1      66.626   5.439   3.608  1.00  0.00     0.001 A 
HETATM    9  C   UNL     1      65.706   6.479   3.533  1.00  0.00     0.002 A 
HETATM   10  H   UNL     1      65.403   8.320   7.317  1.00  0.00     0.165 HD
ENDROOT
BRANCH   1  11
HETATM   11  C   UNL     1      68.348   4.804   7.838  1.00  0.00     0.024 C 
HETATM   12  C   UNL     1      68.730   4.901   9.314  1.00  0.00     0.029 C 
HETATM   13  C   UNL     1      69.822   3.868   9.612  1.00  0.00     0.126 C 
HETATM   14  N   UNL     1      69.419   2.517   9.207  1.00  0.00    -0.352 N 
HETATM   15  C   UNL     1      68.924   2.376   7.838  1.00  0.00     0.126 C 
HETATM   16  C   UNL     1      69.795   1.446  10.008  1.00  0.00     0.215 C 
HETATM   17  C   UNL     1      67.825   3.388   7.553  1.00  0.00     0.029 C 
HETATM   18  O   UNL     1      70.360   1.588  11.093  1.00  0.00    -0.274 OA
HETATM   19  C   UNL     1      69.478   0.061   9.500  1.00  0.00     0.117 C 
ENDBRANCH   1  11
TORSDOF 1
ENDMDL
MODEL 7
REMARK VINA RESULT:      -6.0     14.329     15.736
REMARK  1 active torsions:
REMARK  status: ('A' for Active; 'I' for Inactive)
REMARK    1  A    between atoms: C_1  and  C_8 
REMARK       I    between atoms: N_4  and  C_6 
ROOT
HETATM    1  C   UNL     1      66.557   6.409   7.250  1.00  0.00    -0.026 A 
HETATM    2  C   UNL     1      66.901   7.145   8.367  1.00  0.00     0.096 A 
HETATM    3  N   UNL     1      67.904   6.480   9.027  1.00  0.00    -0.365 N 
HETATM    4  C   UNL     1      67.388   5.240   7.254  1.00  0.00    -0.001 A 
HETATM    5  C   UNL     1      68.236   5.325   8.354  1.00  0.00     0.042 A 
HETATM    6  C   UNL     1      67.498   4.129   6.393  1.00  0.00     0.014 A 
HETATM    7  C   UNL     1      69.207   4.355   8.626  1.00  0.00     0.030 A 
HETATM    8  C   UNL     1      68.466   3.156   6.643  1.00  0.00     0.001 A 
HETATM    9  C   UNL     1      69.310   3.272   7.744  1.00  0.00     0.002 A 
HETATM   10  H   UNL     1      68.327   6.785   9.862  1.00  0.00     0.165 HD
ENDROOT
BRANCH   1  11
HETATM   11  C   UNL     1      65.550   6.696   6.176  1.00  0.00     0.024 C 
HETATM   12  C   UNL     1      64.137   6.168   6.415  1.00  0.00     0.029 C 
HETATM   13  C   UNL     1      63.299   6.408   5.154  1.00  0.00     0.126 C 
HETATM   14  N   UNL     1      63.327   7.815   4.741  1.00  0.00    -0.352 N 
HETATM   15  C   UNL     1      64.652   8.422   4.614  1.00  0.00     0.126 C 
HETATM   16  C   UNL     1      62.165   8.378   4.228  1.00  0.00     0.215 C 
HETATM   17  C   UNL     1      65.473   8.201   5.875  1.00  0.00     0.029 C 
HETATM   18  O   UNL     1      61.088   7.780   4.200  1.00  0.00    -0.274 OA
HETATM   19  C   UNL     1      62.259   9.785   3.693  1.00  0.00     0.117 C 
ENDBRANCH   1  11
TORSDOF 1
ENDMDL
MODEL 8
REMARK VINA RESULT:      -6.0     13.865     15.535
REMARK  1 active torsions:
REMARK  status: ('A' for Active; 'I' for Inactive)
REMARK    1  A    between atoms: C_1  and  C_8 
REMARK       I    between atoms: N_4  and  C_6 
ROOT
HETATM    1  C   UNL     1      66.422   4.469   6.883  1.00  0.00    -0.026 A 
HETATM    2  C   UNL     1      65.802   3.264   7.148  1.00  0.00     0.096 A 
HETATM    3  N   UNL     1      66.542   2.597   8.093  1.00  0.00    -0.365 N 
HETATM    4  C   UNL     1      67.598   4.516   7.703  1.00  0.00    -0.001 A 
HETATM    5  C   UNL     1      67.631   3.352   8.466  1.00  0.00     0.042 A 
HETATM    6  C   UNL     1      68.623   5.469   7.870  1.00  0.00     0.014 A 
HETATM    7  C   UNL     1      68.638   3.104   9.406  1.00  0.00     0.030 A 
HETATM    8  C   UNL     1      69.630   5.243   8.809  1.00  0.00     0.001 A 
HETATM    9  C   UNL     1      69.633   4.076   9.568  1.00  0.00     0.002 A 
HETATM   10  H   UNL     1      66.325   1.707   8.453  1.00  0.00     0.165 HD
ENDROOT
BRANCH   1  11
HETATM   11  C   UNL     1      66.018   5.582   5.964  1.00  0.00     0.024 C 
HETATM   12  C   UNL     1      65.191   5.185   4.742  1.00  0.00     0.029 C 
HETATM   13  C   UNL     1      65.014   6.413   3.842  1.00  0.00     0.126 C 
HETATM   14  N   UNL     1      64.450   7.550   4.576  1.00  0.00    -0.352 N 
HETATM   15  C   UNL     1      65.122   7.907   5.826  1.00  0.00     0.126 C 
HETATM   16  C   UNL     1      63.539   8.372   3.926  1.00  0.00     0.215 C 
HETATM   17  C   UNL     1      65.276   6.691   6.726  1.00  0.00     0.029 C 
HETATM   18  O   UNL     1      63.107   8.130   2.798  1.00  0.00    -0.274 OA
HETATM   19  C   UNL     1      63.075   9.605   4.661  1.00  0.00     0.117 C 
ENDBRANCH   1  11
TORSDOF 1
ENDMDL
MODEL 9
REMARK VINA RESULT:      -5.9      3.510      5.976
REMARK  1 active torsions:
REMARK  status: ('A' for Active; 'I' for Inactive)
REMARK    1  A    between atoms: C_1  and  C_8 
REMARK       I    between atoms: N_4  and  C_6 
ROOT
HETATM    1  C   UNL     1      75.881   1.301  17.756  1.00  0.00    -0.026 A 
HETATM    2  C   UNL     1      77.088   1.196  18.416  1.00  0.00     0.096 A 
HETATM    3  N   UNL     1      77.649   2.447  18.489  1.00  0.00    -0.365 N 
HETATM    4  C   UNL     1      75.721   2.683  17.407  1.00  0.00    -0.001 A 
HETATM    5  C   UNL     1      76.822   3.377  17.902  1.00  0.00     0.042 A 
HETATM    6  C   UNL     1      74.713   3.399  16.729  1.00  0.00     0.014 A 
HETATM    7  C   UNL     1      76.954   4.763  17.764  1.00  0.00     0.030 A 
HETATM    8  C   UNL     1      74.824   4.783  16.590  1.00  0.00     0.001 A 
HETATM    9  C   UNL     1      75.929   5.453  17.105  1.00  0.00     0.002 A 
HETATM   10  H   UNL     1      78.519   2.650  18.904  1.00  0.00     0.165 HD
ENDROOT
BRANCH   1  11
HETATM   11  C   UNL     1      74.857   0.251  17.439  1.00  0.00     0.024 C 
HETATM   12  C   UNL     1      75.304  -0.865  16.496  1.00  0.00     0.029 C 
HETATM   13  C   UNL     1      74.093  -1.743  16.159  1.00  0.00     0.126 C 
HETATM   14  N   UNL     1      73.427  -2.240  17.367  1.00  0.00    -0.352 N 
HETATM   15  C   UNL     1      73.082  -1.234  18.372  1.00  0.00     0.126 C 
HETATM   16  C   UNL     1      72.915  -3.531  17.358  1.00  0.00     0.215 C 
HETATM   17  C   UNL     1      74.292  -0.379  18.721  1.00  0.00     0.029 C 
HETATM   18  O   UNL     1      73.086  -4.311  16.421  1.00  0.00    -0.274 OA
HETATM   19  C   UNL     1      72.124  -3.967  18.566  1.00  0.00     0.117 C 
ENDBRANCH   1  11
TORSDOF 1
ENDMDL
