MODEL 1
REMARK VINA RESULT:      -5.8      0.000      0.000
REMARK  1 active torsions:
REMARK  status: ('A' for Active; 'I' for Inactive)
REMARK    1  A    between atoms: C_1  and  N_5 
ROOT
HETATM    1  C   UNL     1      75.808   0.693  17.911  1.00  0.00     0.044 A 
HETATM    2  C   UNL     1      75.762   2.090  17.614  1.00  0.00     0.017 A 
HETATM    3  N   UNL     1      77.868   2.418  18.776  1.00  0.00    -0.359 N 
ATOM      4  HN  UNL     1      78.615   3.036  19.091  1.00  0.00     0.166 HD
HETATM    5  C   UNL     1      76.835   2.897  18.072  1.00  0.00     0.044 A 
HETATM    6  C   UNL     1      76.901   0.229  18.663  1.00  0.00     0.054 A 
HETATM    7  C   UNL     1      77.900   1.104  19.061  1.00  0.00     0.007 A 
HETATM    8  C   UNL     1      74.750   2.726  16.848  1.00  0.00     0.016 A 
HETATM    9  C   UNL     1      76.856   4.250  17.772  1.00  0.00     0.030 A 
HETATM   10  C   UNL     1      79.102   0.610  19.807  1.00  0.00     0.068 C 
HETATM   11  C   UNL     1      74.777   4.098  16.583  1.00  0.00     0.001 A 
HETATM   12  C   UNL     1      75.839   4.862  17.042  1.00  0.00     0.002 A 
ENDROOT
BRANCH   1  13
HETATM   13  N   UNL     1      74.851  -0.214  17.401  1.00  0.00    -0.377 N 
HETATM   14  C   UNL     1      75.342  -1.265  16.479  1.00  0.00     0.150 C 
HETATM   15  C   UNL     1      74.163  -1.935  15.745  1.00  0.00     0.252 C 
HETATM   16  N   UNL     1      73.147  -2.497  16.661  1.00  0.00    -0.072 N 
HETATM   17  C   UNL     1      72.706  -1.431  17.590  1.00  0.00     0.252 C 
HETATM   18  H   UNL     1      72.350  -2.836  16.124  1.00  0.00     0.277 HD
HETATM   19  H   UNL     1      73.546  -3.275  17.188  1.00  0.00     0.277 HD
HETATM   20  C   UNL     1      73.866  -0.749  18.367  1.00  0.00     0.150 C 
ENDBRANCH   1  13
TORSDOF 1
ENDMDL
MODEL 2
REMARK VINA RESULT:      -5.7     17.232     19.412
REMARK  1 active torsions:
REMARK  status: ('A' for Active; 'I' for Inactive)
REMARK    1  A    between atoms: C_1  and  N_5 
ROOT
HETATM    1  C   UNL     1      64.215   7.598   4.290  1.00  0.00     0.044 A 
HETATM    2  C   UNL     1      63.457   8.800   4.145  1.00  0.00     0.017 A 
HETATM    3  N   UNL     1      62.634   8.033   1.994  1.00  0.00    -0.359 N 
ATOM      4  HN  UNL     1      62.063   8.184   1.162  1.00  0.00     0.166 HD
HETATM    5  C   UNL     1      62.677   8.948   2.969  1.00  0.00     0.044 A 
HETATM    6  C   UNL     1      64.155   6.666   3.241  1.00  0.00     0.054 A 
HETATM    7  C   UNL     1      63.358   6.908   2.133  1.00  0.00     0.007 A 
HETATM    8  C   UNL     1      63.380   9.837   5.112  1.00  0.00     0.016 A 
HETATM    9  C   UNL     1      61.891  10.078   2.802  1.00  0.00     0.030 A 
HETATM   10  C   UNL     1      63.235   5.893   1.037  1.00  0.00     0.068 C 
HETATM   11  C   UNL     1      62.604  10.980   4.908  1.00  0.00     0.001 A 
HETATM   12  C   UNL     1      61.851  11.098   3.751  1.00  0.00     0.002 A 
ENDROOT
BRANCH   1  13
HETATM   13  N   UNL     1      64.930   7.302   5.473  1.00  0.00    -0.377 N 
HETATM   14  C   UNL     1      64.872   5.905   5.964  1.00  0.00     0.150 C 
HETATM   15  C   UNL     1      65.388   5.819   7.415  1.00  0.00     0.252 C 
HETATM   16  N   UNL     1      66.754   6.360   7.583  1.00  0.00    -0.072 N 
HETATM   17  C   UNL     1      66.785   7.741   7.050  1.00  0.00     0.252 C 
HETATM   18  H   UNL     1      67.001   6.367   8.571  1.00  0.00     0.277 HD
HETATM   19  H   UNL     1      67.423   5.777   7.078  1.00  0.00     0.277 HD
HETATM   20  C   UNL     1      66.295   7.864   5.581  1.00  0.00     0.150 C 
ENDBRANCH   1  13
TORSDOF 1
ENDMDL
MODEL 3
REMARK VINA RESULT:      -5.6     18.130     20.312
REMARK  1 active torsions:
REMARK  status: ('A' for Active; 'I' for Inactive)
REMARK    1  A    between atoms: C_1  and  N_5 
ROOT
HETATM    1  C   UNL     1      63.372   8.504   4.272  1.00  0.00     0.044 A 
HETATM    2  C   UNL     1      62.924   8.178   2.956  1.00  0.00     0.017 A 
HETATM    3  N   UNL     1      61.861  10.352   2.766  1.00  0.00    -0.359 N 
ATOM      4  HN  UNL     1      61.316  11.023   2.226  1.00  0.00     0.166 HD
HETATM    5  C   UNL     1      62.177   9.157   2.252  1.00  0.00     0.044 A 
HETATM    6  C   UNL     1      63.010   9.762   4.784  1.00  0.00     0.054 A 
HETATM    7  C   UNL     1      62.277  10.649   4.010  1.00  0.00     0.007 A 
HETATM    8  C   UNL     1      63.216   6.967   2.274  1.00  0.00     0.016 A 
HETATM    9  C   UNL     1      61.757   8.903   0.955  1.00  0.00     0.030 A 
HETATM   10  C   UNL     1      61.941  12.017   4.520  1.00  0.00     0.068 C 
HETATM   11  C   UNL     1      62.756   6.721   0.977  1.00  0.00     0.001 A 
HETATM   12  C   UNL     1      62.029   7.696   0.313  1.00  0.00     0.002 A 
ENDROOT
BRANCH   1  13
HETATM   13  N   UNL     1      64.219   7.647   5.010  1.00  0.00    -0.377 N 
HETATM   14  C   UNL     1      65.573   8.154   5.337  1.00  0.00     0.150 C 
HETATM   15  C   UNL     1      66.481   7.004   5.817  1.00  0.00     0.252 C 
HETATM   16  N   UNL     1      65.925   6.262   6.969  1.00  0.00    -0.072 N 
HETATM   17  C   UNL     1      64.561   5.801   6.622  1.00  0.00     0.252 C 
HETATM   18  H   UNL     1      66.516   5.458   7.177  1.00  0.00     0.277 HD
HETATM   19  H   UNL     1      65.890   6.869   7.789  1.00  0.00     0.277 HD
HETATM   20  C   UNL     1      63.609   6.938   6.156  1.00  0.00     0.150 C 
ENDBRANCH   1  13
TORSDOF 1
ENDMDL
MODEL 4
REMARK VINA RESULT:      -5.2     18.923     20.934
REMARK  1 active torsions:
REMARK  status: ('A' for Active; 'I' for Inactive)
REMARK    1  A    between atoms: C_1  and  N_5 
ROOT
HETATM    1  C   UNL     1      62.339   8.534   3.426  1.00  0.00     0.044 A 
HETATM    2  C   UNL     1      63.543   7.790   3.621  1.00  0.00     0.017 A 
HETATM    3  N   UNL     1      64.270   9.384   5.301  1.00  0.00    -0.359 N 
ATOM      4  HN  UNL     1      64.964   9.695   5.980  1.00  0.00     0.166 HD
HETATM    5  C   UNL     1      64.466   8.270   4.586  1.00  0.00     0.044 A 
HETATM    6  C   UNL     1      62.174   9.705   4.185  1.00  0.00     0.054 A 
HETATM    7  C   UNL     1      63.139  10.084   5.106  1.00  0.00     0.007 A 
HETATM    8  C   UNL     1      63.865   6.575   2.960  1.00  0.00     0.016 A 
HETATM    9  C   UNL     1      65.628   7.559   4.840  1.00  0.00     0.030 A 
HETATM   10  C   UNL     1      62.944  11.295   5.968  1.00  0.00     0.068 C 
HETATM   11  C   UNL     1      65.057   5.892   3.211  1.00  0.00     0.001 A 
HETATM   12  C   UNL     1      65.940   6.383   4.160  1.00  0.00     0.002 A 
ENDROOT
BRANCH   1  13
HETATM   13  N   UNL     1      61.306   8.079   2.576  1.00  0.00    -0.377 N 
HETATM   14  C   UNL     1      60.007   7.749   3.210  1.00  0.00     0.150 C 
HETATM   15  C   UNL     1      59.118   6.947   2.237  1.00  0.00     0.252 C 
HETATM   16  N   UNL     1      58.894   7.635   0.948  1.00  0.00    -0.072 N 
HETATM   17  C   UNL     1      60.209   7.983   0.361  1.00  0.00     0.252 C 
HETATM   18  H   UNL     1      58.386   7.020   0.314  1.00  0.00     0.277 HD
HETATM   19  H   UNL     1      58.345   8.483   1.097  1.00  0.00     0.277 HD
HETATM   20  C   UNL     1      61.123   8.812   1.304  1.00  0.00     0.150 C 
ENDBRANCH   1  13
TORSDOF 1
ENDMDL
MODEL 5
REMARK VINA RESULT:      -5.1     19.798     21.642
REMARK  1 active torsions:
REMARK  status: ('A' for Active; 'I' for Inactive)
REMARK    1  A    between atoms: C_1  and  N_5 
ROOT
HETATM    1  C   UNL     1      62.257   7.661   2.522  1.00  0.00     0.044 A 
HETATM    2  C   UNL     1      62.114   9.066   2.731  1.00  0.00     0.017 A 
HETATM    3  N   UNL     1      62.595   8.775   5.093  1.00  0.00    -0.359 N 
ATOM      4  HN  UNL     1      62.719   9.172   6.023  1.00  0.00     0.166 HD
HETATM    5  C   UNL     1      62.306   9.559   4.048  1.00  0.00     0.044 A 
HETATM    6  C   UNL     1      62.548   6.867   3.644  1.00  0.00     0.054 A 
HETATM    7  C   UNL     1      62.719   7.451   4.890  1.00  0.00     0.007 A 
HETATM    8  C   UNL     1      61.846  10.018   1.712  1.00  0.00     0.016 A 
HETATM    9  C   UNL     1      62.220  10.921   4.293  1.00  0.00     0.030 A 
HETATM   10  C   UNL     1      63.093   6.623   6.082  1.00  0.00     0.068 C 
HETATM   11  C   UNL     1      61.734  11.383   1.988  1.00  0.00     0.001 A 
HETATM   12  C   UNL     1      61.928  11.837   3.283  1.00  0.00     0.002 A 
ENDROOT
BRANCH   1  13
HETATM   13  N   UNL     1      62.202   7.086   1.232  1.00  0.00    -0.377 N 
HETATM   14  C   UNL     1      63.281   6.137   0.869  1.00  0.00     0.150 C 
HETATM   15  C   UNL     1      63.285   5.877  -0.651  1.00  0.00     0.252 C 
HETATM   16  N   UNL     1      61.987   5.390  -1.165  1.00  0.00    -0.072 N 
HETATM   17  C   UNL     1      60.928   6.340  -0.754  1.00  0.00     0.252 C 
HETATM   18  H   UNL     1      62.020   5.331  -2.182  1.00  0.00     0.277 HD
HETATM   19  H   UNL     1      61.789   4.463  -0.786  1.00  0.00     0.277 HD
HETATM   20  C   UNL     1      60.878   6.609   0.776  1.00  0.00     0.150 C 
ENDBRANCH   1  13
TORSDOF 1
ENDMDL
MODEL 6
REMARK VINA RESULT:      -5.0     13.120     15.121
REMARK  1 active torsions:
REMARK  status: ('A' for Active; 'I' for Inactive)
REMARK    1  A    between atoms: C_1  and  N_5 
ROOT
HETATM    1  C   UNL     1      67.435   5.011   6.765  1.00  0.00     0.044 A 
HETATM    2  C   UNL     1      67.812   3.915   5.930  1.00  0.00     0.017 A 
HETATM    3  N   UNL     1      69.162   2.996   7.726  1.00  0.00    -0.359 N 
ATOM      4  HN  UNL     1      69.785   2.271   8.079  1.00  0.00     0.166 HD
HETATM    5  C   UNL     1      68.676   2.934   6.481  1.00  0.00     0.044 A 
HETATM    6  C   UNL     1      67.975   5.051   8.062  1.00  0.00     0.054 A 
HETATM    7  C   UNL     1      68.811   4.036   8.503  1.00  0.00     0.007 A 
HETATM    8  C   UNL     1      67.345   3.703   4.606  1.00  0.00     0.016 A 
HETATM    9  C   UNL     1      69.035   1.830   5.723  1.00  0.00     0.030 A 
HETATM   10  C   UNL     1      69.341   4.033   9.905  1.00  0.00     0.068 C 
HETATM   11  C   UNL     1      67.745   2.597   3.851  1.00  0.00     0.001 A 
HETATM   12  C   UNL     1      68.588   1.653   4.415  1.00  0.00     0.002 A 
ENDROOT
BRANCH   1  13
HETATM   13  N   UNL     1      66.490   5.978   6.353  1.00  0.00    -0.377 N 
HETATM   14  C   UNL     1      65.238   6.076   7.141  1.00  0.00     0.150 C 
HETATM   15  C   UNL     1      64.181   6.899   6.378  1.00  0.00     0.252 C 
HETATM   16  N   UNL     1      64.651   8.250   6.002  1.00  0.00    -0.072 N 
HETATM   17  C   UNL     1      65.920   8.117   5.249  1.00  0.00     0.252 C 
HETATM   18  H   UNL     1      63.952   8.707   5.419  1.00  0.00     0.277 HD
HETATM   19  H   UNL     1      64.802   8.812   6.841  1.00  0.00     0.277 HD
HETATM   20  C   UNL     1      67.019   7.313   5.998  1.00  0.00     0.150 C 
ENDBRANCH   1  13
TORSDOF 1
ENDMDL
MODEL 7
REMARK VINA RESULT:      -5.0      1.622      4.020
REMARK  1 active torsions:
REMARK  status: ('A' for Active; 'I' for Inactive)
REMARK    1  A    between atoms: C_1  and  N_5 
ROOT
HETATM    1  C   UNL     1      77.012   0.675  17.467  1.00  0.00     0.044 A 
HETATM    2  C   UNL     1      77.829   0.308  18.579  1.00  0.00     0.017 A 
HETATM    3  N   UNL     1      77.870   2.618  19.324  1.00  0.00    -0.359 N 
ATOM      4  HN  UNL     1      78.177   3.324  19.993  1.00  0.00     0.166 HD
HETATM    5  C   UNL     1      78.217   1.335  19.479  1.00  0.00     0.044 A 
HETATM    6  C   UNL     1      76.678   2.033  17.330  1.00  0.00     0.054 A 
HETATM    7  C   UNL     1      77.109   2.957  18.270  1.00  0.00     0.007 A 
HETATM    8  C   UNL     1      78.241  -1.016  18.886  1.00  0.00     0.016 A 
HETATM    9  C   UNL     1      78.975   1.021  20.597  1.00  0.00     0.030 A 
HETATM   10  C   UNL     1      76.706   4.398  18.170  1.00  0.00     0.068 C 
HETATM   11  C   UNL     1      79.030  -1.304  20.003  1.00  0.00     0.001 A 
HETATM   12  C   UNL     1      79.393  -0.281  20.865  1.00  0.00     0.002 A 
ENDROOT
BRANCH   1  13
HETATM   13  N   UNL     1      76.477  -0.288  16.580  1.00  0.00    -0.377 N 
HETATM   14  C   UNL     1      75.003  -0.321  16.430  1.00  0.00     0.150 C 
HETATM   15  C   UNL     1      74.559  -1.620  15.728  1.00  0.00     0.252 C 
HETATM   16  N   UNL     1      75.207  -1.827  14.416  1.00  0.00    -0.072 N 
HETATM   17  C   UNL     1      76.676  -1.752  14.596  1.00  0.00     0.252 C 
HETATM   18  H   UNL     1      74.953  -2.742  14.047  1.00  0.00     0.277 HD
HETATM   19  H   UNL     1      74.900  -1.108  13.759  1.00  0.00     0.277 HD
HETATM   20  C   UNL     1      77.163  -0.444  15.279  1.00  0.00     0.150 C 
ENDBRANCH   1  13
TORSDOF 1
ENDMDL
MODEL 8
REMARK VINA RESULT:      -4.9      1.698      5.393
REMARK  1 active torsions:
REMARK  status: ('A' for Active; 'I' for Inactive)
REMARK    1  A    between atoms: C_1  and  N_5 
ROOT
HETATM    1  C   UNL     1      76.401   0.382  17.133  1.00  0.00     0.044 A 
HETATM    2  C   UNL     1      75.188  -0.362  17.250  1.00  0.00     0.017 A 
HETATM    3  N   UNL     1      75.637  -1.450  15.127  1.00  0.00    -0.359 N 
ATOM      4  HN  UNL     1      75.366  -2.112  14.400  1.00  0.00     0.166 HD
HETATM    5  C   UNL     1      74.870  -1.272  16.209  1.00  0.00     0.044 A 
HETATM    6  C   UNL     1      77.174   0.179  15.977  1.00  0.00     0.054 A 
HETATM    7  C   UNL     1      76.773  -0.739  15.018  1.00  0.00     0.007 A 
HETATM    8  C   UNL     1      74.299  -0.302  18.356  1.00  0.00     0.016 A 
HETATM    9  C   UNL     1      73.724  -2.048  16.298  1.00  0.00     0.030 A 
HETATM   10  C   UNL     1      77.621  -1.012  13.813  1.00  0.00     0.068 C 
HETATM   11  C   UNL     1      73.134  -1.072  18.410  1.00  0.00     0.001 A 
HETATM   12  C   UNL     1      72.850  -1.954  17.380  1.00  0.00     0.002 A 
ENDROOT
BRANCH   1  13
HETATM   13  N   UNL     1      76.866   1.226  18.167  1.00  0.00    -0.377 N 
HETATM   14  C   UNL     1      78.103   0.811  18.871  1.00  0.00     0.150 C 
HETATM   15  C   UNL     1      78.281   1.617  20.174  1.00  0.00     0.252 C 
HETATM   16  N   UNL     1      78.284   3.080  19.960  1.00  0.00    -0.072 N 
HETATM   17  C   UNL     1      77.054   3.454  19.225  1.00  0.00     0.252 C 
HETATM   18  H   UNL     1      78.304   3.558  20.860  1.00  0.00     0.277 HD
HETATM   19  H   UNL     1      79.107   3.352  19.422  1.00  0.00     0.277 HD
HETATM   20  C   UNL     1      76.853   2.679  17.893  1.00  0.00     0.150 C 
ENDBRANCH   1  13
TORSDOF 1
ENDMDL
MODEL 9
REMARK VINA RESULT:      -4.8     12.493     14.666
REMARK  1 active torsions:
REMARK  status: ('A' for Active; 'I' for Inactive)
REMARK    1  A    between atoms: C_1  and  N_5 
ROOT
HETATM    1  C   UNL     1      66.715   4.380   7.154  1.00  0.00     0.044 A 
HETATM    2  C   UNL     1      67.699   3.974   8.106  1.00  0.00     0.017 A 
HETATM    3  N   UNL     1      66.631   1.804   8.303  1.00  0.00    -0.359 N 
ATOM      4  HN  UNL     1      66.596   0.871   8.715  1.00  0.00     0.166 HD
HETATM    5  C   UNL     1      67.601   2.662   8.637  1.00  0.00     0.044 A 
HETATM    6  C   UNL     1      65.704   3.457   6.838  1.00  0.00     0.054 A 
HETATM    7  C   UNL     1      65.702   2.195   7.414  1.00  0.00     0.007 A 
HETATM    8  C   UNL     1      68.802   4.766   8.524  1.00  0.00     0.016 A 
HETATM    9  C   UNL     1      68.558   2.209   9.532  1.00  0.00     0.030 A 
HETATM   10  C   UNL     1      64.666   1.180   7.035  1.00  0.00     0.068 C 
HETATM   11  C   UNL     1      69.737   4.297   9.451  1.00  0.00     0.001 A 
HETATM   12  C   UNL     1      69.618   3.011   9.952  1.00  0.00     0.002 A 
ENDROOT
BRANCH   1  13
HETATM   13  N   UNL     1      66.789   5.620   6.481  1.00  0.00    -0.377 N 
HETATM   14  C   UNL     1      66.671   5.594   5.003  1.00  0.00     0.150 C 
HETATM   15  C   UNL     1      67.119   6.941   4.400  1.00  0.00     0.252 C 
HETATM   16  N   UNL     1      66.384   8.101   4.948  1.00  0.00    -0.072 N 
HETATM   17  C   UNL     1      66.493   8.076   6.425  1.00  0.00     0.252 C 
HETATM   18  H   UNL     1      66.788   8.964   4.588  1.00  0.00     0.277 HD
HETATM   19  H   UNL     1      65.403   8.053   4.670  1.00  0.00     0.277 HD
HETATM   20  C   UNL     1      66.026   6.742   7.071  1.00  0.00     0.150 C 
ENDBRANCH   1  13
TORSDOF 1
ENDMDL
