MODEL 1
REMARK VINA RESULT:      -5.6      0.000      0.000
REMARK  1 active torsions:
REMARK  status: ('A' for Active; 'I' for Inactive)
REMARK    1  A    between atoms: C_1  and  C_7 
ROOT
HETATM    1  C   UNL     1      64.361   7.759   4.448  1.00  0.00    -0.026 A 
HETATM    2  C   UNL     1      64.054   7.025   3.320  1.00  0.00     0.096 A 
HETATM    3  N   UNL     1      63.121   7.724   2.593  1.00  0.00    -0.365 N 
HETATM    4  C   UNL     1      63.556   8.946   4.395  1.00  0.00    -0.001 A 
HETATM    5  C   UNL     1      62.818   8.910   3.217  1.00  0.00     0.042 A 
HETATM    6  C   UNL     1      63.421  10.062   5.247  1.00  0.00     0.014 A 
HETATM    7  C   UNL     1      61.948   9.945   2.843  1.00  0.00     0.030 A 
HETATM    8  C   UNL     1      62.564  11.105   4.888  1.00  0.00     0.001 A 
HETATM    9  C   UNL     1      61.845  11.047   3.699  1.00  0.00     0.002 A 
HETATM   10  H   UNL     1      62.726   7.417   1.744  1.00  0.00     0.165 HD
ENDROOT
BRANCH   1  11
HETATM   11  C   UNL     1      65.328   7.471   5.557  1.00  0.00     0.024 C 
HETATM   12  C   UNL     1      64.811   6.623   6.717  1.00  0.00     0.037 C 
HETATM   13  C   UNL     1      65.876   6.603   7.819  1.00  0.00     0.233 C 
HETATM   14  N   UNL     1      67.168   6.103   7.340  1.00  0.00    -0.075 N 
HETATM   15  C   UNL     1      67.656   6.820   6.162  1.00  0.00     0.233 C 
HETATM   16  H   UNL     1      67.853   6.202   8.089  1.00  0.00     0.277 HD
HETATM   17  H   UNL     1      67.038   5.127   7.072  1.00  0.00     0.277 HD
HETATM   18  C   UNL     1      66.626   6.838   5.038  1.00  0.00     0.037 C 
ENDBRANCH   1  11
TORSDOF 1
ENDMDL
MODEL 2
REMARK VINA RESULT:      -5.5      1.461      2.716
REMARK  1 active torsions:
REMARK  status: ('A' for Active; 'I' for Inactive)
REMARK    1  A    between atoms: C_1  and  C_7 
ROOT
HETATM    1  C   UNL     1      63.582   8.802   4.711  1.00  0.00    -0.026 A 
HETATM    2  C   UNL     1      63.126  10.002   5.217  1.00  0.00     0.096 A 
HETATM    3  N   UNL     1      62.312  10.584   4.276  1.00  0.00    -0.365 N 
HETATM    4  C   UNL     1      63.024   8.673   3.396  1.00  0.00    -0.001 A 
HETATM    5  C   UNL     1      62.216   9.781   3.165  1.00  0.00     0.042 A 
HETATM    6  C   UNL     1      63.121   7.684   2.395  1.00  0.00     0.014 A 
HETATM    7  C   UNL     1      61.491   9.948   1.975  1.00  0.00     0.030 A 
HETATM    8  C   UNL     1      62.403   7.830   1.206  1.00  0.00     0.001 A 
HETATM    9  C   UNL     1      61.595   8.944   1.006  1.00  0.00     0.002 A 
HETATM   10  H   UNL     1      61.861  11.453   4.384  1.00  0.00     0.165 HD
ENDROOT
BRANCH   1  11
HETATM   11  C   UNL     1      64.474   7.766   5.329  1.00  0.00     0.024 C 
HETATM   12  C   UNL     1      65.773   8.264   5.959  1.00  0.00     0.037 C 
HETATM   13  C   UNL     1      66.618   7.050   6.360  1.00  0.00     0.233 C 
HETATM   14  N   UNL     1      65.906   6.149   7.271  1.00  0.00    -0.075 N 
HETATM   15  C   UNL     1      64.604   5.725   6.754  1.00  0.00     0.233 C 
HETATM   16  H   UNL     1      66.481   5.320   7.424  1.00  0.00     0.277 HD
HETATM   17  H   UNL     1      65.738   6.660   8.138  1.00  0.00     0.277 HD
HETATM   18  C   UNL     1      63.731   6.914   6.366  1.00  0.00     0.037 C 
ENDBRANCH   1  11
TORSDOF 1
ENDMDL
MODEL 3
REMARK VINA RESULT:      -5.4      2.093      5.742
REMARK  1 active torsions:
REMARK  status: ('A' for Active; 'I' for Inactive)
REMARK    1  A    between atoms: C_1  and  C_7 
ROOT
HETATM    1  C   UNL     1      62.957   8.569   4.020  1.00  0.00    -0.026 A 
HETATM    2  C   UNL     1      62.994   9.585   4.953  1.00  0.00     0.096 A 
HETATM    3  N   UNL     1      64.194   9.514   5.619  1.00  0.00    -0.365 N 
HETATM    4  C   UNL     1      64.190   7.848   4.150  1.00  0.00    -0.001 A 
HETATM    5  C   UNL     1      64.951   8.476   5.130  1.00  0.00     0.042 A 
HETATM    6  C   UNL     1      64.729   6.726   3.488  1.00  0.00     0.014 A 
HETATM    7  C   UNL     1      66.236   8.036   5.480  1.00  0.00     0.030 A 
HETATM    8  C   UNL     1      66.010   6.276   3.819  1.00  0.00     0.001 A 
HETATM    9  C   UNL     1      66.752   6.929   4.797  1.00  0.00     0.002 A 
HETATM   10  H   UNL     1      64.472  10.121   6.342  1.00  0.00     0.165 HD
ENDROOT
BRANCH   1  11
HETATM   11  C   UNL     1      61.897   8.210   3.021  1.00  0.00     0.024 C 
HETATM   12  C   UNL     1      60.482   8.010   3.561  1.00  0.00     0.037 C 
HETATM   13  C   UNL     1      59.600   7.472   2.430  1.00  0.00     0.233 C 
HETATM   14  N   UNL     1      59.594   8.352   1.257  1.00  0.00    -0.075 N 
HETATM   15  C   UNL     1      60.938   8.657   0.765  1.00  0.00     0.233 C 
HETATM   16  H   UNL     1      59.069   7.896   0.511  1.00  0.00     0.277 HD
HETATM   17  H   UNL     1      59.165   9.234   1.539  1.00  0.00     0.277 HD
HETATM   18  C   UNL     1      61.834   9.216   1.864  1.00  0.00     0.037 C 
ENDBRANCH   1  11
TORSDOF 1
ENDMDL
MODEL 4
REMARK VINA RESULT:      -5.3      1.694      5.550
REMARK  1 active torsions:
REMARK  status: ('A' for Active; 'I' for Inactive)
REMARK    1  A    between atoms: C_1  and  C_7 
ROOT
HETATM    1  C   UNL     1      63.346   8.017   4.858  1.00  0.00    -0.026 A 
HETATM    2  C   UNL     1      62.542   7.295   5.716  1.00  0.00     0.096 A 
HETATM    3  N   UNL     1      63.351   6.591   6.574  1.00  0.00    -0.365 N 
HETATM    4  C   UNL     1      64.702   7.714   5.214  1.00  0.00    -0.001 A 
HETATM    5  C   UNL     1      64.674   6.848   6.302  1.00  0.00     0.042 A 
HETATM    6  C   UNL     1      65.952   8.132   4.712  1.00  0.00     0.014 A 
HETATM    7  C   UNL     1      65.843   6.380   6.921  1.00  0.00     0.030 A 
HETATM    8  C   UNL     1      67.127   7.681   5.319  1.00  0.00     0.001 A 
HETATM    9  C   UNL     1      67.069   6.823   6.412  1.00  0.00     0.002 A 
HETATM   10  H   UNL     1      63.029   5.988   7.283  1.00  0.00     0.165 HD
ENDROOT
BRANCH   1  11
HETATM   11  C   UNL     1      62.980   8.962   3.751  1.00  0.00     0.024 C 
HETATM   12  C   UNL     1      62.345   8.348   2.506  1.00  0.00     0.037 C 
HETATM   13  C   UNL     1      62.222   9.438   1.435  1.00  0.00     0.233 C 
HETATM   14  N   UNL     1      61.452  10.596   1.899  1.00  0.00    -0.075 N 
HETATM   15  C   UNL     1      61.963  11.156   3.151  1.00  0.00     0.233 C 
HETATM   16  H   UNL     1      61.486  11.319   1.181  1.00  0.00     0.277 HD
HETATM   17  H   UNL     1      60.498  10.278   2.074  1.00  0.00     0.277 HD
HETATM   18  C   UNL     1      62.075  10.099   4.245  1.00  0.00     0.037 C 
ENDBRANCH   1  11
TORSDOF 1
ENDMDL
MODEL 5
REMARK VINA RESULT:      -5.1      3.833      6.040
REMARK  1 active torsions:
REMARK  status: ('A' for Active; 'I' for Inactive)
REMARK    1  A    between atoms: C_1  and  C_7 
ROOT
HETATM    1  C   UNL     1      67.888   5.334   8.137  1.00  0.00    -0.026 A 
HETATM    2  C   UNL     1      67.625   6.366   9.015  1.00  0.00     0.096 A 
HETATM    3  N   UNL     1      67.127   7.426   8.296  1.00  0.00    -0.365 N 
HETATM    4  C   UNL     1      67.543   5.811   6.828  1.00  0.00    -0.001 A 
HETATM    5  C   UNL     1      67.046   7.103   6.962  1.00  0.00     0.042 A 
HETATM    6  C   UNL     1      67.590   5.232   5.544  1.00  0.00     0.014 A 
HETATM    7  C   UNL     1      66.586   7.848   5.866  1.00  0.00     0.030 A 
HETATM    8  C   UNL     1      67.131   5.957   4.441  1.00  0.00     0.001 A 
HETATM    9  C   UNL     1      66.630   7.244   4.605  1.00  0.00     0.002 A 
HETATM   10  H   UNL     1      66.865   8.293   8.682  1.00  0.00     0.165 HD
ENDROOT
BRANCH   1  11
HETATM   11  C   UNL     1      68.416   3.954   8.395  1.00  0.00     0.024 C 
HETATM   12  C   UNL     1      69.139   3.731   9.721  1.00  0.00     0.037 C 
HETATM   13  C   UNL     1      69.758   2.330   9.710  1.00  0.00     0.233 C 
HETATM   14  N   UNL     1      68.763   1.279   9.474  1.00  0.00    -0.075 N 
HETATM   15  C   UNL     1      67.970   1.505   8.264  1.00  0.00     0.233 C 
HETATM   16  H   UNL     1      69.246   0.386   9.384  1.00  0.00     0.277 HD
HETATM   17  H   UNL     1      68.119   1.285  10.266  1.00  0.00     0.277 HD
HETATM   18  C   UNL     1      67.322   2.886   8.256  1.00  0.00     0.037 C 
ENDBRANCH   1  11
TORSDOF 1
ENDMDL
MODEL 6
REMARK VINA RESULT:      -5.1      1.432      5.580
REMARK  1 active torsions:
REMARK  status: ('A' for Active; 'I' for Inactive)
REMARK    1  A    between atoms: C_1  and  C_7 
ROOT
HETATM    1  C   UNL     1      65.779   6.944   5.063  1.00  0.00    -0.026 A 
HETATM    2  C   UNL     1      66.786   6.593   4.187  1.00  0.00     0.096 A 
HETATM    3  N   UNL     1      67.828   6.072   4.916  1.00  0.00    -0.365 N 
HETATM    4  C   UNL     1      66.254   6.630   6.380  1.00  0.00    -0.001 A 
HETATM    5  C   UNL     1      67.517   6.063   6.255  1.00  0.00     0.042 A 
HETATM    6  C   UNL     1      65.693   6.760   7.667  1.00  0.00     0.014 A 
HETATM    7  C   UNL     1      68.251   5.611   7.362  1.00  0.00     0.030 A 
HETATM    8  C   UNL     1      66.406   6.310   8.781  1.00  0.00     0.001 A 
HETATM    9  C   UNL     1      67.664   5.738   8.625  1.00  0.00     0.002 A 
HETATM   10  H   UNL     1      68.676   5.750   4.532  1.00  0.00     0.165 HD
ENDROOT
BRANCH   1  11
HETATM   11  C   UNL     1      64.425   7.531   4.797  1.00  0.00     0.024 C 
HETATM   12  C   UNL     1      64.266   9.031   5.037  1.00  0.00     0.037 C 
HETATM   13  C   UNL     1      62.784   9.394   4.892  1.00  0.00     0.233 C 
HETATM   14  N   UNL     1      62.239   9.013   3.586  1.00  0.00    -0.075 N 
HETATM   15  C   UNL     1      62.460   7.602   3.265  1.00  0.00     0.233 C 
HETATM   16  H   UNL     1      61.235   9.193   3.586  1.00  0.00     0.277 HD
HETATM   17  H   UNL     1      62.724   9.566   2.879  1.00  0.00     0.277 HD
HETATM   18  C   UNL     1      63.931   7.215   3.378  1.00  0.00     0.037 C 
ENDBRANCH   1  11
TORSDOF 1
ENDMDL
MODEL 7
REMARK VINA RESULT:      -5.1      3.886      5.660
REMARK  1 active torsions:
REMARK  status: ('A' for Active; 'I' for Inactive)
REMARK    1  A    between atoms: C_1  and  C_7 
ROOT
HETATM    1  C   UNL     1      67.815   4.017   6.679  1.00  0.00    -0.026 A 
HETATM    2  C   UNL     1      67.792   3.226   5.548  1.00  0.00     0.096 A 
HETATM    3  N   UNL     1      67.450   4.016   4.477  1.00  0.00    -0.365 N 
HETATM    4  C   UNL     1      67.452   5.341   6.260  1.00  0.00    -0.001 A 
HETATM    5  C   UNL     1      67.260   5.315   4.883  1.00  0.00     0.042 A 
HETATM    6  C   UNL     1      67.300   6.564   6.944  1.00  0.00     0.014 A 
HETATM    7  C   UNL     1      66.925   6.463   4.150  1.00  0.00     0.030 A 
HETATM    8  C   UNL     1      66.972   7.719   6.230  1.00  0.00     0.001 A 
HETATM    9  C   UNL     1      66.795   7.667   4.851  1.00  0.00     0.002 A 
HETATM   10  H   UNL     1      67.355   3.695   3.551  1.00  0.00     0.165 HD
ENDROOT
BRANCH   1  11
HETATM   11  C   UNL     1      68.147   3.667   8.099  1.00  0.00     0.024 C 
HETATM   12  C   UNL     1      67.933   2.214   8.518  1.00  0.00     0.037 C 
HETATM   13  C   UNL     1      68.146   2.107  10.031  1.00  0.00     0.233 C 
HETATM   14  N   UNL     1      69.470   2.581  10.446  1.00  0.00    -0.075 N 
HETATM   15  C   UNL     1      69.763   3.936   9.977  1.00  0.00     0.233 C 
HETATM   16  H   UNL     1      69.515   2.572  11.464  1.00  0.00     0.277 HD
HETATM   17  H   UNL     1      70.162   1.957  10.029  1.00  0.00     0.277 HD
HETATM   18  C   UNL     1      69.581   4.069   8.469  1.00  0.00     0.037 C 
ENDBRANCH   1  11
TORSDOF 1
ENDMDL
MODEL 8
REMARK VINA RESULT:      -5.0      2.632      3.604
REMARK  1 active torsions:
REMARK  status: ('A' for Active; 'I' for Inactive)
REMARK    1  A    between atoms: C_1  and  C_7 
ROOT
HETATM    1  C   UNL     1      63.146   7.736   4.225  1.00  0.00    -0.026 A 
HETATM    2  C   UNL     1      63.322   8.140   5.532  1.00  0.00     0.096 A 
HETATM    3  N   UNL     1      62.980   9.467   5.623  1.00  0.00    -0.365 N 
HETATM    4  C   UNL     1      62.690   8.887   3.498  1.00  0.00    -0.001 A 
HETATM    5  C   UNL     1      62.568   9.939   4.399  1.00  0.00     0.042 A 
HETATM    6  C   UNL     1      62.345   9.105   2.149  1.00  0.00     0.014 A 
HETATM    7  C   UNL     1      62.110  11.208   4.014  1.00  0.00     0.030 A 
HETATM    8  C   UNL     1      61.882  10.360   1.748  1.00  0.00     0.001 A 
HETATM    9  C   UNL     1      61.761  11.393   2.672  1.00  0.00     0.002 A 
HETATM   10  H   UNL     1      63.022  10.004   6.448  1.00  0.00     0.165 HD
ENDROOT
BRANCH   1  11
HETATM   11  C   UNL     1      63.349   6.392   3.590  1.00  0.00     0.024 C 
HETATM   12  C   UNL     1      64.733   6.108   3.010  1.00  0.00     0.037 C 
HETATM   13  C   UNL     1      64.680   4.778   2.252  1.00  0.00     0.233 C 
HETATM   14  N   UNL     1      64.229   3.668   3.097  1.00  0.00    -0.075 N 
HETATM   15  C   UNL     1      62.952   3.938   3.759  1.00  0.00     0.233 C 
HETATM   16  H   UNL     1      64.126   2.837   2.516  1.00  0.00     0.277 HD
HETATM   17  H   UNL     1      64.929   3.536   3.828  1.00  0.00     0.277 HD
HETATM   18  C   UNL     1      62.980   5.246   4.541  1.00  0.00     0.037 C 
ENDBRANCH   1  11
TORSDOF 1
ENDMDL
MODEL 9
REMARK VINA RESULT:      -5.0      2.523      4.150
REMARK  1 active torsions:
REMARK  status: ('A' for Active; 'I' for Inactive)
REMARK    1  A    between atoms: C_1  and  C_7 
ROOT
HETATM    1  C   UNL     1      67.257   6.245   6.376  1.00  0.00    -0.026 A 
HETATM    2  C   UNL     1      68.048   7.066   5.598  1.00  0.00     0.096 A 
HETATM    3  N   UNL     1      67.235   7.977   4.968  1.00  0.00    -0.365 N 
HETATM    4  C   UNL     1      65.903   6.681   6.186  1.00  0.00    -0.001 A 
HETATM    5  C   UNL     1      65.924   7.776   5.329  1.00  0.00     0.042 A 
HETATM    6  C   UNL     1      64.665   6.244   6.699  1.00  0.00     0.014 A 
HETATM    7  C   UNL     1      64.758   8.465   4.962  1.00  0.00     0.030 A 
HETATM    8  C   UNL     1      63.494   6.920   6.349  1.00  0.00     0.001 A 
HETATM    9  C   UNL     1      63.545   8.019   5.498  1.00  0.00     0.002 A 
HETATM   10  H   UNL     1      67.548   8.674   4.347  1.00  0.00     0.165 HD
ENDROOT
BRANCH   1  11
HETATM   11  C   UNL     1      67.635   5.109   7.279  1.00  0.00     0.024 C 
HETATM   12  C   UNL     1      68.127   3.829   6.606  1.00  0.00     0.037 C 
HETATM   13  C   UNL     1      68.278   2.743   7.676  1.00  0.00     0.233 C 
HETATM   14  N   UNL     1      69.181   3.145   8.759  1.00  0.00    -0.075 N 
HETATM   15  C   UNL     1      68.809   4.422   9.368  1.00  0.00     0.233 C 
HETATM   16  H   UNL     1      69.166   2.424   9.480  1.00  0.00     0.277 HD
HETATM   17  H   UNL     1      70.111   3.259   8.355  1.00  0.00     0.277 HD
HETATM   18  C   UNL     1      68.672   5.531   8.329  1.00  0.00     0.037 C 
ENDBRANCH   1  11
TORSDOF 1
ENDMDL
