MODEL 1
REMARK VINA RESULT:      -4.6      0.000      0.000
REMARK  1 active torsions:
REMARK  status: ('A' for Active; 'I' for Inactive)
REMARK    1  A    between atoms: C_1  and  C_3 
ROOT
HETATM    1  C   UNL     1      71.475  23.009  13.567  1.00  0.00     0.052 C 
HETATM    2  C   UNL     1      72.628  24.016  13.254  1.00  0.00     0.027 C 
HETATM    3  C   UNL     1      73.950  23.276  13.110  1.00  0.00    -0.024 C 
HETATM    4  C   UNL     1      74.297  22.830  14.328  1.00  0.00    -0.026 C 
HETATM    5  C   UNL     1      71.950  22.416  14.938  1.00  0.00     0.029 C 
HETATM    6  C   UNL     1      73.206  23.259  15.276  1.00  0.00     0.010 C 
HETATM    7  C   UNL     1      72.886  24.616  14.644  1.00  0.00     0.018 C 
HETATM    8  C   UNL     1      70.119  23.719  13.717  1.00  0.00     0.027 C 
ENDROOT
BRANCH   1   9
HETATM    9  C   UNL     1      71.311  21.990  12.457  1.00  0.00     0.182 C 
HETATM   10  O   UNL     1      71.679  20.827  12.482  1.00  0.00    -0.647 OA
HETATM   11  O   UNL     1      70.834  22.518  11.312  1.00  0.00    -0.647 OA
ENDBRANCH   1   9
TORSDOF 1
ENDMDL
MODEL 2
REMARK VINA RESULT:      -4.4     17.826     18.871
REMARK  1 active torsions:
REMARK  status: ('A' for Active; 'I' for Inactive)
REMARK    1  A    between atoms: C_1  and  C_3 
ROOT
HETATM    1  C   UNL     1      66.353   6.229   6.535  1.00  0.00     0.052 C 
HETATM    2  C   UNL     1      65.963   5.483   7.851  1.00  0.00     0.027 C 
HETATM    3  C   UNL     1      66.459   6.258   9.064  1.00  0.00    -0.024 C 
HETATM    4  C   UNL     1      67.798   6.164   9.081  1.00  0.00    -0.026 C 
HETATM    5  C   UNL     1      67.919   6.208   6.624  1.00  0.00     0.029 C 
HETATM    6  C   UNL     1      68.193   5.343   7.880  1.00  0.00     0.010 C 
HETATM    7  C   UNL     1      67.015   4.366   7.884  1.00  0.00     0.018 C 
HETATM    8  C   UNL     1      65.866   5.478   5.284  1.00  0.00     0.027 C 
ENDROOT
BRANCH   1   9
HETATM    9  C   UNL     1      65.739   7.613   6.477  1.00  0.00     0.182 C 
HETATM   10  O   UNL     1      66.341   8.674   6.509  1.00  0.00    -0.647 OA
HETATM   11  O   UNL     1      64.392   7.603   6.539  1.00  0.00    -0.647 OA
ENDBRANCH   1   9
TORSDOF 1
ENDMDL
MODEL 3
REMARK VINA RESULT:      -4.3     18.525     19.957
REMARK  1 active torsions:
REMARK  status: ('A' for Active; 'I' for Inactive)
REMARK    1  A    between atoms: C_1  and  C_3 
ROOT
HETATM    1  C   UNL     1      68.224   3.831   8.106  1.00  0.00     0.052 C 
HETATM    2  C   UNL     1      68.662   5.327   8.199  1.00  0.00     0.027 C 
HETATM    3  C   UNL     1      67.879   6.039   9.293  1.00  0.00    -0.024 C 
HETATM    4  C   UNL     1      66.609   6.151   8.872  1.00  0.00    -0.026 C 
HETATM    5  C   UNL     1      66.711   3.978   7.720  1.00  0.00     0.029 C 
HETATM    6  C   UNL     1      66.543   5.505   7.511  1.00  0.00     0.010 C 
HETATM    7  C   UNL     1      67.921   5.931   6.998  1.00  0.00     0.018 C 
HETATM    8  C   UNL     1      68.996   3.074   7.012  1.00  0.00     0.027 C 
ENDROOT
BRANCH   1   9
HETATM    9  C   UNL     1      68.479   3.095   9.405  1.00  0.00     0.182 C 
HETATM   10  O   UNL     1      69.529   3.063  10.026  1.00  0.00    -0.647 OA
HETATM   11  O   UNL     1      67.452   2.307   9.784  1.00  0.00    -0.647 OA
ENDBRANCH   1   9
TORSDOF 1
ENDMDL
MODEL 4
REMARK VINA RESULT:      -4.3     18.091     19.294
REMARK  1 active torsions:
REMARK  status: ('A' for Active; 'I' for Inactive)
REMARK    1  A    between atoms: C_1  and  C_3 
ROOT
HETATM    1  C   UNL     1      66.462   5.326   7.210  1.00  0.00     0.052 C 
HETATM    2  C   UNL     1      66.813   5.057   8.708  1.00  0.00     0.027 C 
HETATM    3  C   UNL     1      67.983   5.930   9.141  1.00  0.00    -0.024 C 
HETATM    4  C   UNL     1      69.079   5.473   8.516  1.00  0.00    -0.026 C 
HETATM    5  C   UNL     1      67.791   4.892   6.501  1.00  0.00     0.029 C 
HETATM    6  C   UNL     1      68.641   4.312   7.660  1.00  0.00     0.010 C 
HETATM    7  C   UNL     1      67.582   3.733   8.601  1.00  0.00     0.018 C 
HETATM    8  C   UNL     1      65.281   4.464   6.733  1.00  0.00     0.027 C 
ENDROOT
BRANCH   1   9
HETATM    9  C   UNL     1      66.065   6.771   6.983  1.00  0.00     0.182 C 
HETATM   10  O   UNL     1      66.764   7.647   6.501  1.00  0.00    -0.647 OA
HETATM   11  O   UNL     1      64.865   7.085   7.512  1.00  0.00    -0.647 OA
ENDBRANCH   1   9
TORSDOF 1
ENDMDL
MODEL 5
REMARK VINA RESULT:      -4.2     18.490     19.797
REMARK  1 active torsions:
REMARK  status: ('A' for Active; 'I' for Inactive)
REMARK    1  A    between atoms: C_1  and  C_3 
ROOT
HETATM    1  C   UNL     1      67.720   4.957   7.761  1.00  0.00     0.052 C 
HETATM    2  C   UNL     1      67.983   3.426   7.926  1.00  0.00     0.027 C 
HETATM    3  C   UNL     1      68.068   3.060   9.401  1.00  0.00    -0.024 C 
HETATM    4  C   UNL     1      69.204   3.587   9.882  1.00  0.00    -0.026 C 
HETATM    5  C   UNL     1      69.004   5.562   8.427  1.00  0.00     0.029 C 
HETATM    6  C   UNL     1      69.867   4.312   8.738  1.00  0.00     0.010 C 
HETATM    7  C   UNL     1      69.484   3.346   7.614  1.00  0.00     0.018 C 
HETATM    8  C   UNL     1      67.625   5.368   6.282  1.00  0.00     0.027 C 
ENDROOT
BRANCH   1   9
HETATM    9  C   UNL     1      66.415   5.369   8.412  1.00  0.00     0.182 C 
HETATM   10  O   UNL     1      66.279   6.179   9.315  1.00  0.00    -0.647 OA
HETATM   11  O   UNL     1      65.360   4.635   8.006  1.00  0.00    -0.647 OA
ENDBRANCH   1   9
TORSDOF 1
ENDMDL
MODEL 6
REMARK VINA RESULT:      -4.1     17.566     19.229
REMARK  1 active torsions:
REMARK  status: ('A' for Active; 'I' for Inactive)
REMARK    1  A    between atoms: C_1  and  C_3 
ROOT
HETATM    1  C   UNL     1      66.677   6.381   7.462  1.00  0.00     0.052 C 
HETATM    2  C   UNL     1      67.914   5.946   6.612  1.00  0.00     0.027 C 
HETATM    3  C   UNL     1      67.483   5.582   5.199  1.00  0.00    -0.024 C 
HETATM    4  C   UNL     1      66.785   4.439   5.272  1.00  0.00    -0.026 C 
HETATM    5  C   UNL     1      65.819   5.069   7.447  1.00  0.00     0.029 C 
HETATM    6  C   UNL     1      66.739   4.049   6.728  1.00  0.00     0.010 C 
HETATM    7  C   UNL     1      68.141   4.517   7.125  1.00  0.00     0.018 C 
HETATM    8  C   UNL     1      67.072   6.760   8.899  1.00  0.00     0.027 C 
ENDROOT
BRANCH   1   9
HETATM    9  C   UNL     1      65.992   7.594   6.865  1.00  0.00     0.182 C 
HETATM   10  O   UNL     1      66.497   8.688   6.668  1.00  0.00    -0.647 OA
HETATM   11  O   UNL     1      64.666   7.425   6.688  1.00  0.00    -0.647 OA
ENDBRANCH   1   9
TORSDOF 1
ENDMDL
MODEL 7
REMARK VINA RESULT:      -4.1     22.321     23.348
REMARK  1 active torsions:
REMARK  status: ('A' for Active; 'I' for Inactive)
REMARK    1  A    between atoms: C_1  and  C_3 
ROOT
HETATM    1  C   UNL     1      76.326   0.837  17.762  1.00  0.00     0.052 C 
HETATM    2  C   UNL     1      74.810   1.179  17.917  1.00  0.00     0.027 C 
HETATM    3  C   UNL     1      73.957  -0.038  17.589  1.00  0.00    -0.024 C 
HETATM    4  C   UNL     1      74.056  -0.255  16.268  1.00  0.00    -0.026 C 
HETATM    5  C   UNL     1      76.404   0.479  16.237  1.00  0.00     0.029 C 
HETATM    6  C   UNL     1      74.979   0.804  15.721  1.00  0.00     0.010 C 
HETATM    7  C   UNL     1      74.546   1.962  16.624  1.00  0.00     0.018 C 
HETATM    8  C   UNL     1      77.224   2.043  18.088  1.00  0.00     0.027 C 
ENDROOT
BRANCH   1   9
HETATM    9  C   UNL     1      76.743  -0.280  18.697  1.00  0.00     0.182 C 
HETATM   10  O   UNL     1      76.762  -0.235  19.917  1.00  0.00    -0.647 OA
HETATM   11  O   UNL     1      77.262  -1.347  18.057  1.00  0.00    -0.647 OA
ENDBRANCH   1   9
TORSDOF 1
ENDMDL
MODEL 8
REMARK VINA RESULT:      -4.0     18.898     20.225
REMARK  1 active torsions:
REMARK  status: ('A' for Active; 'I' for Inactive)
REMARK    1  A    between atoms: C_1  and  C_3 
ROOT
HETATM    1  C   UNL     1      62.974   7.124   4.748  1.00  0.00     0.052 C 
HETATM    2  C   UNL     1      63.549   8.255   3.838  1.00  0.00     0.027 C 
HETATM    3  C   UNL     1      62.899   9.589   4.176  1.00  0.00    -0.024 C 
HETATM    4  C   UNL     1      61.622   9.530   3.766  1.00  0.00    -0.026 C 
HETATM    5  C   UNL     1      61.460   7.141   4.337  1.00  0.00     0.029 C 
HETATM    6  C   UNL     1      61.419   8.160   3.170  1.00  0.00     0.010 C 
HETATM    7  C   UNL     1      62.798   7.994   2.525  1.00  0.00     0.018 C 
HETATM    8  C   UNL     1      63.609   5.758   4.439  1.00  0.00     0.027 C 
ENDROOT
BRANCH   1   9
HETATM    9  C   UNL     1      63.236   7.403   6.215  1.00  0.00     0.182 C 
HETATM   10  O   UNL     1      62.402   7.693   7.058  1.00  0.00    -0.647 OA
HETATM   11  O   UNL     1      64.547   7.460   6.521  1.00  0.00    -0.647 OA
ENDBRANCH   1   9
TORSDOF 1
ENDMDL
MODEL 9
REMARK VINA RESULT:      -4.0     18.348     19.795
REMARK  1 active torsions:
REMARK  status: ('A' for Active; 'I' for Inactive)
REMARK    1  A    between atoms: C_1  and  C_3 
ROOT
HETATM    1  C   UNL     1      62.015   8.706   3.621  1.00  0.00     0.052 C 
HETATM    2  C   UNL     1      62.585   8.483   5.059  1.00  0.00     0.027 C 
HETATM    3  C   UNL     1      63.992   9.052   5.163  1.00  0.00    -0.024 C 
HETATM    4  C   UNL     1      64.798   8.273   4.425  1.00  0.00    -0.026 C 
HETATM    5  C   UNL     1      63.030   7.879   2.758  1.00  0.00     0.029 C 
HETATM    6  C   UNL     1      63.930   7.198   3.821  1.00  0.00     0.010 C 
HETATM    7  C   UNL     1      62.973   6.999   5.000  1.00  0.00     0.018 C 
HETATM    8  C   UNL     1      60.590   8.146   3.475  1.00  0.00     0.027 C 
ENDROOT
BRANCH   1   9
HETATM    9  C   UNL     1      61.941  10.179   3.275  1.00  0.00     0.182 C 
HETATM   10  O   UNL     1      61.637  11.087   4.032  1.00  0.00    -0.647 OA
HETATM   11  O   UNL     1      62.099  10.427   1.959  1.00  0.00    -0.647 OA
ENDBRANCH   1   9
TORSDOF 1
ENDMDL
