MODEL 1
REMARK VINA RESULT:      -5.2      0.000      0.000
REMARK  2 active torsions:
REMARK  status: ('A' for Active; 'I' for Inactive)
REMARK    1  A    between atoms: CA_3  and  C_7 
REMARK    2  A    between atoms: O_5  and  C_7 
ROOT
HETATM    1  N   UNL     1      78.421  11.367  20.440  1.00  0.00    -0.361 N 
ATOM      2  HN  UNL     1      79.144  10.737  20.788  1.00  0.00     0.165 HD
HETATM    3  CA  UNL     1      77.704  11.065  19.321  1.00  0.00     0.033 A 
HETATM    4  C   UNL     1      78.140  12.532  21.075  1.00  0.00     0.005 A 
HETATM    5  C   UNL     1      76.442  13.089  19.480  1.00  0.00     0.004 A 
HETATM    6  C   UNL     1      77.162  13.413  20.625  1.00  0.00     0.024 A 
HETATM    7  C   UNL     1      76.714  11.900  18.815  1.00  0.00     0.027 A 
HETATM    8  C   UNL     1      78.932  12.835  22.311  1.00  0.00     0.068 C 
ENDROOT
BRANCH   3   9
HETATM    9  C   UNL     1      78.014   9.755  18.630  1.00  0.00     0.220 C 
BRANCH   9  10
HETATM   10  O   UNL     1      79.296   9.781  18.005  1.00  0.00    -0.395 OA
HETATM   11  H   UNL     1      79.355   9.061  17.358  1.00  0.00     0.209 HD
ENDBRANCH   9  10
ENDBRANCH   3   9
TORSDOF 2
ENDMDL
MODEL 2
REMARK VINA RESULT:      -5.0      1.471      3.117
REMARK  2 active torsions:
REMARK  status: ('A' for Active; 'I' for Inactive)
REMARK    1  A    between atoms: CA_3  and  C_7 
REMARK    2  A    between atoms: O_5  and  C_7 
ROOT
HETATM    1  N   UNL     1      78.299  11.148  20.004  1.00  0.00    -0.361 N 
ATOM      2  HN  UNL     1      78.933  10.369  20.184  1.00  0.00     0.165 HD
HETATM    3  CA  UNL     1      78.326  12.271  20.777  1.00  0.00     0.033 A 
HETATM    4  C   UNL     1      77.402  11.103  18.989  1.00  0.00     0.005 A 
HETATM    5  C   UNL     1      76.564  13.283  19.518  1.00  0.00     0.004 A 
HETATM    6  C   UNL     1      76.523  12.147  18.717  1.00  0.00     0.024 A 
HETATM    7  C   UNL     1      77.476  13.351  20.564  1.00  0.00     0.027 A 
HETATM    8  C   UNL     1      77.401   9.864  18.144  1.00  0.00     0.068 C 
ENDROOT
BRANCH   3   9
HETATM    9  C   UNL     1      79.343  12.319  21.896  1.00  0.00     0.220 C 
BRANCH   9  10
HETATM   10  O   UNL     1      80.404  11.389  21.681  1.00  0.00    -0.395 OA
HETATM   11  H   UNL     1      80.604  10.928  22.511  1.00  0.00     0.209 HD
ENDBRANCH   9  10
ENDBRANCH   3   9
TORSDOF 2
ENDMDL
MODEL 3
REMARK VINA RESULT:      -5.0      4.051      5.778
REMARK  2 active torsions:
REMARK  status: ('A' for Active; 'I' for Inactive)
REMARK    1  A    between atoms: CA_3  and  C_7 
REMARK    2  A    between atoms: O_5  and  C_7 
ROOT
HETATM    1  N   UNL     1      77.592   9.101  16.302  1.00  0.00    -0.361 N 
ATOM      2  HN  UNL     1      77.904  10.072  16.267  1.00  0.00     0.165 HD
HETATM    3  CA  UNL     1      77.428   8.373  15.162  1.00  0.00     0.033 A 
HETATM    4  C   UNL     1      77.326   8.492  17.484  1.00  0.00     0.005 A 
HETATM    5  C   UNL     1      76.734   6.444  16.392  1.00  0.00     0.004 A 
HETATM    6  C   UNL     1      76.898   7.171  17.566  1.00  0.00     0.024 A 
HETATM    7  C   UNL     1      77.001   7.049  15.170  1.00  0.00     0.027 A 
HETATM    8  C   UNL     1      77.528   9.309  18.725  1.00  0.00     0.068 C 
ENDROOT
BRANCH   3   9
HETATM    9  C   UNL     1      77.744   9.057  13.850  1.00  0.00     0.220 C 
BRANCH   9  10
HETATM   10  O   UNL     1      77.554   8.179  12.741  1.00  0.00    -0.395 OA
HETATM   11  H   UNL     1      77.330   7.292  13.066  1.00  0.00     0.209 HD
ENDBRANCH   9  10
ENDBRANCH   3   9
TORSDOF 2
ENDMDL
MODEL 4
REMARK VINA RESULT:      -5.0     12.282     13.566
REMARK  2 active torsions:
REMARK  status: ('A' for Active; 'I' for Inactive)
REMARK    1  A    between atoms: CA_3  and  C_7 
REMARK    2  A    between atoms: O_5  and  C_7 
ROOT
HETATM    1  N   UNL     1      72.763  22.028  13.946  1.00  0.00    -0.361 N 
ATOM      2  HN  UNL     1      72.988  21.096  13.597  1.00  0.00     0.165 HD
HETATM    3  CA  UNL     1      73.533  22.628  14.897  1.00  0.00     0.033 A 
HETATM    4  C   UNL     1      71.688  22.711  13.481  1.00  0.00     0.005 A 
HETATM    5  C   UNL     1      72.150  24.578  14.909  1.00  0.00     0.004 A 
HETATM    6  C   UNL     1      71.353  23.982  13.938  1.00  0.00     0.024 A 
HETATM    7  C   UNL     1      73.256  23.895  15.399  1.00  0.00     0.027 A 
HETATM    8  C   UNL     1      70.864  22.036  12.426  1.00  0.00     0.068 C 
ENDROOT
BRANCH   3   9
HETATM    9  C   UNL     1      74.740  21.864  15.396  1.00  0.00     0.220 C 
BRANCH   9  10
HETATM   10  O   UNL     1      74.380  20.906  16.390  1.00  0.00    -0.395 OA
HETATM   11  H   UNL     1      75.028  20.930  17.113  1.00  0.00     0.209 HD
ENDBRANCH   9  10
ENDBRANCH   3   9
TORSDOF 2
ENDMDL
MODEL 5
REMARK VINA RESULT:      -4.7      3.497      5.943
REMARK  2 active torsions:
REMARK  status: ('A' for Active; 'I' for Inactive)
REMARK    1  A    between atoms: CA_3  and  C_7 
REMARK    2  A    between atoms: O_5  and  C_7 
ROOT
HETATM    1  N   UNL     1      77.780   9.255  16.089  1.00  0.00    -0.361 N 
ATOM      2  HN  UNL     1      78.157  10.194  15.959  1.00  0.00     0.165 HD
HETATM    3  CA  UNL     1      77.533   8.762  17.336  1.00  0.00     0.033 A 
HETATM    4  C   UNL     1      77.507   8.455  15.028  1.00  0.00     0.005 A 
HETATM    5  C   UNL     1      76.750   6.684  16.451  1.00  0.00     0.004 A 
HETATM    6  C   UNL     1      76.994   7.170  15.172  1.00  0.00     0.024 A 
HETATM    7  C   UNL     1      77.022   7.487  17.552  1.00  0.00     0.027 A 
HETATM    8  C   UNL     1      77.774   9.025  13.668  1.00  0.00     0.068 C 
ENDROOT
BRANCH   3   9
HETATM    9  C   UNL     1      77.824   9.669  18.511  1.00  0.00     0.220 C 
BRANCH   9  10
HETATM   10  O   UNL     1      79.154  10.181  18.461  1.00  0.00    -0.395 OA
HETATM   11  H   UNL     1      79.715   9.577  17.948  1.00  0.00     0.209 HD
ENDBRANCH   9  10
ENDBRANCH   3   9
TORSDOF 2
ENDMDL
MODEL 6
REMARK VINA RESULT:      -4.6      7.117      8.990
REMARK  2 active torsions:
REMARK  status: ('A' for Active; 'I' for Inactive)
REMARK    1  A    between atoms: CA_3  and  C_7 
REMARK    2  A    between atoms: O_5  and  C_7 
ROOT
HETATM    1  N   UNL     1      77.275   3.802  17.991  1.00  0.00    -0.361 N 
ATOM      2  HN  UNL     1      78.160   4.060  18.427  1.00  0.00     0.165 HD
HETATM    3  CA  UNL     1      76.843   2.509  17.987  1.00  0.00     0.033 A 
HETATM    4  C   UNL     1      76.488   4.732  17.395  1.00  0.00     0.005 A 
HETATM    5  C   UNL     1      74.854   3.087  16.794  1.00  0.00     0.004 A 
HETATM    6  C   UNL     1      75.276   4.412  16.790  1.00  0.00     0.024 A 
HETATM    7  C   UNL     1      75.645   2.118  17.399  1.00  0.00     0.027 A 
HETATM    8  C   UNL     1      76.977   6.149  17.425  1.00  0.00     0.068 C 
ENDROOT
BRANCH   3   9
HETATM    9  C   UNL     1      77.721   1.482  18.669  1.00  0.00     0.220 C 
BRANCH   9  10
HETATM   10  O   UNL     1      78.806   2.097  19.361  1.00  0.00    -0.395 OA
HETATM   11  H   UNL     1      79.590   2.109  18.789  1.00  0.00     0.209 HD
ENDBRANCH   9  10
ENDBRANCH   3   9
TORSDOF 2
ENDMDL
MODEL 7
REMARK VINA RESULT:      -4.6     12.655     13.730
REMARK  2 active torsions:
REMARK  status: ('A' for Active; 'I' for Inactive)
REMARK    1  A    between atoms: CA_3  and  C_7 
REMARK    2  A    between atoms: O_5  and  C_7 
ROOT
HETATM    1  N   UNL     1      72.570  21.995  13.645  1.00  0.00    -0.361 N 
ATOM      2  HN  UNL     1      73.256  21.291  13.372  1.00  0.00     0.165 HD
HETATM    3  CA  UNL     1      71.405  22.148  12.955  1.00  0.00     0.033 A 
HETATM    4  C   UNL     1      72.786  22.809  14.708  1.00  0.00     0.005 A 
HETATM    5  C   UNL     1      70.691  23.923  14.388  1.00  0.00     0.004 A 
HETATM    6  C   UNL     1      71.872  23.780  15.106  1.00  0.00     0.024 A 
HETATM    7  C   UNL     1      70.449  23.099  13.296  1.00  0.00     0.027 A 
HETATM    8  C   UNL     1      74.068  22.612  15.460  1.00  0.00     0.068 C 
ENDROOT
BRANCH   3   9
HETATM    9  C   UNL     1      71.167  21.223  11.782  1.00  0.00     0.220 C 
BRANCH   9  10
HETATM   10  O   UNL     1      71.644  19.905  12.048  1.00  0.00    -0.395 OA
HETATM   11  H   UNL     1      72.190  19.914  12.850  1.00  0.00     0.209 HD
ENDBRANCH   9  10
ENDBRANCH   3   9
TORSDOF 2
ENDMDL
MODEL 8
REMARK VINA RESULT:      -4.6     14.331     15.090
REMARK  2 active torsions:
REMARK  status: ('A' for Active; 'I' for Inactive)
REMARK    1  A    between atoms: CA_3  and  C_7 
REMARK    2  A    between atoms: O_5  and  C_7 
ROOT
HETATM    1  N   UNL     1      70.322  23.386  13.890  1.00  0.00    -0.361 N 
ATOM      2  HN  UNL     1      69.527  22.788  13.661  1.00  0.00     0.165 HD
HETATM    3  CA  UNL     1      71.556  23.150  13.363  1.00  0.00     0.033 A 
HETATM    4  C   UNL     1      70.186  24.442  14.730  1.00  0.00     0.005 A 
HETATM    5  C   UNL     1      72.501  25.017  14.518  1.00  0.00     0.004 A 
HETATM    6  C   UNL     1      71.249  25.275  15.064  1.00  0.00     0.024 A 
HETATM    7  C   UNL     1      72.662  23.940  13.655  1.00  0.00     0.027 A 
HETATM    8  C   UNL     1      68.816  24.690  15.286  1.00  0.00     0.068 C 
ENDROOT
BRANCH   3   9
HETATM    9  C   UNL     1      71.693  21.980  12.413  1.00  0.00     0.220 C 
BRANCH   9  10
HETATM   10  O   UNL     1      72.853  22.102  11.593  1.00  0.00    -0.395 OA
HETATM   11  H   UNL     1      73.523  21.463  11.883  1.00  0.00     0.209 HD
ENDBRANCH   9  10
ENDBRANCH   3   9
TORSDOF 2
ENDMDL
MODEL 9
REMARK VINA RESULT:      -4.6     20.433     21.714
REMARK  2 active torsions:
REMARK  status: ('A' for Active; 'I' for Inactive)
REMARK    1  A    between atoms: CA_3  and  C_7 
REMARK    2  A    between atoms: O_5  and  C_7 
ROOT
HETATM    1  N   UNL     1      63.583   9.248   4.912  1.00  0.00    -0.361 N 
ATOM      2  HN  UNL     1      64.190   8.992   5.691  1.00  0.00     0.165 HD
HETATM    3  CA  UNL     1      62.890  10.421   4.916  1.00  0.00     0.033 A 
HETATM    4  C   UNL     1      63.438   8.433   3.838  1.00  0.00     0.005 A 
HETATM    5  C   UNL     1      61.917   9.952   2.783  1.00  0.00     0.004 A 
HETATM    6  C   UNL     1      62.618   8.751   2.761  1.00  0.00     0.024 A 
HETATM    7  C   UNL     1      62.051  10.802   3.874  1.00  0.00     0.027 A 
HETATM    8  C   UNL     1      64.222   7.154   3.851  1.00  0.00     0.068 C 
ENDROOT
BRANCH   3   9
HETATM    9  C   UNL     1      63.072  11.331   6.111  1.00  0.00     0.220 C 
BRANCH   9  10
HETATM   10  O   UNL     1      64.451  11.494   6.441  1.00  0.00    -0.395 OA
HETATM   11  H   UNL     1      64.540  12.161   7.140  1.00  0.00     0.209 HD
ENDBRANCH   9  10
ENDBRANCH   3   9
TORSDOF 2
ENDMDL
