MODEL 1
REMARK VINA RESULT:      -5.1      0.000      0.000
REMARK  1 active torsions:
REMARK  status: ('A' for Active; 'I' for Inactive)
REMARK    1  A    between atoms: C_1  and  N_8 
ROOT
HETATM    1  C   UNL     1      76.680   6.105  17.363  1.00  0.00     0.143 A 
HETATM    2  N   UNL     1      77.031   7.316  17.711  1.00  0.00    -0.336 N 
ATOM      3  HN  UNL     1      77.111   7.649  18.672  1.00  0.00     0.168 HD
HETATM    4  S   UNL     1      76.571   5.816  15.677  1.00  0.00    -0.052 SA
HETATM    5  C   UNL     1      77.083   7.428  15.365  1.00  0.00     0.038 A 
HETATM    6  C   UNL     1      77.279   8.082  16.584  1.00  0.00     0.051 A 
HETATM    7  C   UNL     1      77.300   8.070  14.135  1.00  0.00     0.063 A 
HETATM    8  C   UNL     1      77.706   9.427  16.577  1.00  0.00     0.034 A 
HETATM    9  C   UNL     1      77.728   9.396  14.164  1.00  0.00     0.117 A 
HETATM   10  C   UNL     1      77.930  10.075  15.357  1.00  0.00     0.044 A 
HETATM   11  F   UNL     1      77.954  10.031  13.006  1.00  0.00    -0.206 F 
ENDROOT
BRANCH   1  12
HETATM   12  N   UNL     1      76.406   5.140  18.255  1.00  0.00    -0.380 N 
HETATM   13  H   UNL     1      75.494   4.777  18.323  1.00  0.00     0.158 HD
HETATM   14  H   UNL     1      77.119   4.795  18.840  1.00  0.00     0.158 HD
ENDBRANCH   1  12
TORSDOF 1
ENDMDL
MODEL 2
REMARK VINA RESULT:      -4.8      4.821      5.819
REMARK  1 active torsions:
REMARK  status: ('A' for Active; 'I' for Inactive)
REMARK    1  A    between atoms: C_1  and  N_8 
ROOT
HETATM    1  C   UNL     1      77.560   1.090  18.425  1.00  0.00     0.143 A 
HETATM    2  N   UNL     1      77.857   2.364  18.408  1.00  0.00    -0.336 N 
ATOM      3  HN  UNL     1      78.733   2.764  18.744  1.00  0.00     0.168 HD
HETATM    4  S   UNL     1      75.999   0.681  17.848  1.00  0.00    -0.052 SA
HETATM    5  C   UNL     1      75.694   2.337  17.493  1.00  0.00     0.038 A 
HETATM    6  C   UNL     1      76.810   3.089  17.867  1.00  0.00     0.051 A 
HETATM    7  C   UNL     1      74.555   2.929  16.924  1.00  0.00     0.063 A 
HETATM    8  C   UNL     1      76.790   4.487  17.666  1.00  0.00     0.034 A 
HETATM    9  C   UNL     1      74.572   4.310  16.733  1.00  0.00     0.117 A 
HETATM   10  C   UNL     1      75.663   5.087  17.095  1.00  0.00     0.044 A 
HETATM   11  F   UNL     1      73.504   4.902  16.182  1.00  0.00    -0.206 F 
ENDROOT
BRANCH   1  12
HETATM   12  N   UNL     1      78.406   0.149  18.873  1.00  0.00    -0.380 N 
HETATM   13  H   UNL     1      79.371   0.233  18.701  1.00  0.00     0.158 HD
HETATM   14  H   UNL     1      78.060  -0.625  19.373  1.00  0.00     0.158 HD
ENDBRANCH   1  12
TORSDOF 1
ENDMDL
MODEL 3
REMARK VINA RESULT:      -4.6     18.030     18.584
REMARK  1 active torsions:
REMARK  status: ('A' for Active; 'I' for Inactive)
REMARK    1  A    between atoms: C_1  and  N_8 
ROOT
HETATM    1  C   UNL     1      63.789   7.432   5.442  1.00  0.00     0.143 A 
HETATM    2  N   UNL     1      63.570   8.611   5.965  1.00  0.00    -0.336 N 
ATOM      3  HN  UNL     1      63.784   8.872   6.928  1.00  0.00     0.168 HD
HETATM    4  S   UNL     1      63.290   7.235   3.814  1.00  0.00    -0.052 SA
HETATM    5  C   UNL     1      62.776   8.876   3.770  1.00  0.00     0.038 A 
HETATM    6  C   UNL     1      63.005   9.452   5.022  1.00  0.00     0.051 A 
HETATM    7  C   UNL     1      62.216   9.605   2.709  1.00  0.00     0.063 A 
HETATM    8  C   UNL     1      62.660  10.806   5.224  1.00  0.00     0.034 A 
HETATM    9  C   UNL     1      61.894  10.940   2.940  1.00  0.00     0.117 A 
HETATM   10  C   UNL     1      62.106  11.543   4.172  1.00  0.00     0.044 A 
HETATM   11  F   UNL     1      61.367  11.663   1.943  1.00  0.00    -0.206 F 
ENDROOT
BRANCH   1  12
HETATM   12  N   UNL     1      64.357   6.425   6.124  1.00  0.00    -0.380 N 
HETATM   13  H   UNL     1      63.940   5.533   6.122  1.00  0.00     0.158 HD
HETATM   14  H   UNL     1      65.191   6.578   6.624  1.00  0.00     0.158 HD
ENDBRANCH   1  12
TORSDOF 1
ENDMDL
MODEL 4
REMARK VINA RESULT:      -4.5     12.586     13.336
REMARK  1 active torsions:
REMARK  status: ('A' for Active; 'I' for Inactive)
REMARK    1  A    between atoms: C_1  and  N_8 
ROOT
HETATM    1  C   UNL     1      66.650   7.408   6.788  1.00  0.00     0.143 A 
HETATM    2  N   UNL     1      67.150   7.263   7.988  1.00  0.00    -0.336 N 
ATOM      3  HN  UNL     1      67.102   7.962   8.730  1.00  0.00     0.168 HD
HETATM    4  S   UNL     1      66.911   6.102   5.709  1.00  0.00    -0.052 SA
HETATM    5  C   UNL     1      67.722   5.233   6.953  1.00  0.00     0.038 A 
HETATM    6  C   UNL     1      67.753   6.023   8.105  1.00  0.00     0.051 A 
HETATM    7  C   UNL     1      68.286   3.948   6.918  1.00  0.00     0.063 A 
HETATM    8  C   UNL     1      68.373   5.512   9.266  1.00  0.00     0.034 A 
HETATM    9  C   UNL     1      68.883   3.472   8.083  1.00  0.00     0.117 A 
HETATM   10  C   UNL     1      68.933   4.231   9.244  1.00  0.00     0.044 A 
HETATM   11  F   UNL     1      69.420   2.245   8.083  1.00  0.00    -0.206 F 
ENDROOT
BRANCH   1  12
HETATM   12  N   UNL     1      65.982   8.507   6.403  1.00  0.00    -0.380 N 
HETATM   13  H   UNL     1      66.405   9.153   5.793  1.00  0.00     0.158 HD
HETATM   14  H   UNL     1      65.066   8.665   6.731  1.00  0.00     0.158 HD
ENDBRANCH   1  12
TORSDOF 1
ENDMDL
MODEL 5
REMARK VINA RESULT:      -4.3     13.283     13.941
REMARK  1 active torsions:
REMARK  status: ('A' for Active; 'I' for Inactive)
REMARK    1  A    between atoms: C_1  and  N_8 
ROOT
HETATM    1  C   UNL     1      64.867   6.768   6.742  1.00  0.00     0.143 A 
HETATM    2  N   UNL     1      65.537   7.038   7.832  1.00  0.00    -0.336 N 
ATOM      3  HN  UNL     1      65.283   7.754   8.512  1.00  0.00     0.168 HD
HETATM    4  S   UNL     1      65.536   5.549   5.739  1.00  0.00    -0.052 SA
HETATM    5  C   UNL     1      66.812   5.315   6.870  1.00  0.00     0.038 A 
HETATM    6  C   UNL     1      66.642   6.210   7.929  1.00  0.00     0.051 A 
HETATM    7  C   UNL     1      67.881   4.406   6.828  1.00  0.00     0.063 A 
HETATM    8  C   UNL     1      67.577   6.199   8.988  1.00  0.00     0.034 A 
HETATM    9  C   UNL     1      68.780   4.418   7.893  1.00  0.00     0.117 A 
HETATM   10  C   UNL     1      68.643   5.294   8.960  1.00  0.00     0.044 A 
HETATM   11  F   UNL     1      69.805   3.554   7.886  1.00  0.00    -0.206 F 
ENDROOT
BRANCH   1  12
HETATM   12  N   UNL     1      63.733   7.401   6.407  1.00  0.00    -0.380 N 
HETATM   13  H   UNL     1      62.877   7.123   6.807  1.00  0.00     0.158 HD
HETATM   14  H   UNL     1      63.756   8.144   5.761  1.00  0.00     0.158 HD
ENDBRANCH   1  12
TORSDOF 1
ENDMDL
MODEL 6
REMARK VINA RESULT:      -4.2      5.102      6.196
REMARK  1 active torsions:
REMARK  status: ('A' for Active; 'I' for Inactive)
REMARK    1  A    between atoms: C_1  and  N_8 
ROOT
HETATM    1  C   UNL     1      74.839   0.248  17.334  1.00  0.00     0.143 A 
HETATM    2  N   UNL     1      74.222   1.260  16.779  1.00  0.00    -0.336 N 
ATOM      3  HN  UNL     1      73.336   1.201  16.277  1.00  0.00     0.168 HD
HETATM    4  S   UNL     1      76.343   0.607  18.074  1.00  0.00    -0.052 SA
HETATM    5  C   UNL     1      76.148   2.268  17.669  1.00  0.00     0.038 A 
HETATM    6  C   UNL     1      74.947   2.423  16.972  1.00  0.00     0.051 A 
HETATM    7  C   UNL     1      76.990   3.357  17.950  1.00  0.00     0.063 A 
HETATM    8  C   UNL     1      74.572   3.713  16.536  1.00  0.00     0.034 A 
HETATM    9  C   UNL     1      76.586   4.616  17.511  1.00  0.00     0.117 A 
HETATM   10  C   UNL     1      75.401   4.805  16.814  1.00  0.00     0.044 A 
HETATM   11  F   UNL     1      77.364   5.675  17.773  1.00  0.00    -0.206 F 
ENDROOT
BRANCH   1  12
HETATM   12  N   UNL     1      74.347  -1.000  17.325  1.00  0.00    -0.380 N 
HETATM   13  H   UNL     1      73.760  -1.293  16.591  1.00  0.00     0.158 HD
HETATM   14  H   UNL     1      74.574  -1.623  18.053  1.00  0.00     0.158 HD
ENDBRANCH   1  12
TORSDOF 1
ENDMDL
MODEL 7
REMARK VINA RESULT:      -4.2      5.543      6.633
REMARK  1 active torsions:
REMARK  status: ('A' for Active; 'I' for Inactive)
REMARK    1  A    between atoms: C_1  and  N_8 
ROOT
HETATM    1  C   UNL     1      75.568  -0.406  18.455  1.00  0.00     0.143 A 
HETATM    2  N   UNL     1      76.508   0.466  18.711  1.00  0.00    -0.336 N 
ATOM      3  HN  UNL     1      77.350   0.276  19.255  1.00  0.00     0.168 HD
HETATM    4  S   UNL     1      74.230   0.183  17.560  1.00  0.00    -0.052 SA
HETATM    5  C   UNL     1      74.977   1.729  17.453  1.00  0.00     0.038 A 
HETATM    6  C   UNL     1      76.196   1.686  18.135  1.00  0.00     0.051 A 
HETATM    7  C   UNL     1      74.525   2.893  16.811  1.00  0.00     0.063 A 
HETATM    8  C   UNL     1      76.994   2.850  18.181  1.00  0.00     0.034 A 
HETATM    9  C   UNL     1      75.341   4.021  16.870  1.00  0.00     0.117 A 
HETATM   10  C   UNL     1      76.556   4.014  17.540  1.00  0.00     0.044 A 
HETATM   11  F   UNL     1      74.940   5.144  16.258  1.00  0.00    -0.206 F 
ENDROOT
BRANCH   1  12
HETATM   12  N   UNL     1      75.623  -1.681  18.868  1.00  0.00    -0.380 N 
HETATM   13  H   UNL     1      75.990  -2.375  18.274  1.00  0.00     0.158 HD
HETATM   14  H   UNL     1      75.297  -1.922  19.765  1.00  0.00     0.158 HD
ENDBRANCH   1  12
TORSDOF 1
ENDMDL
MODEL 8
REMARK VINA RESULT:      -4.2     17.997     18.639
REMARK  1 active torsions:
REMARK  status: ('A' for Active; 'I' for Inactive)
REMARK    1  A    between atoms: C_1  and  N_8 
ROOT
HETATM    1  C   UNL     1      64.098   6.818   3.947  1.00  0.00     0.143 A 
HETATM    2  N   UNL     1      63.389   7.374   2.998  1.00  0.00    -0.336 N 
ATOM      3  HN  UNL     1      63.157   6.935   2.107  1.00  0.00     0.168 HD
HETATM    4  S   UNL     1      64.387   7.791   5.328  1.00  0.00    -0.052 SA
HETATM    5  C   UNL     1      63.447   9.056   4.638  1.00  0.00     0.038 A 
HETATM    6  C   UNL     1      62.997   8.646   3.380  1.00  0.00     0.051 A 
HETATM    7  C   UNL     1      63.127  10.317   5.167  1.00  0.00     0.063 A 
HETATM    8  C   UNL     1      62.198   9.528   2.620  1.00  0.00     0.034 A 
HETATM    9  C   UNL     1      62.331  11.159   4.393  1.00  0.00     0.117 A 
HETATM   10  C   UNL     1      61.868  10.784   3.140  1.00  0.00     0.044 A 
HETATM   11  F   UNL     1      62.000  12.364   4.877  1.00  0.00    -0.206 F 
ENDROOT
BRANCH   1  12
HETATM   12  N   UNL     1      64.586   5.572   3.858  1.00  0.00    -0.380 N 
HETATM   13  H   UNL     1      64.856   5.089   4.672  1.00  0.00     0.158 HD
HETATM   14  H   UNL     1      64.672   5.139   2.978  1.00  0.00     0.158 HD
ENDBRANCH   1  12
TORSDOF 1
ENDMDL
MODEL 9
REMARK VINA RESULT:      -4.1     12.134     12.874
REMARK  1 active torsions:
REMARK  status: ('A' for Active; 'I' for Inactive)
REMARK    1  A    between atoms: C_1  and  N_8 
ROOT
HETATM    1  C   UNL     1      65.788   4.928   7.378  1.00  0.00     0.143 A 
HETATM    2  N   UNL     1      66.131   3.897   8.106  1.00  0.00    -0.336 N 
ATOM      3  HN  UNL     1      65.514   3.123   8.353  1.00  0.00     0.168 HD
HETATM    4  S   UNL     1      67.002   6.117   7.152  1.00  0.00    -0.052 SA
HETATM    5  C   UNL     1      68.109   5.165   8.062  1.00  0.00     0.038 A 
HETATM    6  C   UNL     1      67.456   4.007   8.494  1.00  0.00     0.051 A 
HETATM    7  C   UNL     1      69.455   5.417   8.369  1.00  0.00     0.063 A 
HETATM    8  C   UNL     1      68.173   3.066   9.264  1.00  0.00     0.034 A 
HETATM    9  C   UNL     1      70.135   4.463   9.125  1.00  0.00     0.117 A 
HETATM   10  C   UNL     1      69.517   3.304   9.572  1.00  0.00     0.044 A 
HETATM   11  F   UNL     1      71.424   4.672   9.425  1.00  0.00    -0.206 F 
ENDROOT
BRANCH   1  12
HETATM   12  N   UNL     1      64.566   5.069   6.842  1.00  0.00    -0.380 N 
HETATM   13  H   UNL     1      64.408   4.816   5.904  1.00  0.00     0.158 HD
HETATM   14  H   UNL     1      63.828   5.424   7.388  1.00  0.00     0.158 HD
ENDBRANCH   1  12
TORSDOF 1
ENDMDL
