MODEL 1
REMARK VINA RESULT:      -5.1      0.000      0.000
REMARK  1 active torsions:
REMARK  status: ('A' for Active; 'I' for Inactive)
REMARK    1  A    between atoms: C_8  and  N_9 
ROOT
HETATM    1  C   UNL     1      77.333   8.593  17.545  1.00  0.00     0.107 A 
HETATM    2  C   UNL     1      77.095   7.465  16.785  1.00  0.00     0.068 A 
HETATM    3  C   UNL     1      77.675   9.794  16.973  1.00  0.00     0.105 A 
HETATM    4  O   UNL     1      77.280   8.663  18.903  1.00  0.00    -0.323 OA
HETATM    5  O   UNL     1      77.874  10.771  17.896  1.00  0.00    -0.323 OA
HETATM    6  C   UNL     1      77.565  10.062  19.112  1.00  0.00     0.352 A 
HETATM    7  C   UNL     1      77.805   9.931  15.610  1.00  0.00     0.042 A 
HETATM    8  C   UNL     1      77.153   7.582  15.392  1.00  0.00     0.028 A 
HETATM    9  C   UNL     1      77.557   8.804  14.818  1.00  0.00     0.032 A 
ENDROOT
BRANCH   8  10
HETATM   10  N   UNL     1      77.034   6.440  14.586  1.00  0.00    -0.399 N 
HETATM   11  H   UNL     1      77.374   6.453  13.662  1.00  0.00     0.156 HD
HETATM   12  H   UNL     1      76.610   5.627  14.945  1.00  0.00     0.156 HD
ENDBRANCH   8  10
TORSDOF 1
ENDMDL
MODEL 2
REMARK VINA RESULT:      -5.1      1.120      2.180
REMARK  1 active torsions:
REMARK  status: ('A' for Active; 'I' for Inactive)
REMARK    1  A    between atoms: C_8  and  N_9 
ROOT
HETATM    1  C   UNL     1      77.729   9.416  16.592  1.00  0.00     0.107 A 
HETATM    2  C   UNL     1      77.923   9.671  15.248  1.00  0.00     0.068 A 
HETATM    3  C   UNL     1      77.245   8.211  17.038  1.00  0.00     0.105 A 
HETATM    4  O   UNL     1      77.966  10.288  17.609  1.00  0.00    -0.323 OA
HETATM    5  O   UNL     1      77.120   8.170  18.391  1.00  0.00    -0.323 OA
HETATM    6  C   UNL     1      77.634   9.469  18.749  1.00  0.00     0.352 A 
HETATM    7  C   UNL     1      76.920   7.197  16.166  1.00  0.00     0.042 A 
HETATM    8  C   UNL     1      77.666   8.642  14.335  1.00  0.00     0.028 A 
HETATM    9  C   UNL     1      77.118   7.429  14.800  1.00  0.00     0.032 A 
ENDROOT
BRANCH   8  10
HETATM   10  N   UNL     1      77.736   8.892  12.958  1.00  0.00    -0.399 N 
HETATM   11  H   UNL     1      78.199   9.695  12.626  1.00  0.00     0.156 HD
HETATM   12  H   UNL     1      77.321   8.264  12.322  1.00  0.00     0.156 HD
ENDBRANCH   8  10
TORSDOF 1
ENDMDL
MODEL 3
REMARK VINA RESULT:      -4.7      1.729      2.257
REMARK  1 active torsions:
REMARK  status: ('A' for Active; 'I' for Inactive)
REMARK    1  A    between atoms: C_8  and  N_9 
ROOT
HETATM    1  C   UNL     1      76.930   7.644  17.714  1.00  0.00     0.107 A 
HETATM    2  C   UNL     1      76.367   6.405  17.948  1.00  0.00     0.068 A 
HETATM    3  C   UNL     1      77.250   8.066  16.447  1.00  0.00     0.105 A 
HETATM    4  O   UNL     1      77.243   8.568  18.663  1.00  0.00    -0.323 OA
HETATM    5  O   UNL     1      77.800   9.309  16.437  1.00  0.00    -0.323 OA
HETATM    6  C   UNL     1      77.738   9.644  17.838  1.00  0.00     0.352 A 
HETATM    7  C   UNL     1      77.034   7.270  15.346  1.00  0.00     0.042 A 
HETATM    8  C   UNL     1      76.072   5.593  16.847  1.00  0.00     0.028 A 
HETATM    9  C   UNL     1      76.454   6.014  15.557  1.00  0.00     0.032 A 
ENDROOT
BRANCH   8  10
HETATM   10  N   UNL     1      75.610   4.284  17.044  1.00  0.00    -0.399 N 
HETATM   11  H   UNL     1      76.251   3.558  17.222  1.00  0.00     0.156 HD
HETATM   12  H   UNL     1      74.645   4.091  17.004  1.00  0.00     0.156 HD
ENDBRANCH   8  10
TORSDOF 1
ENDMDL
MODEL 4
REMARK VINA RESULT:      -4.6     14.934     15.805
REMARK  1 active torsions:
REMARK  status: ('A' for Active; 'I' for Inactive)
REMARK    1  A    between atoms: C_8  and  N_9 
ROOT
HETATM    1  C   UNL     1      72.185  23.288  14.928  1.00  0.00     0.107 A 
HETATM    2  C   UNL     1      70.958  23.907  15.065  1.00  0.00     0.068 A 
HETATM    3  C   UNL     1      72.480  22.499  13.844  1.00  0.00     0.105 A 
HETATM    4  O   UNL     1      73.215  23.360  15.813  1.00  0.00    -0.323 OA
HETATM    5  O   UNL     1      73.734  21.979  13.906  1.00  0.00    -0.323 OA
HETATM    6  C   UNL     1      74.214  22.576  15.127  1.00  0.00     0.352 A 
HETATM    7  C   UNL     1      71.563  22.278  12.842  1.00  0.00     0.042 A 
HETATM    8  C   UNL     1      70.022  23.759  14.035  1.00  0.00     0.028 A 
HETATM    9  C   UNL     1      70.316  22.903  12.954  1.00  0.00     0.032 A 
ENDROOT
BRANCH   8  10
HETATM   10  N   UNL     1      68.725  24.270  14.186  1.00  0.00    -0.399 N 
HETATM   11  H   UNL     1      68.469  24.724  15.021  1.00  0.00     0.156 HD
HETATM   12  H   UNL     1      68.071  24.173  13.456  1.00  0.00     0.156 HD
ENDBRANCH   8  10
TORSDOF 1
ENDMDL
MODEL 5
REMARK VINA RESULT:      -4.6     19.323     20.152
REMARK  1 active torsions:
REMARK  status: ('A' for Active; 'I' for Inactive)
REMARK    1  A    between atoms: C_8  and  N_9 
ROOT
HETATM    1  C   UNL     1      62.288  10.522   3.809  1.00  0.00     0.107 A 
HETATM    2  C   UNL     1      62.615   9.991   5.042  1.00  0.00     0.068 A 
HETATM    3  C   UNL     1      62.272   9.754   2.671  1.00  0.00     0.105 A 
HETATM    4  O   UNL     1      61.966  11.820   3.563  1.00  0.00    -0.323 OA
HETATM    5  O   UNL     1      61.933  10.469   1.566  1.00  0.00    -0.323 OA
HETATM    6  C   UNL     1      61.684  11.764   2.149  1.00  0.00     0.352 A 
HETATM    7  C   UNL     1      62.590   8.415   2.700  1.00  0.00     0.042 A 
HETATM    8  C   UNL     1      62.881   8.619   5.122  1.00  0.00     0.028 A 
HETATM    9  C   UNL     1      62.914   7.852   3.940  1.00  0.00     0.032 A 
ENDROOT
BRANCH   8  10
HETATM   10  N   UNL     1      63.331   8.061   6.327  1.00  0.00    -0.399 N 
HETATM   11  H   UNL     1      62.699   7.912   7.067  1.00  0.00     0.156 HD
HETATM   12  H   UNL     1      64.280   7.819   6.433  1.00  0.00     0.156 HD
ENDBRANCH   8  10
TORSDOF 1
ENDMDL
MODEL 6
REMARK VINA RESULT:      -4.5      4.296      6.011
REMARK  1 active torsions:
REMARK  status: ('A' for Active; 'I' for Inactive)
REMARK    1  A    between atoms: C_8  and  N_9 
ROOT
HETATM    1  C   UNL     1      78.685  11.217  19.790  1.00  0.00     0.107 A 
HETATM    2  C   UNL     1      79.825  11.253  20.568  1.00  0.00     0.068 A 
HETATM    3  C   UNL     1      77.595  12.007  20.065  1.00  0.00     0.105 A 
HETATM    4  O   UNL     1      78.488  10.422  18.703  1.00  0.00    -0.323 OA
HETATM    5  O   UNL     1      76.578  11.813  19.185  1.00  0.00    -0.323 OA
HETATM    6  C   UNL     1      77.174  10.850  18.291  1.00  0.00     0.352 A 
HETATM    7  C   UNL     1      77.582  12.868  21.138  1.00  0.00     0.042 A 
HETATM    8  C   UNL     1      79.874  12.164  21.630  1.00  0.00     0.028 A 
HETATM    9  C   UNL     1      78.731  12.929  21.935  1.00  0.00     0.032 A 
ENDROOT
BRANCH   8  10
HETATM   10  N   UNL     1      80.961  12.152  22.515  1.00  0.00    -0.399 N 
HETATM   11  H   UNL     1      81.798  11.700  22.262  1.00  0.00     0.156 HD
HETATM   12  H   UNL     1      80.886  12.595  23.391  1.00  0.00     0.156 HD
ENDBRANCH   8  10
TORSDOF 1
ENDMDL
MODEL 7
REMARK VINA RESULT:      -4.5     19.402     20.113
REMARK  1 active torsions:
REMARK  status: ('A' for Active; 'I' for Inactive)
REMARK    1  A    between atoms: C_8  and  N_9 
ROOT
HETATM    1  C   UNL     1      62.753   9.659   4.146  1.00  0.00     0.107 A 
HETATM    2  C   UNL     1      62.902   8.476   3.450  1.00  0.00     0.068 A 
HETATM    3  C   UNL     1      62.199  10.775   3.568  1.00  0.00     0.105 A 
HETATM    4  O   UNL     1      63.129   9.876   5.436  1.00  0.00    -0.323 OA
HETATM    5  O   UNL     1      62.151  11.832   4.420  1.00  0.00    -0.323 OA
HETATM    6  C   UNL     1      62.689  11.237   5.619  1.00  0.00     0.352 A 
HETATM    7  C   UNL     1      61.772  10.772   2.260  1.00  0.00     0.042 A 
HETATM    8  C   UNL     1      62.421   8.414   2.137  1.00  0.00     0.028 A 
HETATM    9  C   UNL     1      61.904   9.581   1.537  1.00  0.00     0.032 A 
ENDROOT
BRANCH   8  10
HETATM   10  N   UNL     1      62.656   7.275   1.355  1.00  0.00    -0.399 N 
HETATM   11  H   UNL     1      63.529   7.151   0.917  1.00  0.00     0.156 HD
HETATM   12  H   UNL     1      61.949   6.600   1.244  1.00  0.00     0.156 HD
ENDBRANCH   8  10
TORSDOF 1
ENDMDL
MODEL 8
REMARK VINA RESULT:      -4.5     19.268     20.033
REMARK  1 active torsions:
REMARK  status: ('A' for Active; 'I' for Inactive)
REMARK    1  A    between atoms: C_8  and  N_9 
ROOT
HETATM    1  C   UNL     1      62.284  10.394   3.727  1.00  0.00     0.107 A 
HETATM    2  C   UNL     1      61.851  10.160   2.436  1.00  0.00     0.068 A 
HETATM    3  C   UNL     1      62.993   9.454   4.434  1.00  0.00     0.105 A 
HETATM    4  O   UNL     1      62.066  11.528   4.446  1.00  0.00    -0.323 OA
HETATM    5  O   UNL     1      63.315   9.878   5.684  1.00  0.00    -0.323 OA
HETATM    6  C   UNL     1      62.775  11.216   5.663  1.00  0.00     0.352 A 
HETATM    7  C   UNL     1      63.300   8.226   3.894  1.00  0.00     0.042 A 
HETATM    8  C   UNL     1      62.200   8.948   1.830  1.00  0.00     0.028 A 
HETATM    9  C   UNL     1      62.881   7.970   2.584  1.00  0.00     0.032 A 
ENDROOT
BRANCH   8  10
HETATM   10  N   UNL     1      61.684   8.620   0.569  1.00  0.00    -0.399 N 
HETATM   11  H   UNL     1      62.224   8.774  -0.240  1.00  0.00     0.156 HD
HETATM   12  H   UNL     1      60.781   8.236   0.491  1.00  0.00     0.156 HD
ENDBRANCH   8  10
TORSDOF 1
ENDMDL
MODEL 9
REMARK VINA RESULT:      -4.4      4.198      5.543
REMARK  1 active torsions:
REMARK  status: ('A' for Active; 'I' for Inactive)
REMARK    1  A    between atoms: C_8  and  N_9 
ROOT
HETATM    1  C   UNL     1      77.178  11.652  18.811  1.00  0.00     0.107 A 
HETATM    2  C   UNL     1      77.488  11.157  20.062  1.00  0.00     0.068 A 
HETATM    3  C   UNL     1      76.811  12.962  18.621  1.00  0.00     0.105 A 
HETATM    4  O   UNL     1      77.178  10.941  17.651  1.00  0.00    -0.323 OA
HETATM    5  O   UNL     1      76.539  13.242  17.319  1.00  0.00    -0.323 OA
HETATM    6  C   UNL     1      76.831  11.971  16.702  1.00  0.00     0.352 A 
HETATM    7  C   UNL     1      76.727  13.847  19.671  1.00  0.00     0.042 A 
HETATM    8  C   UNL     1      77.477  12.042  21.146  1.00  0.00     0.028 A 
HETATM    9  C   UNL     1      77.047  13.370  20.948  1.00  0.00     0.032 A 
ENDROOT
BRANCH   8  10
HETATM   10  N   UNL     1      77.670  11.560  22.448  1.00  0.00    -0.399 N 
HETATM   11  H   UNL     1      77.975  10.634  22.590  1.00  0.00     0.156 HD
HETATM   12  H   UNL     1      77.501  12.147  23.220  1.00  0.00     0.156 HD
ENDBRANCH   8  10
TORSDOF 1
ENDMDL
