MODEL 1
REMARK VINA RESULT:      -4.0      0.000      0.000
REMARK  1 active torsions:
REMARK  status: ('A' for Active; 'I' for Inactive)
REMARK    1  A    between atoms: C_1  and  C_5 
ROOT
HETATM    1  C   UNL     1      77.190  11.078  18.891  1.00  0.00     0.119 A 
HETATM    2  N   UNL     1      77.661  10.883  20.109  1.00  0.00    -0.357 N 
ATOM      3  HN  UNL     1      78.191  10.066  20.412  1.00  0.00     0.166 HD
HETATM    4  S   UNL     1      76.330  12.544  18.653  1.00  0.00    -0.079 SA
HETATM    5  C   UNL     1      77.324  11.958  20.910  1.00  0.00     0.096 A 
HETATM    6  C   UNL     1      76.602  12.957  20.293  1.00  0.00     0.069 A 
ENDROOT
BRANCH   1   7
HETATM    7  C   UNL     1      77.369  10.133  17.797  1.00  0.00     0.179 C 
HETATM    8  O   UNL     1      77.620  10.452  16.631  1.00  0.00    -0.291 OA
HETATM    9  C   UNL     1      77.229   8.673  18.158  1.00  0.00     0.099 C 
ENDBRANCH   1   7
TORSDOF 1
ENDMDL
MODEL 2
REMARK VINA RESULT:      -4.0      7.780      8.865
REMARK  1 active torsions:
REMARK  status: ('A' for Active; 'I' for Inactive)
REMARK    1  A    between atoms: C_1  and  C_5 
ROOT
HETATM    1  C   UNL     1      75.326   2.873  17.433  1.00  0.00     0.119 A 
HETATM    2  N   UNL     1      74.758   3.892  16.814  1.00  0.00    -0.357 N 
ATOM      3  HN  UNL     1      73.836   3.877  16.377  1.00  0.00     0.166 HD
HETATM    4  S   UNL     1      76.888   3.173  18.079  1.00  0.00    -0.079 SA
HETATM    5  C   UNL     1      75.606   4.983  16.851  1.00  0.00     0.096 A 
HETATM    6  C   UNL     1      76.808   4.782  17.496  1.00  0.00     0.069 A 
ENDROOT
BRANCH   1   7
HETATM    7  C   UNL     1      74.698   1.566  17.575  1.00  0.00     0.179 C 
HETATM    8  O   UNL     1      74.421   1.038  18.656  1.00  0.00    -0.291 OA
HETATM    9  C   UNL     1      74.385   0.842  16.288  1.00  0.00     0.099 C 
ENDBRANCH   1   7
TORSDOF 1
ENDMDL
MODEL 3
REMARK VINA RESULT:      -3.9      7.584      9.222
REMARK  1 active torsions:
REMARK  status: ('A' for Active; 'I' for Inactive)
REMARK    1  A    between atoms: C_1  and  C_5 
ROOT
HETATM    1  C   UNL     1      76.114   2.791  17.792  1.00  0.00     0.119 A 
HETATM    2  N   UNL     1      74.900   2.888  17.283  1.00  0.00    -0.357 N 
ATOM      3  HN  UNL     1      74.303   3.713  17.336  1.00  0.00     0.166 HD
HETATM    4  S   UNL     1      76.899   1.282  17.559  1.00  0.00    -0.079 SA
HETATM    5  C   UNL     1      74.564   1.698  16.666  1.00  0.00     0.096 A 
HETATM    6  C   UNL     1      75.524   0.710  16.714  1.00  0.00     0.069 A 
ENDROOT
BRANCH   1   7
HETATM    7  C   UNL     1      76.775   3.871  18.513  1.00  0.00     0.179 C 
HETATM    8  O   UNL     1      77.191   3.787  19.672  1.00  0.00    -0.291 OA
HETATM    9  C   UNL     1      76.940   5.165  17.752  1.00  0.00     0.099 C 
ENDBRANCH   1   7
TORSDOF 1
ENDMDL
MODEL 4
REMARK VINA RESULT:      -3.8     21.338     21.923
REMARK  1 active torsions:
REMARK  status: ('A' for Active; 'I' for Inactive)
REMARK    1  A    between atoms: C_1  and  C_5 
ROOT
HETATM    1  C   UNL     1      61.786   9.783   3.738  1.00  0.00     0.119 A 
HETATM    2  N   UNL     1      60.776   9.017   3.368  1.00  0.00    -0.357 N 
ATOM      3  HN  UNL     1      59.945   9.337   2.871  1.00  0.00     0.166 HD
HETATM    4  S   UNL     1      63.061   8.985   4.563  1.00  0.00    -0.079 SA
HETATM    5  C   UNL     1      61.022   7.713   3.758  1.00  0.00     0.096 A 
HETATM    6  C   UNL     1      62.212   7.504   4.419  1.00  0.00     0.069 A 
ENDROOT
BRANCH   1   7
HETATM    7  C   UNL     1      61.846  11.216   3.481  1.00  0.00     0.179 C 
HETATM    8  O   UNL     1      61.921  12.081   4.358  1.00  0.00    -0.291 OA
HETATM    9  C   UNL     1      61.810  11.627   2.028  1.00  0.00     0.099 C 
ENDBRANCH   1   7
TORSDOF 1
ENDMDL
MODEL 5
REMARK VINA RESULT:      -3.8      6.276      7.455
REMARK  1 active torsions:
REMARK  status: ('A' for Active; 'I' for Inactive)
REMARK    1  A    between atoms: C_1  and  C_5 
ROOT
HETATM    1  C   UNL     1      76.520   4.547  17.543  1.00  0.00     0.119 A 
HETATM    2  N   UNL     1      77.374   3.853  18.273  1.00  0.00    -0.357 N 
ATOM      3  HN  UNL     1      78.204   4.234  18.728  1.00  0.00     0.166 HD
HETATM    4  S   UNL     1      75.206   3.655  16.889  1.00  0.00    -0.079 SA
HETATM    5  C   UNL     1      76.969   2.533  18.324  1.00  0.00     0.096 A 
HETATM    6  C   UNL     1      75.814   2.237  17.633  1.00  0.00     0.069 A 
ENDROOT
BRANCH   1   7
HETATM    7  C   UNL     1      76.653   5.974  17.285  1.00  0.00     0.179 C 
HETATM    8  O   UNL     1      76.665   6.844  18.161  1.00  0.00    -0.291 OA
HETATM    9  C   UNL     1      76.781   6.373  15.835  1.00  0.00     0.099 C 
ENDBRANCH   1   7
TORSDOF 1
ENDMDL
MODEL 6
REMARK VINA RESULT:      -3.7      7.904      8.956
REMARK  1 active torsions:
REMARK  status: ('A' for Active; 'I' for Inactive)
REMARK    1  A    between atoms: C_1  and  C_5 
ROOT
HETATM    1  C   UNL     1      77.223   2.736  18.415  1.00  0.00     0.119 A 
HETATM    2  N   UNL     1      78.036   2.644  19.452  1.00  0.00    -0.357 N 
ATOM      3  HN  UNL     1      78.333   3.424  20.038  1.00  0.00     0.166 HD
HETATM    4  S   UNL     1      76.889   1.263  17.600  1.00  0.00    -0.079 SA
HETATM    5  C   UNL     1      78.420   1.327  19.618  1.00  0.00     0.096 A 
HETATM    6  C   UNL     1      77.898   0.434  18.707  1.00  0.00     0.069 A 
ENDROOT
BRANCH   1   7
HETATM    7  C   UNL     1      76.633   3.989  17.963  1.00  0.00     0.179 C 
HETATM    8  O   UNL     1      76.971   5.106  18.364  1.00  0.00    -0.291 OA
HETATM    9  C   UNL     1      75.535   3.866  16.933  1.00  0.00     0.099 C 
ENDBRANCH   1   7
TORSDOF 1
ENDMDL
MODEL 7
REMARK VINA RESULT:      -3.6     15.667     16.430
REMARK  1 active torsions:
REMARK  status: ('A' for Active; 'I' for Inactive)
REMARK    1  A    between atoms: C_1  and  C_5 
ROOT
HETATM    1  C   UNL     1      66.672   7.136   7.209  1.00  0.00     0.119 A 
HETATM    2  N   UNL     1      67.350   7.409   8.309  1.00  0.00    -0.357 N 
ATOM      3  HN  UNL     1      67.832   8.288   8.500  1.00  0.00     0.166 HD
HETATM    4  S   UNL     1      65.959   5.575   7.145  1.00  0.00    -0.079 SA
HETATM    5  C   UNL     1      67.307   6.320   9.159  1.00  0.00     0.096 A 
HETATM    6  C   UNL     1      66.598   5.232   8.697  1.00  0.00     0.069 A 
ENDROOT
BRANCH   1   7
HETATM    7  C   UNL     1      66.518   8.071   6.103  1.00  0.00     0.179 C 
HETATM    8  O   UNL     1      65.754   9.041   6.108  1.00  0.00    -0.291 OA
HETATM    9  C   UNL     1      67.370   7.799   4.887  1.00  0.00     0.099 C 
ENDBRANCH   1   7
TORSDOF 1
ENDMDL
MODEL 8
REMARK VINA RESULT:      -3.5     21.557     22.247
REMARK  1 active torsions:
REMARK  status: ('A' for Active; 'I' for Inactive)
REMARK    1  A    between atoms: C_1  and  C_5 
ROOT
HETATM    1  C   UNL     1      62.053   9.846   3.030  1.00  0.00     0.119 A 
HETATM    2  N   UNL     1      61.238   9.998   2.002  1.00  0.00    -0.357 N 
ATOM      3  HN  UNL     1      60.663  10.822   1.823  1.00  0.00     0.166 HD
HETATM    4  S   UNL     1      62.901   8.354   3.090  1.00  0.00    -0.079 SA
HETATM    5  C   UNL     1      61.284   8.868   1.208  1.00  0.00     0.096 A 
HETATM    6  C   UNL     1      62.131   7.870   1.639  1.00  0.00     0.069 A 
ENDROOT
BRANCH   1   7
HETATM    7  C   UNL     1      62.243  10.854   4.064  1.00  0.00     0.179 C 
HETATM    8  O   UNL     1      61.893  12.033   3.963  1.00  0.00    -0.291 OA
HETATM    9  C   UNL     1      62.919  10.381   5.329  1.00  0.00     0.099 C 
ENDBRANCH   1   7
TORSDOF 1
ENDMDL
MODEL 9
REMARK VINA RESULT:      -3.4     19.540     20.021
REMARK  1 active torsions:
REMARK  status: ('A' for Active; 'I' for Inactive)
REMARK    1  A    between atoms: C_1  and  C_5 
ROOT
HETATM    1  C   UNL     1      63.089   9.045   5.106  1.00  0.00     0.119 A 
HETATM    2  N   UNL     1      63.115  10.217   5.714  1.00  0.00    -0.357 N 
ATOM      3  HN  UNL     1      63.524  10.396   6.631  1.00  0.00     0.166 HD
HETATM    4  S   UNL     1      62.334   9.023   3.565  1.00  0.00    -0.079 SA
HETATM    5  C   UNL     1      62.501  11.163   4.914  1.00  0.00     0.096 A 
HETATM    6  C   UNL     1      62.016  10.700   3.709  1.00  0.00     0.069 A 
ENDROOT
BRANCH   1   7
HETATM    7  C   UNL     1      63.653   7.829   5.677  1.00  0.00     0.179 C 
HETATM    8  O   UNL     1      63.447   7.436   6.829  1.00  0.00    -0.291 OA
HETATM    9  C   UNL     1      64.545   7.024   4.763  1.00  0.00     0.099 C 
ENDBRANCH   1   7
TORSDOF 1
ENDMDL
