MODEL 1
REMARK VINA RESULT:      -6.3      0.000      0.000
REMARK  2 active torsions:
REMARK  status: ('A' for Active; 'I' for Inactive)
REMARK    1  A    between atoms: C_1  and  C_3 
REMARK    2  A    between atoms: C_2  and  C_4 
ROOT
HETATM    1  C   UNL     1      77.437   8.597  15.598  1.00  0.00     0.048 A 
HETATM    2  C   UNL     1      76.700   6.179  16.841  1.00  0.00     0.040 A 
HETATM    3  C   UNL     1      77.385   8.500  16.998  1.00  0.00     0.017 A 
HETATM    4  C   UNL     1      77.125   7.465  14.828  1.00  0.00     0.017 A 
HETATM    5  C   UNL     1      76.757   6.266  15.445  1.00  0.00     0.019 A 
HETATM    6  C   UNL     1      77.018   7.300  17.617  1.00  0.00     0.019 A 
ENDROOT
BRANCH   1   7
HETATM    7  C   UNL     1      77.827   9.890  14.922  1.00  0.00     0.417 C 
HETATM    8  F   UNL     1      77.212  10.980  15.461  1.00  0.00    -0.166 F 
HETATM    9  F   UNL     1      77.524   9.910  13.596  1.00  0.00    -0.166 F 
HETATM   10  F   UNL     1      79.164  10.137  15.004  1.00  0.00    -0.166 F 
ENDBRANCH   1   7
BRANCH   2  11
HETATM   11  C   UNL     1      76.298   4.887  17.449  1.00  0.00     0.209 C 
HETATM   12  O   UNL     1      75.521   4.086  16.969  1.00  0.00    -0.644 OA
HETATM   13  O   UNL     1      76.895   4.660  18.633  1.00  0.00    -0.644 OA
ENDBRANCH   2  11
TORSDOF 2
ENDMDL
MODEL 2
REMARK VINA RESULT:      -6.0      4.319      5.171
REMARK  2 active torsions:
REMARK  status: ('A' for Active; 'I' for Inactive)
REMARK    1  A    between atoms: C_1  and  C_3 
REMARK    2  A    between atoms: C_2  and  C_4 
ROOT
HETATM    1  C   UNL     1      76.812   6.363  16.699  1.00  0.00     0.048 A 
HETATM    2  C   UNL     1      77.399   8.818  15.451  1.00  0.00     0.040 A 
HETATM    3  C   UNL     1      77.092   7.505  17.466  1.00  0.00     0.017 A 
HETATM    4  C   UNL     1      76.819   6.468  15.300  1.00  0.00     0.017 A 
HETATM    5  C   UNL     1      77.112   7.685  14.680  1.00  0.00     0.019 A 
HETATM    6  C   UNL     1      77.385   8.725  16.848  1.00  0.00     0.019 A 
ENDROOT
BRANCH   1   7
HETATM    7  C   UNL     1      76.500   5.040  17.360  1.00  0.00     0.417 C 
HETATM    8  F   UNL     1      75.288   4.536  16.997  1.00  0.00    -0.166 F 
HETATM    9  F   UNL     1      76.482   5.115  18.718  1.00  0.00    -0.166 F 
HETATM   10  F   UNL     1      77.412   4.077  17.051  1.00  0.00    -0.166 F 
ENDBRANCH   1   7
BRANCH   2  11
HETATM   11  C   UNL     1      77.710  10.087  14.748  1.00  0.00     0.209 C 
HETATM   12  O   UNL     1      77.789  11.185  15.264  1.00  0.00    -0.644 OA
HETATM   13  O   UNL     1      77.909   9.917  13.429  1.00  0.00    -0.644 OA
ENDBRANCH   2  11
TORSDOF 2
ENDMDL
MODEL 3
REMARK VINA RESULT:      -5.7      3.273      4.545
REMARK  2 active torsions:
REMARK  status: ('A' for Active; 'I' for Inactive)
REMARK    1  A    between atoms: C_1  and  C_3 
REMARK    2  A    between atoms: C_2  and  C_4 
ROOT
HETATM    1  C   UNL     1      76.127   4.880  17.274  1.00  0.00     0.048 A 
HETATM    2  C   UNL     1      75.062   2.278  17.444  1.00  0.00     0.040 A 
HETATM    3  C   UNL     1      76.835   3.860  17.930  1.00  0.00     0.017 A 
HETATM    4  C   UNL     1      74.884   4.579  16.695  1.00  0.00     0.017 A 
HETATM    5  C   UNL     1      74.354   3.288  16.782  1.00  0.00     0.019 A 
HETATM    6  C   UNL     1      76.307   2.567  18.016  1.00  0.00     0.019 A 
ENDROOT
BRANCH   1   7
HETATM    7  C   UNL     1      76.688   6.279  17.181  1.00  0.00     0.417 C 
HETATM    8  F   UNL     1      77.980   6.365  17.604  1.00  0.00    -0.166 F 
HETATM    9  F   UNL     1      75.992   7.182  17.925  1.00  0.00    -0.166 F 
HETATM   10  F   UNL     1      76.679   6.760  15.907  1.00  0.00    -0.166 F 
ENDBRANCH   1   7
BRANCH   2  11
HETATM   11  C   UNL     1      74.457   0.926  17.514  1.00  0.00     0.209 C 
HETATM   12  O   UNL     1      74.113   0.250  16.564  1.00  0.00    -0.644 OA
HETATM   13  O   UNL     1      74.313   0.484  18.776  1.00  0.00    -0.644 OA
ENDBRANCH   2  11
TORSDOF 2
ENDMDL
MODEL 4
REMARK VINA RESULT:      -5.4     12.203     13.250
REMARK  2 active torsions:
REMARK  status: ('A' for Active; 'I' for Inactive)
REMARK    1  A    between atoms: C_1  and  C_3 
REMARK    2  A    between atoms: C_2  and  C_4 
ROOT
HETATM    1  C   UNL     1      68.629   5.086   8.526  1.00  0.00     0.048 A 
HETATM    2  C   UNL     1      66.650   6.750   7.410  1.00  0.00     0.040 A 
HETATM    3  C   UNL     1      67.932   6.003   9.328  1.00  0.00     0.017 A 
HETATM    4  C   UNL     1      68.316   5.005   7.160  1.00  0.00     0.017 A 
HETATM    5  C   UNL     1      67.336   5.832   6.606  1.00  0.00     0.019 A 
HETATM    6  C   UNL     1      66.949   6.831   8.776  1.00  0.00     0.019 A 
ENDROOT
BRANCH   1   7
HETATM    7  C   UNL     1      69.696   4.193   9.115  1.00  0.00     0.417 C 
HETATM    8  F   UNL     1      69.705   2.944   8.571  1.00  0.00    -0.166 F 
HETATM    9  F   UNL     1      69.559   4.014  10.457  1.00  0.00    -0.166 F 
HETATM   10  F   UNL     1      70.950   4.689   8.930  1.00  0.00    -0.166 F 
ENDBRANCH   1   7
BRANCH   2  11
HETATM   11  C   UNL     1      65.622   7.610   6.775  1.00  0.00     0.209 C 
HETATM   12  O   UNL     1      65.839   8.588   6.087  1.00  0.00    -0.644 OA
HETATM   13  O   UNL     1      64.367   7.201   7.034  1.00  0.00    -0.644 OA
ENDBRANCH   2  11
TORSDOF 2
ENDMDL
MODEL 5
REMARK VINA RESULT:      -5.1     18.105     19.051
REMARK  2 active torsions:
REMARK  status: ('A' for Active; 'I' for Inactive)
REMARK    1  A    between atoms: C_1  and  C_3 
REMARK    2  A    between atoms: C_2  and  C_4 
ROOT
HETATM    1  C   UNL     1      62.484   9.005   2.713  1.00  0.00     0.048 A 
HETATM    2  C   UNL     1      63.978   8.266   4.983  1.00  0.00     0.040 A 
HETATM    3  C   UNL     1      63.197   7.795   2.736  1.00  0.00     0.017 A 
HETATM    4  C   UNL     1      62.520   9.835   3.844  1.00  0.00     0.017 A 
HETATM    5  C   UNL     1      63.263   9.470   4.970  1.00  0.00     0.019 A 
HETATM    6  C   UNL     1      63.940   7.427   3.863  1.00  0.00     0.019 A 
ENDROOT
BRANCH   1   7
HETATM    7  C   UNL     1      61.684   9.412   1.498  1.00  0.00     0.417 C 
HETATM    8  F   UNL     1      61.407  10.746   1.464  1.00  0.00    -0.166 F 
HETATM    9  F   UNL     1      60.482   8.780   1.415  1.00  0.00    -0.166 F 
HETATM   10  F   UNL     1      62.332   9.137   0.332  1.00  0.00    -0.166 F 
ENDBRANCH   1   7
BRANCH   2  11
HETATM   11  C   UNL     1      64.755   7.924   6.199  1.00  0.00     0.209 C 
HETATM   12  O   UNL     1      64.423   7.127   7.055  1.00  0.00    -0.644 OA
HETATM   13  O   UNL     1      65.917   8.596   6.282  1.00  0.00    -0.644 OA
ENDBRANCH   2  11
TORSDOF 2
ENDMDL
MODEL 6
REMARK VINA RESULT:      -4.8     11.886     12.821
REMARK  2 active torsions:
REMARK  status: ('A' for Active; 'I' for Inactive)
REMARK    1  A    between atoms: C_1  and  C_3 
REMARK    2  A    between atoms: C_2  and  C_4 
ROOT
HETATM    1  C   UNL     1      67.136   6.485   7.305  1.00  0.00     0.048 A 
HETATM    2  C   UNL     1      68.622   4.665   8.857  1.00  0.00     0.040 A 
HETATM    3  C   UNL     1      67.297   6.688   8.685  1.00  0.00     0.017 A 
HETATM    4  C   UNL     1      67.736   5.364   6.710  1.00  0.00     0.017 A 
HETATM    5  C   UNL     1      68.472   4.460   7.481  1.00  0.00     0.019 A 
HETATM    6  C   UNL     1      68.035   5.785   9.458  1.00  0.00     0.019 A 
ENDROOT
BRANCH   1   7
HETATM    7  C   UNL     1      66.336   7.453   6.465  1.00  0.00     0.417 C 
HETATM    8  F   UNL     1      66.537   7.290   5.128  1.00  0.00    -0.166 F 
HETATM    9  F   UNL     1      66.629   8.755   6.730  1.00  0.00    -0.166 F 
HETATM   10  F   UNL     1      64.994   7.325   6.660  1.00  0.00    -0.166 F 
ENDBRANCH   1   7
BRANCH   2  11
HETATM   11  C   UNL     1      69.407   3.675   9.634  1.00  0.00     0.209 C 
HETATM   12  O   UNL     1      68.967   2.668  10.154  1.00  0.00    -0.644 OA
HETATM   13  O   UNL     1      70.711   3.994   9.719  1.00  0.00    -0.644 OA
ENDBRANCH   2  11
TORSDOF 2
ENDMDL
MODEL 7
REMARK VINA RESULT:      -4.6     18.136     19.143
REMARK  2 active torsions:
REMARK  status: ('A' for Active; 'I' for Inactive)
REMARK    1  A    between atoms: C_1  and  C_3 
REMARK    2  A    between atoms: C_2  and  C_4 
ROOT
HETATM    1  C   UNL     1      63.512   7.351   3.127  1.00  0.00     0.048 A 
HETATM    2  C   UNL     1      62.970   9.762   4.476  1.00  0.00     0.040 A 
HETATM    3  C   UNL     1      64.282   7.738   4.235  1.00  0.00     0.017 A 
HETATM    4  C   UNL     1      62.460   8.181   2.709  1.00  0.00     0.017 A 
HETATM    5  C   UNL     1      62.193   9.379   3.377  1.00  0.00     0.019 A 
HETATM    6  C   UNL     1      64.015   8.936   4.906  1.00  0.00     0.019 A 
ENDROOT
BRANCH   1   7
HETATM    7  C   UNL     1      63.798   6.061   2.393  1.00  0.00     0.417 C 
HETATM    8  F   UNL     1      63.850   6.217   1.041  1.00  0.00    -0.166 F 
HETATM    9  F   UNL     1      62.861   5.100   2.621  1.00  0.00    -0.166 F 
HETATM   10  F   UNL     1      64.991   5.512   2.752  1.00  0.00    -0.166 F 
ENDBRANCH   1   7
BRANCH   2  11
HETATM   11  C   UNL     1      62.651  11.045   5.150  1.00  0.00     0.209 C 
HETATM   12  O   UNL     1      61.995  11.952   4.677  1.00  0.00    -0.644 OA
HETATM   13  O   UNL     1      63.170  11.127   6.388  1.00  0.00    -0.644 OA
ENDBRANCH   2  11
TORSDOF 2
ENDMDL
MODEL 8
REMARK VINA RESULT:      -4.6     12.403     13.579
REMARK  2 active torsions:
REMARK  status: ('A' for Active; 'I' for Inactive)
REMARK    1  A    between atoms: C_1  and  C_3 
REMARK    2  A    between atoms: C_2  and  C_4 
ROOT
HETATM    1  C   UNL     1      68.476   4.222   8.330  1.00  0.00     0.048 A 
HETATM    2  C   UNL     1      67.426   6.398   6.883  1.00  0.00     0.040 A 
HETATM    3  C   UNL     1      68.270   4.126   6.944  1.00  0.00     0.017 A 
HETATM    4  C   UNL     1      68.158   5.424   8.981  1.00  0.00     0.017 A 
HETATM    5  C   UNL     1      67.635   6.503   8.264  1.00  0.00     0.019 A 
HETATM    6  C   UNL     1      67.748   5.206   6.224  1.00  0.00     0.019 A 
ENDROOT
BRANCH   1   7
HETATM    7  C   UNL     1      69.034   3.058   9.115  1.00  0.00     0.417 C 
HETATM    8  F   UNL     1      68.126   2.504   9.966  1.00  0.00    -0.166 F 
HETATM    9  F   UNL     1      70.104   3.399   9.883  1.00  0.00    -0.166 F 
HETATM   10  F   UNL     1      69.458   2.044   8.311  1.00  0.00    -0.166 F 
ENDBRANCH   1   7
BRANCH   2  11
HETATM   11  C   UNL     1      66.864   7.568   6.166  1.00  0.00     0.209 C 
HETATM   12  O   UNL     1      67.398   8.168   5.254  1.00  0.00    -0.644 OA
HETATM   13  O   UNL     1      65.654   7.931   6.628  1.00  0.00    -0.644 OA
ENDBRANCH   2  11
TORSDOF 2
ENDMDL
MODEL 9
REMARK VINA RESULT:      -4.5     10.941     11.980
REMARK  2 active torsions:
REMARK  status: ('A' for Active; 'I' for Inactive)
REMARK    1  A    between atoms: C_1  and  C_3 
REMARK    2  A    between atoms: C_2  and  C_4 
ROOT
HETATM    1  C   UNL     1      68.456   4.275   8.519  1.00  0.00     0.048 A 
HETATM    2  C   UNL     1      69.554   1.815   9.337  1.00  0.00     0.040 A 
HETATM    3  C   UNL     1      68.403   3.154   7.676  1.00  0.00     0.017 A 
HETATM    4  C   UNL     1      69.057   4.147   9.781  1.00  0.00     0.017 A 
HETATM    5  C   UNL     1      69.604   2.927  10.186  1.00  0.00     0.019 A 
HETATM    6  C   UNL     1      68.948   1.931   8.080  1.00  0.00     0.019 A 
ENDROOT
BRANCH   1   7
HETATM    7  C   UNL     1      67.874   5.601   8.086  1.00  0.00     0.417 C 
HETATM    8  F   UNL     1      67.976   6.565   9.043  1.00  0.00    -0.166 F 
HETATM    9  F   UNL     1      66.553   5.525   7.773  1.00  0.00    -0.166 F 
HETATM   10  F   UNL     1      68.492   6.105   6.982  1.00  0.00    -0.166 F 
ENDBRANCH   1   7
BRANCH   2  11
HETATM   11  C   UNL     1      70.152   0.542   9.810  1.00  0.00     0.209 C 
HETATM   12  O   UNL     1      69.581  -0.528   9.884  1.00  0.00    -0.644 OA
HETATM   13  O   UNL     1      71.443   0.673  10.166  1.00  0.00    -0.644 OA
ENDBRANCH   2  11
TORSDOF 2
ENDMDL
