MODEL 1
REMARK VINA RESULT:      -4.6      0.000      0.000
REMARK  1 active torsions:
REMARK  status: ('A' for Active; 'I' for Inactive)
REMARK    1  A    between atoms: C_3  and  N_7 
ROOT
HETATM    1  C   UNL     1      62.272  11.285   4.291  1.00  0.00     0.145 A 
HETATM    2  C   UNL     1      61.885  10.618   3.134  1.00  0.00     0.086 A 
HETATM    3  C   UNL     1      63.040  10.657   5.285  1.00  0.00     0.065 A 
HETATM    4  C   UNL     1      63.497   9.358   5.046  1.00  0.00     0.035 A 
HETATM    5  C   UNL     1      62.305   9.310   2.950  1.00  0.00     0.119 A 
HETATM    6  F   UNL     1      61.878  12.557   4.467  1.00  0.00    -0.204 F 
HETATM    7  C   UNL     1      63.111   8.675   3.889  1.00  0.00     0.044 A 
HETATM    8  F   UNL     1      61.941   8.651   1.842  1.00  0.00    -0.206 F 
ENDROOT
BRANCH   3   9
HETATM    9  N   UNL     1      63.529  11.383   6.384  1.00  0.00    -0.397 N 
HETATM   10  H   UNL     1      64.388  11.134   6.795  1.00  0.00     0.156 HD
HETATM   11  H   UNL     1      63.013  12.141   6.741  1.00  0.00     0.156 HD
ENDBRANCH   3   9
TORSDOF 1
ENDMDL
MODEL 2
REMARK VINA RESULT:      -4.3      2.324      2.908
REMARK  1 active torsions:
REMARK  status: ('A' for Active; 'I' for Inactive)
REMARK    1  A    between atoms: C_3  and  N_7 
ROOT
HETATM    1  C   UNL     1      62.415   9.945   4.207  1.00  0.00     0.145 A 
HETATM    2  C   UNL     1      62.052  11.153   3.624  1.00  0.00     0.086 A 
HETATM    3  C   UNL     1      62.524   8.764   3.454  1.00  0.00     0.065 A 
HETATM    4  C   UNL     1      62.352   8.843   2.070  1.00  0.00     0.035 A 
HETATM    5  C   UNL     1      61.830  11.191   2.257  1.00  0.00     0.119 A 
HETATM    6  F   UNL     1      62.644   9.908   5.530  1.00  0.00    -0.204 F 
HETATM    7  C   UNL     1      61.981  10.052   1.472  1.00  0.00     0.044 A 
HETATM    8  F   UNL     1      61.478  12.347   1.677  1.00  0.00    -0.206 F 
ENDROOT
BRANCH   3   9
HETATM    9  N   UNL     1      63.017   7.583   4.034  1.00  0.00    -0.397 N 
HETATM   10  H   UNL     1      62.598   7.224   4.850  1.00  0.00     0.156 HD
HETATM   11  H   UNL     1      63.780   7.115   3.625  1.00  0.00     0.156 HD
ENDBRANCH   3   9
TORSDOF 1
ENDMDL
MODEL 3
REMARK VINA RESULT:      -4.3      1.603      2.266
REMARK  1 active torsions:
REMARK  status: ('A' for Active; 'I' for Inactive)
REMARK    1  A    between atoms: C_3  and  N_7 
ROOT
HETATM    1  C   UNL     1      63.184   9.341   4.695  1.00  0.00     0.145 A 
HETATM    2  C   UNL     1      62.901   8.845   3.428  1.00  0.00     0.086 A 
HETATM    3  C   UNL     1      62.829  10.646   5.076  1.00  0.00     0.065 A 
HETATM    4  C   UNL     1      62.088  11.419   4.178  1.00  0.00     0.035 A 
HETATM    5  C   UNL     1      62.216   9.656   2.536  1.00  0.00     0.119 A 
HETATM    6  F   UNL     1      63.836   8.554   5.567  1.00  0.00    -0.204 F 
HETATM    7  C   UNL     1      61.802  10.934   2.898  1.00  0.00     0.044 A 
HETATM    8  F   UNL     1      61.935   9.196   1.309  1.00  0.00    -0.206 F 
ENDROOT
BRANCH   3   9
HETATM    9  N   UNL     1      63.006  11.083   6.399  1.00  0.00    -0.397 N 
HETATM   10  H   UNL     1      63.714  10.687   6.958  1.00  0.00     0.156 HD
HETATM   11  H   UNL     1      62.424  11.787   6.767  1.00  0.00     0.156 HD
ENDBRANCH   3   9
TORSDOF 1
ENDMDL
MODEL 4
REMARK VINA RESULT:      -4.3      1.928      3.274
REMARK  1 active torsions:
REMARK  status: ('A' for Active; 'I' for Inactive)
REMARK    1  A    between atoms: C_3  and  N_7 
ROOT
HETATM    1  C   UNL     1      62.365   8.993   2.262  1.00  0.00     0.145 A 
HETATM    2  C   UNL     1      62.010  10.140   1.563  1.00  0.00     0.086 A 
HETATM    3  C   UNL     1      62.569   9.006   3.652  1.00  0.00     0.065 A 
HETATM    4  C   UNL     1      62.311  10.191   4.347  1.00  0.00     0.035 A 
HETATM    5  C   UNL     1      61.817  11.316   2.270  1.00  0.00     0.119 A 
HETATM    6  F   UNL     1      62.539   7.848   1.581  1.00  0.00    -0.204 F 
HETATM    7  C   UNL     1      61.958  11.353   3.654  1.00  0.00     0.044 A 
HETATM    8  F   UNL     1      61.476  12.433   1.614  1.00  0.00    -0.206 F 
ENDROOT
BRANCH   3   9
HETATM    9  N   UNL     1      62.800   7.814   4.358  1.00  0.00    -0.397 N 
HETATM   10  H   UNL     1      63.686   7.387   4.326  1.00  0.00     0.156 HD
HETATM   11  H   UNL     1      62.075   7.406   4.885  1.00  0.00     0.156 HD
ENDBRANCH   3   9
TORSDOF 1
ENDMDL
MODEL 5
REMARK VINA RESULT:      -4.3      2.474      3.250
REMARK  1 active torsions:
REMARK  status: ('A' for Active; 'I' for Inactive)
REMARK    1  A    between atoms: C_3  and  N_7 
ROOT
HETATM    1  C   UNL     1      61.833  11.113   2.697  1.00  0.00     0.145 A 
HETATM    2  C   UNL     1      62.054  11.591   3.983  1.00  0.00     0.086 A 
HETATM    3  C   UNL     1      62.169   9.800   2.327  1.00  0.00     0.065 A 
HETATM    4  C   UNL     1      62.650   8.937   3.315  1.00  0.00     0.035 A 
HETATM    5  C   UNL     1      62.587  10.729   4.929  1.00  0.00     0.119 A 
HETATM    6  F   UNL     1      61.304  11.942   1.782  1.00  0.00    -0.204 F 
HETATM    7  C   UNL     1      62.882   9.407   4.612  1.00  0.00     0.044 A 
HETATM    8  F   UNL     1      62.809  11.172   6.174  1.00  0.00    -0.206 F 
ENDROOT
BRANCH   3   9
HETATM    9  N   UNL     1      61.820   9.296   1.064  1.00  0.00    -0.397 N 
HETATM   10  H   UNL     1      60.912   8.950   0.905  1.00  0.00     0.156 HD
HETATM   11  H   UNL     1      62.484   9.289   0.336  1.00  0.00     0.156 HD
ENDBRANCH   3   9
TORSDOF 1
ENDMDL
MODEL 6
REMARK VINA RESULT:      -4.2      2.109      2.704
REMARK  1 active torsions:
REMARK  status: ('A' for Active; 'I' for Inactive)
REMARK    1  A    between atoms: C_3  and  N_7 
ROOT
HETATM    1  C   UNL     1      62.170  10.826   3.764  1.00  0.00     0.145 A 
HETATM    2  C   UNL     1      62.457   9.597   4.346  1.00  0.00     0.086 A 
HETATM    3  C   UNL     1      61.943  10.956   2.384  1.00  0.00     0.065 A 
HETATM    4  C   UNL     1      61.915   9.796   1.606  1.00  0.00     0.035 A 
HETATM    5  C   UNL     1      62.481   8.470   3.540  1.00  0.00     0.119 A 
HETATM    6  F   UNL     1      62.133  11.918   4.545  1.00  0.00    -0.204 F 
HETATM    7  C   UNL     1      62.208   8.554   2.178  1.00  0.00     0.044 A 
HETATM    8  F   UNL     1      62.757   7.276   4.082  1.00  0.00    -0.206 F 
ENDROOT
BRANCH   3   9
HETATM    9  N   UNL     1      61.528  12.181   1.834  1.00  0.00    -0.397 N 
HETATM   10  H   UNL     1      62.195  12.814   1.483  1.00  0.00     0.156 HD
HETATM   11  H   UNL     1      60.570  12.405   1.800  1.00  0.00     0.156 HD
ENDBRANCH   3   9
TORSDOF 1
ENDMDL
MODEL 7
REMARK VINA RESULT:      -4.1      2.355      3.144
REMARK  1 active torsions:
REMARK  status: ('A' for Active; 'I' for Inactive)
REMARK    1  A    between atoms: C_3  and  N_7 
ROOT
HETATM    1  C   UNL     1      62.192   9.603   2.209  1.00  0.00     0.145 A 
HETATM    2  C   UNL     1      62.717   8.537   2.929  1.00  0.00     0.086 A 
HETATM    3  C   UNL     1      61.892  10.832   2.821  1.00  0.00     0.065 A 
HETATM    4  C   UNL     1      62.223  11.000   4.167  1.00  0.00     0.035 A 
HETATM    5  C   UNL     1      62.982   8.712   4.278  1.00  0.00     0.119 A 
HETATM    6  F   UNL     1      61.946   9.441   0.899  1.00  0.00    -0.204 F 
HETATM    7  C   UNL     1      62.747   9.932   4.904  1.00  0.00     0.044 A 
HETATM    8  F   UNL     1      63.486   7.695   4.989  1.00  0.00    -0.206 F 
ENDROOT
BRANCH   3   9
HETATM    9  N   UNL     1      61.485  11.937   2.055  1.00  0.00    -0.397 N 
HETATM   10  H   UNL     1      61.665  11.958   1.087  1.00  0.00     0.156 HD
HETATM   11  H   UNL     1      61.020  12.691   2.486  1.00  0.00     0.156 HD
ENDBRANCH   3   9
TORSDOF 1
ENDMDL
MODEL 8
REMARK VINA RESULT:      -4.1     19.018     19.915
REMARK  1 active torsions:
REMARK  status: ('A' for Active; 'I' for Inactive)
REMARK    1  A    between atoms: C_3  and  N_7 
ROOT
HETATM    1  C   UNL     1      75.265   3.988  16.869  1.00  0.00     0.145 A 
HETATM    2  C   UNL     1      74.483   2.844  16.761  1.00  0.00     0.086 A 
HETATM    3  C   UNL     1      76.485   3.987  17.565  1.00  0.00     0.065 A 
HETATM    4  C   UNL     1      76.956   2.774  18.075  1.00  0.00     0.035 A 
HETATM    5  C   UNL     1      74.947   1.667  17.327  1.00  0.00     0.119 A 
HETATM    6  F   UNL     1      74.824   5.127  16.311  1.00  0.00    -0.204 F 
HETATM    7  C   UNL     1      76.176   1.618  17.977  1.00  0.00     0.044 A 
HETATM    8  F   UNL     1      74.207   0.554  17.235  1.00  0.00    -0.206 F 
ENDROOT
BRANCH   3   9
HETATM    9  N   UNL     1      77.321   5.116  17.554  1.00  0.00    -0.397 N 
HETATM   10  H   UNL     1      77.719   5.426  16.708  1.00  0.00     0.156 HD
HETATM   11  H   UNL     1      77.509   5.598  18.392  1.00  0.00     0.156 HD
ENDBRANCH   3   9
TORSDOF 1
ENDMDL
MODEL 9
REMARK VINA RESULT:      -4.1     19.069     20.056
REMARK  1 active torsions:
REMARK  status: ('A' for Active; 'I' for Inactive)
REMARK    1  A    between atoms: C_3  and  N_7 
ROOT
HETATM    1  C   UNL     1      75.652   2.331  17.596  1.00  0.00     0.145 A 
HETATM    2  C   UNL     1      74.567   2.942  16.980  1.00  0.00     0.086 A 
HETATM    3  C   UNL     1      76.819   3.045  17.916  1.00  0.00     0.065 A 
HETATM    4  C   UNL     1      76.835   4.423  17.689  1.00  0.00     0.035 A 
HETATM    5  C   UNL     1      74.633   4.301  16.712  1.00  0.00     0.119 A 
HETATM    6  F   UNL     1      75.586   1.018  17.868  1.00  0.00    -0.204 F 
HETATM    7  C   UNL     1      75.752   5.049  17.065  1.00  0.00     0.044 A 
HETATM    8  F   UNL     1      73.597   4.907  16.118  1.00  0.00    -0.206 F 
ENDROOT
BRANCH   3   9
HETATM    9  N   UNL     1      77.852   2.442  18.653  1.00  0.00    -0.397 N 
HETATM   10  H   UNL     1      77.641   1.922  19.462  1.00  0.00     0.156 HD
HETATM   11  H   UNL     1      78.787   2.540  18.360  1.00  0.00     0.156 HD
ENDBRANCH   3   9
TORSDOF 1
ENDMDL
