MODEL 1
REMARK VINA RESULT:      -4.8      0.000      0.000
REMARK  1 active torsions:
REMARK  status: ('A' for Active; 'I' for Inactive)
REMARK    1  A    between atoms: C_1  and  C_4 
ROOT
HETATM    1  N   UNL     1      70.604  23.288  13.539  1.00  0.00    -0.075 N 
HETATM    2  C   UNL     1      73.487  23.612  13.949  1.00  0.00     0.090 C 
HETATM    3  C   UNL     1      71.090  23.874  14.788  1.00  0.00     0.233 C 
HETATM    4  C   UNL     1      71.537  22.294  13.016  1.00  0.00     0.233 C 
HETATM    5  C   UNL     1      72.452  24.543  14.596  1.00  0.00     0.043 C 
HETATM    6  C   UNL     1      72.894  22.927  12.715  1.00  0.00     0.043 C 
HETATM    7  H   UNL     1      69.704  22.840  13.711  1.00  0.00     0.277 HD
HETATM    8  H   UNL     1      70.511  24.035  12.850  1.00  0.00     0.277 HD
ENDROOT
BRANCH   2   9
HETATM    9  C   UNL     1      74.026  22.590  14.928  1.00  0.00     0.177 C 
HETATM   10  O   UNL     1      73.527  22.248  15.988  1.00  0.00    -0.648 OA
HETATM   11  O   UNL     1      75.208  22.073  14.538  1.00  0.00    -0.648 OA
ENDBRANCH   2   9
TORSDOF 1
ENDMDL
MODEL 2
REMARK VINA RESULT:      -4.4      2.362      3.166
REMARK  1 active torsions:
REMARK  status: ('A' for Active; 'I' for Inactive)
REMARK    1  A    between atoms: C_1  and  C_4 
ROOT
HETATM    1  N   UNL     1      73.624  23.656  15.860  1.00  0.00    -0.075 N 
HETATM    2  C   UNL     1      72.863  23.442  13.040  1.00  0.00     0.090 C 
HETATM    3  C   UNL     1      73.974  22.450  15.112  1.00  0.00     0.233 C 
HETATM    4  C   UNL     1      72.363  24.228  15.394  1.00  0.00     0.233 C 
HETATM    5  C   UNL     1      74.100  22.740  13.616  1.00  0.00     0.043 C 
HETATM    6  C   UNL     1      72.459  24.626  13.922  1.00  0.00     0.043 C 
HETATM    7  H   UNL     1      73.535  23.420  16.849  1.00  0.00     0.277 HD
HETATM    8  H   UNL     1      74.362  24.347  15.719  1.00  0.00     0.277 HD
ENDROOT
BRANCH   2   9
HETATM    9  C   UNL     1      71.702  22.490  12.850  1.00  0.00     0.177 C 
HETATM   10  O   UNL     1      70.518  22.721  13.040  1.00  0.00    -0.648 OA
HETATM   11  O   UNL     1      72.098  21.259  12.467  1.00  0.00    -0.648 OA
ENDBRANCH   2   9
TORSDOF 1
ENDMDL
MODEL 3
REMARK VINA RESULT:      -4.0     20.177     21.343
REMARK  1 active torsions:
REMARK  status: ('A' for Active; 'I' for Inactive)
REMARK    1  A    between atoms: C_1  and  C_4 
ROOT
HETATM    1  N   UNL     1      60.267   7.594   2.062  1.00  0.00    -0.075 N 
HETATM    2  C   UNL     1      62.474   9.440   2.609  1.00  0.00     0.090 C 
HETATM    3  C   UNL     1      60.598   8.627   1.081  1.00  0.00     0.233 C 
HETATM    4  C   UNL     1      60.523   8.049   3.426  1.00  0.00     0.233 C 
HETATM    5  C   UNL     1      62.067   9.040   1.184  1.00  0.00     0.043 C 
HETATM    6  C   UNL     1      62.000   8.390   3.616  1.00  0.00     0.043 C 
HETATM    7  H   UNL     1      59.278   7.356   1.972  1.00  0.00     0.277 HD
HETATM    8  H   UNL     1      60.853   6.779   1.880  1.00  0.00     0.277 HD
ENDROOT
BRANCH   2   9
HETATM    9  C   UNL     1      61.966  10.816   2.984  1.00  0.00     0.177 C 
HETATM   10  O   UNL     1      61.527  11.172   4.066  1.00  0.00    -0.648 OA
HETATM   11  O   UNL     1      61.996  11.680   1.948  1.00  0.00    -0.648 OA
ENDBRANCH   2   9
TORSDOF 1
ENDMDL
MODEL 4
REMARK VINA RESULT:      -3.7     18.239     18.998
REMARK  1 active torsions:
REMARK  status: ('A' for Active; 'I' for Inactive)
REMARK    1  A    between atoms: C_1  and  C_4 
ROOT
HETATM    1  N   UNL     1      67.351   5.380   8.631  1.00  0.00    -0.075 N 
HETATM    2  C   UNL     1      66.342   6.549   6.142  1.00  0.00     0.090 C 
HETATM    3  C   UNL     1      66.232   6.320   8.682  1.00  0.00     0.233 C 
HETATM    4  C   UNL     1      68.272   5.702   7.545  1.00  0.00     0.233 C 
HETATM    5  C   UNL     1      65.448   6.323   7.369  1.00  0.00     0.043 C 
HETATM    6  C   UNL     1      67.565   5.629   6.193  1.00  0.00     0.043 C 
HETATM    7  H   UNL     1      67.857   5.418   9.517  1.00  0.00     0.277 HD
HETATM    8  H   UNL     1      66.977   4.445   8.468  1.00  0.00     0.277 HD
ENDROOT
BRANCH   2   9
HETATM    9  C   UNL     1      66.762   7.997   6.001  1.00  0.00     0.177 C 
HETATM   10  O   UNL     1      66.314   8.959   6.605  1.00  0.00    -0.648 OA
HETATM   11  O   UNL     1      67.710   8.172   5.057  1.00  0.00    -0.648 OA
ENDBRANCH   2   9
TORSDOF 1
ENDMDL
MODEL 5
REMARK VINA RESULT:      -3.6     19.356     20.344
REMARK  1 active torsions:
REMARK  status: ('A' for Active; 'I' for Inactive)
REMARK    1  A    between atoms: C_1  and  C_4 
ROOT
HETATM    1  N   UNL     1      69.468   2.445   8.994  1.00  0.00    -0.075 N 
HETATM    2  C   UNL     1      68.404   4.931   7.869  1.00  0.00     0.090 C 
HETATM    3  C   UNL     1      68.231   2.408   8.216  1.00  0.00     0.233 C 
HETATM    4  C   UNL     1      69.601   3.700   9.729  1.00  0.00     0.233 C 
HETATM    5  C   UNL     1      68.169   3.563   7.215  1.00  0.00     0.043 C 
HETATM    6  C   UNL     1      69.640   4.889   8.771  1.00  0.00     0.043 C 
HETATM    7  H   UNL     1      69.465   1.670   9.659  1.00  0.00     0.277 HD
HETATM    8  H   UNL     1      70.255   2.365   8.350  1.00  0.00     0.277 HD
ENDROOT
BRANCH   2   9
HETATM    9  C   UNL     1      67.191   5.413   8.637  1.00  0.00     0.177 C 
HETATM   10  O   UNL     1      66.089   4.889   8.682  1.00  0.00    -0.648 OA
HETATM   11  O   UNL     1      67.415   6.574   9.286  1.00  0.00    -0.648 OA
ENDBRANCH   2   9
TORSDOF 1
ENDMDL
MODEL 6
REMARK VINA RESULT:      -3.6     19.000     19.960
REMARK  1 active torsions:
REMARK  status: ('A' for Active; 'I' for Inactive)
REMARK    1  A    between atoms: C_1  and  C_4 
ROOT
HETATM    1  N   UNL     1      67.176   7.216   8.210  1.00  0.00    -0.075 N 
HETATM    2  C   UNL     1      68.329   4.607   7.542  1.00  0.00     0.090 C 
HETATM    3  C   UNL     1      67.632   6.337   9.285  1.00  0.00     0.233 C 
HETATM    4  C   UNL     1      66.660   6.453   7.077  1.00  0.00     0.233 C 
HETATM    5  C   UNL     1      68.730   5.389   8.801  1.00  0.00     0.043 C 
HETATM    6  C   UNL     1      67.744   5.552   6.489  1.00  0.00     0.043 C 
HETATM    7  H   UNL     1      66.436   7.821   8.567  1.00  0.00     0.277 HD
HETATM    8  H   UNL     1      67.972   7.769   7.889  1.00  0.00     0.277 HD
ENDROOT
BRANCH   2   9
HETATM    9  C   UNL     1      67.367   3.481   7.852  1.00  0.00     0.177 C 
HETATM   10  O   UNL     1      67.120   2.998   8.946  1.00  0.00    -0.648 OA
HETATM   11  O   UNL     1      66.784   2.978   6.744  1.00  0.00    -0.648 OA
ENDBRANCH   2   9
TORSDOF 1
ENDMDL
MODEL 7
REMARK VINA RESULT:      -3.6     22.642     23.378
REMARK  1 active torsions:
REMARK  status: ('A' for Active; 'I' for Inactive)
REMARK    1  A    between atoms: C_1  and  C_4 
ROOT
HETATM    1  N   UNL     1      78.180  -0.855  17.911  1.00  0.00    -0.075 N 
HETATM    2  C   UNL     1      76.388   1.278  17.007  1.00  0.00     0.090 C 
HETATM    3  C   UNL     1      77.188  -1.142  16.876  1.00  0.00     0.233 C 
HETATM    4  C   UNL     1      77.693   0.146  18.857  1.00  0.00     0.233 C 
HETATM    5  C   UNL     1      76.816   0.120  16.096  1.00  0.00     0.043 C 
HETATM    6  C   UNL     1      77.392   1.464  18.146  1.00  0.00     0.043 C 
HETATM    7  H   UNL     1      78.390  -1.715  18.418  1.00  0.00     0.277 HD
HETATM    8  H   UNL     1      79.018  -0.488  17.459  1.00  0.00     0.277 HD
ENDROOT
BRANCH   2   9
HETATM    9  C   UNL     1      74.986   1.091  17.548  1.00  0.00     0.177 C 
HETATM   10  O   UNL     1      74.579   1.385  18.661  1.00  0.00    -0.648 OA
HETATM   11  O   UNL     1      74.164   0.493  16.662  1.00  0.00    -0.648 OA
ENDBRANCH   2   9
TORSDOF 1
ENDMDL
MODEL 8
REMARK VINA RESULT:      -3.6     19.186     20.375
REMARK  1 active torsions:
REMARK  status: ('A' for Active; 'I' for Inactive)
REMARK    1  A    between atoms: C_1  and  C_4 
ROOT
HETATM    1  N   UNL     1      61.200   6.951   4.203  1.00  0.00    -0.075 N 
HETATM    2  C   UNL     1      62.939   9.262   3.737  1.00  0.00     0.090 C 
HETATM    3  C   UNL     1      60.697   8.082   3.426  1.00  0.00     0.233 C 
HETATM    4  C   UNL     1      62.137   7.386   5.236  1.00  0.00     0.233 C 
HETATM    5  C   UNL     1      61.838   8.846   2.752  1.00  0.00     0.043 C 
HETATM    6  C   UNL     1      63.349   8.076   4.613  1.00  0.00     0.043 C 
HETATM    7  H   UNL     1      60.413   6.477   4.648  1.00  0.00     0.277 HD
HETATM    8  H   UNL     1      61.691   6.320   3.569  1.00  0.00     0.277 HD
ENDROOT
BRANCH   2   9
HETATM    9  C   UNL     1      62.528  10.445   4.587  1.00  0.00     0.177 C 
HETATM   10  O   UNL     1      61.763  11.346   4.280  1.00  0.00    -0.648 OA
HETATM   11  O   UNL     1      63.145  10.460   5.787  1.00  0.00    -0.648 OA
ENDBRANCH   2   9
TORSDOF 1
ENDMDL
MODEL 9
REMARK VINA RESULT:      -3.5     19.331     20.243
REMARK  1 active torsions:
REMARK  status: ('A' for Active; 'I' for Inactive)
REMARK    1  A    between atoms: C_1  and  C_4 
ROOT
HETATM    1  N   UNL     1      66.928   5.472   8.274  1.00  0.00    -0.075 N 
HETATM    2  C   UNL     1      69.444   3.976   8.173  1.00  0.00     0.090 C 
HETATM    3  C   UNL     1      68.011   5.828   9.189  1.00  0.00     0.233 C 
HETATM    4  C   UNL     1      66.920   4.040   7.984  1.00  0.00     0.233 C 
HETATM    5  C   UNL     1      69.375   5.445   8.612  1.00  0.00     0.043 C 
HETATM    6  C   UNL     1      68.227   3.614   7.317  1.00  0.00     0.043 C 
HETATM    7  H   UNL     1      66.036   5.729   8.699  1.00  0.00     0.277 HD
HETATM    8  H   UNL     1      67.069   5.976   7.398  1.00  0.00     0.277 HD
ENDROOT
BRANCH   2   9
HETATM    9  C   UNL     1      69.576   3.033   9.350  1.00  0.00     0.177 C 
HETATM   10  O   UNL     1      69.981   3.301  10.470  1.00  0.00    -0.648 OA
HETATM   11  O   UNL     1      69.227   1.767   9.042  1.00  0.00    -0.648 OA
ENDBRANCH   2   9
TORSDOF 1
ENDMDL
