MODEL 1
REMARK VINA RESULT:      -5.6      0.000      0.000
REMARK  0 active torsions:
REMARK  status: ('A' for Active; 'I' for Inactive)
ROOT
HETATM    1  O   UNL     1      63.250   9.478   4.924  1.00  0.00    -0.275 OA
HETATM    2  C   UNL     1      62.873  10.756   5.311  1.00  0.00     0.288 A 
HETATM    3  C   UNL     1      62.926   8.980   3.647  1.00  0.00     0.089 A 
HETATM    4  C   UNL     1      62.217   9.754   2.732  1.00  0.00    -0.002 A 
HETATM    5  C   UNL     1      61.819  11.101   3.109  1.00  0.00     0.020 A 
HETATM    6  C   UNL     1      62.136  11.563   4.324  1.00  0.00     0.083 A 
HETATM    7  C   UNL     1      61.916   9.210   1.479  1.00  0.00     0.021 A 
HETATM    8  O   UNL     1      63.136  11.211   6.418  1.00  0.00    -0.260 OA
HETATM    9  C   UNL     1      63.345   7.689   3.344  1.00  0.00     0.039 A 
HETATM   10  C   UNL     1      62.327   7.907   1.152  1.00  0.00    -0.061 A 
HETATM   11  C   UNL     1      63.044   7.153   2.093  1.00  0.00     0.009 A 
HETATM   12  C   UNL     1      61.997   7.330  -0.195  1.00  0.00     0.048 C 
ENDROOT
TORSDOF 0
ENDMDL
MODEL 2
REMARK VINA RESULT:      -5.5      6.024      7.739
REMARK  0 active torsions:
REMARK  status: ('A' for Active; 'I' for Inactive)
ROOT
HETATM    1  O   UNL     1      66.095   7.904   6.952  1.00  0.00    -0.275 OA
HETATM    2  C   UNL     1      65.963   8.046   5.578  1.00  0.00     0.288 A 
HETATM    3  C   UNL     1      66.932   6.914   7.503  1.00  0.00     0.089 A 
HETATM    4  C   UNL     1      67.653   6.046   6.688  1.00  0.00    -0.002 A 
HETATM    5  C   UNL     1      67.540   6.180   5.244  1.00  0.00     0.020 A 
HETATM    6  C   UNL     1      66.744   7.127   4.733  1.00  0.00     0.083 A 
HETATM    7  C   UNL     1      68.465   5.076   7.285  1.00  0.00     0.021 A 
HETATM    8  O   UNL     1      65.237   8.894   5.073  1.00  0.00    -0.260 OA
HETATM    9  C   UNL     1      67.005   6.845   8.890  1.00  0.00     0.039 A 
HETATM   10  C   UNL     1      68.552   4.987   8.685  1.00  0.00    -0.061 A 
HETATM   11  C   UNL     1      67.818   5.879   9.480  1.00  0.00     0.009 A 
HETATM   12  C   UNL     1      69.425   3.941   9.318  1.00  0.00     0.048 C 
ENDROOT
TORSDOF 0
ENDMDL
MODEL 3
REMARK VINA RESULT:      -5.4      1.362      2.215
REMARK  0 active torsions:
REMARK  status: ('A' for Active; 'I' for Inactive)
ROOT
HETATM    1  O   UNL     1      61.872  10.720   2.829  1.00  0.00    -0.275 OA
HETATM    2  C   UNL     1      62.171  11.075   4.136  1.00  0.00     0.288 A 
HETATM    3  C   UNL     1      62.219   9.452   2.322  1.00  0.00     0.089 A 
HETATM    4  C   UNL     1      62.873   8.514   3.116  1.00  0.00    -0.002 A 
HETATM    5  C   UNL     1      63.189   8.858   4.494  1.00  0.00     0.020 A 
HETATM    6  C   UNL     1      62.851  10.064   4.964  1.00  0.00     0.083 A 
HETATM    7  C   UNL     1      63.201   7.273   2.563  1.00  0.00     0.021 A 
HETATM    8  O   UNL     1      61.886  12.173   4.600  1.00  0.00    -0.260 OA
HETATM    9  C   UNL     1      61.878   9.182   1.001  1.00  0.00     0.039 A 
HETATM   10  C   UNL     1      62.869   6.979   1.229  1.00  0.00    -0.061 A 
HETATM   11  C   UNL     1      62.205   7.941   0.456  1.00  0.00     0.009 A 
HETATM   12  C   UNL     1      63.227   5.643   0.643  1.00  0.00     0.048 C 
ENDROOT
TORSDOF 0
ENDMDL
MODEL 4
REMARK VINA RESULT:      -5.3      1.723      3.743
REMARK  0 active torsions:
REMARK  status: ('A' for Active; 'I' for Inactive)
ROOT
HETATM    1  O   UNL     1      63.708   8.378   6.142  1.00  0.00    -0.275 OA
HETATM    2  C   UNL     1      64.093   7.061   5.937  1.00  0.00     0.288 A 
HETATM    3  C   UNL     1      63.177   9.152   5.092  1.00  0.00     0.089 A 
HETATM    4  C   UNL     1      63.021   8.621   3.814  1.00  0.00    -0.002 A 
HETATM    5  C   UNL     1      63.407   7.239   3.575  1.00  0.00     0.020 A 
HETATM    6  C   UNL     1      63.908   6.514   4.582  1.00  0.00     0.083 A 
HETATM    7  C   UNL     1      62.494   9.434   2.805  1.00  0.00     0.021 A 
HETATM    8  O   UNL     1      64.564   6.368   6.831  1.00  0.00    -0.260 OA
HETATM    9  C   UNL     1      62.815  10.462   5.389  1.00  0.00     0.039 A 
HETATM   10  C   UNL     1      62.125  10.761   3.082  1.00  0.00    -0.061 A 
HETATM   11  C   UNL     1      62.288  11.266   4.380  1.00  0.00     0.009 A 
HETATM   12  C   UNL     1      61.562  11.627   1.991  1.00  0.00     0.048 C 
ENDROOT
TORSDOF 0
ENDMDL
MODEL 5
REMARK VINA RESULT:      -5.2     19.249     20.460
REMARK  0 active torsions:
REMARK  status: ('A' for Active; 'I' for Inactive)
ROOT
HETATM    1  O   UNL     1      77.081   3.811  18.006  1.00  0.00    -0.275 OA
HETATM    2  C   UNL     1      76.716   5.093  17.625  1.00  0.00     0.288 A 
HETATM    3  C   UNL     1      76.290   2.697  17.661  1.00  0.00     0.089 A 
HETATM    4  C   UNL     1      75.118   2.848  16.926  1.00  0.00    -0.002 A 
HETATM    5  C   UNL     1      74.718   4.181  16.504  1.00  0.00     0.020 A 
HETATM    6  C   UNL     1      75.480   5.230  16.837  1.00  0.00     0.083 A 
HETATM    7  C   UNL     1      74.366   1.711  16.614  1.00  0.00     0.021 A 
HETATM    8  O   UNL     1      77.382   6.080  17.918  1.00  0.00    -0.260 OA
HETATM    9  C   UNL     1      76.733   1.448  18.084  1.00  0.00     0.039 A 
HETATM   10  C   UNL     1      74.792   0.439  17.034  1.00  0.00    -0.061 A 
HETATM   11  C   UNL     1      75.981   0.318  17.768  1.00  0.00     0.009 A 
HETATM   12  C   UNL     1      73.977  -0.776  16.696  1.00  0.00     0.048 C 
ENDROOT
TORSDOF 0
ENDMDL
MODEL 6
REMARK VINA RESULT:      -5.2     23.597     25.656
REMARK  0 active torsions:
REMARK  status: ('A' for Active; 'I' for Inactive)
ROOT
HETATM    1  O   UNL     1      79.350  11.843  24.111  1.00  0.00    -0.275 OA
HETATM    2  C   UNL     1      80.639  12.230  24.449  1.00  0.00     0.288 A 
HETATM    3  C   UNL     1      78.795  12.178  22.861  1.00  0.00     0.089 A 
HETATM    4  C   UNL     1      79.521  12.907  21.923  1.00  0.00    -0.002 A 
HETATM    5  C   UNL     1      80.878  13.317  22.249  1.00  0.00     0.020 A 
HETATM    6  C   UNL     1      81.395  12.990  23.439  1.00  0.00     0.083 A 
HETATM    7  C   UNL     1      78.922  13.218  20.699  1.00  0.00     0.021 A 
HETATM    8  O   UNL     1      81.143  11.958  25.533  1.00  0.00    -0.260 OA
HETATM    9  C   UNL     1      77.498  11.747  22.607  1.00  0.00     0.039 A 
HETATM   10  C   UNL     1      77.611  12.796  20.422  1.00  0.00    -0.061 A 
HETATM   11  C   UNL     1      76.906  12.057  21.383  1.00  0.00     0.009 A 
HETATM   12  C   UNL     1      76.974  13.136  19.104  1.00  0.00     0.048 C 
ENDROOT
TORSDOF 0
ENDMDL
MODEL 7
REMARK VINA RESULT:      -4.9      8.633     10.234
REMARK  0 active torsions:
REMARK  status: ('A' for Active; 'I' for Inactive)
ROOT
HETATM    1  O   UNL     1      69.296   3.546   9.953  1.00  0.00    -0.275 OA
HETATM    2  C   UNL     1      69.590   2.199  10.097  1.00  0.00     0.288 A 
HETATM    3  C   UNL     1      68.790   4.055   8.741  1.00  0.00     0.089 A 
HETATM    4  C   UNL     1      68.568   3.222   7.648  1.00  0.00    -0.002 A 
HETATM    5  C   UNL     1      68.859   1.803   7.775  1.00  0.00     0.020 A 
HETATM    6  C   UNL     1      69.336   1.332   8.934  1.00  0.00     0.083 A 
HETATM    7  C   UNL     1      68.070   3.778   6.466  1.00  0.00     0.021 A 
HETATM    8  O   UNL     1      70.037   1.731  11.138  1.00  0.00    -0.260 OA
HETATM    9  C   UNL     1      68.522   5.419   8.688  1.00  0.00     0.039 A 
HETATM   10  C   UNL     1      67.795   5.154   6.388  1.00  0.00    -0.061 A 
HETATM   11  C   UNL     1      68.023   5.967   7.507  1.00  0.00     0.009 A 
HETATM   12  C   UNL     1      67.262   5.743   5.113  1.00  0.00     0.048 C 
ENDROOT
TORSDOF 0
ENDMDL
MODEL 8
REMARK VINA RESULT:      -4.9      8.194      9.751
REMARK  0 active torsions:
REMARK  status: ('A' for Active; 'I' for Inactive)
ROOT
HETATM    1  O   UNL     1      67.312   2.501   9.194  1.00  0.00    -0.275 OA
HETATM    2  C   UNL     1      68.300   2.172  10.111  1.00  0.00     0.288 A 
HETATM    3  C   UNL     1      67.436   3.634   8.367  1.00  0.00     0.089 A 
HETATM    4  C   UNL     1      68.554   4.460   8.442  1.00  0.00    -0.002 A 
HETATM    5  C   UNL     1      69.609   4.133   9.388  1.00  0.00     0.020 A 
HETATM    6  C   UNL     1      69.480   3.051  10.166  1.00  0.00     0.083 A 
HETATM    7  C   UNL     1      68.625   5.577   7.602  1.00  0.00     0.021 A 
HETATM    8  O   UNL     1      68.214   1.196  10.847  1.00  0.00    -0.260 OA
HETATM    9  C   UNL     1      66.399   3.886   7.476  1.00  0.00     0.039 A 
HETATM   10  C   UNL     1      67.587   5.852   6.696  1.00  0.00    -0.061 A 
HETATM   11  C   UNL     1      66.477   4.998   6.639  1.00  0.00     0.009 A 
HETATM   12  C   UNL     1      67.672   7.054   5.800  1.00  0.00     0.048 C 
ENDROOT
TORSDOF 0
ENDMDL
MODEL 9
REMARK VINA RESULT:      -4.8      2.187      3.701
REMARK  0 active torsions:
REMARK  status: ('A' for Active; 'I' for Inactive)
ROOT
HETATM    1  O   UNL     1      62.955   6.643   3.211  1.00  0.00    -0.275 OA
HETATM    2  C   UNL     1      63.228   6.223   4.505  1.00  0.00     0.288 A 
HETATM    3  C   UNL     1      62.627   7.984   2.936  1.00  0.00     0.089 A 
HETATM    4  C   UNL     1      62.567   8.933   3.954  1.00  0.00    -0.002 A 
HETATM    5  C   UNL     1      62.859   8.522   5.318  1.00  0.00     0.020 A 
HETATM    6  C   UNL     1      63.172   7.244   5.565  1.00  0.00     0.083 A 
HETATM    7  C   UNL     1      62.231  10.251   3.628  1.00  0.00     0.021 A 
HETATM    8  O   UNL     1      63.509   5.060   4.772  1.00  0.00    -0.260 OA
HETATM    9  C   UNL     1      62.370   8.317   1.611  1.00  0.00     0.039 A 
HETATM   10  C   UNL     1      61.964  10.609   2.296  1.00  0.00    -0.061 A 
HETATM   11  C   UNL     1      62.038   9.632   1.292  1.00  0.00     0.009 A 
HETATM   12  C   UNL     1      61.602  12.026   1.956  1.00  0.00     0.048 C 
ENDROOT
TORSDOF 0
ENDMDL
