MODEL 1
REMARK VINA RESULT:      -4.6      0.000      0.000
REMARK  1 active torsions:
REMARK  status: ('A' for Active; 'I' for Inactive)
REMARK    1  A    between atoms: C_1  and  N_7 
ROOT
HETATM    1  C   UNL     1      77.395   8.883  17.884  1.00  0.00     0.029 A 
HETATM    2  C   UNL     1      76.774   6.871  16.679  1.00  0.00     0.037 A 
HETATM    3  C   UNL     1      77.554   8.786  15.466  1.00  0.00     0.037 A 
HETATM    4  C   UNL     1      77.736   9.477  16.665  1.00  0.00     0.052 A 
HETATM    5  C   UNL     1      76.955   7.557  17.883  1.00  0.00     0.052 A 
HETATM    6  C   UNL     1      77.068   7.482  15.464  1.00  0.00     0.048 A 
HETATM    7 CL   UNL     1      77.955   9.546  13.975  1.00  0.00    -0.084 Cl
HETATM    8 CL   UNL     1      76.202   5.248  16.701  1.00  0.00    -0.084 Cl
ENDROOT
BRANCH   1   9
HETATM    9  N   UNL     1      77.716   9.518  19.090  1.00  0.00    -0.399 N 
HETATM   10  H   UNL     1      77.376   9.158  19.941  1.00  0.00     0.156 HD
HETATM   11  H   UNL     1      78.282  10.323  19.087  1.00  0.00     0.156 HD
ENDBRANCH   1   9
TORSDOF 1
ENDMDL
MODEL 2
REMARK VINA RESULT:      -4.6      2.425      3.470
REMARK  1 active torsions:
REMARK  status: ('A' for Active; 'I' for Inactive)
REMARK    1  A    between atoms: C_1  and  N_7 
ROOT
HETATM    1  C   UNL     1      76.645   6.463  16.673  1.00  0.00     0.029 A 
HETATM    2  C   UNL     1      77.387   8.227  15.183  1.00  0.00     0.037 A 
HETATM    3  C   UNL     1      77.336   8.616  17.547  1.00  0.00     0.037 A 
HETATM    4  C   UNL     1      76.890   7.311  17.757  1.00  0.00     0.052 A 
HETATM    5  C   UNL     1      76.941   6.919  15.386  1.00  0.00     0.052 A 
HETATM    6  C   UNL     1      77.584   9.085  16.261  1.00  0.00     0.048 A 
HETATM    7 CL   UNL     1      77.606   9.651  18.896  1.00  0.00    -0.084 Cl
HETATM    8 CL   UNL     1      77.718   8.776  13.586  1.00  0.00    -0.084 Cl
ENDROOT
BRANCH   1   9
HETATM    9  N   UNL     1      76.340   5.113  16.889  1.00  0.00    -0.399 N 
HETATM   10  H   UNL     1      75.452   4.765  16.647  1.00  0.00     0.156 HD
HETATM   11  H   UNL     1      77.015   4.514  17.283  1.00  0.00     0.156 HD
ENDBRANCH   1   9
TORSDOF 1
ENDMDL
MODEL 3
REMARK VINA RESULT:      -4.5      5.945      7.001
REMARK  1 active torsions:
REMARK  status: ('A' for Active; 'I' for Inactive)
REMARK    1  A    between atoms: C_1  and  N_7 
ROOT
HETATM    1  C   UNL     1      79.552  11.176  20.324  1.00  0.00     0.029 A 
HETATM    2  C   UNL     1      79.302  12.668  22.221  1.00  0.00     0.037 A 
HETATM    3  C   UNL     1      77.540  12.500  20.606  1.00  0.00     0.037 A 
HETATM    4  C   UNL     1      78.273  11.546  19.898  1.00  0.00     0.052 A 
HETATM    5  C   UNL     1      80.042  11.713  21.518  1.00  0.00     0.052 A 
HETATM    6  C   UNL     1      78.050  13.070  21.768  1.00  0.00     0.048 A 
HETATM    7 CL   UNL     1      75.978  12.959  20.047  1.00  0.00    -0.084 Cl
HETATM    8 CL   UNL     1      79.939  13.337  23.673  1.00  0.00    -0.084 Cl
ENDROOT
BRANCH   1   9
HETATM    9  N   UNL     1      80.223  10.117  19.701  1.00  0.00    -0.399 N 
HETATM   10  H   UNL     1      80.431  10.164  18.740  1.00  0.00     0.156 HD
HETATM   11  H   UNL     1      80.487   9.327  20.224  1.00  0.00     0.156 HD
ENDBRANCH   1   9
TORSDOF 1
ENDMDL
MODEL 4
REMARK VINA RESULT:      -4.5      0.441      3.028
REMARK  1 active torsions:
REMARK  status: ('A' for Active; 'I' for Inactive)
REMARK    1  A    between atoms: C_1  and  N_7 
ROOT
HETATM    1  C   UNL     1      77.421   8.564  17.673  1.00  0.00     0.029 A 
HETATM    2  C   UNL     1      77.425   8.342  15.257  1.00  0.00     0.037 A 
HETATM    3  C   UNL     1      76.643   6.527  16.612  1.00  0.00     0.037 A 
HETATM    4  C   UNL     1      76.870   7.282  17.763  1.00  0.00     0.052 A 
HETATM    5  C   UNL     1      77.654   9.105  16.405  1.00  0.00     0.052 A 
HETATM    6  C   UNL     1      76.922   7.049  15.353  1.00  0.00     0.048 A 
HETATM    7 CL   UNL     1      75.989   4.941  16.749  1.00  0.00    -0.084 Cl
HETATM    8 CL   UNL     1      77.748   9.019  13.708  1.00  0.00    -0.084 Cl
ENDROOT
BRANCH   1   9
HETATM    9  N   UNL     1      77.510   9.374  18.811  1.00  0.00    -0.399 N 
HETATM   10  H   UNL     1      78.378   9.751  19.080  1.00  0.00     0.156 HD
HETATM   11  H   UNL     1      76.704   9.567  19.342  1.00  0.00     0.156 HD
ENDBRANCH   1   9
TORSDOF 1
ENDMDL
MODEL 5
REMARK VINA RESULT:      -4.1     19.667     20.294
REMARK  1 active torsions:
REMARK  status: ('A' for Active; 'I' for Inactive)
REMARK    1  A    between atoms: C_1  and  N_7 
ROOT
HETATM    1  C   UNL     1      62.595   9.368   4.426  1.00  0.00     0.029 A 
HETATM    2  C   UNL     1      62.512   8.401   2.203  1.00  0.00     0.037 A 
HETATM    3  C   UNL     1      61.965  10.714   2.510  1.00  0.00     0.037 A 
HETATM    4  C   UNL     1      62.228  10.599   3.876  1.00  0.00     0.052 A 
HETATM    5  C   UNL     1      62.778   8.279   3.569  1.00  0.00     0.052 A 
HETATM    6  C   UNL     1      62.101   9.616   1.666  1.00  0.00     0.048 A 
HETATM    7 CL   UNL     1      61.489  12.234   1.859  1.00  0.00    -0.084 Cl
HETATM    8 CL   UNL     1      62.717   7.039   1.171  1.00  0.00    -0.084 Cl
ENDROOT
BRANCH   1   9
HETATM    9  N   UNL     1      63.000   9.287   5.764  1.00  0.00    -0.399 N 
HETATM   10  H   UNL     1      62.827   8.468   6.282  1.00  0.00     0.156 HD
HETATM   11  H   UNL     1      63.459  10.049   6.185  1.00  0.00     0.156 HD
ENDBRANCH   1   9
TORSDOF 1
ENDMDL
MODEL 6
REMARK VINA RESULT:      -4.0     18.483     19.076
REMARK  1 active torsions:
REMARK  status: ('A' for Active; 'I' for Inactive)
REMARK    1  A    between atoms: C_1  and  N_7 
ROOT
HETATM    1  C   UNL     1      63.053  10.184   5.034  1.00  0.00     0.029 A 
HETATM    2  C   UNL     1      63.924   8.088   4.178  1.00  0.00     0.037 A 
HETATM    3  C   UNL     1      62.295   9.301   2.906  1.00  0.00     0.037 A 
HETATM    4  C   UNL     1      62.277  10.304   3.877  1.00  0.00     0.052 A 
HETATM    5  C   UNL     1      63.912   9.088   5.154  1.00  0.00     0.052 A 
HETATM    6  C   UNL     1      63.114   8.186   3.052  1.00  0.00     0.048 A 
HETATM    7 CL   UNL     1      61.310   9.457   1.503  1.00  0.00    -0.084 Cl
HETATM    8 CL   UNL     1      64.968   6.732   4.362  1.00  0.00    -0.084 Cl
ENDROOT
BRANCH   1   9
HETATM    9  N   UNL     1      63.147  11.254   5.932  1.00  0.00    -0.399 N 
HETATM   10  H   UNL     1      63.270  12.170   5.594  1.00  0.00     0.156 HD
HETATM   11  H   UNL     1      63.089  11.090   6.900  1.00  0.00     0.156 HD
ENDBRANCH   1   9
TORSDOF 1
ENDMDL
MODEL 7
REMARK VINA RESULT:      -3.9     20.004     20.641
REMARK  1 active torsions:
REMARK  status: ('A' for Active; 'I' for Inactive)
REMARK    1  A    between atoms: C_1  and  N_7 
ROOT
HETATM    1  C   UNL     1      61.853  10.543   2.379  1.00  0.00     0.029 A 
HETATM    2  C   UNL     1      62.626   8.850   3.936  1.00  0.00     0.037 A 
HETATM    3  C   UNL     1      62.434   8.319   1.607  1.00  0.00     0.037 A 
HETATM    4  C   UNL     1      62.013   9.623   1.339  1.00  0.00     0.052 A 
HETATM    5  C   UNL     1      62.207  10.158   3.675  1.00  0.00     0.052 A 
HETATM    6  C   UNL     1      62.739   7.923   2.905  1.00  0.00     0.048 A 
HETATM    7 CL   UNL     1      62.598   7.195   0.314  1.00  0.00    -0.084 Cl
HETATM    8 CL   UNL     1      63.029   8.391   5.545  1.00  0.00    -0.084 Cl
ENDROOT
BRANCH   1   9
HETATM    9  N   UNL     1      61.576  11.886   2.095  1.00  0.00    -0.399 N 
HETATM   10  H   UNL     1      60.917  12.377   2.635  1.00  0.00     0.156 HD
HETATM   11  H   UNL     1      62.042  12.338   1.355  1.00  0.00     0.156 HD
ENDBRANCH   1   9
TORSDOF 1
ENDMDL
MODEL 8
REMARK VINA RESULT:      -3.9     19.468     20.234
REMARK  1 active torsions:
REMARK  status: ('A' for Active; 'I' for Inactive)
REMARK    1  A    between atoms: C_1  and  N_7 
ROOT
HETATM    1  C   UNL     1      62.829   9.102   4.551  1.00  0.00     0.029 A 
HETATM    2  C   UNL     1      62.109  10.418   2.645  1.00  0.00     0.037 A 
HETATM    3  C   UNL     1      62.644   8.101   2.350  1.00  0.00     0.037 A 
HETATM    4  C   UNL     1      62.916   7.985   3.715  1.00  0.00     0.052 A 
HETATM    5  C   UNL     1      62.379  10.310   4.012  1.00  0.00     0.052 A 
HETATM    6  C   UNL     1      62.244   9.317   1.806  1.00  0.00     0.048 A 
HETATM    7 CL   UNL     1      62.784   6.719   1.334  1.00  0.00    -0.084 Cl
HETATM    8 CL   UNL     1      61.585  11.924   1.998  1.00  0.00    -0.084 Cl
ENDROOT
BRANCH   1   9
HETATM    9  N   UNL     1      62.957   8.954   5.938  1.00  0.00    -0.399 N 
HETATM   10  H   UNL     1      63.356   9.676   6.474  1.00  0.00     0.156 HD
HETATM   11  H   UNL     1      62.646   8.129   6.375  1.00  0.00     0.156 HD
ENDBRANCH   1   9
TORSDOF 1
ENDMDL
MODEL 9
REMARK VINA RESULT:      -3.9     18.489     19.185
REMARK  1 active torsions:
REMARK  status: ('A' for Active; 'I' for Inactive)
REMARK    1  A    between atoms: C_1  and  N_7 
ROOT
HETATM    1  C   UNL     1      63.154  10.267   4.947  1.00  0.00     0.029 A 
HETATM    2  C   UNL     1      62.286   9.274   2.911  1.00  0.00     0.037 A 
HETATM    3  C   UNL     1      63.909   8.083   4.211  1.00  0.00     0.037 A 
HETATM    4  C   UNL     1      63.928   9.120   5.146  1.00  0.00     0.052 A 
HETATM    5  C   UNL     1      62.299  10.315   3.844  1.00  0.00     0.052 A 
HETATM    6  C   UNL     1      63.093   8.155   3.087  1.00  0.00     0.048 A 
HETATM    7 CL   UNL     1      64.890   6.692   4.464  1.00  0.00    -0.084 Cl
HETATM    8 CL   UNL     1      61.246   9.369   1.544  1.00  0.00    -0.084 Cl
ENDROOT
BRANCH   1   9
HETATM    9  N   UNL     1      63.061  11.236   5.954  1.00  0.00    -0.399 N 
HETATM   10  H   UNL     1      62.576  11.035   6.786  1.00  0.00     0.156 HD
HETATM   11  H   UNL     1      63.480  12.117   5.829  1.00  0.00     0.156 HD
ENDBRANCH   1   9
TORSDOF 1
ENDMDL
