MODEL 1
REMARK VINA RESULT:      -5.5      0.000      0.000
REMARK  1 active torsions:
REMARK  status: ('A' for Active; 'I' for Inactive)
REMARK    1  A    between atoms: C_1  and  C_6 
ROOT
HETATM    1  C   UNL     1      78.715  10.577  19.442  1.00  0.00     0.209 A 
HETATM    2  N   UNL     1      78.214  11.520  20.285  1.00  0.00    -0.308 N 
HETATM    3  N   UNL     1      79.963  10.261  19.696  1.00  0.00    -0.279 N 
ATOM      4  HN  UNL     1      80.545   9.584  19.203  1.00  0.00     0.188 HD
HETATM    5  C   UNL     1      79.247  11.828  21.143  1.00  0.00     0.194 A 
HETATM    6  N   UNL     1      80.311  11.034  20.760  1.00  0.00    -0.274 N 
HETATM    7  S   UNL     1      79.304  12.908  22.396  1.00  0.00    -0.039 SA
HETATM    8  C   UNL     1      76.885  12.107  20.358  1.00  0.00     0.160 C 
HETATM    9  H   UNL     1      81.194  11.027  21.196  1.00  0.00     0.189 HD
ENDROOT
BRANCH   1  10
HETATM   10  C   UNL     1      77.950   9.926  18.292  1.00  0.00     0.450 C 
HETATM   11  F   UNL     1      77.098  10.754  17.633  1.00  0.00    -0.163 F 
HETATM   12  F   UNL     1      78.790   9.430  17.341  1.00  0.00    -0.163 F 
HETATM   13  F   UNL     1      77.192   8.876  18.717  1.00  0.00    -0.163 F 
ENDBRANCH   1  10
TORSDOF 1
ENDMDL
MODEL 2
REMARK VINA RESULT:      -4.8      1.521      2.184
REMARK  1 active torsions:
REMARK  status: ('A' for Active; 'I' for Inactive)
REMARK    1  A    between atoms: C_1  and  C_6 
ROOT
HETATM    1  C   UNL     1      78.286  11.588  19.924  1.00  0.00     0.209 A 
HETATM    2  N   UNL     1      78.603  12.366  20.994  1.00  0.00    -0.308 N 
HETATM    3  N   UNL     1      79.181  10.663  19.668  1.00  0.00    -0.279 N 
ATOM      4  HN  UNL     1      79.159   9.967  18.922  1.00  0.00     0.188 HD
HETATM    5  C   UNL     1      79.813  11.887  21.447  1.00  0.00     0.194 A 
HETATM    6  N   UNL     1      80.143  10.835  20.614  1.00  0.00    -0.274 N 
HETATM    7  S   UNL     1      80.755  12.397  22.709  1.00  0.00    -0.039 SA
HETATM    8  C   UNL     1      77.872  13.460  21.613  1.00  0.00     0.160 C 
HETATM    9  H   UNL     1      80.957  10.287  20.695  1.00  0.00     0.189 HD
ENDROOT
BRANCH   1  10
HETATM   10  C   UNL     1      77.033  11.739  19.064  1.00  0.00     0.450 C 
HETATM   11  F   UNL     1      76.795  10.703  18.218  1.00  0.00    -0.163 F 
HETATM   12  F   UNL     1      75.909  11.860  19.823  1.00  0.00    -0.163 F 
HETATM   13  F   UNL     1      77.087  12.853  18.280  1.00  0.00    -0.163 F 
ENDBRANCH   1  10
TORSDOF 1
ENDMDL
MODEL 3
REMARK VINA RESULT:      -4.8      7.629      8.542
REMARK  1 active torsions:
REMARK  status: ('A' for Active; 'I' for Inactive)
REMARK    1  A    between atoms: C_1  and  C_6 
ROOT
HETATM    1  C   UNL     1      76.298   3.924  17.573  1.00  0.00     0.209 A 
HETATM    2  N   UNL     1      75.976   2.621  17.349  1.00  0.00    -0.308 N 
HETATM    3  N   UNL     1      77.319   4.077  18.381  1.00  0.00    -0.279 N 
ATOM      4  HN  UNL     1      77.740   4.954  18.692  1.00  0.00     0.188 HD
HETATM    5  C   UNL     1      76.877   1.890  18.093  1.00  0.00     0.194 A 
HETATM    6  N   UNL     1      77.696   2.813  18.715  1.00  0.00    -0.274 N 
HETATM    7  S   UNL     1      77.028   0.251  18.273  1.00  0.00    -0.039 SA
HETATM    8  C   UNL     1      74.948   2.036  16.503  1.00  0.00     0.160 C 
HETATM    9  H   UNL     1      78.446   2.588  19.312  1.00  0.00     0.189 HD
ENDROOT
BRANCH   1  10
HETATM   10  C   UNL     1      75.570   5.127  16.977  1.00  0.00     0.450 C 
HETATM   11  F   UNL     1      74.233   4.954  16.802  1.00  0.00    -0.163 F 
HETATM   12  F   UNL     1      75.698   6.235  17.758  1.00  0.00    -0.163 F 
HETATM   13  F   UNL     1      76.063   5.462  15.752  1.00  0.00    -0.163 F 
ENDBRANCH   1  10
TORSDOF 1
ENDMDL
MODEL 4
REMARK VINA RESULT:      -4.7     15.504     16.330
REMARK  1 active torsions:
REMARK  status: ('A' for Active; 'I' for Inactive)
REMARK    1  A    between atoms: C_1  and  C_6 
ROOT
HETATM    1  C   UNL     1      68.963   3.889   9.411  1.00  0.00     0.209 A 
HETATM    2  N   UNL     1      68.013   2.973   9.081  1.00  0.00    -0.308 N 
HETATM    3  N   UNL     1      69.701   3.530  10.435  1.00  0.00    -0.279 N 
ATOM      4  HN  UNL     1      70.470   4.049  10.860  1.00  0.00     0.188 HD
HETATM    5  C   UNL     1      68.166   1.947   9.988  1.00  0.00     0.194 A 
HETATM    6  N   UNL     1      69.216   2.314  10.807  1.00  0.00    -0.274 N 
HETATM    7  S   UNL     1      67.320   0.532  10.148  1.00  0.00    -0.039 SA
HETATM    8  C   UNL     1      67.033   2.976   8.007  1.00  0.00     0.160 C 
HETATM    9  H   UNL     1      69.565   1.773  11.552  1.00  0.00     0.189 HD
ENDROOT
BRANCH   1  10
HETATM   10  C   UNL     1      69.186   5.223   8.702  1.00  0.00     0.450 C 
HETATM   11  F   UNL     1      68.833   5.236   7.390  1.00  0.00    -0.163 F 
HETATM   12  F   UNL     1      68.478   6.231   9.284  1.00  0.00    -0.163 F 
HETATM   13  F   UNL     1      70.494   5.604   8.738  1.00  0.00    -0.163 F 
ENDBRANCH   1  10
TORSDOF 1
ENDMDL
MODEL 5
REMARK VINA RESULT:      -4.7      8.920      9.736
REMARK  1 active torsions:
REMARK  status: ('A' for Active; 'I' for Inactive)
REMARK    1  A    between atoms: C_1  and  C_6 
ROOT
HETATM    1  C   UNL     1      76.223   2.209  17.998  1.00  0.00     0.209 A 
HETATM    2  N   UNL     1      76.943   1.071  18.193  1.00  0.00    -0.308 N 
HETATM    3  N   UNL     1      76.638   3.220  18.724  1.00  0.00    -0.279 N 
ATOM      4  HN  UNL     1      76.258   4.167  18.746  1.00  0.00     0.188 HD
HETATM    5  C   UNL     1      77.894   1.399  19.136  1.00  0.00     0.194 A 
HETATM    6  N   UNL     1      77.685   2.731  19.440  1.00  0.00    -0.274 N 
HETATM    7  S   UNL     1      79.077   0.468  19.824  1.00  0.00    -0.039 SA
HETATM    8  C   UNL     1      76.827  -0.237  17.568  1.00  0.00     0.160 C 
HETATM    9  H   UNL     1      78.220   3.251  20.083  1.00  0.00     0.189 HD
ENDROOT
BRANCH   1  10
HETATM   10  C   UNL     1      75.035   2.348  17.049  1.00  0.00     0.450 C 
HETATM   11  F   UNL     1      75.237   1.841  15.805  1.00  0.00    -0.163 F 
HETATM   12  F   UNL     1      73.926   1.718  17.528  1.00  0.00    -0.163 F 
HETATM   13  F   UNL     1      74.684   3.653  16.864  1.00  0.00    -0.163 F 
ENDBRANCH   1  10
TORSDOF 1
ENDMDL
MODEL 6
REMARK VINA RESULT:      -4.4      5.326      6.060
REMARK  1 active torsions:
REMARK  status: ('A' for Active; 'I' for Inactive)
REMARK    1  A    between atoms: C_1  and  C_6 
ROOT
HETATM    1  C   UNL     1      79.050  11.718  24.254  1.00  0.00     0.209 A 
HETATM    2  N   UNL     1      79.122  11.227  25.521  1.00  0.00    -0.308 N 
HETATM    3  N   UNL     1      78.071  11.203  23.550  1.00  0.00    -0.279 N 
ATOM      4  HN  UNL     1      77.821  11.417  22.584  1.00  0.00     0.188 HD
HETATM    5  C   UNL     1      78.095  10.313  25.616  1.00  0.00     0.194 A 
HETATM    6  N   UNL     1      77.461  10.323  24.388  1.00  0.00    -0.274 N 
HETATM    7  S   UNL     1      77.638   9.353  26.885  1.00  0.00    -0.039 SA
HETATM    8  C   UNL     1      80.028  11.557  26.610  1.00  0.00     0.160 C 
HETATM    9  H   UNL     1      76.678   9.772  24.155  1.00  0.00     0.189 HD
ENDROOT
BRANCH   1  10
HETATM   10  C   UNL     1      79.995  12.758  23.657  1.00  0.00     0.450 C 
HETATM   11  F   UNL     1      81.297  12.374  23.591  1.00  0.00    -0.163 F 
HETATM   12  F   UNL     1      79.645  13.090  22.383  1.00  0.00    -0.163 F 
HETATM   13  F   UNL     1      79.988  13.920  24.370  1.00  0.00    -0.163 F 
ENDBRANCH   1  10
TORSDOF 1
ENDMDL
MODEL 7
REMARK VINA RESULT:      -4.3     20.990     21.915
REMARK  1 active torsions:
REMARK  status: ('A' for Active; 'I' for Inactive)
REMARK    1  A    between atoms: C_1  and  C_6 
ROOT
HETATM    1  C   UNL     1      63.264   9.450   4.467  1.00  0.00     0.209 A 
HETATM    2  N   UNL     1      63.631   8.266   3.904  1.00  0.00    -0.308 N 
HETATM    3  N   UNL     1      63.952   9.751   5.543  1.00  0.00    -0.279 N 
ATOM      4  HN  UNL     1      63.858  10.580   6.129  1.00  0.00     0.188 HD
HETATM    5  C   UNL     1      64.638   7.777   4.707  1.00  0.00     0.194 A 
HETATM    6  N   UNL     1      64.819   8.715   5.706  1.00  0.00    -0.274 N 
HETATM    7  S   UNL     1      65.509   6.374   4.588  1.00  0.00    -0.039 SA
HETATM    8  C   UNL     1      63.144   7.603   2.705  1.00  0.00     0.160 C 
HETATM    9  H   UNL     1      65.482   8.644   6.431  1.00  0.00     0.189 HD
ENDROOT
BRANCH   1  10
HETATM   10  C   UNL     1      62.162  10.370   3.947  1.00  0.00     0.450 C 
HETATM   11  F   UNL     1      62.316  10.770   2.658  1.00  0.00    -0.163 F 
HETATM   12  F   UNL     1      60.937   9.777   4.005  1.00  0.00    -0.163 F 
HETATM   13  F   UNL     1      62.068  11.514   4.682  1.00  0.00    -0.163 F 
ENDBRANCH   1  10
TORSDOF 1
ENDMDL
MODEL 8
REMARK VINA RESULT:      -4.3     16.215     17.071
REMARK  1 active torsions:
REMARK  status: ('A' for Active; 'I' for Inactive)
REMARK    1  A    between atoms: C_1  and  C_6 
ROOT
HETATM    1  C   UNL     1      68.002   5.553   8.223  1.00  0.00     0.209 A 
HETATM    2  N   UNL     1      67.569   5.664   6.937  1.00  0.00    -0.308 N 
HETATM    3  N   UNL     1      67.824   6.645   8.928  1.00  0.00    -0.279 N 
ATOM      4  HN  UNL     1      68.066   6.798   9.908  1.00  0.00     0.188 HD
HETATM    5  C   UNL     1      67.081   6.948   6.827  1.00  0.00     0.194 A 
HETATM    6  N   UNL     1      67.246   7.527   8.070  1.00  0.00    -0.274 N 
HETATM    7  S   UNL     1      66.420   7.727   5.524  1.00  0.00    -0.039 SA
HETATM    8  C   UNL     1      67.556   4.687   5.860  1.00  0.00     0.160 C 
HETATM    9  H   UNL     1      66.981   8.447   8.302  1.00  0.00     0.189 HD
ENDROOT
BRANCH   1  10
HETATM   10  C   UNL     1      68.647   4.311   8.832  1.00  0.00     0.450 C 
HETATM   11  F   UNL     1      69.756   3.868   8.183  1.00  0.00    -0.163 F 
HETATM   12  F   UNL     1      69.034   4.521  10.121  1.00  0.00    -0.163 F 
HETATM   13  F   UNL     1      67.787   3.254   8.858  1.00  0.00    -0.163 F 
ENDBRANCH   1  10
TORSDOF 1
ENDMDL
MODEL 9
REMARK VINA RESULT:      -4.3     22.087     23.014
REMARK  1 active torsions:
REMARK  status: ('A' for Active; 'I' for Inactive)
REMARK    1  A    between atoms: C_1  and  C_6 
ROOT
HETATM    1  C   UNL     1      62.496   9.692   3.808  1.00  0.00     0.209 A 
HETATM    2  N   UNL     1      62.736   8.674   2.938  1.00  0.00    -0.308 N 
HETATM    3  N   UNL     1      61.720  10.628   3.314  1.00  0.00    -0.279 N 
ATOM      4  HN  UNL     1      61.404  11.481   3.776  1.00  0.00     0.188 HD
HETATM    5  C   UNL     1      62.052   9.007   1.789  1.00  0.00     0.194 A 
HETATM    6  N   UNL     1      61.431  10.214   2.051  1.00  0.00    -0.274 N 
HETATM    7  S   UNL     1      61.938   8.203   0.347  1.00  0.00    -0.039 SA
HETATM    8  C   UNL     1      63.504   7.450   3.108  1.00  0.00     0.160 C 
HETATM    9  H   UNL     1      60.860  10.703   1.415  1.00  0.00     0.189 HD
ENDROOT
BRANCH   1  10
HETATM   10  C   UNL     1      63.055   9.792   5.225  1.00  0.00     0.450 C 
HETATM   11  F   UNL     1      64.409   9.715   5.310  1.00  0.00    -0.163 F 
HETATM   12  F   UNL     1      62.716  10.967   5.823  1.00  0.00    -0.163 F 
HETATM   13  F   UNL     1      62.577   8.800   6.030  1.00  0.00    -0.163 F 
ENDBRANCH   1  10
TORSDOF 1
ENDMDL
