MODEL 1
REMARK VINA RESULT:      -5.5      0.000      0.000
REMARK  0 active torsions:
REMARK  status: ('A' for Active; 'I' for Inactive)
ROOT
HETATM    1  C   UNL     1      77.294   8.035  14.875  1.00  0.00     0.105 A 
HETATM    2  C   UNL     1      77.583   9.149  15.626  1.00  0.00     0.105 A 
HETATM    3  O   UNL     1      77.414   8.263  13.539  1.00  0.00    -0.323 OA
HETATM    4  O   UNL     1      77.922  10.218  14.859  1.00  0.00    -0.323 OA
HETATM    5  C   UNL     1      77.803   9.652  13.538  1.00  0.00     0.352 A 
HETATM    6  C   UNL     1      76.926   6.841  15.456  1.00  0.00     0.046 A 
HETATM    7  C   UNL     1      77.520   9.129  17.002  1.00  0.00     0.040 A 
HETATM    8  C   UNL     1      76.850   6.782  16.856  1.00  0.00    -0.059 A 
HETATM    9  C   UNL     1      77.149   7.930  17.621  1.00  0.00     0.010 A 
HETATM   10  C   UNL     1      76.449   5.496  17.518  1.00  0.00     0.048 C 
ENDROOT
TORSDOF 0
ENDMDL
MODEL 2
REMARK VINA RESULT:      -5.1     14.837     16.369
REMARK  0 active torsions:
REMARK  status: ('A' for Active; 'I' for Inactive)
ROOT
HETATM    1  C   UNL     1      72.196  23.304  14.951  1.00  0.00     0.105 A 
HETATM    2  C   UNL     1      72.444  22.534  13.840  1.00  0.00     0.105 A 
HETATM    3  O   UNL     1      73.263  23.360  15.794  1.00  0.00    -0.323 OA
HETATM    4  O   UNL     1      73.697  22.008  13.843  1.00  0.00    -0.323 OA
HETATM    5  C   UNL     1      74.206  22.528  15.088  1.00  0.00     0.352 A 
HETATM    6  C   UNL     1      70.984  23.930  15.147  1.00  0.00     0.046 A 
HETATM    7  C   UNL     1      71.491  22.348  12.862  1.00  0.00     0.040 A 
HETATM    8  C   UNL     1      69.988  23.763  14.173  1.00  0.00    -0.059 A 
HETATM    9  C   UNL     1      70.250  22.971  13.034  1.00  0.00     0.010 A 
HETATM   10  C   UNL     1      68.656  24.430  14.359  1.00  0.00     0.048 C 
ENDROOT
TORSDOF 0
ENDMDL
MODEL 3
REMARK VINA RESULT:      -5.0     15.140     16.646
REMARK  0 active torsions:
REMARK  status: ('A' for Active; 'I' for Inactive)
ROOT
HETATM    1  C   UNL     1      70.981  22.888  13.154  1.00  0.00     0.105 A 
HETATM    2  C   UNL     1      72.331  22.849  12.899  1.00  0.00     0.105 A 
HETATM    3  O   UNL     1      70.296  21.926  12.478  1.00  0.00    -0.323 OA
HETATM    4  O   UNL     1      72.666  21.859  12.030  1.00  0.00    -0.323 OA
HETATM    5  C   UNL     1      71.370  21.285  11.761  1.00  0.00     0.352 A 
HETATM    6  C   UNL     1      70.428  23.818  14.007  1.00  0.00     0.046 A 
HETATM    7  C   UNL     1      73.203  23.740  13.484  1.00  0.00     0.040 A 
HETATM    8  C   UNL     1      71.285  24.743  14.622  1.00  0.00    -0.059 A 
HETATM    9  C   UNL     1      72.671  24.697  14.355  1.00  0.00     0.010 A 
HETATM   10  C   UNL     1      70.712  25.771  15.554  1.00  0.00     0.048 C 
ENDROOT
TORSDOF 0
ENDMDL
MODEL 4
REMARK VINA RESULT:      -5.0     18.472     19.570
REMARK  0 active torsions:
REMARK  status: ('A' for Active; 'I' for Inactive)
ROOT
HETATM    1  C   UNL     1      62.739   9.679   4.171  1.00  0.00     0.105 A 
HETATM    2  C   UNL     1      62.181  10.833   3.676  1.00  0.00     0.105 A 
HETATM    3  O   UNL     1      63.116   9.801   5.472  1.00  0.00    -0.323 OA
HETATM    4  O   UNL     1      62.138  11.827   4.602  1.00  0.00    -0.323 OA
HETATM    5  C   UNL     1      62.741  11.168   5.734  1.00  0.00     0.352 A 
HETATM    6  C   UNL     1      62.879   8.548   3.396  1.00  0.00     0.046 A 
HETATM    7  C   UNL     1      61.732  10.919   2.376  1.00  0.00     0.040 A 
HETATM    8  C   UNL     1      62.435   8.598   2.066  1.00  0.00    -0.059 A 
HETATM    9  C   UNL     1      61.863   9.787   1.564  1.00  0.00     0.010 A 
HETATM   10  C   UNL     1      62.578   7.383   1.196  1.00  0.00     0.048 C 
ENDROOT
TORSDOF 0
ENDMDL
MODEL 5
REMARK VINA RESULT:      -4.9     18.278     19.384
REMARK  0 active torsions:
REMARK  status: ('A' for Active; 'I' for Inactive)
ROOT
HETATM    1  C   UNL     1      62.313  10.344   3.742  1.00  0.00     0.105 A 
HETATM    2  C   UNL     1      63.061   9.455   4.476  1.00  0.00     0.105 A 
HETATM    3  O   UNL     1      62.071  11.501   4.415  1.00  0.00    -0.323 OA
HETATM    4  O   UNL     1      63.383   9.939   5.704  1.00  0.00    -0.323 OA
HETATM    5  C   UNL     1      62.745  11.231   5.662  1.00  0.00     0.352 A 
HETATM    6  C   UNL     1      61.878  10.051   2.467  1.00  0.00     0.046 A 
HETATM    7  C   UNL     1      63.415   8.221   3.974  1.00  0.00     0.040 A 
HETATM    8  C   UNL     1      62.218   8.803   1.922  1.00  0.00    -0.059 A 
HETATM    9  C   UNL     1      62.987   7.895   2.683  1.00  0.00     0.010 A 
HETATM   10  C   UNL     1      61.757   8.453   0.538  1.00  0.00     0.048 C 
ENDROOT
TORSDOF 0
ENDMDL
MODEL 6
REMARK VINA RESULT:      -4.7     15.726     17.025
REMARK  0 active torsions:
REMARK  status: ('A' for Active; 'I' for Inactive)
ROOT
HETATM    1  C   UNL     1      70.750  24.074  14.154  1.00  0.00     0.105 A 
HETATM    2  C   UNL     1      72.043  24.524  14.282  1.00  0.00     0.105 A 
HETATM    3  O   UNL     1      69.867  24.817  14.873  1.00  0.00    -0.323 OA
HETATM    4  O   UNL     1      72.136  25.605  15.099  1.00  0.00    -0.323 OA
HETATM    5  C   UNL     1      70.755  25.779  15.478  1.00  0.00     0.352 A 
HETATM    6  C   UNL     1      70.434  22.986  13.370  1.00  0.00     0.046 A 
HETATM    7  C   UNL     1      73.090  23.908  13.633  1.00  0.00     0.040 A 
HETATM    8  C   UNL     1      71.474  22.331  12.694  1.00  0.00    -0.059 A 
HETATM    9  C   UNL     1      72.800  22.799  12.831  1.00  0.00     0.010 A 
HETATM   10  C   UNL     1      71.161  21.140  11.836  1.00  0.00     0.048 C 
ENDROOT
TORSDOF 0
ENDMDL
MODEL 7
REMARK VINA RESULT:      -4.7     16.025     17.366
REMARK  0 active torsions:
REMARK  status: ('A' for Active; 'I' for Inactive)
ROOT
HETATM    1  C   UNL     1      71.350  23.507  13.896  1.00  0.00     0.105 A 
HETATM    2  C   UNL     1      72.347  24.430  14.104  1.00  0.00     0.105 A 
HETATM    3  O   UNL     1      71.782  22.423  13.197  1.00  0.00    -0.323 OA
HETATM    4  O   UNL     1      73.532  24.045  13.561  1.00  0.00    -0.323 OA
HETATM    5  C   UNL     1      73.164  22.777  12.980  1.00  0.00     0.352 A 
HETATM    6  C   UNL     1      70.069  23.703  14.364  1.00  0.00     0.046 A 
HETATM    7  C   UNL     1      72.116  25.601  14.791  1.00  0.00     0.040 A 
HETATM    8  C   UNL     1      69.794  24.884  15.069  1.00  0.00    -0.059 A 
HETATM    9  C   UNL     1      70.824  25.828  15.278  1.00  0.00     0.010 A 
HETATM   10  C   UNL     1      68.408  25.128  15.588  1.00  0.00     0.048 C 
ENDROOT
TORSDOF 0
ENDMDL
MODEL 8
REMARK VINA RESULT:      -4.6     15.941     17.183
REMARK  0 active torsions:
REMARK  status: ('A' for Active; 'I' for Inactive)
ROOT
HETATM    1  C   UNL     1      70.889  24.288  14.709  1.00  0.00     0.105 A 
HETATM    2  C   UNL     1      70.032  23.626  13.863  1.00  0.00     0.105 A 
HETATM    3  O   UNL     1      70.241  25.154  15.534  1.00  0.00    -0.323 OA
HETATM    4  O   UNL     1      68.736  23.993  14.048  1.00  0.00    -0.323 OA
HETATM    5  C   UNL     1      68.878  24.968  15.101  1.00  0.00     0.352 A 
HETATM    6  C   UNL     1      72.249  24.065  14.686  1.00  0.00     0.046 A 
HETATM    7  C   UNL     1      70.488  22.704  12.947  1.00  0.00     0.040 A 
HETATM    8  C   UNL     1      72.752  23.133  13.766  1.00  0.00    -0.059 A 
HETATM    9  C   UNL     1      71.864  22.457  12.900  1.00  0.00     0.010 A 
HETATM   10  C   UNL     1      74.229  22.871  13.714  1.00  0.00     0.048 C 
ENDROOT
TORSDOF 0
ENDMDL
MODEL 9
REMARK VINA RESULT:      -4.5     12.687     13.401
REMARK  0 active torsions:
REMARK  status: ('A' for Active; 'I' for Inactive)
ROOT
HETATM    1  C   UNL     1      66.809   6.070   6.875  1.00  0.00     0.105 A 
HETATM    2  C   UNL     1      66.047   6.553   7.912  1.00  0.00     0.105 A 
HETATM    3  O   UNL     1      66.186   6.188   5.672  1.00  0.00    -0.323 OA
HETATM    4  O   UNL     1      64.848   7.037   7.492  1.00  0.00    -0.323 OA
HETATM    5  C   UNL     1      64.940   6.793   6.073  1.00  0.00     0.352 A 
HETATM    6  C   UNL     1      68.060   5.532   7.083  1.00  0.00     0.046 A 
HETATM    7  C   UNL     1      66.496   6.526   9.214  1.00  0.00     0.040 A 
HETATM    8  C   UNL     1      68.552   5.485   8.396  1.00  0.00    -0.059 A 
HETATM    9  C   UNL     1      67.763   5.985   9.456  1.00  0.00     0.010 A 
HETATM   10  C   UNL     1      69.911   4.902   8.654  1.00  0.00     0.048 C 
ENDROOT
TORSDOF 0
ENDMDL
