MODEL 1
REMARK VINA RESULT:      -5.7      0.000      0.000
REMARK  3 active torsions:
REMARK  status: ('A' for Active; 'I' for Inactive)
REMARK    1  A    between atoms: C_1  and  O_2 
REMARK    2  A    between atoms: O_2  and  C_3 
REMARK    3  A    between atoms: C_8  and  N_9 
ROOT
HETATM    1  C   UNL     1      71.810  22.573  13.332  1.00  0.00     0.080 C 
HETATM    2  C   UNL     1      70.722  23.268  13.868  1.00  0.00     0.066 C 
HETATM    3  C   UNL     1      70.917  24.452  14.590  1.00  0.00     0.028 C 
HETATM    4  C   UNL     1      73.278  24.357  14.050  1.00  0.00     0.005 C 
HETATM    5  C   UNL     1      73.086  23.139  13.408  1.00  0.00     0.037 C 
HETATM    6  C   UNL     1      72.197  25.013  14.633  1.00  0.00     0.029 C 
ENDROOT
BRANCH   1   7
HETATM    7  O   UNL     1      71.744  21.389  12.665  1.00  0.00    -0.255 OA
BRANCH   7   8
HETATM    8  C   UNL     1      71.388  21.403  11.289  1.00  0.00     0.530 C 
HETATM    9  F   UNL     1      70.583  22.428  10.935  1.00  0.00    -0.144 F 
HETATM   10  F   UNL     1      70.734  20.252  11.005  1.00  0.00    -0.144 F 
HETATM   11  F   UNL     1      72.508  21.447  10.535  1.00  0.00    -0.144 F 
ENDBRANCH   7   8
ENDBRANCH   1   7
BRANCH   3  12
HETATM   12  N   UNL     1      69.816  25.175  15.067  1.00  0.00    -0.399 N 
HETATM   13  H   UNL     1      69.400  24.931  15.925  1.00  0.00     0.156 HD
HETATM   14  H   UNL     1      69.459  25.929  14.544  1.00  0.00     0.156 HD
ENDBRANCH   3  12
TORSDOF 3
ENDMDL
MODEL 2
REMARK VINA RESULT:      -5.1      2.300      2.885
REMARK  3 active torsions:
REMARK  status: ('A' for Active; 'I' for Inactive)
REMARK    1  A    between atoms: C_1  and  O_2 
REMARK    2  A    between atoms: O_2  and  C_3 
REMARK    3  A    between atoms: C_8  and  N_9 
ROOT
HETATM    1  C   UNL     1      72.733  23.204  13.022  1.00  0.00     0.080 C 
HETATM    2  C   UNL     1      73.857  22.464  13.400  1.00  0.00     0.066 C 
HETATM    3  C   UNL     1      74.387  22.580  14.691  1.00  0.00     0.028 C 
HETATM    4  C   UNL     1      72.530  24.017  15.292  1.00  0.00     0.005 C 
HETATM    5  C   UNL     1      72.059  23.962  13.984  1.00  0.00     0.037 C 
HETATM    6  C   UNL     1      73.685  23.324  15.645  1.00  0.00     0.029 C 
ENDROOT
BRANCH   1   7
HETATM    7  O   UNL     1      72.169  23.215  11.784  1.00  0.00    -0.255 OA
BRANCH   7   8
HETATM    8  C   UNL     1      71.378  22.102  11.388  1.00  0.00     0.530 C 
HETATM    9  F   UNL     1      71.082  21.247  12.392  1.00  0.00    -0.144 F 
HETATM   10  F   UNL     1      72.059  21.407  10.447  1.00  0.00    -0.144 F 
HETATM   11  F   UNL     1      70.227  22.542  10.835  1.00  0.00    -0.144 F 
ENDBRANCH   7   8
ENDBRANCH   1   7
BRANCH   3  12
HETATM   12  N   UNL     1      75.473  21.786  15.080  1.00  0.00    -0.399 N 
HETATM   13  H   UNL     1      76.033  22.057  15.844  1.00  0.00     0.156 HD
HETATM   14  H   UNL     1      75.677  20.957  14.590  1.00  0.00     0.156 HD
ENDBRANCH   3  12
TORSDOF 3
ENDMDL
MODEL 3
REMARK VINA RESULT:      -5.1      1.679      2.367
REMARK  3 active torsions:
REMARK  status: ('A' for Active; 'I' for Inactive)
REMARK    1  A    between atoms: C_1  and  O_2 
REMARK    2  A    between atoms: O_2  and  C_3 
REMARK    3  A    between atoms: C_8  and  N_9 
ROOT
HETATM    1  C   UNL     1      71.945  22.353  12.315  1.00  0.00     0.080 C 
HETATM    2  C   UNL     1      72.843  22.656  13.343  1.00  0.00     0.066 C 
HETATM    3  C   UNL     1      72.422  23.367  14.473  1.00  0.00     0.028 C 
HETATM    4  C   UNL     1      70.147  23.283  13.642  1.00  0.00     0.005 C 
HETATM    5  C   UNL     1      70.589  22.651  12.484  1.00  0.00     0.037 C 
HETATM    6  C   UNL     1      71.059  23.633  14.634  1.00  0.00     0.029 C 
ENDROOT
BRANCH   1   7
HETATM    7  O   UNL     1      72.254  21.721  11.151  1.00  0.00    -0.255 OA
BRANCH   7   8
HETATM    8  C   UNL     1      71.631  20.475  10.869  1.00  0.00     0.530 C 
HETATM    9  F   UNL     1      71.241  19.789  11.966  1.00  0.00    -0.144 F 
HETATM   10  F   UNL     1      72.513  19.700  10.195  1.00  0.00    -0.144 F 
HETATM   11  F   UNL     1      70.558  20.677  10.076  1.00  0.00    -0.144 F 
ENDBRANCH   7   8
ENDBRANCH   1   7
BRANCH   3  12
HETATM   12  N   UNL     1      73.314  23.607  15.526  1.00  0.00    -0.399 N 
HETATM   13  H   UNL     1      74.267  23.382  15.427  1.00  0.00     0.156 HD
HETATM   14  H   UNL     1      72.986  24.002  16.367  1.00  0.00     0.156 HD
ENDBRANCH   3  12
TORSDOF 3
ENDMDL
MODEL 4
REMARK VINA RESULT:      -4.7     19.876     20.969
REMARK  3 active torsions:
REMARK  status: ('A' for Active; 'I' for Inactive)
REMARK    1  A    between atoms: C_1  and  O_2 
REMARK    2  A    between atoms: O_2  and  C_3 
REMARK    3  A    between atoms: C_8  and  N_9 
ROOT
HETATM    1  C   UNL     1      76.518   3.410  17.851  1.00  0.00     0.080 C 
HETATM    2  C   UNL     1      77.319   2.264  17.846  1.00  0.00     0.066 C 
HETATM    3  C   UNL     1      76.831   1.053  17.340  1.00  0.00     0.028 C 
HETATM    4  C   UNL     1      74.808   2.194  16.645  1.00  0.00     0.005 C 
HETATM    5  C   UNL     1      75.268   3.371  17.225  1.00  0.00     0.037 C 
HETATM    6  C   UNL     1      75.589   1.042  16.697  1.00  0.00     0.029 C 
ENDROOT
BRANCH   1   7
HETATM    7  O   UNL     1      76.865   4.619  18.367  1.00  0.00    -0.255 OA
BRANCH   7   8
HETATM    8  C   UNL     1      76.656   5.781  17.574  1.00  0.00     0.530 C 
HETATM    9  F   UNL     1      76.566   5.539  16.248  1.00  0.00    -0.144 F 
HETATM   10  F   UNL     1      77.699   6.622  17.766  1.00  0.00    -0.144 F 
HETATM   11  F   UNL     1      75.531   6.407  17.981  1.00  0.00    -0.144 F 
ENDBRANCH   7   8
ENDBRANCH   1   7
BRANCH   3  12
HETATM   12  N   UNL     1      77.663  -0.071  17.279  1.00  0.00    -0.399 N 
HETATM   13  H   UNL     1      77.309  -0.929  16.951  1.00  0.00     0.156 HD
HETATM   14  H   UNL     1      78.603  -0.004  17.564  1.00  0.00     0.156 HD
ENDBRANCH   3  12
TORSDOF 3
ENDMDL
MODEL 5
REMARK VINA RESULT:      -4.7     17.831     19.028
REMARK  3 active torsions:
REMARK  status: ('A' for Active; 'I' for Inactive)
REMARK    1  A    between atoms: C_1  and  O_2 
REMARK    2  A    between atoms: O_2  and  C_3 
REMARK    3  A    between atoms: C_8  and  N_9 
ROOT
HETATM    1  C   UNL     1      68.233   5.069   8.176  1.00  0.00     0.080 C 
HETATM    2  C   UNL     1      67.523   3.964   8.653  1.00  0.00     0.066 C 
HETATM    3  C   UNL     1      68.171   2.961   9.385  1.00  0.00     0.028 C 
HETATM    4  C   UNL     1      70.200   4.286   9.346  1.00  0.00     0.005 C 
HETATM    5  C   UNL     1      69.570   5.235   8.548  1.00  0.00     0.037 C 
HETATM    6  C   UNL     1      69.502   3.157   9.767  1.00  0.00     0.029 C 
ENDROOT
BRANCH   1   7
HETATM    7  O   UNL     1      67.722   6.069   7.409  1.00  0.00    -0.255 OA
BRANCH   7   8
HETATM    8  C   UNL     1      66.767   6.950   7.988  1.00  0.00     0.530 C 
HETATM    9  F   UNL     1      65.491   6.512   7.910  1.00  0.00    -0.144 F 
HETATM   10  F   UNL     1      66.833   8.137   7.341  1.00  0.00    -0.144 F 
HETATM   11  F   UNL     1      67.078   7.160   9.285  1.00  0.00    -0.144 F 
ENDBRANCH   7   8
ENDBRANCH   1   7
BRANCH   3  12
HETATM   12  N   UNL     1      67.439   1.891   9.915  1.00  0.00    -0.399 N 
HETATM   13  H   UNL     1      67.369   1.776  10.890  1.00  0.00     0.156 HD
HETATM   14  H   UNL     1      66.993   1.253   9.311  1.00  0.00     0.156 HD
ENDBRANCH   3  12
TORSDOF 3
ENDMDL
MODEL 6
REMARK VINA RESULT:      -4.5     18.054     19.562
REMARK  3 active torsions:
REMARK  status: ('A' for Active; 'I' for Inactive)
REMARK    1  A    between atoms: C_1  and  O_2 
REMARK    2  A    between atoms: O_2  and  C_3 
REMARK    3  A    between atoms: C_8  and  N_9 
ROOT
HETATM    1  C   UNL     1      68.475   4.670   8.390  1.00  0.00     0.080 C 
HETATM    2  C   UNL     1      68.956   4.207   9.618  1.00  0.00     0.066 C 
HETATM    3  C   UNL     1      69.269   2.854   9.798  1.00  0.00     0.028 C 
HETATM    4  C   UNL     1      68.822   2.468   7.447  1.00  0.00     0.005 C 
HETATM    5  C   UNL     1      68.433   3.796   7.299  1.00  0.00     0.037 C 
HETATM    6  C   UNL     1      69.244   2.002   8.689  1.00  0.00     0.029 C 
ENDROOT
BRANCH   1   7
HETATM    7  O   UNL     1      68.087   5.945   8.119  1.00  0.00    -0.255 OA
BRANCH   7   8
HETATM    8  C   UNL     1      66.841   6.399   8.632  1.00  0.00     0.530 C 
HETATM    9  F   UNL     1      66.898   6.853   9.904  1.00  0.00    -0.144 F 
HETATM   10  F   UNL     1      65.966   5.367   8.605  1.00  0.00    -0.144 F 
HETATM   11  F   UNL     1      66.359   7.380   7.840  1.00  0.00    -0.144 F 
ENDBRANCH   7   8
ENDBRANCH   1   7
BRANCH   3  12
HETATM   12  N   UNL     1      69.812   2.412  11.011  1.00  0.00    -0.399 N 
HETATM   13  H   UNL     1      70.017   1.458  11.140  1.00  0.00     0.156 HD
HETATM   14  H   UNL     1      69.988   3.056  11.735  1.00  0.00     0.156 HD
ENDBRANCH   3  12
TORSDOF 3
ENDMDL
MODEL 7
REMARK VINA RESULT:      -4.5     18.070     19.289
REMARK  3 active torsions:
REMARK  status: ('A' for Active; 'I' for Inactive)
REMARK    1  A    between atoms: C_1  and  O_2 
REMARK    2  A    between atoms: O_2  and  C_3 
REMARK    3  A    between atoms: C_8  and  N_9 
ROOT
HETATM    1  C   UNL     1      62.271   8.741   3.424  1.00  0.00     0.080 C 
HETATM    2  C   UNL     1      62.315   9.883   4.229  1.00  0.00     0.066 C 
HETATM    3  C   UNL     1      63.302  10.026   5.212  1.00  0.00     0.028 C 
HETATM    4  C   UNL     1      64.333   7.975   4.433  1.00  0.00     0.005 C 
HETATM    5  C   UNL     1      63.300   7.800   3.517  1.00  0.00     0.037 C 
HETATM    6  C   UNL     1      64.336   9.086   5.272  1.00  0.00     0.029 C 
ENDROOT
BRANCH   1   7
HETATM    7  O   UNL     1      61.328   8.471   2.482  1.00  0.00    -0.255 OA
BRANCH   7   8
HETATM    8  C   UNL     1      61.566   8.887   1.143  1.00  0.00     0.530 C 
HETATM    9  F   UNL     1      62.549   8.203   0.517  1.00  0.00    -0.144 F 
HETATM   10  F   UNL     1      61.922  10.192   1.159  1.00  0.00    -0.144 F 
HETATM   11  F   UNL     1      60.428   8.769   0.427  1.00  0.00    -0.144 F 
ENDBRANCH   7   8
ENDBRANCH   1   7
BRANCH   3  12
HETATM   12  N   UNL     1      63.378  11.202   5.969  1.00  0.00    -0.399 N 
HETATM   13  H   UNL     1      63.475  11.153   6.947  1.00  0.00     0.156 HD
HETATM   14  H   UNL     1      63.334  12.078   5.522  1.00  0.00     0.156 HD
ENDBRANCH   3  12
TORSDOF 3
ENDMDL
MODEL 8
REMARK VINA RESULT:      -4.5     17.922     18.373
REMARK  3 active torsions:
REMARK  status: ('A' for Active; 'I' for Inactive)
REMARK    1  A    between atoms: C_1  and  O_2 
REMARK    2  A    between atoms: O_2  and  C_3 
REMARK    3  A    between atoms: C_8  and  N_9 
ROOT
HETATM    1  C   UNL     1      67.249   5.940   6.954  1.00  0.00     0.080 C 
HETATM    2  C   UNL     1      65.880   6.165   7.122  1.00  0.00     0.066 C 
HETATM    3  C   UNL     1      65.233   7.190   6.421  1.00  0.00     0.028 C 
HETATM    4  C   UNL     1      67.292   7.624   5.217  1.00  0.00     0.005 C 
HETATM    5  C   UNL     1      67.945   6.661   5.979  1.00  0.00     0.037 C 
HETATM    6  C   UNL     1      65.941   7.883   5.433  1.00  0.00     0.029 C 
ENDROOT
BRANCH   1   7
HETATM    7  O   UNL     1      67.989   5.015   7.622  1.00  0.00    -0.255 OA
BRANCH   7   8
HETATM    8  C   UNL     1      68.651   5.410   8.817  1.00  0.00     0.530 C 
HETATM    9  F   UNL     1      68.126   6.507   9.406  1.00  0.00    -0.144 F 
HETATM   10  F   UNL     1      69.943   5.685   8.519  1.00  0.00    -0.144 F 
HETATM   11  F   UNL     1      68.632   4.389   9.700  1.00  0.00    -0.144 F 
ENDBRANCH   7   8
ENDBRANCH   1   7
BRANCH   3  12
HETATM   12  N   UNL     1      63.849   7.366   6.546  1.00  0.00    -0.399 N 
HETATM   13  H   UNL     1      63.263   7.233   5.766  1.00  0.00     0.156 HD
HETATM   14  H   UNL     1      63.463   7.622   7.414  1.00  0.00     0.156 HD
ENDBRANCH   3  12
TORSDOF 3
ENDMDL
MODEL 9
REMARK VINA RESULT:      -4.3     18.115     19.238
REMARK  3 active torsions:
REMARK  status: ('A' for Active; 'I' for Inactive)
REMARK    1  A    between atoms: C_1  and  O_2 
REMARK    2  A    between atoms: O_2  and  C_3 
REMARK    3  A    between atoms: C_8  and  N_9 
ROOT
HETATM    1  C   UNL     1      62.726   8.551   3.639  1.00  0.00     0.080 C 
HETATM    2  C   UNL     1      62.297   9.873   3.492  1.00  0.00     0.066 C 
HETATM    3  C   UNL     1      61.993  10.388   2.225  1.00  0.00     0.028 C 
HETATM    4  C   UNL     1      62.342   8.184   1.279  1.00  0.00     0.005 C 
HETATM    5  C   UNL     1      62.724   7.704   2.527  1.00  0.00     0.037 C 
HETATM    6  C   UNL     1      61.973   9.518   1.130  1.00  0.00     0.029 C 
ENDROOT
BRANCH   1   7
HETATM    7  O   UNL     1      63.102   7.964   4.808  1.00  0.00    -0.255 OA
BRANCH   7   8
HETATM    8  C   UNL     1      64.453   8.095   5.230  1.00  0.00     0.530 C 
HETATM    9  F   UNL     1      64.834   9.367   5.484  1.00  0.00    -0.144 F 
HETATM   10  F   UNL     1      65.255   7.616   4.251  1.00  0.00    -0.144 F 
HETATM   11  F   UNL     1      64.652   7.351   6.339  1.00  0.00    -0.144 F 
ENDBRANCH   7   8
ENDBRANCH   1   7
BRANCH   3  12
HETATM   12  N   UNL     1      61.501  11.693   2.094  1.00  0.00    -0.399 N 
HETATM   13  H   UNL     1      60.786  12.011   2.691  1.00  0.00     0.156 HD
HETATM   14  H   UNL     1      61.872  12.291   1.406  1.00  0.00     0.156 HD
ENDBRANCH   3  12
TORSDOF 3
ENDMDL
