MODEL 1
REMARK VINA RESULT:      -5.8      0.000      0.000
REMARK  3 active torsions:
REMARK  status: ('A' for Active; 'I' for Inactive)
REMARK    1  A    between atoms: C_1  and  C_3 
REMARK    2  A    between atoms: C_2  and  C_3 
REMARK    3  A    between atoms: C_4  and  O_7 
ROOT
HETATM    1  C   UNL     1      78.119  11.124  19.460  1.00  0.00    -0.015 A 
HETATM    2  C   UNL     1      78.740  11.731  20.560  1.00  0.00     0.072 A 
HETATM    3  C   UNL     1      76.906  11.671  19.007  1.00  0.00     0.010 A 
HETATM    4  C   UNL     1      78.175  12.839  21.190  1.00  0.00     0.037 A 
HETATM    5  C   UNL     1      76.342  12.788  19.629  1.00  0.00     0.001 A 
HETATM    6  C   UNL     1      76.977  13.373  20.721  1.00  0.00     0.003 A 
ENDROOT
BRANCH   1   7
HETATM    7  C   UNL     1      78.644   9.872  18.796  1.00  0.00     0.154 C 
BRANCH   7   8
HETATM    8  C   UNL     1      77.646   9.140  17.923  1.00  0.00     0.177 C 
HETATM    9  O   UNL     1      77.519   9.306  16.719  1.00  0.00    -0.648 OA
HETATM   10  O   UNL     1      76.941   8.195  18.591  1.00  0.00    -0.648 OA
ENDBRANCH   7   8
ENDBRANCH   1   7
BRANCH   2  11
HETATM   11  O   UNL     1      79.918  11.270  21.072  1.00  0.00    -0.360 OA
HETATM   12  H   UNL     1      80.665  11.173  20.515  1.00  0.00     0.217 HD
ENDBRANCH   2  11
TORSDOF 3
ENDMDL
MODEL 2
REMARK VINA RESULT:      -5.6      2.350      5.284
REMARK  3 active torsions:
REMARK  status: ('A' for Active; 'I' for Inactive)
REMARK    1  A    between atoms: C_1  and  C_3 
REMARK    2  A    between atoms: C_2  and  C_3 
REMARK    3  A    between atoms: C_4  and  O_7 
ROOT
HETATM    1  C   UNL     1      77.316   8.539  17.353  1.00  0.00    -0.015 A 
HETATM    2  C   UNL     1      76.920   7.223  17.077  1.00  0.00     0.072 A 
HETATM    3  C   UNL     1      77.642   9.367  16.265  1.00  0.00     0.010 A 
HETATM    4  C   UNL     1      76.856   6.745  15.769  1.00  0.00     0.037 A 
HETATM    5  C   UNL     1      77.570   8.895  14.952  1.00  0.00     0.001 A 
HETATM    6  C   UNL     1      77.175   7.583  14.704  1.00  0.00     0.003 A 
ENDROOT
BRANCH   1   7
HETATM    7  C   UNL     1      77.485   9.081  18.754  1.00  0.00     0.154 C 
BRANCH   7   8
HETATM    8  C   UNL     1      78.077  10.472  18.839  1.00  0.00     0.177 C 
HETATM    9  O   UNL     1      77.439  11.509  18.737  1.00  0.00    -0.648 OA
HETATM   10  O   UNL     1      79.400  10.475  19.132  1.00  0.00    -0.648 OA
ENDBRANCH   7   8
ENDBRANCH   1   7
BRANCH   2  11
HETATM   11  O   UNL     1      76.586   6.345  18.068  1.00  0.00    -0.360 OA
HETATM   12  H   UNL     1      77.151   6.236  18.807  1.00  0.00     0.217 HD
ENDBRANCH   2  11
TORSDOF 3
ENDMDL
MODEL 3
REMARK VINA RESULT:      -5.5      1.633      2.294
REMARK  3 active torsions:
REMARK  status: ('A' for Active; 'I' for Inactive)
REMARK    1  A    between atoms: C_1  and  C_3 
REMARK    2  A    between atoms: C_2  and  C_3 
REMARK    3  A    between atoms: C_4  and  O_7 
ROOT
HETATM    1  C   UNL     1      77.626  11.116  19.326  1.00  0.00    -0.015 A 
HETATM    2  C   UNL     1      76.967  12.073  18.542  1.00  0.00     0.072 A 
HETATM    3  C   UNL     1      77.653  11.314  20.717  1.00  0.00     0.010 A 
HETATM    4  C   UNL     1      76.361  13.189  19.118  1.00  0.00     0.037 A 
HETATM    5  C   UNL     1      77.038  12.425  21.300  1.00  0.00     0.001 A 
HETATM    6  C   UNL     1      76.390  13.363  20.500  1.00  0.00     0.003 A 
ENDROOT
BRANCH   1   7
HETATM    7  C   UNL     1      78.372   9.937  18.746  1.00  0.00     0.154 C 
BRANCH   7   8
HETATM    8  C   UNL     1      77.509   8.914  18.037  1.00  0.00     0.177 C 
HETATM    9  O   UNL     1      76.850   8.050  18.595  1.00  0.00    -0.648 OA
HETATM   10  O   UNL     1      77.458   9.094  16.694  1.00  0.00    -0.648 OA
ENDBRANCH   7   8
ENDBRANCH   1   7
BRANCH   2  11
HETATM   11  O   UNL     1      76.891  11.968  17.183  1.00  0.00    -0.360 OA
HETATM   12  H   UNL     1      76.128  11.597  16.785  1.00  0.00     0.217 HD
ENDBRANCH   2  11
TORSDOF 3
ENDMDL
MODEL 4
REMARK VINA RESULT:      -5.4      2.481      5.258
REMARK  3 active torsions:
REMARK  status: ('A' for Active; 'I' for Inactive)
REMARK    1  A    between atoms: C_1  and  C_3 
REMARK    2  A    between atoms: C_2  and  C_3 
REMARK    3  A    between atoms: C_4  and  O_7 
ROOT
HETATM    1  C   UNL     1      77.241   8.413  17.459  1.00  0.00    -0.015 A 
HETATM    2  C   UNL     1      77.469   9.040  16.227  1.00  0.00     0.072 A 
HETATM    3  C   UNL     1      76.890   7.052  17.447  1.00  0.00     0.010 A 
HETATM    4  C   UNL     1      77.347   8.342  15.025  1.00  0.00     0.037 A 
HETATM    5  C   UNL     1      76.777   6.346  16.247  1.00  0.00     0.001 A 
HETATM    6  C   UNL     1      77.007   6.991  15.035  1.00  0.00     0.003 A 
ENDROOT
BRANCH   1   7
HETATM    7  C   UNL     1      77.275   9.142  18.782  1.00  0.00     0.154 C 
BRANCH   7   8
HETATM    8  C   UNL     1      78.314  10.239  18.887  1.00  0.00     0.177 C 
HETATM    9  O   UNL     1      79.522  10.058  18.885  1.00  0.00    -0.648 OA
HETATM   10  O   UNL     1      77.780  11.485  18.899  1.00  0.00    -0.648 OA
ENDBRANCH   7   8
ENDBRANCH   1   7
BRANCH   2  11
HETATM   11  O   UNL     1      77.812  10.358  16.137  1.00  0.00    -0.360 OA
HETATM   12  H   UNL     1      77.593  10.947  16.832  1.00  0.00     0.217 HD
ENDBRANCH   2  11
TORSDOF 3
ENDMDL
MODEL 5
REMARK VINA RESULT:      -5.1     20.005     21.552
REMARK  3 active torsions:
REMARK  status: ('A' for Active; 'I' for Inactive)
REMARK    1  A    between atoms: C_1  and  C_3 
REMARK    2  A    between atoms: C_2  and  C_3 
REMARK    3  A    between atoms: C_4  and  O_7 
ROOT
HETATM    1  C   UNL     1      62.835   9.231   3.884  1.00  0.00    -0.015 A 
HETATM    2  C   UNL     1      62.471  10.559   4.144  1.00  0.00     0.072 A 
HETATM    3  C   UNL     1      62.605   8.729   2.591  1.00  0.00     0.010 A 
HETATM    4  C   UNL     1      61.896  11.359   3.157  1.00  0.00     0.037 A 
HETATM    5  C   UNL     1      62.039   9.530   1.597  1.00  0.00     0.001 A 
HETATM    6  C   UNL     1      61.685  10.846   1.879  1.00  0.00     0.003 A 
ENDROOT
BRANCH   1   7
HETATM    7  C   UNL     1      63.381   8.297   4.939  1.00  0.00     0.154 C 
BRANCH   7   8
HETATM    8  C   UNL     1      64.871   8.406   5.188  1.00  0.00     0.177 C 
HETATM    9  O   UNL     1      65.714   7.668   4.702  1.00  0.00    -0.648 OA
HETATM   10  O   UNL     1      65.211   9.474   5.950  1.00  0.00    -0.648 OA
ENDBRANCH   7   8
ENDBRANCH   1   7
BRANCH   2  11
HETATM   11  O   UNL     1      62.653  11.134   5.369  1.00  0.00    -0.360 OA
HETATM   12  H   UNL     1      62.711  10.596   6.133  1.00  0.00     0.217 HD
ENDBRANCH   2  11
TORSDOF 3
ENDMDL
MODEL 6
REMARK VINA RESULT:      -5.1     20.623     22.334
REMARK  3 active torsions:
REMARK  status: ('A' for Active; 'I' for Inactive)
REMARK    1  A    between atoms: C_1  and  C_3 
REMARK    2  A    between atoms: C_2  and  C_3 
REMARK    3  A    between atoms: C_4  and  O_7 
ROOT
HETATM    1  C   UNL     1      62.557   8.897   3.513  1.00  0.00    -0.015 A 
HETATM    2  C   UNL     1      61.924   9.980   2.888  1.00  0.00     0.072 A 
HETATM    3  C   UNL     1      62.944   7.811   2.709  1.00  0.00     0.010 A 
HETATM    4  C   UNL     1      61.679   9.983   1.516  1.00  0.00     0.037 A 
HETATM    5  C   UNL     1      62.710   7.814   1.332  1.00  0.00     0.001 A 
HETATM    6  C   UNL     1      62.078   8.901   0.734  1.00  0.00     0.003 A 
ENDROOT
BRANCH   1   7
HETATM    7  C   UNL     1      62.768   8.806   5.007  1.00  0.00     0.154 C 
BRANCH   7   8
HETATM    8  C   UNL     1      63.899   9.654   5.550  1.00  0.00     0.177 C 
HETATM    9  O   UNL     1      65.068   9.304   5.607  1.00  0.00    -0.648 OA
HETATM   10  O   UNL     1      63.511  10.904   5.903  1.00  0.00    -0.648 OA
ENDBRANCH   7   8
ENDBRANCH   1   7
BRANCH   2  11
HETATM   11  O   UNL     1      61.510  11.077   3.586  1.00  0.00    -0.360 OA
HETATM   12  H   UNL     1      61.767  11.188   4.480  1.00  0.00     0.217 HD
ENDBRANCH   2  11
TORSDOF 3
ENDMDL
MODEL 7
REMARK VINA RESULT:      -5.0     20.205     21.821
REMARK  3 active torsions:
REMARK  status: ('A' for Active; 'I' for Inactive)
REMARK    1  A    between atoms: C_1  and  C_3 
REMARK    2  A    between atoms: C_2  and  C_3 
REMARK    3  A    between atoms: C_4  and  O_7 
ROOT
HETATM    1  C   UNL     1      62.656   9.379   3.989  1.00  0.00    -0.015 A 
HETATM    2  C   UNL     1      62.572   8.896   2.676  1.00  0.00     0.072 A 
HETATM    3  C   UNL     1      62.287  10.715   4.221  1.00  0.00     0.010 A 
HETATM    4  C   UNL     1      62.140   9.711   1.630  1.00  0.00     0.037 A 
HETATM    5  C   UNL     1      61.844  11.532   3.179  1.00  0.00     0.001 A 
HETATM    6  C   UNL     1      61.769  11.030   1.882  1.00  0.00     0.003 A 
ENDROOT
BRANCH   1   7
HETATM    7  C   UNL     1      63.198   8.565   5.141  1.00  0.00     0.154 C 
BRANCH   7   8
HETATM    8  C   UNL     1      64.700   8.370   5.142  1.00  0.00     0.177 C 
HETATM    9  O   UNL     1      65.297   7.546   4.466  1.00  0.00    -0.648 OA
HETATM   10  O   UNL     1      65.357   9.269   5.915  1.00  0.00    -0.648 OA
ENDBRANCH   7   8
ENDBRANCH   1   7
BRANCH   2  11
HETATM   11  O   UNL     1      62.911   7.614   2.353  1.00  0.00    -0.360 OA
HETATM   12  H   UNL     1      62.556   7.216   1.583  1.00  0.00     0.217 HD
ENDBRANCH   2  11
TORSDOF 3
ENDMDL
MODEL 8
REMARK VINA RESULT:      -5.0     20.644     21.712
REMARK  3 active torsions:
REMARK  status: ('A' for Active; 'I' for Inactive)
REMARK    1  A    between atoms: C_1  and  C_3 
REMARK    2  A    between atoms: C_2  and  C_3 
REMARK    3  A    between atoms: C_4  and  O_7 
ROOT
HETATM    1  C   UNL     1      62.882   9.127   3.996  1.00  0.00    -0.015 A 
HETATM    2  C   UNL     1      62.643  10.368   4.601  1.00  0.00     0.072 A 
HETATM    3  C   UNL     1      62.508   8.972   2.650  1.00  0.00     0.010 A 
HETATM    4  C   UNL     1      62.051  11.416   3.897  1.00  0.00     0.037 A 
HETATM    5  C   UNL     1      61.924  10.022   1.937  1.00  0.00     0.001 A 
HETATM    6  C   UNL     1      61.695  11.246   2.561  1.00  0.00     0.003 A 
ENDROOT
BRANCH   1   7
HETATM    7  C   UNL     1      63.441   7.934   4.736  1.00  0.00     0.154 C 
BRANCH   7   8
HETATM    8  C   UNL     1      62.568   7.403   5.854  1.00  0.00     0.177 C 
HETATM    9  O   UNL     1      62.640   7.755   7.022  1.00  0.00    -0.648 OA
HETATM   10  O   UNL     1      61.615   6.540   5.427  1.00  0.00    -0.648 OA
ENDBRANCH   7   8
ENDBRANCH   1   7
BRANCH   2  11
HETATM   11  O   UNL     1      62.970  10.613   5.904  1.00  0.00    -0.360 OA
HETATM   12  H   UNL     1      62.498  11.259   6.391  1.00  0.00     0.217 HD
ENDBRANCH   2  11
TORSDOF 3
ENDMDL
MODEL 9
REMARK VINA RESULT:      -5.0     19.146     20.396
REMARK  3 active torsions:
REMARK  status: ('A' for Active; 'I' for Inactive)
REMARK    1  A    between atoms: C_1  and  C_3 
REMARK    2  A    between atoms: C_2  and  C_3 
REMARK    3  A    between atoms: C_4  and  O_7 
ROOT
HETATM    1  C   UNL     1      63.989   9.155   4.785  1.00  0.00    -0.015 A 
HETATM    2  C   UNL     1      63.610  10.429   5.226  1.00  0.00     0.072 A 
HETATM    3  C   UNL     1      63.216   8.553   3.776  1.00  0.00     0.010 A 
HETATM    4  C   UNL     1      62.501  11.082   4.689  1.00  0.00     0.037 A 
HETATM    5  C   UNL     1      62.111   9.207   3.228  1.00  0.00     0.001 A 
HETATM    6  C   UNL     1      61.753  10.473   3.684  1.00  0.00     0.003 A 
ENDROOT
BRANCH   1   7
HETATM    7  C   UNL     1      65.128   8.369   5.392  1.00  0.00     0.154 C 
BRANCH   7   8
HETATM    8  C   UNL     1      64.716   7.150   6.191  1.00  0.00     0.177 C 
HETATM    9  O   UNL     1      63.867   7.146   7.069  1.00  0.00    -0.648 OA
HETATM   10  O   UNL     1      65.325   6.010   5.783  1.00  0.00    -0.648 OA
ENDBRANCH   7   8
ENDBRANCH   1   7
BRANCH   2  11
HETATM   11  O   UNL     1      64.297  11.092   6.202  1.00  0.00    -0.360 OA
HETATM   12  H   UNL     1      65.211  11.266   6.095  1.00  0.00     0.217 HD
ENDBRANCH   2  11
TORSDOF 3
ENDMDL
