MODEL 1
REMARK VINA RESULT:      -4.4      0.000      0.000
REMARK  2 active torsions:
REMARK  status: ('A' for Active; 'I' for Inactive)
REMARK    1  A    between atoms: N_1  and  C_10 
REMARK    2  A    between atoms: C_9  and  C_10 
ROOT
HETATM    1  N   UNL     1      71.453  20.332  10.269  1.00  0.00    -0.197 NA
HETATM    2  C   UNL     1      71.217  21.036  11.160  1.00  0.00     0.060 C 
HETATM    3  C   UNL     1      70.939  21.941  12.284  1.00  0.00     0.144 C 
ENDROOT
BRANCH   3   4
HETATM    4  C   UNL     1      71.970  23.062  12.313  1.00  0.00     0.144 C 
BRANCH   4   5
HETATM    5  N   UNL     1      72.580  23.226  13.618  1.00  0.00    -0.345 N 
HETATM    6  C   UNL     1      72.072  23.890  14.712  1.00  0.00     0.079 A 
HETATM    7  N   UNL     1      72.878  23.750  15.746  1.00  0.00    -0.355 N 
HETATM    8  C   UNL     1      70.792  24.643  14.742  1.00  0.00     0.089 C 
HETATM    9  C   UNL     1      73.926  22.986  15.315  1.00  0.00     0.106 A 
ATOM     10  HN  UNL     1      72.745  24.134  16.681  1.00  0.00     0.166 HD
HETATM   11  C   UNL     1      73.773  22.663  13.989  1.00  0.00     0.109 A 
ENDBRANCH   4   5
ENDBRANCH   3   4
TORSDOF 2
ENDMDL
MODEL 2
REMARK VINA RESULT:      -3.9     18.150     19.139
REMARK  2 active torsions:
REMARK  status: ('A' for Active; 'I' for Inactive)
REMARK    1  A    between atoms: N_1  and  C_10 
REMARK    2  A    between atoms: C_9  and  C_10 
ROOT
HETATM    1  N   UNL     1      64.963   6.845   7.034  1.00  0.00    -0.197 NA
HETATM    2  C   UNL     1      64.890   7.503   6.081  1.00  0.00     0.060 C 
HETATM    3  C   UNL     1      64.774   8.326   4.870  1.00  0.00     0.144 C 
ENDROOT
BRANCH   3   4
HETATM    4  C   UNL     1      63.390   8.155   4.257  1.00  0.00     0.144 C 
BRANCH   4   5
HETATM    5  N   UNL     1      62.773   9.419   3.909  1.00  0.00    -0.345 N 
HETATM    6  C   UNL     1      62.128   9.752   2.739  1.00  0.00     0.079 A 
HETATM    7  N   UNL     1      61.622  10.967   2.825  1.00  0.00    -0.355 N 
HETATM    8  C   UNL     1      61.997   8.871   1.549  1.00  0.00     0.089 C 
HETATM    9  C   UNL     1      61.946  11.430   4.069  1.00  0.00     0.106 A 
ATOM     10  HN  UNL     1      61.094  11.461   2.106  1.00  0.00     0.166 HD
HETATM   11  C   UNL     1      62.678  10.493   4.756  1.00  0.00     0.109 A 
ENDBRANCH   4   5
ENDBRANCH   3   4
TORSDOF 2
ENDMDL
MODEL 3
REMARK VINA RESULT:      -3.7     18.251     20.173
REMARK  2 active torsions:
REMARK  status: ('A' for Active; 'I' for Inactive)
REMARK    1  A    between atoms: N_1  and  C_10 
REMARK    2  A    between atoms: C_9  and  C_10 
ROOT
HETATM    1  N   UNL     1      67.004   0.973  11.469  1.00  0.00    -0.197 NA
HETATM    2  C   UNL     1      67.583   1.219  10.495  1.00  0.00     0.060 C 
HETATM    3  C   UNL     1      68.329   1.550   9.273  1.00  0.00     0.144 C 
ENDROOT
BRANCH   3   4
HETATM    4  C   UNL     1      69.321   2.670   9.559  1.00  0.00     0.144 C 
BRANCH   4   5
HETATM    5  N   UNL     1      68.881   3.952   9.046  1.00  0.00    -0.345 N 
HETATM    6  C   UNL     1      69.651   5.050   8.735  1.00  0.00     0.079 A 
HETATM    7  N   UNL     1      68.902   6.001   8.213  1.00  0.00    -0.355 N 
HETATM    8  C   UNL     1      71.120   5.153   8.936  1.00  0.00     0.089 C 
HETATM    9  C   UNL     1      67.626   5.514   8.187  1.00  0.00     0.106 A 
ATOM     10  HN  UNL     1      69.214   6.917   7.892  1.00  0.00     0.166 HD
HETATM   11  C   UNL     1      67.583   4.247   8.717  1.00  0.00     0.109 A 
ENDBRANCH   4   5
ENDBRANCH   3   4
TORSDOF 2
ENDMDL
MODEL 4
REMARK VINA RESULT:      -3.6     18.523     20.161
REMARK  2 active torsions:
REMARK  status: ('A' for Active; 'I' for Inactive)
REMARK    1  A    between atoms: N_1  and  C_10 
REMARK    2  A    between atoms: C_9  and  C_10 
ROOT
HETATM    1  N   UNL     1      65.738   4.966   8.251  1.00  0.00    -0.197 NA
HETATM    2  C   UNL     1      66.727   5.406   8.668  1.00  0.00     0.060 C 
HETATM    3  C   UNL     1      67.992   5.947   9.183  1.00  0.00     0.144 C 
ENDROOT
BRANCH   3   4
HETATM    4  C   UNL     1      69.166   5.242   8.518  1.00  0.00     0.144 C 
BRANCH   4   5
HETATM    5  N   UNL     1      69.225   3.830   8.839  1.00  0.00    -0.345 N 
HETATM    6  C   UNL     1      69.028   2.761   7.994  1.00  0.00     0.079 A 
HETATM    7  N   UNL     1      69.249   1.628   8.630  1.00  0.00    -0.355 N 
HETATM    8  C   UNL     1      68.642   2.857   6.562  1.00  0.00     0.089 C 
HETATM    9  C   UNL     1      69.591   1.966   9.909  1.00  0.00     0.106 A 
ATOM     10  HN  UNL     1      69.179   0.686   8.245  1.00  0.00     0.166 HD
HETATM   11  C   UNL     1      69.565   3.330  10.069  1.00  0.00     0.109 A 
ENDBRANCH   4   5
ENDBRANCH   3   4
TORSDOF 2
ENDMDL
MODEL 5
REMARK VINA RESULT:      -3.5     18.676     20.232
REMARK  2 active torsions:
REMARK  status: ('A' for Active; 'I' for Inactive)
REMARK    1  A    between atoms: N_1  and  C_10 
REMARK    2  A    between atoms: C_9  and  C_10 
ROOT
HETATM    1  N   UNL     1      66.340   5.955   8.683  1.00  0.00    -0.197 NA
HETATM    2  C   UNL     1      66.467   4.963   8.096  1.00  0.00     0.060 C 
HETATM    3  C   UNL     1      66.654   3.709   7.354  1.00  0.00     0.144 C 
ENDROOT
BRANCH   3   4
HETATM    4  C   UNL     1      68.134   3.353   7.301  1.00  0.00     0.144 C 
BRANCH   4   5
HETATM    5  N   UNL     1      68.663   2.970   8.595  1.00  0.00    -0.345 N 
HETATM    6  C   UNL     1      69.618   3.619   9.345  1.00  0.00     0.079 A 
HETATM    7  N   UNL     1      69.776   3.015  10.506  1.00  0.00    -0.355 N 
HETATM    8  C   UNL     1      70.357   4.838   8.926  1.00  0.00     0.089 C 
HETATM    9  C   UNL     1      68.913   1.956  10.508  1.00  0.00     0.106 A 
ATOM     10  HN  UNL     1      70.415   3.285  11.254  1.00  0.00     0.166 HD
HETATM   11  C   UNL     1      68.222   1.896   9.323  1.00  0.00     0.109 A 
ENDBRANCH   4   5
ENDBRANCH   3   4
TORSDOF 2
ENDMDL
MODEL 6
REMARK VINA RESULT:      -3.5     17.786     18.739
REMARK  2 active torsions:
REMARK  status: ('A' for Active; 'I' for Inactive)
REMARK    1  A    between atoms: N_1  and  C_10 
REMARK    2  A    between atoms: C_9  and  C_10 
ROOT
HETATM    1  N   UNL     1      63.395   7.419   6.720  1.00  0.00    -0.197 NA
HETATM    2  C   UNL     1      64.303   7.636   6.031  1.00  0.00     0.060 C 
HETATM    3  C   UNL     1      65.468   7.910   5.179  1.00  0.00     0.144 C 
ENDROOT
BRANCH   3   4
HETATM    4  C   UNL     1      66.737   7.917   6.022  1.00  0.00     0.144 C 
BRANCH   4   5
HETATM    5  N   UNL     1      67.183   6.584   6.371  1.00  0.00    -0.345 N 
HETATM    6  C   UNL     1      67.298   6.031   7.626  1.00  0.00     0.079 A 
HETATM    7  N   UNL     1      67.655   4.765   7.538  1.00  0.00    -0.355 N 
HETATM    8  C   UNL     1      67.038   6.742   8.905  1.00  0.00     0.089 C 
HETATM    9  C   UNL     1      67.778   4.493   6.204  1.00  0.00     0.106 A 
ATOM     10  HN  UNL     1      67.809   4.117   8.311  1.00  0.00     0.166 HD
HETATM   11  C   UNL     1      67.508   5.614   5.458  1.00  0.00     0.109 A 
ENDBRANCH   4   5
ENDBRANCH   3   4
TORSDOF 2
ENDMDL
MODEL 7
REMARK VINA RESULT:      -3.5     18.178     19.359
REMARK  2 active torsions:
REMARK  status: ('A' for Active; 'I' for Inactive)
REMARK    1  A    between atoms: N_1  and  C_10 
REMARK    2  A    between atoms: C_9  and  C_10 
ROOT
HETATM    1  N   UNL     1      65.719   6.220   4.977  1.00  0.00    -0.197 NA
HETATM    2  C   UNL     1      65.263   7.285   4.923  1.00  0.00     0.060 C 
HETATM    3  C   UNL     1      64.662   8.624   4.854  1.00  0.00     0.144 C 
ENDROOT
BRANCH   3   4
HETATM    4  C   UNL     1      63.144   8.510   4.815  1.00  0.00     0.144 C 
BRANCH   4   5
HETATM    5  N   UNL     1      62.565   9.144   3.647  1.00  0.00    -0.345 N 
HETATM    6  C   UNL     1      62.155  10.451   3.509  1.00  0.00     0.079 A 
HETATM    7  N   UNL     1      61.761  10.679   2.272  1.00  0.00    -0.355 N 
HETATM    8  C   UNL     1      62.167  11.473   4.588  1.00  0.00     0.089 C 
HETATM    9  C   UNL     1      61.916   9.501   1.597  1.00  0.00     0.106 A 
ATOM     10  HN  UNL     1      61.412  11.559   1.894  1.00  0.00     0.166 HD
HETATM   11  C   UNL     1      62.398   8.525   2.435  1.00  0.00     0.109 A 
ENDBRANCH   4   5
ENDBRANCH   3   4
TORSDOF 2
ENDMDL
MODEL 8
REMARK VINA RESULT:      -3.4     22.009     22.921
REMARK  2 active torsions:
REMARK  status: ('A' for Active; 'I' for Inactive)
REMARK    1  A    between atoms: N_1  and  C_10 
REMARK    2  A    between atoms: C_9  and  C_10 
ROOT
HETATM    1  N   UNL     1      77.004   4.782  18.321  1.00  0.00    -0.197 NA
HETATM    2  C   UNL     1      76.592   3.742  18.015  1.00  0.00     0.060 C 
HETATM    3  C   UNL     1      76.093   2.415  17.628  1.00  0.00     0.144 C 
ENDROOT
BRANCH   3   4
HETATM    4  C   UNL     1      77.250   1.427  17.555  1.00  0.00     0.144 C 
BRANCH   4   5
HETATM    5  N   UNL     1      77.604   0.885  18.852  1.00  0.00    -0.345 N 
HETATM    6  C   UNL     1      77.060  -0.207  19.490  1.00  0.00     0.079 A 
HETATM    7  N   UNL     1      77.702  -0.444  20.617  1.00  0.00    -0.355 N 
HETATM    8  C   UNL     1      75.926  -1.022  18.982  1.00  0.00     0.089 C 
HETATM    9  C   UNL     1      78.674   0.511  20.714  1.00  0.00     0.106 A 
ATOM     10  HN  UNL     1      77.510  -1.192  21.284  1.00  0.00     0.166 HD
HETATM   11  C   UNL     1      78.623   1.361  19.636  1.00  0.00     0.109 A 
ENDBRANCH   4   5
ENDBRANCH   3   4
TORSDOF 2
ENDMDL
MODEL 9
REMARK VINA RESULT:      -3.4     18.007     19.536
REMARK  2 active torsions:
REMARK  status: ('A' for Active; 'I' for Inactive)
REMARK    1  A    between atoms: N_1  and  C_10 
REMARK    2  A    between atoms: C_9  and  C_10 
ROOT
HETATM    1  N   UNL     1      69.028   1.530   8.236  1.00  0.00    -0.197 NA
HETATM    2  C   UNL     1      69.236   2.496   8.843  1.00  0.00     0.060 C 
HETATM    3  C   UNL     1      69.500   3.733   9.591  1.00  0.00     0.144 C 
ENDROOT
BRANCH   3   4
HETATM    4  C   UNL     1      69.529   4.920   8.637  1.00  0.00     0.144 C 
BRANCH   4   5
HETATM    5  N   UNL     1      68.213   5.477   8.397  1.00  0.00    -0.345 N 
HETATM    6  C   UNL     1      67.392   5.273   7.311  1.00  0.00     0.079 A 
HETATM    7  N   UNL     1      66.236   5.880   7.492  1.00  0.00    -0.355 N 
HETATM    8  C   UNL     1      67.739   4.469   6.111  1.00  0.00     0.089 C 
HETATM    9  C   UNL     1      66.309   6.491   8.712  1.00  0.00     0.106 A 
ATOM     10  HN  UNL     1      65.444   5.891   6.848  1.00  0.00     0.166 HD
HETATM   11  C   UNL     1      67.536   6.270   9.288  1.00  0.00     0.109 A 
ENDBRANCH   4   5
ENDBRANCH   3   4
TORSDOF 2
ENDMDL
