MODEL 1
REMARK VINA RESULT:      -5.1      0.000      0.000
REMARK  2 active torsions:
REMARK  status: ('A' for Active; 'I' for Inactive)
REMARK    1  A    between atoms: C_1  and  C_2 
REMARK    2  A    between atoms: C_5  and  N_6 
ROOT
HETATM    1  C   UNL     1      62.416   9.082   3.145  1.00  0.00    -0.051 A 
HETATM    2  C   UNL     1      63.318   8.614   4.113  1.00  0.00     0.010 A 
HETATM    3  C   UNL     1      61.900  10.378   3.329  1.00  0.00     0.010 A 
HETATM    4  C   UNL     1      63.154  10.675   5.391  1.00  0.00     0.025 A 
HETATM    5  C   UNL     1      62.284  11.169   4.423  1.00  0.00     0.029 A 
HETATM    6  C   UNL     1      63.697   9.407   5.204  1.00  0.00     0.029 A 
ENDROOT
BRANCH   1   7
HETATM    7  C   UNL     1      62.022   8.252   1.911  1.00  0.00    -0.024 C 
HETATM    8  C   UNL     1      60.542   7.802   1.918  1.00  0.00     0.019 C 
HETATM    9  C   UNL     1      62.881   6.970   1.845  1.00  0.00     0.019 C 
HETATM   10  C   UNL     1      62.248   9.079   0.630  1.00  0.00     0.019 C 
ENDBRANCH   1   7
BRANCH   4  11
HETATM   11  N   UNL     1      63.654  11.515   6.394  1.00  0.00    -0.399 N 
HETATM   12  H   UNL     1      63.936  11.136   7.257  1.00  0.00     0.156 HD
HETATM   13  H   UNL     1      63.724  12.484   6.236  1.00  0.00     0.156 HD
ENDBRANCH   4  11
TORSDOF 2
ENDMDL
MODEL 2
REMARK VINA RESULT:      -4.6      2.062      3.518
REMARK  2 active torsions:
REMARK  status: ('A' for Active; 'I' for Inactive)
REMARK    1  A    between atoms: C_1  and  C_2 
REMARK    2  A    between atoms: C_5  and  N_6 
ROOT
HETATM    1  C   UNL     1      63.049   8.751   4.145  1.00  0.00    -0.051 A 
HETATM    2  C   UNL     1      62.747   9.975   4.761  1.00  0.00     0.010 A 
HETATM    3  C   UNL     1      62.738   8.631   2.778  1.00  0.00     0.010 A 
HETATM    4  C   UNL     1      61.841  10.889   2.698  1.00  0.00     0.025 A 
HETATM    5  C   UNL     1      62.165   9.694   2.063  1.00  0.00     0.029 A 
HETATM    6  C   UNL     1      62.174  11.032   4.042  1.00  0.00     0.029 A 
ENDROOT
BRANCH   1   7
HETATM    7  C   UNL     1      63.725   7.591   4.898  1.00  0.00    -0.024 C 
HETATM    8  C   UNL     1      63.766   6.274   4.090  1.00  0.00     0.019 C 
HETATM    9  C   UNL     1      62.957   7.294   6.204  1.00  0.00     0.019 C 
HETATM   10  C   UNL     1      65.180   7.968   5.241  1.00  0.00     0.019 C 
ENDBRANCH   1   7
BRANCH   4  11
HETATM   11  N   UNL     1      61.414  11.997   1.956  1.00  0.00    -0.399 N 
HETATM   12  H   UNL     1      60.737  12.607   2.327  1.00  0.00     0.156 HD
HETATM   13  H   UNL     1      61.791  12.166   1.062  1.00  0.00     0.156 HD
ENDBRANCH   4  11
TORSDOF 2
ENDMDL
MODEL 3
REMARK VINA RESULT:      -4.4      7.223      8.627
REMARK  2 active torsions:
REMARK  status: ('A' for Active; 'I' for Inactive)
REMARK    1  A    between atoms: C_1  and  C_2 
REMARK    2  A    between atoms: C_5  and  N_6 
ROOT
HETATM    1  C   UNL     1      67.946   5.109   7.134  1.00  0.00    -0.051 A 
HETATM    2  C   UNL     1      68.077   5.812   8.342  1.00  0.00     0.010 A 
HETATM    3  C   UNL     1      68.489   3.811   7.090  1.00  0.00     0.010 A 
HETATM    4  C   UNL     1      69.268   3.968   9.387  1.00  0.00     0.025 A 
HETATM    5  C   UNL     1      69.118   3.244   8.208  1.00  0.00     0.029 A 
HETATM    6  C   UNL     1      68.707   5.241   9.455  1.00  0.00     0.029 A 
ENDROOT
BRANCH   1   7
HETATM    7  C   UNL     1      67.214   5.693   5.913  1.00  0.00    -0.024 C 
HETATM    8  C   UNL     1      67.301   4.796   4.656  1.00  0.00     0.019 C 
HETATM    9  C   UNL     1      67.829   7.058   5.534  1.00  0.00     0.019 C 
HETATM   10  C   UNL     1      65.720   5.885   6.240  1.00  0.00     0.019 C 
ENDBRANCH   1   7
BRANCH   4  11
HETATM   11  N   UNL     1      69.756   3.351  10.546  1.00  0.00    -0.399 N 
HETATM   12  H   UNL     1      69.529   3.716  11.431  1.00  0.00     0.156 HD
HETATM   13  H   UNL     1      70.325   2.551  10.474  1.00  0.00     0.156 HD
ENDBRANCH   4  11
TORSDOF 2
ENDMDL
MODEL 4
REMARK VINA RESULT:      -4.3      2.147      3.287
REMARK  2 active torsions:
REMARK  status: ('A' for Active; 'I' for Inactive)
REMARK    1  A    between atoms: C_1  and  C_2 
REMARK    2  A    between atoms: C_5  and  N_6 
ROOT
HETATM    1  C   UNL     1      62.802   8.534   3.540  1.00  0.00    -0.051 A 
HETATM    2  C   UNL     1      62.548   8.641   2.164  1.00  0.00     0.010 A 
HETATM    3  C   UNL     1      62.582   9.686   4.319  1.00  0.00     0.010 A 
HETATM    4  C   UNL     1      61.901  10.974   2.373  1.00  0.00     0.025 A 
HETATM    5  C   UNL     1      62.116  10.879   3.745  1.00  0.00     0.029 A 
HETATM    6  C   UNL     1      62.083   9.834   1.596  1.00  0.00     0.029 A 
ENDROOT
BRANCH   1   7
HETATM    7  C   UNL     1      63.263   7.222   4.198  1.00  0.00    -0.024 C 
HETATM    8  C   UNL     1      63.670   7.387   5.680  1.00  0.00     0.019 C 
HETATM    9  C   UNL     1      64.496   6.666   3.452  1.00  0.00     0.019 C 
HETATM   10  C   UNL     1      62.127   6.182   4.143  1.00  0.00     0.019 C 
ENDBRANCH   1   7
BRANCH   4  11
HETATM   11  N   UNL     1      61.293  12.111   1.824  1.00  0.00    -0.399 N 
HETATM   12  H   UNL     1      61.474  12.999   2.207  1.00  0.00     0.156 HD
HETATM   13  H   UNL     1      60.684  12.020   1.056  1.00  0.00     0.156 HD
ENDBRANCH   4  11
TORSDOF 2
ENDMDL
MODEL 5
REMARK VINA RESULT:      -4.3      1.650      2.443
REMARK  2 active torsions:
REMARK  status: ('A' for Active; 'I' for Inactive)
REMARK    1  A    between atoms: C_1  and  C_2 
REMARK    2  A    between atoms: C_5  and  N_6 
ROOT
HETATM    1  C   UNL     1      62.918   8.357   3.135  1.00  0.00    -0.051 A 
HETATM    2  C   UNL     1      63.836   7.302   3.255  1.00  0.00     0.010 A 
HETATM    3  C   UNL     1      62.948   9.343   4.139  1.00  0.00     0.010 A 
HETATM    4  C   UNL     1      64.743   8.207   5.320  1.00  0.00     0.025 A 
HETATM    5  C   UNL     1      63.863   9.278   5.201  1.00  0.00     0.029 A 
HETATM    6  C   UNL     1      64.747   7.242   4.317  1.00  0.00     0.029 A 
ENDROOT
BRANCH   1   7
HETATM    7  C   UNL     1      61.942   8.474   1.952  1.00  0.00    -0.024 C 
HETATM    8  C   UNL     1      62.377   7.660   0.712  1.00  0.00     0.019 C 
HETATM    9  C   UNL     1      61.832   9.949   1.506  1.00  0.00     0.019 C 
HETATM   10  C   UNL     1      60.548   7.968   2.372  1.00  0.00     0.019 C 
ENDBRANCH   1   7
BRANCH   4  11
HETATM   11  N   UNL     1      65.755   8.220   6.289  1.00  0.00    -0.399 N 
HETATM   12  H   UNL     1      65.721   8.870   7.027  1.00  0.00     0.156 HD
HETATM   13  H   UNL     1      66.500   7.579   6.231  1.00  0.00     0.156 HD
ENDBRANCH   4  11
TORSDOF 2
ENDMDL
MODEL 6
REMARK VINA RESULT:      -4.2      6.709      8.431
REMARK  2 active torsions:
REMARK  status: ('A' for Active; 'I' for Inactive)
REMARK    1  A    between atoms: C_1  and  C_2 
REMARK    2  A    between atoms: C_5  and  N_6 
ROOT
HETATM    1  C   UNL     1      67.993   5.023   7.811  1.00  0.00    -0.051 A 
HETATM    2  C   UNL     1      67.506   5.997   8.697  1.00  0.00     0.010 A 
HETATM    3  C   UNL     1      67.723   5.216   6.443  1.00  0.00     0.010 A 
HETATM    4  C   UNL     1      66.509   7.275   6.886  1.00  0.00     0.025 A 
HETATM    5  C   UNL     1      67.013   6.337   5.989  1.00  0.00     0.029 A 
HETATM    6  C   UNL     1      66.797   7.114   8.239  1.00  0.00     0.029 A 
ENDROOT
BRANCH   1   7
HETATM    7  C   UNL     1      68.819   3.814   8.282  1.00  0.00    -0.024 C 
HETATM    8  C   UNL     1      69.210   2.851   7.137  1.00  0.00     0.019 C 
HETATM    9  C   UNL     1      68.007   2.990   9.305  1.00  0.00     0.019 C 
HETATM   10  C   UNL     1      70.124   4.298   8.945  1.00  0.00     0.019 C 
ENDBRANCH   1   7
BRANCH   4  11
HETATM   11  N   UNL     1      65.936   8.467   6.424  1.00  0.00    -0.399 N 
HETATM   12  H   UNL     1      66.023   8.720   5.478  1.00  0.00     0.156 HD
HETATM   13  H   UNL     1      65.447   9.051   7.048  1.00  0.00     0.156 HD
ENDBRANCH   4  11
TORSDOF 2
ENDMDL
MODEL 7
REMARK VINA RESULT:      -3.9      2.731      4.749
REMARK  2 active torsions:
REMARK  status: ('A' for Active; 'I' for Inactive)
REMARK    1  A    between atoms: C_1  and  C_2 
REMARK    2  A    between atoms: C_5  and  N_6 
ROOT
HETATM    1  C   UNL     1      63.033   8.269   3.413  1.00  0.00    -0.051 A 
HETATM    2  C   UNL     1      62.361   9.132   2.534  1.00  0.00     0.010 A 
HETATM    3  C   UNL     1      63.403   7.008   2.908  1.00  0.00     0.010 A 
HETATM    4  C   UNL     1      62.426   7.497   0.736  1.00  0.00     0.025 A 
HETATM    5  C   UNL     1      63.123   6.640   1.583  1.00  0.00     0.029 A 
HETATM    6  C   UNL     1      62.084   8.760   1.213  1.00  0.00     0.029 A 
ENDROOT
BRANCH   1   7
HETATM    7  C   UNL     1      63.396   8.671   4.853  1.00  0.00    -0.024 C 
HETATM    8  C   UNL     1      63.000  10.124   5.204  1.00  0.00     0.019 C 
HETATM    9  C   UNL     1      64.922   8.558   5.062  1.00  0.00     0.019 C 
HETATM   10  C   UNL     1      62.679   7.742   5.852  1.00  0.00     0.019 C 
ENDBRANCH   1   7
BRANCH   4  11
HETATM   11  N   UNL     1      62.283   7.195  -0.623  1.00  0.00    -0.399 N 
HETATM   12  H   UNL     1      63.034   6.799  -1.121  1.00  0.00     0.156 HD
HETATM   13  H   UNL     1      61.431   7.378  -1.081  1.00  0.00     0.156 HD
ENDBRANCH   4  11
TORSDOF 2
ENDMDL
MODEL 8
REMARK VINA RESULT:      -3.8      8.764     10.293
REMARK  2 active torsions:
REMARK  status: ('A' for Active; 'I' for Inactive)
REMARK    1  A    between atoms: C_1  and  C_2 
REMARK    2  A    between atoms: C_5  and  N_6 
ROOT
HETATM    1  C   UNL     1      68.664   2.946   8.525  1.00  0.00    -0.051 A 
HETATM    2  C   UNL     1      68.219   3.194   7.218  1.00  0.00     0.010 A 
HETATM    3  C   UNL     1      68.894   4.068   9.343  1.00  0.00     0.010 A 
HETATM    4  C   UNL     1      68.263   5.600   7.564  1.00  0.00     0.025 A 
HETATM    5  C   UNL     1      68.673   5.372   8.874  1.00  0.00     0.029 A 
HETATM    6  C   UNL     1      68.001   4.497   6.755  1.00  0.00     0.029 A 
ENDROOT
BRANCH   1   7
HETATM    7  C   UNL     1      68.863   1.523   9.076  1.00  0.00    -0.024 C 
HETATM    8  C   UNL     1      70.082   1.392  10.018  1.00  0.00     0.019 C 
HETATM    9  C   UNL     1      69.087   0.535   7.911  1.00  0.00     0.019 C 
HETATM   10  C   UNL     1      67.616   1.091   9.873  1.00  0.00     0.019 C 
ENDBRANCH   1   7
BRANCH   4  11
HETATM   11  N   UNL     1      67.897   6.885   7.145  1.00  0.00    -0.399 N 
HETATM   12  H   UNL     1      68.588   7.566   6.986  1.00  0.00     0.156 HD
HETATM   13  H   UNL     1      66.947   7.106   7.010  1.00  0.00     0.156 HD
ENDBRANCH   4  11
TORSDOF 2
ENDMDL
MODEL 9
REMARK VINA RESULT:      -3.7     13.537     14.555
REMARK  2 active torsions:
REMARK  status: ('A' for Active; 'I' for Inactive)
REMARK    1  A    between atoms: C_1  and  C_2 
REMARK    2  A    between atoms: C_5  and  N_6 
ROOT
HETATM    1  C   UNL     1      49.082  12.026   5.660  1.00  0.00    -0.051 A 
HETATM    2  C   UNL     1      49.078  13.424   5.534  1.00  0.00     0.010 A 
HETATM    3  C   UNL     1      48.077  11.457   6.466  1.00  0.00     0.010 A 
HETATM    4  C   UNL     1      47.144  13.640   6.990  1.00  0.00     0.025 A 
HETATM    5  C   UNL     1      47.111  12.253   7.100  1.00  0.00     0.029 A 
HETATM    6  C   UNL     1      48.112  14.213   6.169  1.00  0.00     0.029 A 
ENDROOT
BRANCH   1   7
HETATM    7  C   UNL     1      50.100  11.132   4.932  1.00  0.00    -0.024 C 
HETATM    8  C   UNL     1      50.037  11.255   3.392  1.00  0.00     0.019 C 
HETATM    9  C   UNL     1      49.837   9.649   5.275  1.00  0.00     0.019 C 
HETATM   10  C   UNL     1      51.531  11.506   5.367  1.00  0.00     0.019 C 
ENDBRANCH   1   7
BRANCH   4  11
HETATM   11  N   UNL     1      46.095  14.420   7.493  1.00  0.00    -0.399 N 
HETATM   12  H   UNL     1      46.211  14.915   8.335  1.00  0.00     0.156 HD
HETATM   13  H   UNL     1      45.242  14.472   7.005  1.00  0.00     0.156 HD
ENDBRANCH   4  11
TORSDOF 2
ENDMDL
