MODEL 1
REMARK VINA RESULT:      -5.7      0.000      0.000
REMARK  1 active torsions:
REMARK  status: ('A' for Active; 'I' for Inactive)
REMARK    1  A    between atoms: C_3  and  O_7 
ROOT
HETATM    1  N   UNL     1      77.888   9.821  14.544  1.00  0.00    -0.320 N 
ATOM      2  HN  UNL     1      78.169  10.799  14.476  1.00  0.00     0.169 HD
HETATM    3  C   UNL     1      77.726   8.964  13.573  1.00  0.00     0.222 A 
HETATM    4  N   UNL     1      77.343   7.731  14.001  1.00  0.00    -0.320 N 
HETATM    5  C   UNL     1      77.591   9.101  15.680  1.00  0.00     0.062 A 
HETATM    6  C   UNL     1      77.246   7.787  15.368  1.00  0.00     0.062 A 
HETATM    7  C   UNL     1      77.593   9.505  17.024  1.00  0.00     0.032 A 
HETATM    8  C   UNL     1      76.898   6.834  16.328  1.00  0.00     0.032 A 
HETATM    9  C   UNL     1      77.247   8.569  18.007  1.00  0.00     0.002 A 
HETATM   10  C   UNL     1      76.906   7.257  17.662  1.00  0.00     0.002 A 
HETATM   11  H   UNL     1      77.168   6.945  13.435  1.00  0.00     0.169 HD
ENDROOT
BRANCH   3  12
HETATM   12  O   UNL     1      77.918   9.263  12.307  1.00  0.00    -0.332 OA
HETATM   13  H   UNL     1      78.746   9.089  11.905  1.00  0.00     0.220 HD
ENDBRANCH   3  12
TORSDOF 1
ENDMDL
MODEL 2
REMARK VINA RESULT:      -5.6      6.285      7.533
REMARK  1 active torsions:
REMARK  status: ('A' for Active; 'I' for Inactive)
REMARK    1  A    between atoms: C_3  and  O_7 
ROOT
HETATM    1  N   UNL     1      79.988  11.226  21.013  1.00  0.00    -0.320 N 
ATOM      2  HN  UNL     1      80.562  10.428  20.737  1.00  0.00     0.169 HD
HETATM    3  C   UNL     1      80.221  12.090  21.963  1.00  0.00     0.222 A 
HETATM    4  N   UNL     1      79.253  13.038  22.077  1.00  0.00    -0.320 N 
HETATM    5  C   UNL     1      78.791  11.637  20.472  1.00  0.00     0.062 A 
HETATM    6  C   UNL     1      78.308  12.772  21.120  1.00  0.00     0.062 A 
HETATM    7  C   UNL     1      78.048  11.087  19.415  1.00  0.00     0.032 A 
HETATM    8  C   UNL     1      77.111  13.404  20.775  1.00  0.00     0.032 A 
HETATM    9  C   UNL     1      76.843  11.701  19.050  1.00  0.00     0.002 A 
HETATM   10  C   UNL     1      76.385  12.840  19.720  1.00  0.00     0.002 A 
HETATM   11  H   UNL     1      79.235  13.779  22.726  1.00  0.00     0.169 HD
ENDROOT
BRANCH   3  12
HETATM   12  O   UNL     1      81.287  12.047  22.732  1.00  0.00    -0.332 OA
HETATM   13  H   UNL     1      81.246  12.381  23.607  1.00  0.00     0.220 HD
ENDBRANCH   3  12
TORSDOF 1
ENDMDL
MODEL 3
REMARK VINA RESULT:      -5.2     15.313     16.128
REMARK  1 active torsions:
REMARK  status: ('A' for Active; 'I' for Inactive)
REMARK    1  A    between atoms: C_3  and  O_7 
ROOT
HETATM    1  N   UNL     1      72.559  22.484  11.886  1.00  0.00    -0.320 N 
ATOM      2  HN  UNL     1      73.448  22.368  11.399  1.00  0.00     0.169 HD
HETATM    3  C   UNL     1      71.425  21.887  11.639  1.00  0.00     0.222 A 
HETATM    4  N   UNL     1      70.423  22.266  12.476  1.00  0.00    -0.320 N 
HETATM    5  C   UNL     1      72.279  23.306  12.955  1.00  0.00     0.062 A 
HETATM    6  C   UNL     1      70.946  23.188  13.346  1.00  0.00     0.062 A 
HETATM    7  C   UNL     1      73.119  24.188  13.652  1.00  0.00     0.032 A 
HETATM    8  C   UNL     1      70.389  23.907  14.406  1.00  0.00     0.032 A 
HETATM    9  C   UNL     1      72.584  24.922  14.719  1.00  0.00     0.002 A 
HETATM   10  C   UNL     1      71.243  24.783  15.087  1.00  0.00     0.002 A 
HETATM   11  H   UNL     1      69.494  21.939  12.461  1.00  0.00     0.169 HD
ENDROOT
BRANCH   3  12
HETATM   12  O   UNL     1      71.269  21.005  10.676  1.00  0.00    -0.332 OA
HETATM   13  H   UNL     1      71.698  21.132   9.852  1.00  0.00     0.220 HD
ENDBRANCH   3  12
TORSDOF 1
ENDMDL
MODEL 4
REMARK VINA RESULT:      -5.1     18.117     19.273
REMARK  1 active torsions:
REMARK  status: ('A' for Active; 'I' for Inactive)
REMARK    1  A    between atoms: C_3  and  O_7 
ROOT
HETATM    1  N   UNL     1      63.219   9.736   5.398  1.00  0.00    -0.320 N 
ATOM      2  HN  UNL     1      63.659   9.047   6.007  1.00  0.00     0.169 HD
HETATM    3  C   UNL     1      62.912  10.974   5.676  1.00  0.00     0.222 A 
HETATM    4  N   UNL     1      62.329  11.631   4.638  1.00  0.00    -0.320 N 
HETATM    5  C   UNL     1      62.811   9.576   4.092  1.00  0.00     0.062 A 
HETATM    6  C   UNL     1      62.250  10.749   3.591  1.00  0.00     0.062 A 
HETATM    7  C   UNL     1      62.888   8.448   3.261  1.00  0.00     0.032 A 
HETATM    8  C   UNL     1      61.753  10.870   2.292  1.00  0.00     0.032 A 
HETATM    9  C   UNL     1      62.395   8.542   1.953  1.00  0.00     0.002 A 
HETATM   10  C   UNL     1      61.838   9.734   1.479  1.00  0.00     0.002 A 
HETATM   11  H   UNL     1      62.022  12.567   4.638  1.00  0.00     0.169 HD
ENDROOT
BRANCH   3  12
HETATM   12  O   UNL     1      63.144  11.529   6.846  1.00  0.00    -0.332 OA
HETATM   13  H   UNL     1      62.833  12.395   7.022  1.00  0.00     0.220 HD
ENDBRANCH   3  12
TORSDOF 1
ENDMDL
MODEL 5
REMARK VINA RESULT:      -4.9      6.890      7.896
REMARK  1 active torsions:
REMARK  status: ('A' for Active; 'I' for Inactive)
REMARK    1  A    between atoms: C_3  and  O_7 
ROOT
HETATM    1  N   UNL     1      77.775   1.889  18.389  1.00  0.00    -0.320 N 
ATOM      2  HN  UNL     1      78.714   1.553  18.602  1.00  0.00     0.169 HD
HETATM    3  C   UNL     1      77.131   2.879  18.945  1.00  0.00     0.222 A 
HETATM    4  N   UNL     1      75.887   3.069  18.429  1.00  0.00    -0.320 N 
HETATM    5  C   UNL     1      76.894   1.401  17.449  1.00  0.00     0.062 A 
HETATM    6  C   UNL     1      75.702   2.124  17.452  1.00  0.00     0.062 A 
HETATM    7  C   UNL     1      77.043   0.336  16.547  1.00  0.00     0.032 A 
HETATM    8  C   UNL     1      74.632   1.846  16.599  1.00  0.00     0.032 A 
HETATM    9  C   UNL     1      75.984   0.036  15.681  1.00  0.00     0.002 A 
HETATM   10  C   UNL     1      74.800   0.780  15.709  1.00  0.00     0.002 A 
HETATM   11  H   UNL     1      75.240   3.758  18.705  1.00  0.00     0.169 HD
ENDROOT
BRANCH   3  12
HETATM   12  O   UNL     1      77.637   3.618  19.907  1.00  0.00    -0.332 OA
HETATM   13  H   UNL     1      78.326   4.225  19.717  1.00  0.00     0.220 HD
ENDBRANCH   3  12
TORSDOF 1
ENDMDL
MODEL 6
REMARK VINA RESULT:      -4.9      5.075      6.342
REMARK  1 active torsions:
REMARK  status: ('A' for Active; 'I' for Inactive)
REMARK    1  A    between atoms: C_3  and  O_7 
ROOT
HETATM    1  N   UNL     1      75.449   4.821  17.189  1.00  0.00    -0.320 N 
ATOM      2  HN  UNL     1      74.704   5.393  16.790  1.00  0.00     0.169 HD
HETATM    3  C   UNL     1      76.530   5.224  17.798  1.00  0.00     0.222 A 
HETATM    4  N   UNL     1      77.326   4.202  18.213  1.00  0.00    -0.320 N 
HETATM    5  C   UNL     1      75.545   3.448  17.208  1.00  0.00     0.062 A 
HETATM    6  C   UNL     1      76.713   3.033  17.845  1.00  0.00     0.062 A 
HETATM    7  C   UNL     1      74.667   2.479  16.697  1.00  0.00     0.032 A 
HETATM    8  C   UNL     1      77.066   1.691  18.007  1.00  0.00     0.032 A 
HETATM    9  C   UNL     1      74.997   1.126  16.846  1.00  0.00     0.002 A 
HETATM   10  C   UNL     1      76.177   0.742  17.490  1.00  0.00     0.002 A 
HETATM   11  H   UNL     1      78.184   4.288  18.690  1.00  0.00     0.169 HD
ENDROOT
BRANCH   3  12
HETATM   12  O   UNL     1      76.819   6.492  17.992  1.00  0.00    -0.332 OA
HETATM   13  H   UNL     1      77.018   7.043  17.261  1.00  0.00     0.220 HD
ENDBRANCH   3  12
TORSDOF 1
ENDMDL
MODEL 7
REMARK VINA RESULT:      -4.7     17.941     19.128
REMARK  1 active torsions:
REMARK  status: ('A' for Active; 'I' for Inactive)
REMARK    1  A    between atoms: C_3  and  O_7 
ROOT
HETATM    1  N   UNL     1      63.183   7.853   4.268  1.00  0.00    -0.320 N 
ATOM      2  HN  UNL     1      63.394   6.912   3.936  1.00  0.00     0.169 HD
HETATM    3  C   UNL     1      63.309   8.324   5.479  1.00  0.00     0.222 A 
HETATM    4  N   UNL     1      62.939   9.628   5.590  1.00  0.00    -0.320 N 
HETATM    5  C   UNL     1      62.701   8.919   3.542  1.00  0.00     0.062 A 
HETATM    6  C   UNL     1      62.539  10.045   4.348  1.00  0.00     0.062 A 
HETATM    7  C   UNL     1      62.374   9.003   2.180  1.00  0.00     0.032 A 
HETATM    8  C   UNL     1      62.064  11.270   3.872  1.00  0.00     0.032 A 
HETATM    9  C   UNL     1      61.895  10.219   1.677  1.00  0.00     0.002 A 
HETATM   10  C   UNL     1      61.744  11.332   2.511  1.00  0.00     0.002 A 
HETATM   11  H   UNL     1      62.956  10.171   6.412  1.00  0.00     0.169 HD
ENDROOT
BRANCH   3  12
HETATM   12  O   UNL     1      63.751   7.607   6.489  1.00  0.00    -0.332 OA
HETATM   13  H   UNL     1      64.312   6.873   6.331  1.00  0.00     0.220 HD
ENDBRANCH   3  12
TORSDOF 1
ENDMDL
MODEL 8
REMARK VINA RESULT:      -4.6     11.823     12.532
REMARK  1 active torsions:
REMARK  status: ('A' for Active; 'I' for Inactive)
REMARK    1  A    between atoms: C_3  and  O_7 
ROOT
HETATM    1  N   UNL     1      67.443   6.681   8.126  1.00  0.00    -0.320 N 
ATOM      2  HN  UNL     1      67.755   7.625   7.895  1.00  0.00     0.169 HD
HETATM    3  C   UNL     1      66.224   6.217   8.125  1.00  0.00     0.222 A 
HETATM    4  N   UNL     1      66.147   4.907   8.484  1.00  0.00    -0.320 N 
HETATM    5  C   UNL     1      68.212   5.605   8.510  1.00  0.00     0.062 A 
HETATM    6  C   UNL     1      67.424   4.479   8.741  1.00  0.00     0.062 A 
HETATM    7  C   UNL     1      69.601   5.512   8.685  1.00  0.00     0.032 A 
HETATM    8  C   UNL     1      67.942   3.246   9.141  1.00  0.00     0.032 A 
HETATM    9  C   UNL     1      70.147   4.286   9.087  1.00  0.00     0.002 A 
HETATM   10  C   UNL     1      69.330   3.174   9.311  1.00  0.00     0.002 A 
HETATM   11  H   UNL     1      65.325   4.367   8.548  1.00  0.00     0.169 HD
ENDROOT
BRANCH   3  12
HETATM   12  O   UNL     1      65.175   6.944   7.808  1.00  0.00    -0.332 OA
HETATM   13  H   UNL     1      64.840   6.923   6.932  1.00  0.00     0.220 HD
ENDBRANCH   3  12
TORSDOF 1
ENDMDL
MODEL 9
REMARK VINA RESULT:      -4.5      6.808      7.928
REMARK  1 active torsions:
REMARK  status: ('A' for Active; 'I' for Inactive)
REMARK    1  A    between atoms: C_3  and  O_7 
ROOT
HETATM    1  N   UNL     1      77.831   3.173  19.716  1.00  0.00    -0.320 N 
ATOM      2  HN  UNL     1      78.218   3.698  20.500  1.00  0.00     0.169 HD
HETATM    3  C   UNL     1      77.033   3.604  18.777  1.00  0.00     0.222 A 
HETATM    4  N   UNL     1      76.698   2.645  17.873  1.00  0.00    -0.320 N 
HETATM    5  C   UNL     1      78.030   1.847  19.404  1.00  0.00     0.062 A 
HETATM    6  C   UNL     1      77.331   1.489  18.252  1.00  0.00     0.062 A 
HETATM    7  C   UNL     1      78.801   0.876  20.062  1.00  0.00     0.032 A 
HETATM    8  C   UNL     1      77.353   0.204  17.707  1.00  0.00     0.032 A 
HETATM    9  C   UNL     1      78.840  -0.422  19.536  1.00  0.00     0.002 A 
HETATM   10  C   UNL     1      78.127  -0.749  18.379  1.00  0.00     0.002 A 
HETATM   11  H   UNL     1      76.110   2.759  17.092  1.00  0.00     0.169 HD
ENDROOT
BRANCH   3  12
HETATM   12  O   UNL     1      76.598   4.843  18.713  1.00  0.00    -0.332 OA
HETATM   13  H   UNL     1      75.934   5.074  18.093  1.00  0.00     0.220 HD
ENDBRANCH   3  12
TORSDOF 1
ENDMDL
