MODEL 1
REMARK VINA RESULT:      -4.4      0.000      0.000
REMARK  3 active torsions:
REMARK  status: ('A' for Active; 'I' for Inactive)
REMARK    1  A    between atoms: C_1  and  C_3 
REMARK    2  A    between atoms: C_2  and  N_8 
REMARK    3  A    between atoms: C_3  and  O_9 
ROOT
HETATM    1  C   UNL     1      63.533   9.340   4.865  1.00  0.00     0.106 A 
HETATM    2  C   UNL     1      63.193  10.631   5.231  1.00  0.00     0.049 A 
HETATM    3  S   UNL     1      62.646   8.856   3.469  1.00  0.00    -0.094 SA
HETATM    4  C   UNL     1      62.218  11.213   4.376  1.00  0.00     0.038 A 
HETATM    5  C   UNL     1      61.832  10.354   3.373  1.00  0.00     0.053 A 
ENDROOT
BRANCH   1   6
HETATM    6  C   UNL     1      64.467   8.392   5.449  1.00  0.00     0.302 C 
HETATM    7  O   UNL     1      64.335   7.174   5.501  1.00  0.00    -0.259 OA
BRANCH   6   8
HETATM    8  O   UNL     1      65.559   9.048   5.954  1.00  0.00    -0.322 OA
HETATM    9  C   UNL     1      66.595   8.190   6.433  1.00  0.00     0.213 C 
ENDBRANCH   6   8
ENDBRANCH   1   6
BRANCH   2  10
HETATM   10  N   UNL     1      63.708  11.302   6.279  1.00  0.00    -0.398 N 
HETATM   11  H   UNL     1      63.835  10.844   7.142  1.00  0.00     0.156 HD
HETATM   12  H   UNL     1      63.959  12.249   6.183  1.00  0.00     0.156 HD
ENDBRANCH   2  10
TORSDOF 3
ENDMDL
MODEL 2
REMARK VINA RESULT:      -4.0     17.633     18.276
REMARK  3 active torsions:
REMARK  status: ('A' for Active; 'I' for Inactive)
REMARK    1  A    between atoms: C_1  and  C_3 
REMARK    2  A    between atoms: C_2  and  N_8 
REMARK    3  A    between atoms: C_3  and  O_9 
ROOT
HETATM    1  C   UNL     1      72.134  22.926  14.068  1.00  0.00     0.106 A 
HETATM    2  C   UNL     1      71.224  22.476  13.126  1.00  0.00     0.049 A 
HETATM    3  S   UNL     1      71.417  24.133  15.068  1.00  0.00    -0.094 SA
HETATM    4  C   UNL     1      69.958  23.114  13.226  1.00  0.00     0.038 A 
HETATM    5  C   UNL     1      69.925  24.040  14.242  1.00  0.00     0.053 A 
ENDROOT
BRANCH   1   6
HETATM    6  C   UNL     1      73.516  22.555  14.321  1.00  0.00     0.302 C 
HETATM    7  O   UNL     1      74.429  22.541  13.502  1.00  0.00    -0.259 OA
BRANCH   6   8
HETATM    8  O   UNL     1      73.685  22.211  15.637  1.00  0.00    -0.322 OA
HETATM    9  C   UNL     1      74.916  21.547  15.920  1.00  0.00     0.213 C 
ENDBRANCH   6   8
ENDBRANCH   1   6
BRANCH   2  10
HETATM   10  N   UNL     1      71.473  21.534  12.196  1.00  0.00    -0.398 N 
HETATM   11  H   UNL     1      71.428  21.762  11.240  1.00  0.00     0.156 HD
HETATM   12  H   UNL     1      71.700  20.617  12.473  1.00  0.00     0.156 HD
ENDBRANCH   2  10
TORSDOF 3
ENDMDL
MODEL 3
REMARK VINA RESULT:      -4.0     16.595     17.278
REMARK  3 active torsions:
REMARK  status: ('A' for Active; 'I' for Inactive)
REMARK    1  A    between atoms: C_1  and  C_3 
REMARK    2  A    between atoms: C_2  and  N_8 
REMARK    3  A    between atoms: C_3  and  O_9 
ROOT
HETATM    1  C   UNL     1      71.806  22.613  12.715  1.00  0.00     0.106 A 
HETATM    2  C   UNL     1      72.821  23.291  13.369  1.00  0.00     0.049 A 
HETATM    3  S   UNL     1      70.269  23.091  13.329  1.00  0.00    -0.094 SA
HETATM    4  C   UNL     1      72.340  24.190  14.360  1.00  0.00     0.038 A 
HETATM    5  C   UNL     1      70.967  24.180  14.444  1.00  0.00     0.053 A 
ENDROOT
BRANCH   1   6
HETATM    6  C   UNL     1      71.845  21.619  11.655  1.00  0.00     0.302 C 
HETATM    7  O   UNL     1      72.672  21.548  10.752  1.00  0.00    -0.259 OA
BRANCH   6   8
HETATM    8  O   UNL     1      70.806  20.735  11.790  1.00  0.00    -0.322 OA
HETATM    9  C   UNL     1      70.905  19.576  10.964  1.00  0.00     0.213 C 
ENDBRANCH   6   8
ENDBRANCH   1   6
BRANCH   2  10
HETATM   10  N   UNL     1      74.136  23.144  13.122  1.00  0.00    -0.398 N 
HETATM   11  H   UNL     1      74.699  22.628  13.744  1.00  0.00     0.156 HD
HETATM   12  H   UNL     1      74.536  23.553  12.321  1.00  0.00     0.156 HD
ENDBRANCH   2  10
TORSDOF 3
ENDMDL
MODEL 4
REMARK VINA RESULT:      -3.8     16.902     17.609
REMARK  3 active torsions:
REMARK  status: ('A' for Active; 'I' for Inactive)
REMARK    1  A    between atoms: C_1  and  C_3 
REMARK    2  A    between atoms: C_2  and  N_8 
REMARK    3  A    between atoms: C_3  and  O_9 
ROOT
HETATM    1  C   UNL     1      71.711  22.851  13.248  1.00  0.00     0.106 A 
HETATM    2  C   UNL     1      71.013  23.660  14.129  1.00  0.00     0.049 A 
HETATM    3  S   UNL     1      73.387  22.832  13.648  1.00  0.00    -0.094 SA
HETATM    4  C   UNL     1      71.845  24.254  15.117  1.00  0.00     0.038 A 
HETATM    5  C   UNL     1      73.163  23.887  14.971  1.00  0.00     0.053 A 
ENDROOT
BRANCH   1   6
HETATM    6  C   UNL     1      71.266  22.067  12.108  1.00  0.00     0.302 C 
HETATM    7  O   UNL     1      70.607  22.472  11.157  1.00  0.00    -0.259 OA
BRANCH   6   8
HETATM    8  O   UNL     1      71.690  20.769  12.227  1.00  0.00    -0.322 OA
HETATM    9  C   UNL     1      71.099  19.867  11.292  1.00  0.00     0.213 C 
ENDBRANCH   6   8
ENDBRANCH   1   6
BRANCH   2  10
HETATM   10  N   UNL     1      69.687  23.886  14.090  1.00  0.00    -0.398 N 
HETATM   11  H   UNL     1      69.242  24.340  14.842  1.00  0.00     0.156 HD
HETATM   12  H   UNL     1      69.161  23.599  13.309  1.00  0.00     0.156 HD
ENDBRANCH   2  10
TORSDOF 3
ENDMDL
MODEL 5
REMARK VINA RESULT:      -3.8     18.626     19.403
REMARK  3 active torsions:
REMARK  status: ('A' for Active; 'I' for Inactive)
REMARK    1  A    between atoms: C_1  and  C_3 
REMARK    2  A    between atoms: C_2  and  N_8 
REMARK    3  A    between atoms: C_3  and  O_9 
ROOT
HETATM    1  C   UNL     1      70.998  24.161  14.277  1.00  0.00     0.106 A 
HETATM    2  C   UNL     1      72.225  24.733  14.570  1.00  0.00     0.049 A 
HETATM    3  S   UNL     1      71.205  22.780  13.268  1.00  0.00    -0.094 SA
HETATM    4  C   UNL     1      73.317  24.045  13.974  1.00  0.00     0.038 A 
HETATM    5  C   UNL     1      72.902  22.961  13.236  1.00  0.00     0.053 A 
ENDROOT
BRANCH   1   6
HETATM    6  C   UNL     1      69.649  24.532  14.669  1.00  0.00     0.302 C 
HETATM    7  O   UNL     1      68.606  24.138  14.158  1.00  0.00    -0.259 OA
BRANCH   6   8
HETATM    8  O   UNL     1      69.682  25.409  15.721  1.00  0.00    -0.322 OA
HETATM    9  C   UNL     1      68.397  25.822  16.187  1.00  0.00     0.213 C 
ENDBRANCH   6   8
ENDBRANCH   1   6
BRANCH   2  10
HETATM   10  N   UNL     1      72.408  25.826  15.336  1.00  0.00    -0.398 N 
HETATM   11  H   UNL     1      72.251  25.778  16.307  1.00  0.00     0.156 HD
HETATM   12  H   UNL     1      72.699  26.672  14.926  1.00  0.00     0.156 HD
ENDBRANCH   2  10
TORSDOF 3
ENDMDL
MODEL 6
REMARK VINA RESULT:      -3.8     18.025     18.707
REMARK  3 active torsions:
REMARK  status: ('A' for Active; 'I' for Inactive)
REMARK    1  A    between atoms: C_1  and  C_3 
REMARK    2  A    between atoms: C_2  and  N_8 
REMARK    3  A    between atoms: C_3  and  O_9 
ROOT
HETATM    1  C   UNL     1      72.351  23.058  14.385  1.00  0.00     0.106 A 
HETATM    2  C   UNL     1      71.250  23.886  14.525  1.00  0.00     0.049 A 
HETATM    3  S   UNL     1      72.109  21.949  13.089  1.00  0.00    -0.094 SA
HETATM    4  C   UNL     1      70.224  23.612  13.580  1.00  0.00     0.038 A 
HETATM    5  C   UNL     1      70.562  22.579  12.737  1.00  0.00     0.053 A 
ENDROOT
BRANCH   1   6
HETATM    6  C   UNL     1      73.600  22.990  15.124  1.00  0.00     0.302 C 
HETATM    7  O   UNL     1      73.950  23.733  16.036  1.00  0.00    -0.259 OA
BRANCH   6   8
HETATM    8  O   UNL     1      74.372  21.956  14.664  1.00  0.00    -0.322 OA
HETATM    9  C   UNL     1      75.301  21.442  15.618  1.00  0.00     0.213 C 
ENDBRANCH   6   8
ENDBRANCH   1   6
BRANCH   2  10
HETATM   10  N   UNL     1      71.125  24.861  15.446  1.00  0.00    -0.398 N 
HETATM   11  H   UNL     1      70.581  25.658  15.248  1.00  0.00     0.156 HD
HETATM   12  H   UNL     1      71.576  24.778  16.316  1.00  0.00     0.156 HD
ENDBRANCH   2  10
TORSDOF 3
ENDMDL
MODEL 7
REMARK VINA RESULT:      -3.6      2.317      2.596
REMARK  3 active torsions:
REMARK  status: ('A' for Active; 'I' for Inactive)
REMARK    1  A    between atoms: C_1  and  C_3 
REMARK    2  A    between atoms: C_2  and  N_8 
REMARK    3  A    between atoms: C_3  and  O_9 
ROOT
HETATM    1  C   UNL     1      62.893   9.113   4.006  1.00  0.00     0.106 A 
HETATM    2  C   UNL     1      62.930   8.352   2.849  1.00  0.00     0.049 A 
HETATM    3  S   UNL     1      62.075  10.602   3.721  1.00  0.00    -0.094 SA
HETATM    4  C   UNL     1      62.295   8.986   1.747  1.00  0.00     0.038 A 
HETATM    5  C   UNL     1      61.785  10.219   2.083  1.00  0.00     0.053 A 
ENDROOT
BRANCH   1   6
HETATM    6  C   UNL     1      63.412   8.856   5.339  1.00  0.00     0.302 C 
HETATM    7  O   UNL     1      62.805   8.337   6.270  1.00  0.00    -0.259 OA
BRANCH   6   8
HETATM    8  O   UNL     1      64.711   9.280   5.436  1.00  0.00    -0.322 OA
HETATM    9  C   UNL     1      65.668   8.228   5.555  1.00  0.00     0.213 C 
ENDBRANCH   6   8
ENDBRANCH   1   6
BRANCH   2  10
HETATM   10  N   UNL     1      63.497   7.136   2.738  1.00  0.00    -0.398 N 
HETATM   11  H   UNL     1      64.028   6.911   1.940  1.00  0.00     0.156 HD
HETATM   12  H   UNL     1      63.381   6.471   3.455  1.00  0.00     0.156 HD
ENDBRANCH   2  10
TORSDOF 3
ENDMDL
MODEL 8
REMARK VINA RESULT:      -3.6      2.051      2.577
REMARK  3 active torsions:
REMARK  status: ('A' for Active; 'I' for Inactive)
REMARK    1  A    between atoms: C_1  and  C_3 
REMARK    2  A    between atoms: C_2  and  N_8 
REMARK    3  A    between atoms: C_3  and  O_9 
ROOT
HETATM    1  C   UNL     1      62.737   9.087   3.537  1.00  0.00     0.106 A 
HETATM    2  C   UNL     1      62.070  10.007   2.745  1.00  0.00     0.049 A 
HETATM    3  S   UNL     1      62.971   7.611   2.679  1.00  0.00    -0.094 SA
HETATM    4  C   UNL     1      61.757   9.504   1.453  1.00  0.00     0.038 A 
HETATM    5  C   UNL     1      62.190   8.209   1.283  1.00  0.00     0.053 A 
ENDROOT
BRANCH   1   6
HETATM    6  C   UNL     1      63.236   9.179   4.899  1.00  0.00     0.302 C 
HETATM    7  O   UNL     1      63.051  10.103   5.684  1.00  0.00    -0.259 OA
BRANCH   6   8
HETATM    8  O   UNL     1      63.968   8.064   5.215  1.00  0.00    -0.322 OA
HETATM    9  C   UNL     1      65.339   8.322   5.515  1.00  0.00     0.213 C 
ENDBRANCH   6   8
ENDBRANCH   1   6
BRANCH   2  10
HETATM   10  N   UNL     1      61.735  11.256   3.120  1.00  0.00    -0.398 N 
HETATM   11  H   UNL     1      62.438  11.925   3.285  1.00  0.00     0.156 HD
HETATM   12  H   UNL     1      60.788  11.501   3.229  1.00  0.00     0.156 HD
ENDBRANCH   2  10
TORSDOF 3
ENDMDL
MODEL 9
REMARK VINA RESULT:      -3.5      1.971      2.540
REMARK  3 active torsions:
REMARK  status: ('A' for Active; 'I' for Inactive)
REMARK    1  A    between atoms: C_1  and  C_3 
REMARK    2  A    between atoms: C_2  and  N_8 
REMARK    3  A    between atoms: C_3  and  O_9 
ROOT
HETATM    1  C   UNL     1      64.987   7.977   5.054  1.00  0.00     0.106 A 
HETATM    2  C   UNL     1      63.928   8.844   4.842  1.00  0.00     0.049 A 
HETATM    3  S   UNL     1      64.981   6.720   3.876  1.00  0.00    -0.094 SA
HETATM    4  C   UNL     1      63.125   8.479   3.728  1.00  0.00     0.038 A 
HETATM    5  C   UNL     1      63.587   7.340   3.110  1.00  0.00     0.053 A 
ENDROOT
BRANCH   1   6
HETATM    6  C   UNL     1      66.035   7.972   6.061  1.00  0.00     0.302 C 
HETATM    7  O   UNL     1      66.458   8.943   6.679  1.00  0.00    -0.259 OA
BRANCH   6   8
HETATM    8  O   UNL     1      66.513   6.701   6.246  1.00  0.00    -0.322 OA
HETATM    9  C   UNL     1      66.933   6.415   7.580  1.00  0.00     0.213 C 
ENDBRANCH   6   8
ENDBRANCH   1   6
BRANCH   2  10
HETATM   10  N   UNL     1      63.653   9.930   5.589  1.00  0.00    -0.398 N 
HETATM   11  H   UNL     1      63.613  10.819   5.168  1.00  0.00     0.156 HD
HETATM   12  H   UNL     1      63.493   9.836   6.556  1.00  0.00     0.156 HD
ENDBRANCH   2  10
TORSDOF 3
ENDMDL
