MODEL 1
REMARK VINA RESULT:      -4.3      0.000      0.000
REMARK  2 active torsions:
REMARK  status: ('A' for Active; 'I' for Inactive)
REMARK    1  A    between atoms: C_2  and  N_4 
REMARK    2  A    between atoms: C_3  and  N_5 
ROOT
HETATM    1  C   UNL     1      78.532  11.207  19.877  1.00  0.00     0.057 A 
HETATM    2  C   UNL     1      77.350  11.534  19.197  1.00  0.00     0.027 A 
HETATM    3  C   UNL     1      78.944  11.963  20.986  1.00  0.00     0.027 A 
HETATM    4  C   UNL     1      76.985  13.375  20.735  1.00  0.00     0.004 A 
HETATM    5  C   UNL     1      76.577  12.620  19.632  1.00  0.00     0.029 A 
HETATM    6  C   UNL     1      78.164  13.050  21.409  1.00  0.00     0.029 A 
ENDROOT
BRANCH   2   7
HETATM    7  N   UNL     1      76.939  10.772  18.074  1.00  0.00    -0.399 N 
HETATM    8  H   UNL     1      76.059  10.331  18.074  1.00  0.00     0.156 HD
HETATM    9  H   UNL     1      77.533  10.685  17.294  1.00  0.00     0.156 HD
ENDBRANCH   2   7
BRANCH   3  10
HETATM   10  N   UNL     1      80.140  11.634  21.669  1.00  0.00    -0.399 N 
HETATM   11  H   UNL     1      80.155  10.876  22.297  1.00  0.00     0.156 HD
HETATM   12  H   UNL     1      80.955  12.164  21.517  1.00  0.00     0.156 HD
ENDBRANCH   3  10
TORSDOF 2
ENDMDL
MODEL 2
REMARK VINA RESULT:      -4.2     20.911     22.350
REMARK  2 active torsions:
REMARK  status: ('A' for Active; 'I' for Inactive)
REMARK    1  A    between atoms: C_2  and  N_4 
REMARK    2  A    between atoms: C_3  and  N_5 
ROOT
HETATM    1  C   UNL     1      62.242  11.276   4.298  1.00  0.00     0.057 A 
HETATM    2  C   UNL     1      61.973  10.558   3.124  1.00  0.00     0.027 A 
HETATM    3  C   UNL     1      62.980  10.687   5.336  1.00  0.00     0.027 A 
HETATM    4  C   UNL     1      63.181   8.655   4.022  1.00  0.00     0.004 A 
HETATM    5  C   UNL     1      62.447   9.245   2.990  1.00  0.00     0.029 A 
HETATM    6  C   UNL     1      63.446   9.371   5.192  1.00  0.00     0.029 A 
ENDROOT
BRANCH   2   7
HETATM    7  N   UNL     1      61.223  11.154   2.080  1.00  0.00    -0.399 N 
HETATM    8  H   UNL     1      60.799  12.032   2.217  1.00  0.00     0.156 HD
HETATM    9  H   UNL     1      61.125  10.691   1.216  1.00  0.00     0.156 HD
ENDBRANCH   2   7
BRANCH   3  10
HETATM   10  N   UNL     1      63.248  11.412   6.523  1.00  0.00    -0.399 N 
HETATM   11  H   UNL     1      62.529  11.925   6.958  1.00  0.00     0.156 HD
HETATM   12  H   UNL     1      64.152  11.403   6.911  1.00  0.00     0.156 HD
ENDBRANCH   3  10
TORSDOF 2
ENDMDL
MODEL 3
REMARK VINA RESULT:      -4.2      0.777      3.037
REMARK  2 active torsions:
REMARK  status: ('A' for Active; 'I' for Inactive)
REMARK    1  A    between atoms: C_2  and  N_4 
REMARK    2  A    between atoms: C_3  and  N_5 
ROOT
HETATM    1  C   UNL     1      78.068  11.193  19.858  1.00  0.00     0.057 A 
HETATM    2  C   UNL     1      78.119  12.157  20.875  1.00  0.00     0.027 A 
HETATM    3  C   UNL     1      77.174  11.339  18.787  1.00  0.00     0.027 A 
HETATM    4  C   UNL     1      76.378  13.420  19.752  1.00  0.00     0.004 A 
HETATM    5  C   UNL     1      77.271  13.272  20.817  1.00  0.00     0.029 A 
HETATM    6  C   UNL     1      76.327  12.458  18.741  1.00  0.00     0.029 A 
ENDROOT
BRANCH   2   7
HETATM    7  N   UNL     1      79.020  12.003  21.959  1.00  0.00    -0.399 N 
HETATM    8  H   UNL     1      79.940  11.694  21.793  1.00  0.00     0.156 HD
HETATM    9  H   UNL     1      78.727  12.206  22.876  1.00  0.00     0.156 HD
ENDBRANCH   2   7
BRANCH   3  10
HETATM   10  N   UNL     1      77.121  10.363  17.761  1.00  0.00    -0.399 N 
HETATM   11  H   UNL     1      77.293  10.622  16.827  1.00  0.00     0.156 HD
HETATM   12  H   UNL     1      76.912   9.428  17.983  1.00  0.00     0.156 HD
ENDBRANCH   3  10
TORSDOF 2
ENDMDL
MODEL 4
REMARK VINA RESULT:      -4.1     20.782     22.496
REMARK  2 active torsions:
REMARK  status: ('A' for Active; 'I' for Inactive)
REMARK    1  A    between atoms: C_2  and  N_4 
REMARK    2  A    between atoms: C_3  and  N_5 
ROOT
HETATM    1  C   UNL     1      62.274  10.860   4.178  1.00  0.00     0.057 A 
HETATM    2  C   UNL     1      63.137  10.486   5.218  1.00  0.00     0.027 A 
HETATM    3  C   UNL     1      62.051   9.995   3.096  1.00  0.00     0.027 A 
HETATM    4  C   UNL     1      63.558   8.375   4.096  1.00  0.00     0.004 A 
HETATM    5  C   UNL     1      63.777   9.238   5.173  1.00  0.00     0.029 A 
HETATM    6  C   UNL     1      62.700   8.751   3.060  1.00  0.00     0.029 A 
ENDROOT
BRANCH   2   7
HETATM    7  N   UNL     1      63.365  11.363   6.308  1.00  0.00    -0.399 N 
HETATM    8  H   UNL     1      64.119  11.995   6.281  1.00  0.00     0.156 HD
HETATM    9  H   UNL     1      62.768  11.343   7.090  1.00  0.00     0.156 HD
ENDBRANCH   2   7
BRANCH   3  10
HETATM   10  N   UNL     1      61.182  10.377   2.044  1.00  0.00    -0.399 N 
HETATM   11  H   UNL     1      61.156  11.314   1.744  1.00  0.00     0.156 HD
HETATM   12  H   UNL     1      60.605   9.706   1.615  1.00  0.00     0.156 HD
ENDBRANCH   3  10
TORSDOF 2
ENDMDL
MODEL 5
REMARK VINA RESULT:      -4.0     20.917     22.150
REMARK  2 active torsions:
REMARK  status: ('A' for Active; 'I' for Inactive)
REMARK    1  A    between atoms: C_2  and  N_4 
REMARK    2  A    between atoms: C_3  and  N_5 
ROOT
HETATM    1  C   UNL     1      63.577   9.415   5.011  1.00  0.00     0.057 A 
HETATM    2  C   UNL     1      63.064  10.698   5.251  1.00  0.00     0.027 A 
HETATM    3  C   UNL     1      63.224   8.716   3.847  1.00  0.00     0.027 A 
HETATM    4  C   UNL     1      61.842  10.589   3.157  1.00  0.00     0.004 A 
HETATM    5  C   UNL     1      62.197  11.283   4.317  1.00  0.00     0.029 A 
HETATM    6  C   UNL     1      62.352   9.310   2.922  1.00  0.00     0.029 A 
ENDROOT
BRANCH   2   7
HETATM    7  N   UNL     1      63.419  11.400   6.430  1.00  0.00    -0.399 N 
HETATM    8  H   UNL     1      62.804  11.410   7.199  1.00  0.00     0.156 HD
HETATM    9  H   UNL     1      64.279  11.875   6.482  1.00  0.00     0.156 HD
ENDBRANCH   2   7
BRANCH   3  10
HETATM   10  N   UNL     1      63.740   7.418   3.609  1.00  0.00    -0.399 N 
HETATM   11  H   UNL     1      63.959   7.137   2.691  1.00  0.00     0.156 HD
HETATM   12  H   UNL     1      63.879   6.799   4.360  1.00  0.00     0.156 HD
ENDBRANCH   3  10
TORSDOF 2
ENDMDL
MODEL 6
REMARK VINA RESULT:      -3.9     20.866     22.000
REMARK  2 active torsions:
REMARK  status: ('A' for Active; 'I' for Inactive)
REMARK    1  A    between atoms: C_2  and  N_4 
REMARK    2  A    between atoms: C_3  and  N_5 
ROOT
HETATM    1  C   UNL     1      63.631   9.399   5.039  1.00  0.00     0.057 A 
HETATM    2  C   UNL     1      63.257   8.676   3.897  1.00  0.00     0.027 A 
HETATM    3  C   UNL     1      63.113  10.683   5.267  1.00  0.00     0.027 A 
HETATM    4  C   UNL     1      61.841  10.522   3.205  1.00  0.00     0.004 A 
HETATM    5  C   UNL     1      62.358   9.243   2.982  1.00  0.00     0.029 A 
HETATM    6  C   UNL     1      62.218  11.242   4.341  1.00  0.00     0.029 A 
ENDROOT
BRANCH   2   7
HETATM    7  N   UNL     1      63.786   7.382   3.667  1.00  0.00    -0.399 N 
HETATM    8  H   UNL     1      63.202   6.593   3.736  1.00  0.00     0.156 HD
HETATM    9  H   UNL     1      64.736   7.271   3.437  1.00  0.00     0.156 HD
ENDBRANCH   2   7
BRANCH   3  10
HETATM   10  N   UNL     1      63.495  11.414   6.419  1.00  0.00    -0.399 N 
HETATM   11  H   UNL     1      63.820  12.339   6.329  1.00  0.00     0.156 HD
HETATM   12  H   UNL     1      63.437  10.996   7.307  1.00  0.00     0.156 HD
ENDBRANCH   3  10
TORSDOF 2
ENDMDL
MODEL 7
REMARK VINA RESULT:      -3.7     11.255     11.630
REMARK  2 active torsions:
REMARK  status: ('A' for Active; 'I' for Inactive)
REMARK    1  A    between atoms: C_2  and  N_4 
REMARK    2  A    between atoms: C_3  and  N_5 
ROOT
HETATM    1  C   UNL     1      79.444  21.786  15.373  1.00  0.00     0.057 A 
HETATM    2  C   UNL     1      79.643  20.583  14.679  1.00  0.00     0.027 A 
HETATM    3  C   UNL     1      80.300  22.877  15.160  1.00  0.00     0.027 A 
HETATM    4  C   UNL     1      81.557  21.561  13.553  1.00  0.00     0.004 A 
HETATM    5  C   UNL     1      80.703  20.477  13.766  1.00  0.00     0.029 A 
HETATM    6  C   UNL     1      81.359  22.757  14.247  1.00  0.00     0.029 A 
ENDROOT
BRANCH   2   7
HETATM    7  N   UNL     1      78.780  19.481  14.900  1.00  0.00    -0.399 N 
HETATM    8  H   UNL     1      79.156  18.580  15.029  1.00  0.00     0.156 HD
HETATM    9  H   UNL     1      77.806  19.615  14.926  1.00  0.00     0.156 HD
ENDBRANCH   2   7
BRANCH   3  10
HETATM   10  N   UNL     1      80.100  24.090  15.864  1.00  0.00    -0.399 N 
HETATM   11  H   UNL     1      79.392  24.151  16.546  1.00  0.00     0.156 HD
HETATM   12  H   UNL     1      80.667  24.870  15.673  1.00  0.00     0.156 HD
ENDBRANCH   3  10
TORSDOF 2
ENDMDL
MODEL 8
REMARK VINA RESULT:      -3.7     11.240     11.805
REMARK  2 active torsions:
REMARK  status: ('A' for Active; 'I' for Inactive)
REMARK    1  A    between atoms: C_2  and  N_4 
REMARK    2  A    between atoms: C_3  and  N_5 
ROOT
HETATM    1  C   UNL     1      79.448  21.771  15.413  1.00  0.00     0.057 A 
HETATM    2  C   UNL     1      80.295  22.870  15.206  1.00  0.00     0.027 A 
HETATM    3  C   UNL     1      79.642  20.582  14.695  1.00  0.00     0.027 A 
HETATM    4  C   UNL     1      81.537  21.591  13.560  1.00  0.00     0.004 A 
HETATM    5  C   UNL     1      81.341  22.774  14.278  1.00  0.00     0.029 A 
HETATM    6  C   UNL     1      80.691  20.499  13.765  1.00  0.00     0.029 A 
ENDROOT
BRANCH   2   7
HETATM    7  N   UNL     1      80.093  24.072  15.930  1.00  0.00    -0.399 N 
HETATM    8  H   UNL     1      80.836  24.708  16.044  1.00  0.00     0.156 HD
HETATM    9  H   UNL     1      79.211  24.273  16.316  1.00  0.00     0.156 HD
ENDBRANCH   2   7
BRANCH   3  10
HETATM   10  N   UNL     1      78.784  19.474  14.902  1.00  0.00    -0.399 N 
HETATM   11  H   UNL     1      78.168  19.467  15.670  1.00  0.00     0.156 HD
HETATM   12  H   UNL     1      78.804  18.713  14.279  1.00  0.00     0.156 HD
ENDBRANCH   3  10
TORSDOF 2
ENDMDL
MODEL 9
REMARK VINA RESULT:      -3.7     15.817     16.919
REMARK  2 active torsions:
REMARK  status: ('A' for Active; 'I' for Inactive)
REMARK    1  A    between atoms: C_2  and  N_4 
REMARK    2  A    between atoms: C_3  and  N_5 
ROOT
HETATM    1  C   UNL     1      68.570   5.246   9.324  1.00  0.00     0.057 A 
HETATM    2  C   UNL     1      67.973   5.743   8.156  1.00  0.00     0.027 A 
HETATM    3  C   UNL     1      69.138   3.963   9.339  1.00  0.00     0.027 A 
HETATM    4  C   UNL     1      68.511   3.672   7.011  1.00  0.00     0.004 A 
HETATM    5  C   UNL     1      67.948   4.950   6.999  1.00  0.00     0.029 A 
HETATM    6  C   UNL     1      69.103   3.177   8.176  1.00  0.00     0.029 A 
ENDROOT
BRANCH   2   7
HETATM    7  N   UNL     1      67.396   7.037   8.145  1.00  0.00    -0.399 N 
HETATM    8  H   UNL     1      67.721   7.726   8.769  1.00  0.00     0.156 HD
HETATM    9  H   UNL     1      66.671   7.249   7.514  1.00  0.00     0.156 HD
ENDBRANCH   2   7
BRANCH   3  10
HETATM   10  N   UNL     1      69.737   3.461  10.520  1.00  0.00    -0.399 N 
HETATM   11  H   UNL     1      70.599   2.988  10.471  1.00  0.00     0.156 HD
HETATM   12  H   UNL     1      69.291   3.583  11.388  1.00  0.00     0.156 HD
ENDBRANCH   3  10
TORSDOF 2
ENDMDL
