MODEL 1
REMARK VINA RESULT:      -4.7      0.000      0.000
REMARK  2 active torsions:
REMARK  status: ('A' for Active; 'I' for Inactive)
REMARK    1  A    between atoms: C_2  and  N_4 
REMARK    2  A    between atoms: C_3  and  O_5 
ROOT
HETATM    1  C   UNL     1      77.637  11.077  19.909  1.00  0.00     0.065 A 
HETATM    2  C   UNL     1      77.383  11.970  20.957  1.00  0.00     0.028 A 
HETATM    3  C   UNL     1      77.171  11.337  18.617  1.00  0.00     0.070 A 
HETATM    4  C   UNL     1      76.099  13.349  19.431  1.00  0.00     0.005 A 
HETATM    5  C   UNL     1      76.571  13.081  20.716  1.00  0.00     0.029 A 
HETATM    6  C   UNL     1      76.405  12.482  18.386  1.00  0.00     0.037 A 
ENDROOT
BRANCH   2   7
HETATM    7  N   UNL     1      77.739  11.631  22.270  1.00  0.00    -0.399 N 
HETATM    8  H   UNL     1      77.176  11.921  23.023  1.00  0.00     0.156 HD
HETATM    9  H   UNL     1      78.552  11.102  22.438  1.00  0.00     0.156 HD
ENDBRANCH   2   7
BRANCH   3  10
HETATM   10  O   UNL     1      77.379  10.554  17.514  1.00  0.00    -0.356 OA
HETATM   11  C   UNL     1      77.361   9.147  17.717  1.00  0.00     0.210 C 
ENDBRANCH   3  10
TORSDOF 2
ENDMDL
MODEL 2
REMARK VINA RESULT:      -4.6     13.836     14.300
REMARK  2 active torsions:
REMARK  status: ('A' for Active; 'I' for Inactive)
REMARK    1  A    between atoms: C_2  and  N_4 
REMARK    2  A    between atoms: C_3  and  O_5 
ROOT
HETATM    1  C   UNL     1      70.778  23.207  13.774  1.00  0.00     0.065 A 
HETATM    2  C   UNL     1      71.072  24.377  14.484  1.00  0.00     0.028 A 
HETATM    3  C   UNL     1      71.795  22.449  13.188  1.00  0.00     0.070 A 
HETATM    4  C   UNL     1      73.415  24.086  13.933  1.00  0.00     0.005 A 
HETATM    5  C   UNL     1      72.392  24.834  14.516  1.00  0.00     0.029 A 
HETATM    6  C   UNL     1      73.115  22.894  13.277  1.00  0.00     0.037 A 
ENDROOT
BRANCH   2   7
HETATM    7  N   UNL     1      70.033  25.197  14.948  1.00  0.00    -0.399 N 
HETATM    8  H   UNL     1      69.860  26.064  14.517  1.00  0.00     0.156 HD
HETATM    9  H   UNL     1      69.479  24.904  15.707  1.00  0.00     0.156 HD
ENDBRANCH   2   7
BRANCH   3  10
HETATM   10  O   UNL     1      71.630  21.279  12.496  1.00  0.00    -0.356 OA
HETATM   11  C   UNL     1      71.442  21.388  11.092  1.00  0.00     0.210 C 
ENDBRANCH   3  10
TORSDOF 2
ENDMDL
MODEL 3
REMARK VINA RESULT:      -4.3     12.329     13.568
REMARK  2 active torsions:
REMARK  status: ('A' for Active; 'I' for Inactive)
REMARK    1  A    between atoms: C_2  and  N_4 
REMARK    2  A    between atoms: C_3  and  O_5 
ROOT
HETATM    1  C   UNL     1      72.392  22.266  13.502  1.00  0.00     0.065 A 
HETATM    2  C   UNL     1      71.155  22.922  13.527  1.00  0.00     0.028 A 
HETATM    3  C   UNL     1      73.448  22.699  14.309  1.00  0.00     0.070 A 
HETATM    4  C   UNL     1      72.068  24.521  15.105  1.00  0.00     0.005 A 
HETATM    5  C   UNL     1      71.019  24.079  14.298  1.00  0.00     0.029 A 
HETATM    6  C   UNL     1      73.275  23.827  15.113  1.00  0.00     0.037 A 
ENDROOT
BRANCH   2   7
HETATM    7  N   UNL     1      70.151  22.562  12.616  1.00  0.00    -0.399 N 
HETATM    8  H   UNL     1      70.082  23.025  11.751  1.00  0.00     0.156 HD
HETATM    9  H   UNL     1      69.515  21.846  12.844  1.00  0.00     0.156 HD
ENDBRANCH   2   7
BRANCH   3  10
HETATM   10  O   UNL     1      74.688  22.124  14.387  1.00  0.00    -0.356 OA
HETATM   11  C   UNL     1      75.070  21.598  15.651  1.00  0.00     0.210 C 
ENDBRANCH   3  10
TORSDOF 2
ENDMDL
MODEL 4
REMARK VINA RESULT:      -4.2      6.330      8.481
REMARK  2 active torsions:
REMARK  status: ('A' for Active; 'I' for Inactive)
REMARK    1  A    between atoms: C_2  and  N_4 
REMARK    2  A    between atoms: C_3  and  O_5 
ROOT
HETATM    1  C   UNL     1      76.873   3.476  18.197  1.00  0.00     0.065 A 
HETATM    2  C   UNL     1      75.988   2.422  17.939  1.00  0.00     0.028 A 
HETATM    3  C   UNL     1      76.648   4.748  17.662  1.00  0.00     0.070 A 
HETATM    4  C   UNL     1      74.692   3.898  16.517  1.00  0.00     0.005 A 
HETATM    5  C   UNL     1      74.925   2.633  17.057  1.00  0.00     0.029 A 
HETATM    6  C   UNL     1      75.549   4.952  16.826  1.00  0.00     0.037 A 
ENDROOT
BRANCH   2   7
HETATM    7  N   UNL     1      76.299   1.124  18.368  1.00  0.00    -0.399 N 
HETATM    8  H   UNL     1      76.668   0.978  19.268  1.00  0.00     0.156 HD
HETATM    9  H   UNL     1      76.147   0.358  17.768  1.00  0.00     0.156 HD
ENDBRANCH   2   7
BRANCH   3  10
HETATM   10  O   UNL     1      77.426   5.855  17.866  1.00  0.00    -0.356 OA
HETATM   11  C   UNL     1      76.859   7.109  17.513  1.00  0.00     0.210 C 
ENDBRANCH   3  10
TORSDOF 2
ENDMDL
MODEL 5
REMARK VINA RESULT:      -4.0      8.002      9.145
REMARK  2 active torsions:
REMARK  status: ('A' for Active; 'I' for Inactive)
REMARK    1  A    between atoms: C_2  and  N_4 
REMARK    2  A    between atoms: C_3  and  O_5 
ROOT
HETATM    1  C   UNL     1      76.837   3.300  18.041  1.00  0.00     0.065 A 
HETATM    2  C   UNL     1      76.515   4.495  17.387  1.00  0.00     0.028 A 
HETATM    3  C   UNL     1      75.987   2.193  17.969  1.00  0.00     0.070 A 
HETATM    4  C   UNL     1      74.426   3.502  16.662  1.00  0.00     0.005 A 
HETATM    5  C   UNL     1      75.282   4.600  16.738  1.00  0.00     0.029 A 
HETATM    6  C   UNL     1      74.783   2.301  17.271  1.00  0.00     0.037 A 
ENDROOT
BRANCH   2   7
HETATM    7  N   UNL     1      77.308   5.636  17.579  1.00  0.00    -0.399 N 
HETATM    8  H   UNL     1      78.271   5.606  17.380  1.00  0.00     0.156 HD
HETATM    9  H   UNL     1      76.900   6.467  17.914  1.00  0.00     0.156 HD
ENDBRANCH   2   7
BRANCH   3  10
HETATM   10  O   UNL     1      76.209   0.970  18.544  1.00  0.00    -0.356 OA
HETATM   11  C   UNL     1      77.517   0.430  18.412  1.00  0.00     0.210 C 
ENDBRANCH   3  10
TORSDOF 2
ENDMDL
MODEL 6
REMARK VINA RESULT:      -4.0     21.187     22.059
REMARK  2 active torsions:
REMARK  status: ('A' for Active; 'I' for Inactive)
REMARK    1  A    between atoms: C_2  and  N_4 
REMARK    2  A    between atoms: C_3  and  O_5 
ROOT
HETATM    1  C   UNL     1      62.573   8.882   3.216  1.00  0.00     0.065 A 
HETATM    2  C   UNL     1      62.149   9.448   2.008  1.00  0.00     0.028 A 
HETATM    3  C   UNL     1      62.593   9.637   4.392  1.00  0.00     0.070 A 
HETATM    4  C   UNL     1      61.857  11.573   3.140  1.00  0.00     0.005 A 
HETATM    5  C   UNL     1      61.838  10.810   1.972  1.00  0.00     0.029 A 
HETATM    6  C   UNL     1      62.228  10.983   4.346  1.00  0.00     0.037 A 
ENDROOT
BRANCH   2   7
HETATM    7  N   UNL     1      62.261   8.722   0.814  1.00  0.00    -0.399 N 
HETATM    8  H   UNL     1      62.547   9.173  -0.012  1.00  0.00     0.156 HD
HETATM    9  H   UNL     1      62.054   7.759   0.803  1.00  0.00     0.156 HD
ENDBRANCH   2   7
BRANCH   3  10
HETATM   10  O   UNL     1      62.962   9.185   5.631  1.00  0.00    -0.356 OA
HETATM   11  C   UNL     1      63.030   7.776   5.804  1.00  0.00     0.210 C 
ENDBRANCH   3  10
TORSDOF 2
ENDMDL
MODEL 7
REMARK VINA RESULT:      -3.9     14.770     15.752
REMARK  2 active torsions:
REMARK  status: ('A' for Active; 'I' for Inactive)
REMARK    1  A    between atoms: C_2  and  N_4 
REMARK    2  A    between atoms: C_3  and  O_5 
ROOT
HETATM    1  C   UNL     1      68.023   3.248   9.506  1.00  0.00     0.065 A 
HETATM    2  C   UNL     1      69.378   3.204   9.859  1.00  0.00     0.028 A 
HETATM    3  C   UNL     1      67.538   4.243   8.652  1.00  0.00     0.070 A 
HETATM    4  C   UNL     1      69.748   5.227   8.575  1.00  0.00     0.005 A 
HETATM    5  C   UNL     1      70.223   4.229   9.426  1.00  0.00     0.029 A 
HETATM    6  C   UNL     1      68.411   5.228   8.186  1.00  0.00     0.037 A 
ENDROOT
BRANCH   2   7
HETATM    7  N   UNL     1      69.823   2.285  10.821  1.00  0.00    -0.399 N 
HETATM    8  H   UNL     1      69.430   2.287  11.723  1.00  0.00     0.156 HD
HETATM    9  H   UNL     1      70.529   1.639  10.592  1.00  0.00     0.156 HD
ENDBRANCH   2   7
BRANCH   3  10
HETATM   10  O   UNL     1      66.246   4.370   8.219  1.00  0.00    -0.356 OA
HETATM   11  C   UNL     1      65.853   5.651   7.746  1.00  0.00     0.210 C 
ENDBRANCH   3  10
TORSDOF 2
ENDMDL
MODEL 8
REMARK VINA RESULT:      -3.8     14.991     15.877
REMARK  2 active torsions:
REMARK  status: ('A' for Active; 'I' for Inactive)
REMARK    1  A    between atoms: C_2  and  N_4 
REMARK    2  A    between atoms: C_3  and  O_5 
ROOT
HETATM    1  C   UNL     1      67.616   4.387   8.428  1.00  0.00     0.065 A 
HETATM    2  C   UNL     1      68.509   5.429   8.150  1.00  0.00     0.028 A 
HETATM    3  C   UNL     1      68.010   3.293   9.203  1.00  0.00     0.070 A 
HETATM    4  C   UNL     1      70.239   4.227   9.351  1.00  0.00     0.005 A 
HETATM    5  C   UNL     1      69.834   5.315   8.578  1.00  0.00     0.029 A 
HETATM    6  C   UNL     1      69.325   3.224   9.667  1.00  0.00     0.037 A 
ENDROOT
BRANCH   2   7
HETATM    7  N   UNL     1      68.142   6.450   7.261  1.00  0.00    -0.399 N 
HETATM    8  H   UNL     1      67.510   6.263   6.531  1.00  0.00     0.156 HD
HETATM    9  H   UNL     1      68.519   7.353   7.368  1.00  0.00     0.156 HD
ENDBRANCH   2   7
BRANCH   3  10
HETATM   10  O   UNL     1      67.220   2.234   9.560  1.00  0.00    -0.356 OA
HETATM   11  C   UNL     1      67.748   1.340  10.531  1.00  0.00     0.210 C 
ENDBRANCH   3  10
TORSDOF 2
ENDMDL
MODEL 9
REMARK VINA RESULT:      -3.8     21.304     22.257
REMARK  2 active torsions:
REMARK  status: ('A' for Active; 'I' for Inactive)
REMARK    1  A    between atoms: C_2  and  N_4 
REMARK    2  A    between atoms: C_3  and  O_5 
ROOT
HETATM    1  C   UNL     1      62.157  10.268   3.722  1.00  0.00     0.065 A 
HETATM    2  C   UNL     1      61.960  10.635   2.385  1.00  0.00     0.028 A 
HETATM    3  C   UNL     1      62.502   8.958   4.062  1.00  0.00     0.070 A 
HETATM    4  C   UNL     1      62.359   8.336   1.727  1.00  0.00     0.005 A 
HETATM    5  C   UNL     1      62.017   9.648   1.398  1.00  0.00     0.029 A 
HETATM    6  C   UNL     1      62.606   7.996   3.055  1.00  0.00     0.037 A 
ENDROOT
BRANCH   2   7
HETATM    7  N   UNL     1      61.483  11.916   2.071  1.00  0.00    -0.399 N 
HETATM    8  H   UNL     1      62.079  12.571   1.641  1.00  0.00     0.156 HD
HETATM    9  H   UNL     1      60.553  12.160   2.281  1.00  0.00     0.156 HD
ENDBRANCH   2   7
BRANCH   3  10
HETATM   10  O   UNL     1      62.743   8.492   5.326  1.00  0.00    -0.356 OA
HETATM   11  C   UNL     1      63.964   7.793   5.528  1.00  0.00     0.210 C 
ENDBRANCH   3  10
TORSDOF 2
ENDMDL
