MODEL 1
REMARK VINA RESULT:      -5.4      0.000      0.000
REMARK  3 active torsions:
REMARK  status: ('A' for Active; 'I' for Inactive)
REMARK    1  A    between atoms: C_1  and  O_2 
REMARK    2  A    between atoms: O_2  and  C_3 
REMARK    3  A    between atoms: C_4  and  N_8 
ROOT
HETATM    1  C   UNL     1      78.891  12.569  21.166  1.00  0.00     0.104 A 
HETATM    2  C   UNL     1      78.942  11.506  20.243  1.00  0.00     0.059 A 
HETATM    3  C   UNL     1      77.719  13.316  21.305  1.00  0.00     0.039 A 
HETATM    4  C   UNL     1      77.817  11.229  19.460  1.00  0.00     0.032 A 
HETATM    5  C   UNL     1      76.625  13.059  20.483  1.00  0.00     0.003 A 
HETATM    6  C   UNL     1      76.677  12.025  19.548  1.00  0.00     0.002 A 
ENDROOT
BRANCH   1   7
HETATM    7  O   UNL     1      80.050  12.784  21.869  1.00  0.00    -0.253 OA
BRANCH   7   8
HETATM    8  C   UNL     1      80.001  12.591  23.274  1.00  0.00     0.530 C 
HETATM    9  F   UNL     1      81.172  12.174  23.797  1.00  0.00    -0.144 F 
HETATM   10  F   UNL     1      79.077  11.640  23.539  1.00  0.00    -0.144 F 
HETATM   11  F   UNL     1      79.620  13.732  23.885  1.00  0.00    -0.144 F 
ENDBRANCH   7   8
ENDBRANCH   1   7
BRANCH   2  12
HETATM   12  N   UNL     1      80.016  10.597  20.247  1.00  0.00    -0.397 N 
HETATM   13  H   UNL     1      79.847   9.637  20.374  1.00  0.00     0.156 HD
HETATM   14  H   UNL     1      80.937  10.924  20.122  1.00  0.00     0.156 HD
ENDBRANCH   2  12
TORSDOF 3
ENDMDL
MODEL 2
REMARK VINA RESULT:      -5.0      3.556      4.429
REMARK  3 active torsions:
REMARK  status: ('A' for Active; 'I' for Inactive)
REMARK    1  A    between atoms: C_1  and  O_2 
REMARK    2  A    between atoms: O_2  and  C_3 
REMARK    3  A    between atoms: C_4  and  N_8 
ROOT
HETATM    1  C   UNL     1      77.991  12.014  20.010  1.00  0.00     0.104 A 
HETATM    2  C   UNL     1      79.130  11.210  20.215  1.00  0.00     0.059 A 
HETATM    3  C   UNL     1      77.695  13.045  20.904  1.00  0.00     0.039 A 
HETATM    4  C   UNL     1      79.940  11.447  21.331  1.00  0.00     0.032 A 
HETATM    5  C   UNL     1      78.484  13.235  22.036  1.00  0.00     0.003 A 
HETATM    6  C   UNL     1      79.597  12.427  22.260  1.00  0.00     0.002 A 
ENDROOT
BRANCH   1   7
HETATM    7  O   UNL     1      77.243  11.690  18.905  1.00  0.00    -0.253 OA
BRANCH   7   8
HETATM    8  C   UNL     1      76.535  12.743  18.270  1.00  0.00     0.530 C 
HETATM    9  F   UNL     1      77.087  13.956  18.473  1.00  0.00    -0.144 F 
HETATM   10  F   UNL     1      75.282  12.777  18.777  1.00  0.00    -0.144 F 
HETATM   11  F   UNL     1      76.447  12.508  16.945  1.00  0.00    -0.144 F 
ENDBRANCH   7   8
ENDBRANCH   1   7
BRANCH   2  12
HETATM   12  N   UNL     1      79.579  10.326  19.217  1.00  0.00    -0.397 N 
HETATM   13  H   UNL     1      80.038   9.493  19.468  1.00  0.00     0.156 HD
HETATM   14  H   UNL     1      79.433  10.542  18.267  1.00  0.00     0.156 HD
ENDBRANCH   2  12
TORSDOF 3
ENDMDL
MODEL 3
REMARK VINA RESULT:      -4.9     21.596     22.917
REMARK  3 active torsions:
REMARK  status: ('A' for Active; 'I' for Inactive)
REMARK    1  A    between atoms: C_1  and  O_2 
REMARK    2  A    between atoms: O_2  and  C_3 
REMARK    3  A    between atoms: C_4  and  N_8 
ROOT
HETATM    1  C   UNL     1      63.230   9.250   4.995  1.00  0.00     0.104 A 
HETATM    2  C   UNL     1      62.955  10.611   5.234  1.00  0.00     0.059 A 
HETATM    3  C   UNL     1      62.822   8.655   3.799  1.00  0.00     0.039 A 
HETATM    4  C   UNL     1      62.252  11.343   4.270  1.00  0.00     0.032 A 
HETATM    5  C   UNL     1      62.080   9.385   2.873  1.00  0.00     0.003 A 
HETATM    6  C   UNL     1      61.780  10.725   3.114  1.00  0.00     0.002 A 
ENDROOT
BRANCH   1   7
HETATM    7  O   UNL     1      63.899   8.607   6.006  1.00  0.00    -0.253 OA
BRANCH   7   8
HETATM    8  C   UNL     1      65.076   7.895   5.656  1.00  0.00     0.530 C 
HETATM    9  F   UNL     1      64.830   6.657   5.181  1.00  0.00    -0.144 F 
HETATM   10  F   UNL     1      65.835   7.759   6.767  1.00  0.00    -0.144 F 
HETATM   11  F   UNL     1      65.784   8.592   4.744  1.00  0.00    -0.144 F 
ENDBRANCH   7   8
ENDBRANCH   1   7
BRANCH   2  12
HETATM   12  N   UNL     1      63.551  11.290   6.312  1.00  0.00    -0.397 N 
HETATM   13  H   UNL     1      64.503  11.534   6.273  1.00  0.00     0.156 HD
HETATM   14  H   UNL     1      63.014  11.522   7.104  1.00  0.00     0.156 HD
ENDBRANCH   2  12
TORSDOF 3
ENDMDL
MODEL 4
REMARK VINA RESULT:      -4.4     22.963     24.235
REMARK  3 active torsions:
REMARK  status: ('A' for Active; 'I' for Inactive)
REMARK    1  A    between atoms: C_1  and  O_2 
REMARK    2  A    between atoms: O_2  and  C_3 
REMARK    3  A    between atoms: C_4  and  N_8 
ROOT
HETATM    1  C   UNL     1      62.485   9.128   3.731  1.00  0.00     0.104 A 
HETATM    2  C   UNL     1      62.398   8.851   2.352  1.00  0.00     0.059 A 
HETATM    3  C   UNL     1      62.193  10.408   4.205  1.00  0.00     0.039 A 
HETATM    4  C   UNL     1      62.039   9.879   1.473  1.00  0.00     0.032 A 
HETATM    5  C   UNL     1      61.885  11.431   3.312  1.00  0.00     0.003 A 
HETATM    6  C   UNL     1      61.823  11.173   1.943  1.00  0.00     0.002 A 
ENDROOT
BRANCH   1   7
HETATM    7  O   UNL     1      62.871   8.067   4.512  1.00  0.00    -0.253 OA
BRANCH   7   8
HETATM    8  C   UNL     1      64.228   8.027   4.927  1.00  0.00     0.530 C 
HETATM    9  F   UNL     1      64.761   9.248   5.130  1.00  0.00    -0.144 F 
HETATM   10  F   UNL     1      64.950   7.425   3.955  1.00  0.00    -0.144 F 
HETATM   11  F   UNL     1      64.345   7.295   6.054  1.00  0.00    -0.144 F 
ENDBRANCH   7   8
ENDBRANCH   1   7
BRANCH   2  12
HETATM   12  N   UNL     1      62.458   7.529   1.875  1.00  0.00    -0.397 N 
HETATM   13  H   UNL     1      62.912   7.333   1.024  1.00  0.00     0.156 HD
HETATM   14  H   UNL     1      62.044   6.801   2.393  1.00  0.00     0.156 HD
ENDBRANCH   2  12
TORSDOF 3
ENDMDL
MODEL 5
REMARK VINA RESULT:      -4.4     18.215     19.151
REMARK  3 active torsions:
REMARK  status: ('A' for Active; 'I' for Inactive)
REMARK    1  A    between atoms: C_1  and  O_2 
REMARK    2  A    between atoms: O_2  and  C_3 
REMARK    3  A    between atoms: C_4  and  N_8 
ROOT
HETATM    1  C   UNL     1      67.864   4.844   8.098  1.00  0.00     0.104 A 
HETATM    2  C   UNL     1      67.483   3.555   8.519  1.00  0.00     0.059 A 
HETATM    3  C   UNL     1      69.141   5.326   8.393  1.00  0.00     0.039 A 
HETATM    4  C   UNL     1      68.391   2.782   9.251  1.00  0.00     0.032 A 
HETATM    5  C   UNL     1      70.014   4.563   9.165  1.00  0.00     0.003 A 
HETATM    6  C   UNL     1      69.636   3.296   9.609  1.00  0.00     0.002 A 
ENDROOT
BRANCH   1   7
HETATM    7  O   UNL     1      66.900   5.539   7.410  1.00  0.00    -0.253 OA
BRANCH   7   8
HETATM    8  C   UNL     1      66.263   6.609   8.090  1.00  0.00     0.530 C 
HETATM    9  F   UNL     1      66.148   6.406   9.418  1.00  0.00    -0.144 F 
HETATM   10  F   UNL     1      65.014   6.744   7.590  1.00  0.00    -0.144 F 
HETATM   11  F   UNL     1      66.932   7.760   7.870  1.00  0.00    -0.144 F 
ENDBRANCH   7   8
ENDBRANCH   1   7
BRANCH   2  12
HETATM   12  N   UNL     1      66.303   2.958   8.041  1.00  0.00    -0.397 N 
HETATM   13  H   UNL     1      65.591   3.517   7.655  1.00  0.00     0.156 HD
HETATM   14  H   UNL     1      66.190   1.981   8.093  1.00  0.00     0.156 HD
ENDBRANCH   2  12
TORSDOF 3
ENDMDL
MODEL 6
REMARK VINA RESULT:      -4.3     20.785     21.785
REMARK  3 active torsions:
REMARK  status: ('A' for Active; 'I' for Inactive)
REMARK    1  A    between atoms: C_1  and  O_2 
REMARK    2  A    between atoms: O_2  and  C_3 
REMARK    3  A    between atoms: C_4  and  N_8 
ROOT
HETATM    1  C   UNL     1      66.078   7.761   5.073  1.00  0.00     0.104 A 
HETATM    2  C   UNL     1      66.932   7.574   6.178  1.00  0.00     0.059 A 
HETATM    3  C   UNL     1      65.929   6.745   4.127  1.00  0.00     0.039 A 
HETATM    4  C   UNL     1      67.638   6.372   6.298  1.00  0.00     0.032 A 
HETATM    5  C   UNL     1      66.677   5.575   4.235  1.00  0.00     0.003 A 
HETATM    6  C   UNL     1      67.544   5.393   5.311  1.00  0.00     0.002 A 
ENDROOT
BRANCH   1   7
HETATM    7  O   UNL     1      65.448   8.980   5.025  1.00  0.00    -0.253 OA
BRANCH   7   8
HETATM    8  C   UNL     1      64.030   8.978   5.022  1.00  0.00     0.530 C 
HETATM    9  F   UNL     1      63.498   8.762   3.802  1.00  0.00    -0.144 F 
HETATM   10  F   UNL     1      63.604  10.192   5.441  1.00  0.00    -0.144 F 
HETATM   11  F   UNL     1      63.566   8.049   5.882  1.00  0.00    -0.144 F 
ENDBRANCH   7   8
ENDBRANCH   1   7
BRANCH   2  12
HETATM   12  N   UNL     1      66.923   8.475   7.258  1.00  0.00    -0.397 N 
HETATM   13  H   UNL     1      67.575   9.212   7.289  1.00  0.00     0.156 HD
HETATM   14  H   UNL     1      66.264   8.369   7.982  1.00  0.00     0.156 HD
ENDBRANCH   2  12
TORSDOF 3
ENDMDL
MODEL 7
REMARK VINA RESULT:      -4.3     15.755     16.668
REMARK  3 active torsions:
REMARK  status: ('A' for Active; 'I' for Inactive)
REMARK    1  A    between atoms: C_1  and  O_2 
REMARK    2  A    between atoms: O_2  and  C_3 
REMARK    3  A    between atoms: C_4  and  N_8 
ROOT
HETATM    1  C   UNL     1      70.433  24.374  14.312  1.00  0.00     0.104 A 
HETATM    2  C   UNL     1      70.941  23.242  13.644  1.00  0.00     0.059 A 
HETATM    3  C   UNL     1      71.303  25.231  14.989  1.00  0.00     0.039 A 
HETATM    4  C   UNL     1      72.315  22.983  13.688  1.00  0.00     0.032 A 
HETATM    5  C   UNL     1      72.661  24.932  15.065  1.00  0.00     0.003 A 
HETATM    6  C   UNL     1      73.167  23.800  14.429  1.00  0.00     0.002 A 
ENDROOT
BRANCH   1   7
HETATM    7  O   UNL     1      69.072  24.531  14.236  1.00  0.00    -0.253 OA
BRANCH   7   8
HETATM    8  C   UNL     1      68.400  24.945  15.415  1.00  0.00     0.530 C 
HETATM    9  F   UNL     1      69.106  25.828  16.150  1.00  0.00    -0.144 F 
HETATM   10  F   UNL     1      68.186  23.855  16.186  1.00  0.00    -0.144 F 
HETATM   11  F   UNL     1      67.203  25.481  15.101  1.00  0.00    -0.144 F 
ENDBRANCH   7   8
ENDBRANCH   1   7
BRANCH   2  12
HETATM   12  N   UNL     1      70.131  22.497  12.767  1.00  0.00    -0.397 N 
HETATM   13  H   UNL     1      69.397  22.937  12.282  1.00  0.00     0.156 HD
HETATM   14  H   UNL     1      70.299  21.535  12.641  1.00  0.00     0.156 HD
ENDBRANCH   2  12
TORSDOF 3
ENDMDL
MODEL 8
REMARK VINA RESULT:      -4.3     18.386     19.684
REMARK  3 active torsions:
REMARK  status: ('A' for Active; 'I' for Inactive)
REMARK    1  A    between atoms: C_1  and  O_2 
REMARK    2  A    between atoms: O_2  and  C_3 
REMARK    3  A    between atoms: C_4  and  N_8 
ROOT
HETATM    1  C   UNL     1      66.904   6.157   6.759  1.00  0.00     0.104 A 
HETATM    2  C   UNL     1      66.868   7.483   6.284  1.00  0.00     0.059 A 
HETATM    3  C   UNL     1      67.063   5.099   5.863  1.00  0.00     0.039 A 
HETATM    4  C   UNL     1      66.971   7.716   4.909  1.00  0.00     0.032 A 
HETATM    5  C   UNL     1      67.115   5.345   4.493  1.00  0.00     0.003 A 
HETATM    6  C   UNL     1      67.053   6.653   4.012  1.00  0.00     0.002 A 
ENDROOT
BRANCH   1   7
HETATM    7  O   UNL     1      66.768   6.024   8.119  1.00  0.00    -0.253 OA
BRANCH   7   8
HETATM    8  C   UNL     1      67.899   5.563   8.842  1.00  0.00     0.530 C 
HETATM    9  F   UNL     1      69.068   5.803   8.215  1.00  0.00    -0.144 F 
HETATM   10  F   UNL     1      67.787   4.223   8.993  1.00  0.00    -0.144 F 
HETATM   11  F   UNL     1      67.925   6.125  10.068  1.00  0.00    -0.144 F 
ENDBRANCH   7   8
ENDBRANCH   1   7
BRANCH   2  12
HETATM   12  N   UNL     1      66.944   8.571   7.172  1.00  0.00    -0.397 N 
HETATM   13  H   UNL     1      67.488   8.502   7.989  1.00  0.00     0.156 HD
HETATM   14  H   UNL     1      66.451   9.401   6.976  1.00  0.00     0.156 HD
ENDBRANCH   2  12
TORSDOF 3
ENDMDL
MODEL 9
REMARK VINA RESULT:      -4.2     18.032     19.296
REMARK  3 active torsions:
REMARK  status: ('A' for Active; 'I' for Inactive)
REMARK    1  A    between atoms: C_1  and  O_2 
REMARK    2  A    between atoms: O_2  and  C_3 
REMARK    3  A    between atoms: C_4  and  N_8 
ROOT
HETATM    1  C   UNL     1      67.504   5.735   6.945  1.00  0.00     0.104 A 
HETATM    2  C   UNL     1      66.142   5.445   7.163  1.00  0.00     0.059 A 
HETATM    3  C   UNL     1      67.866   6.821   6.146  1.00  0.00     0.039 A 
HETATM    4  C   UNL     1      65.169   6.243   6.551  1.00  0.00     0.032 A 
HETATM    5  C   UNL     1      66.886   7.575   5.505  1.00  0.00     0.003 A 
HETATM    6  C   UNL     1      65.537   7.278   5.693  1.00  0.00     0.002 A 
ENDROOT
BRANCH   1   7
HETATM    7  O   UNL     1      68.385   4.882   7.563  1.00  0.00    -0.253 OA
BRANCH   7   8
HETATM    8  C   UNL     1      69.024   5.350   8.740  1.00  0.00     0.530 C 
HETATM    9  F   UNL     1      70.282   5.787   8.528  1.00  0.00    -0.144 F 
HETATM   10  F   UNL     1      69.093   4.326   9.620  1.00  0.00    -0.144 F 
HETATM   11  F   UNL     1      68.296   6.339   9.300  1.00  0.00    -0.144 F 
ENDBRANCH   7   8
ENDBRANCH   1   7
BRANCH   2  12
HETATM   12  N   UNL     1      65.749   4.513   8.140  1.00  0.00    -0.397 N 
HETATM   13  H   UNL     1      66.424   3.946   8.578  1.00  0.00     0.156 HD
HETATM   14  H   UNL     1      64.799   4.428   8.385  1.00  0.00     0.156 HD
ENDBRANCH   2  12
TORSDOF 3
ENDMDL
