MODEL 1
REMARK VINA RESULT:      -6.3      0.000      0.000
REMARK  3 active torsions:
REMARK  status: ('A' for Active; 'I' for Inactive)
REMARK    1  A    between atoms: C_1  and  C_3 
REMARK       I    between atoms: C_1  and  N_4 
REMARK    2  A    between atoms: C_3  and  C_5 
REMARK    3  A    between atoms: C_6  and  O_11 
ROOT
HETATM    1  C   UNL     1      77.435   8.735  16.928  1.00  0.00    -0.049 A 
HETATM    2  C   UNL     1      77.471   8.266  14.174  1.00  0.00     0.065 A 
HETATM    3  C   UNL     1      77.852   9.739  16.041  1.00  0.00     0.010 A 
HETATM    4  C   UNL     1      77.044   7.490  16.412  1.00  0.00     0.010 A 
HETATM    5  C   UNL     1      77.057   7.255  15.036  1.00  0.00     0.037 A 
HETATM    6  C   UNL     1      77.868   9.502  14.666  1.00  0.00     0.037 A 
ENDROOT
BRANCH   1   7
HETATM    7  C   UNL     1      77.428   8.984  18.419  1.00  0.00     0.141 C 
BRANCH   7   8
HETATM    8  C   UNL     1      78.247  10.192  18.834  1.00  0.00     0.219 C 
HETATM    9  O   UNL     1      77.784  11.326  18.915  1.00  0.00    -0.273 OA
HETATM   10  N   UNL     1      79.546   9.942  19.169  1.00  0.00    -0.370 N 
HETATM   11  H   UNL     1      80.134  10.680  19.448  1.00  0.00     0.159 HD
HETATM   12  H   UNL     1      79.895   9.022  19.134  1.00  0.00     0.159 HD
ENDBRANCH   7   8
ENDBRANCH   1   7
BRANCH   2  13
HETATM   13  O   UNL     1      77.505   8.078  12.824  1.00  0.00    -0.361 OA
HETATM   14  H   UNL     1      78.323   8.112  12.367  1.00  0.00     0.217 HD
ENDBRANCH   2  13
TORSDOF 3
ENDMDL
MODEL 2
REMARK VINA RESULT:      -5.7     14.440     15.525
REMARK  3 active torsions:
REMARK  status: ('A' for Active; 'I' for Inactive)
REMARK    1  A    between atoms: C_1  and  C_3 
REMARK       I    between atoms: C_1  and  N_4 
REMARK    2  A    between atoms: C_3  and  C_5 
REMARK    3  A    between atoms: C_6  and  O_11 
ROOT
HETATM    1  C   UNL     1      71.809  22.651  12.775  1.00  0.00    -0.049 A 
HETATM    2  C   UNL     1      73.169  23.488  15.068  1.00  0.00     0.065 A 
HETATM    3  C   UNL     1      73.211  22.650  12.810  1.00  0.00     0.010 A 
HETATM    4  C   UNL     1      71.100  23.086  13.905  1.00  0.00     0.010 A 
HETATM    5  C   UNL     1      71.778  23.500  15.054  1.00  0.00     0.037 A 
HETATM    6  C   UNL     1      73.888  23.067  13.956  1.00  0.00     0.037 A 
ENDROOT
BRANCH   1   7
HETATM    7  C   UNL     1      71.073  22.211  11.531  1.00  0.00     0.141 C 
BRANCH   7   8
HETATM    8  C   UNL     1      71.244  20.737  11.217  1.00  0.00     0.219 C 
HETATM    9  O   UNL     1      71.505  19.891  12.069  1.00  0.00    -0.273 OA
HETATM   10  N   UNL     1      71.039  20.378   9.917  1.00  0.00    -0.370 N 
HETATM   11  H   UNL     1      71.134  19.437   9.644  1.00  0.00     0.159 HD
HETATM   12  H   UNL     1      70.796  21.062   9.250  1.00  0.00     0.159 HD
ENDBRANCH   7   8
ENDBRANCH   1   7
BRANCH   2  13
HETATM   13  O   UNL     1      73.872  23.890  16.165  1.00  0.00    -0.361 OA
HETATM   14  H   UNL     1      74.676  24.360  16.060  1.00  0.00     0.217 HD
ENDBRANCH   2  13
TORSDOF 3
ENDMDL
MODEL 3
REMARK VINA RESULT:      -5.4      4.161      5.354
REMARK  3 active torsions:
REMARK  status: ('A' for Active; 'I' for Inactive)
REMARK    1  A    between atoms: C_1  and  C_3 
REMARK       I    between atoms: C_1  and  N_4 
REMARK    2  A    between atoms: C_3  and  C_5 
REMARK    3  A    between atoms: C_6  and  O_11 
ROOT
HETATM    1  C   UNL     1      77.539  12.256  20.817  1.00  0.00    -0.049 A 
HETATM    2  C   UNL     1      76.791  12.741  18.169  1.00  0.00     0.065 A 
HETATM    3  C   UNL     1      77.304  13.566  20.374  1.00  0.00     0.010 A 
HETATM    4  C   UNL     1      77.401  11.194  19.911  1.00  0.00     0.010 A 
HETATM    5  C   UNL     1      77.022  11.434  18.588  1.00  0.00     0.037 A 
HETATM    6  C   UNL     1      76.930  13.805  19.051  1.00  0.00     0.037 A 
ENDROOT
BRANCH   1   7
HETATM    7  C   UNL     1      77.956  11.994  22.246  1.00  0.00     0.141 C 
BRANCH   7   8
HETATM    8  C   UNL     1      79.414  12.312  22.518  1.00  0.00     0.219 C 
HETATM    9  O   UNL     1      79.782  13.119  23.368  1.00  0.00    -0.273 OA
HETATM   10  N   UNL     1      80.323  11.603  21.788  1.00  0.00    -0.370 N 
HETATM   11  H   UNL     1      81.287  11.759  21.914  1.00  0.00     0.159 HD
HETATM   12  H   UNL     1      80.015  10.933  21.134  1.00  0.00     0.159 HD
ENDBRANCH   7   8
ENDBRANCH   1   7
BRANCH   2  13
HETATM   13  O   UNL     1      76.426  13.022  16.886  1.00  0.00    -0.361 OA
HETATM   14  H   UNL     1      76.982  12.769  16.175  1.00  0.00     0.217 HD
ENDBRANCH   2  13
TORSDOF 3
ENDMDL
MODEL 4
REMARK VINA RESULT:      -5.1      3.080      5.414
REMARK  3 active torsions:
REMARK  status: ('A' for Active; 'I' for Inactive)
REMARK    1  A    between atoms: C_1  and  C_3 
REMARK       I    between atoms: C_1  and  N_4 
REMARK    2  A    between atoms: C_3  and  C_5 
REMARK    3  A    between atoms: C_6  and  O_11 
ROOT
HETATM    1  C   UNL     1      77.822  10.785  18.854  1.00  0.00    -0.049 A 
HETATM    2  C   UNL     1      76.696  13.098  19.945  1.00  0.00     0.065 A 
HETATM    3  C   UNL     1      78.315  11.317  20.054  1.00  0.00     0.010 A 
HETATM    4  C   UNL     1      76.761  11.435  18.205  1.00  0.00     0.010 A 
HETATM    5  C   UNL     1      76.194  12.589  18.751  1.00  0.00     0.037 A 
HETATM    6  C   UNL     1      77.750  12.471  20.597  1.00  0.00     0.037 A 
ENDROOT
BRANCH   1   7
HETATM    7  C   UNL     1      78.439   9.541  18.256  1.00  0.00     0.141 C 
BRANCH   7   8
HETATM    8  C   UNL     1      77.416   8.526  17.783  1.00  0.00     0.219 C 
HETATM    9  O   UNL     1      76.667   7.918  18.543  1.00  0.00    -0.273 OA
HETATM   10  N   UNL     1      77.332   8.353  16.432  1.00  0.00    -0.370 N 
HETATM   11  H   UNL     1      76.689   7.709  16.057  1.00  0.00     0.159 HD
HETATM   12  H   UNL     1      77.914   8.873  15.832  1.00  0.00     0.159 HD
ENDBRANCH   7   8
ENDBRANCH   1   7
BRANCH   2  13
HETATM   13  O   UNL     1      76.177  14.225  20.510  1.00  0.00    -0.361 OA
HETATM   14  H   UNL     1      75.638  14.798  20.002  1.00  0.00     0.217 HD
ENDBRANCH   2  13
TORSDOF 3
ENDMDL
MODEL 5
REMARK VINA RESULT:      -4.9      2.521      5.177
REMARK  3 active torsions:
REMARK  status: ('A' for Active; 'I' for Inactive)
REMARK    1  A    between atoms: C_1  and  C_3 
REMARK       I    between atoms: C_1  and  N_4 
REMARK    2  A    between atoms: C_3  and  C_5 
REMARK    3  A    between atoms: C_6  and  O_11 
ROOT
HETATM    1  C   UNL     1      77.446  10.278  18.179  1.00  0.00    -0.049 A 
HETATM    2  C   UNL     1      77.666  12.443  19.932  1.00  0.00     0.065 A 
HETATM    3  C   UNL     1      76.590  11.382  18.055  1.00  0.00     0.010 A 
HETATM    4  C   UNL     1      78.408  10.272  19.200  1.00  0.00     0.010 A 
HETATM    5  C   UNL     1      78.523  11.356  20.074  1.00  0.00     0.037 A 
HETATM    6  C   UNL     1      76.703  12.462  18.931  1.00  0.00     0.037 A 
ENDROOT
BRANCH   1   7
HETATM    7  C   UNL     1      77.318   9.101  17.239  1.00  0.00     0.141 C 
BRANCH   7   8
HETATM    8  C   UNL     1      77.917   9.354  15.869  1.00  0.00     0.219 C 
HETATM    9  O   UNL     1      78.839  10.140  15.670  1.00  0.00    -0.273 OA
HETATM   10  N   UNL     1      77.401   8.610  14.849  1.00  0.00    -0.370 N 
HETATM   11  H   UNL     1      77.743   8.724  13.933  1.00  0.00     0.159 HD
HETATM   12  H   UNL     1      76.685   7.957  15.028  1.00  0.00     0.159 HD
ENDBRANCH   7   8
ENDBRANCH   1   7
BRANCH   2  13
HETATM   13  O   UNL     1      77.738  13.518  20.766  1.00  0.00    -0.361 OA
HETATM   14  H   UNL     1      78.201  13.451  21.578  1.00  0.00     0.217 HD
ENDBRANCH   2  13
TORSDOF 3
ENDMDL
MODEL 6
REMARK VINA RESULT:      -4.9     17.507     18.828
REMARK  3 active torsions:
REMARK  status: ('A' for Active; 'I' for Inactive)
REMARK    1  A    between atoms: C_1  and  C_3 
REMARK       I    between atoms: C_1  and  N_4 
REMARK    2  A    between atoms: C_3  and  C_5 
REMARK    3  A    between atoms: C_6  and  O_11 
ROOT
HETATM    1  C   UNL     1      63.403   8.843   4.705  1.00  0.00    -0.049 A 
HETATM    2  C   UNL     1      61.942  10.718   3.237  1.00  0.00     0.065 A 
HETATM    3  C   UNL     1      62.981   8.551   3.400  1.00  0.00     0.010 A 
HETATM    4  C   UNL     1      63.074  10.088   5.265  1.00  0.00     0.010 A 
HETATM    5  C   UNL     1      62.348  11.027   4.531  1.00  0.00     0.037 A 
HETATM    6  C   UNL     1      62.252   9.489   2.669  1.00  0.00     0.037 A 
ENDROOT
BRANCH   1   7
HETATM    7  C   UNL     1      64.183   7.825   5.505  1.00  0.00     0.141 C 
BRANCH   7   8
HETATM    8  C   UNL     1      65.664   8.136   5.598  1.00  0.00     0.219 C 
HETATM    9  O   UNL     1      66.146   8.881   6.447  1.00  0.00    -0.273 OA
HETATM   10  N   UNL     1      66.464   7.491   4.700  1.00  0.00    -0.370 N 
HETATM   11  H   UNL     1      67.436   7.647   4.705  1.00  0.00     0.159 HD
HETATM   12  H   UNL     1      66.069   6.869   4.046  1.00  0.00     0.159 HD
ENDBRANCH   7   8
ENDBRANCH   1   7
BRANCH   2  13
HETATM   13  O   UNL     1      61.225  11.603   2.486  1.00  0.00    -0.361 OA
HETATM   14  H   UNL     1      60.395  11.911   2.792  1.00  0.00     0.217 HD
ENDBRANCH   2  13
TORSDOF 3
ENDMDL
MODEL 7
REMARK VINA RESULT:      -4.9      3.192      4.547
REMARK  3 active torsions:
REMARK  status: ('A' for Active; 'I' for Inactive)
REMARK    1  A    between atoms: C_1  and  C_3 
REMARK       I    between atoms: C_1  and  N_4 
REMARK    2  A    between atoms: C_3  and  C_5 
REMARK    3  A    between atoms: C_6  and  O_11 
ROOT
HETATM    1  C   UNL     1      78.028  11.970  20.026  1.00  0.00    -0.049 A 
HETATM    2  C   UNL     1      77.545  10.107  18.000  1.00  0.00     0.065 A 
HETATM    3  C   UNL     1      78.887  10.876  19.847  1.00  0.00     0.010 A 
HETATM    4  C   UNL     1      76.919  12.111  19.178  1.00  0.00     0.010 A 
HETATM    5  C   UNL     1      76.679  11.183  18.162  1.00  0.00     0.037 A 
HETATM    6  C   UNL     1      78.645   9.947  18.834  1.00  0.00     0.037 A 
ENDROOT
BRANCH   1   7
HETATM    7  C   UNL     1      78.282  12.971  21.130  1.00  0.00     0.141 C 
BRANCH   7   8
HETATM    8  C   UNL     1      79.325  12.515  22.131  1.00  0.00     0.219 C 
HETATM    9  O   UNL     1      80.507  12.842  22.070  1.00  0.00    -0.273 OA
HETATM   10  N   UNL     1      78.866  11.744  23.159  1.00  0.00    -0.370 N 
HETATM   11  H   UNL     1      79.490  11.413  23.844  1.00  0.00     0.159 HD
HETATM   12  H   UNL     1      77.909  11.518  23.215  1.00  0.00     0.159 HD
ENDBRANCH   7   8
ENDBRANCH   1   7
BRANCH   2  13
HETATM   13  O   UNL     1      77.346   9.174  17.026  1.00  0.00    -0.361 OA
HETATM   14  H   UNL     1      77.532   9.383  16.132  1.00  0.00     0.217 HD
ENDBRANCH   2  13
TORSDOF 3
ENDMDL
MODEL 8
REMARK VINA RESULT:      -4.9     12.412     13.696
REMARK  3 active torsions:
REMARK  status: ('A' for Active; 'I' for Inactive)
REMARK    1  A    between atoms: C_1  and  C_3 
REMARK       I    between atoms: C_1  and  N_4 
REMARK    2  A    between atoms: C_3  and  C_5 
REMARK    3  A    between atoms: C_6  and  O_11 
ROOT
HETATM    1  C   UNL     1      68.486   5.289   8.373  1.00  0.00    -0.049 A 
HETATM    2  C   UNL     1      66.048   6.510   7.764  1.00  0.00     0.065 A 
HETATM    3  C   UNL     1      67.942   5.186   7.084  1.00  0.00     0.010 A 
HETATM    4  C   UNL     1      67.785   6.007   9.353  1.00  0.00     0.010 A 
HETATM    5  C   UNL     1      66.568   6.622   9.049  1.00  0.00     0.037 A 
HETATM    6  C   UNL     1      66.725   5.797   6.782  1.00  0.00     0.037 A 
ENDROOT
BRANCH   1   7
HETATM    7  C   UNL     1      69.799   4.618   8.706  1.00  0.00     0.141 C 
BRANCH   7   8
HETATM    8  C   UNL     1      69.634   3.265   9.371  1.00  0.00     0.219 C 
HETATM    9  O   UNL     1      69.356   2.240   8.756  1.00  0.00    -0.273 OA
HETATM   10  N   UNL     1      69.865   3.232  10.716  1.00  0.00    -0.370 N 
HETATM   11  H   UNL     1      69.775   2.386  11.211  1.00  0.00     0.159 HD
HETATM   12  H   UNL     1      70.121   4.056  11.192  1.00  0.00     0.159 HD
ENDBRANCH   7   8
ENDBRANCH   1   7
BRANCH   2  13
HETATM   13  O   UNL     1      64.860   7.088   7.425  1.00  0.00    -0.361 OA
HETATM   14  H   UNL     1      64.055   6.710   7.718  1.00  0.00     0.217 HD
ENDBRANCH   2  13
TORSDOF 3
ENDMDL
MODEL 9
REMARK VINA RESULT:      -4.8     19.648     21.156
REMARK  3 active torsions:
REMARK  status: ('A' for Active; 'I' for Inactive)
REMARK    1  A    between atoms: C_1  and  C_3 
REMARK       I    between atoms: C_1  and  N_4 
REMARK    2  A    between atoms: C_3  and  C_5 
REMARK    3  A    between atoms: C_6  and  O_11 
ROOT
HETATM    1  C   UNL     1      62.190   9.568   2.737  1.00  0.00    -0.049 A 
HETATM    2  C   UNL     1      62.917  10.742   5.166  1.00  0.00     0.065 A 
HETATM    3  C   UNL     1      61.783  10.874   3.045  1.00  0.00     0.010 A 
HETATM    4  C   UNL     1      62.961   8.857   3.670  1.00  0.00     0.010 A 
HETATM    5  C   UNL     1      63.329   9.444   4.883  1.00  0.00     0.037 A 
HETATM    6  C   UNL     1      62.147  11.458   4.258  1.00  0.00     0.037 A 
ENDROOT
BRANCH   1   7
HETATM    7  C   UNL     1      61.786   8.927   1.429  1.00  0.00     0.141 C 
BRANCH   7   8
HETATM    8  C   UNL     1      60.546   8.061   1.538  1.00  0.00     0.219 C 
HETATM    9  O   UNL     1      60.535   6.964   2.089  1.00  0.00    -0.273 OA
HETATM   10  N   UNL     1      59.401   8.596   1.023  1.00  0.00    -0.370 N 
HETATM   11  H   UNL     1      58.560   8.086   1.059  1.00  0.00     0.159 HD
HETATM   12  H   UNL     1      59.417   9.492   0.615  1.00  0.00     0.159 HD
ENDBRANCH   7   8
ENDBRANCH   1   7
BRANCH   2  13
HETATM   13  O   UNL     1      63.247  11.352   6.340  1.00  0.00    -0.361 OA
HETATM   14  H   UNL     1      63.804  10.915   6.954  1.00  0.00     0.217 HD
ENDBRANCH   2  13
TORSDOF 3
ENDMDL
