MODEL 1
REMARK VINA RESULT:      -5.0      0.000      0.000
REMARK  1 active torsions:
REMARK  status: ('A' for Active; 'I' for Inactive)
REMARK    1  A    between atoms: C_5  and  C_6 
ROOT
HETATM    1  N   UNL     1      77.608  10.705  19.865  1.00  0.00    -0.386 N 
ATOM      2  HN  UNL     1      78.000   9.784  20.062  1.00  0.00     0.160 HD
HETATM    3  C   UNL     1      77.452  11.653  20.833  1.00  0.00     0.154 C 
HETATM    4  C   UNL     1      77.207  11.068  18.626  1.00  0.00     0.084 C 
HETATM    5  C   UNL     1      76.368  12.525  20.738  1.00  0.00     0.004 C 
HETATM    6  C   UNL     1      76.547  12.253  18.363  1.00  0.00     0.017 C 
HETATM    7  C   UNL     1      76.051  12.955  19.456  1.00  0.00    -0.000 C 
ENDROOT
BRANCH   3   8
HETATM    8  C   UNL     1      78.751  12.401  21.139  1.00  0.00     0.035 C 
HETATM    9  N   UNL     1      79.872  11.637  20.974  1.00  0.00    -0.367 N 
HETATM   10  C   UNL     1      80.749  11.597  21.999  1.00  0.00     0.088 C 
ATOM     11  HN  UNL     1      80.038  11.117  20.112  1.00  0.00     0.165 HD
HETATM   12  C   UNL     1      80.605  12.343  23.149  1.00  0.00     0.017 C 
HETATM   13  C   UNL     1      79.598  13.299  23.188  1.00  0.00     0.003 C 
HETATM   14  C   UNL     1      78.704  13.389  22.124  1.00  0.00     0.027 C 
ENDBRANCH   3   8
TORSDOF 1
ENDMDL
MODEL 2
REMARK VINA RESULT:      -4.6     17.151     19.420
REMARK  1 active torsions:
REMARK  status: ('A' for Active; 'I' for Inactive)
REMARK    1  A    between atoms: C_5  and  C_6 
ROOT
HETATM    1  N   UNL     1      65.648   8.358   6.100  1.00  0.00    -0.386 N 
ATOM      2  HN  UNL     1      65.642   9.095   6.805  1.00  0.00     0.160 HD
HETATM    3  C   UNL     1      66.712   7.522   5.927  1.00  0.00     0.154 C 
HETATM    4  C   UNL     1      64.601   8.144   5.272  1.00  0.00     0.084 C 
HETATM    5  C   UNL     1      66.994   7.066   4.641  1.00  0.00     0.004 C 
HETATM    6  C   UNL     1      64.641   7.249   4.220  1.00  0.00     0.017 C 
HETATM    7  C   UNL     1      65.890   6.760   3.854  1.00  0.00    -0.000 C 
ENDROOT
BRANCH   3   8
HETATM    8  C   UNL     1      66.737   6.383   6.947  1.00  0.00     0.035 C 
HETATM    9  N   UNL     1      66.209   6.726   8.161  1.00  0.00    -0.367 N 
HETATM   10  C   UNL     1      66.958   6.473   9.255  1.00  0.00     0.088 C 
ATOM     11  HN  UNL     1      65.287   7.156   8.236  1.00  0.00     0.165 HD
HETATM   12  C   UNL     1      68.173   5.824   9.208  1.00  0.00     0.017 C 
HETATM   13  C   UNL     1      68.568   5.262   8.001  1.00  0.00     0.003 C 
HETATM   14  C   UNL     1      67.792   5.473   6.865  1.00  0.00     0.027 C 
ENDBRANCH   3   8
TORSDOF 1
ENDMDL
MODEL 3
REMARK VINA RESULT:      -4.5     16.810     18.193
REMARK  1 active torsions:
REMARK  status: ('A' for Active; 'I' for Inactive)
REMARK    1  A    between atoms: C_5  and  C_6 
ROOT
HETATM    1  N   UNL     1      65.456   4.931   8.115  1.00  0.00    -0.386 N 
ATOM      2  HN  UNL     1      64.830   4.237   8.522  1.00  0.00     0.160 HD
HETATM    3  C   UNL     1      66.614   5.315   8.726  1.00  0.00     0.154 C 
HETATM    4  C   UNL     1      65.196   5.534   6.933  1.00  0.00     0.084 C 
HETATM    5  C   UNL     1      67.041   6.633   8.569  1.00  0.00     0.004 C 
HETATM    6  C   UNL     1      65.955   6.574   6.433  1.00  0.00     0.017 C 
HETATM    7  C   UNL     1      66.847   7.183   7.308  1.00  0.00    -0.000 C 
ENDROOT
BRANCH   3   8
HETATM    8  C   UNL     1      67.756   4.323   8.499  1.00  0.00     0.035 C 
HETATM    9  N   UNL     1      67.421   3.030   8.792  1.00  0.00    -0.367 N 
HETATM   10  C   UNL     1      68.242   2.351   9.621  1.00  0.00     0.088 C 
ATOM     11  HN  UNL     1      66.585   2.597   8.400  1.00  0.00     0.165 HD
HETATM   12  C   UNL     1      69.422   2.869  10.110  1.00  0.00     0.017 C 
HETATM   13  C   UNL     1      69.866   4.082   9.600  1.00  0.00     0.003 C 
HETATM   14  C   UNL     1      69.057   4.784   8.711  1.00  0.00     0.027 C 
ENDBRANCH   3   8
TORSDOF 1
ENDMDL
MODEL 4
REMARK VINA RESULT:      -4.5     16.953     19.099
REMARK  1 active torsions:
REMARK  status: ('A' for Active; 'I' for Inactive)
REMARK    1  A    between atoms: C_5  and  C_6 
ROOT
HETATM    1  N   UNL     1      67.518   5.362   8.857  1.00  0.00    -0.386 N 
ATOM      2  HN  UNL     1      66.838   5.876   9.416  1.00  0.00     0.160 HD
HETATM    3  C   UNL     1      67.304   5.063   7.543  1.00  0.00     0.154 C 
HETATM    4  C   UNL     1      68.692   4.929   9.367  1.00  0.00     0.084 C 
HETATM    5  C   UNL     1      67.820   3.869   7.042  1.00  0.00     0.004 C 
HETATM    6  C   UNL     1      69.562   4.113   8.671  1.00  0.00     0.017 C 
HETATM    7  C   UNL     1      69.076   3.510   7.516  1.00  0.00    -0.000 C 
ENDROOT
BRANCH   3   8
HETATM    8  C   UNL     1      67.606   6.240   6.615  1.00  0.00     0.035 C 
HETATM    9  N   UNL     1      67.231   7.450   7.129  1.00  0.00    -0.367 N 
HETATM   10  C   UNL     1      66.464   8.242   6.350  1.00  0.00     0.088 C 
ATOM     11  HN  UNL     1      67.519   7.742   8.063  1.00  0.00     0.165 HD
HETATM   12  C   UNL     1      66.117   7.924   5.054  1.00  0.00     0.017 C 
HETATM   13  C   UNL     1      66.716   6.816   4.470  1.00  0.00     0.003 C 
HETATM   14  C   UNL     1      67.545   6.004   5.240  1.00  0.00     0.027 C 
ENDBRANCH   3   8
TORSDOF 1
ENDMDL
MODEL 5
REMARK VINA RESULT:      -4.4     16.616     18.095
REMARK  1 active torsions:
REMARK  status: ('A' for Active; 'I' for Inactive)
REMARK    1  A    between atoms: C_5  and  C_6 
ROOT
HETATM    1  N   UNL     1      68.822   3.133   7.425  1.00  0.00    -0.386 N 
ATOM      2  HN  UNL     1      68.781   2.878   6.439  1.00  0.00     0.160 HD
HETATM    3  C   UNL     1      69.423   4.278   7.858  1.00  0.00     0.154 C 
HETATM    4  C   UNL     1      68.283   2.358   8.393  1.00  0.00     0.084 C 
HETATM    5  C   UNL     1      70.060   4.264   9.098  1.00  0.00     0.004 C 
HETATM    6  C   UNL     1      68.447   2.611   9.741  1.00  0.00     0.017 C 
HETATM    7  C   UNL     1      69.420   3.539  10.096  1.00  0.00    -0.000 C 
ENDROOT
BRANCH   3   8
HETATM    8  C   UNL     1      68.530   5.509   7.698  1.00  0.00     0.035 C 
HETATM    9  N   UNL     1      68.391   6.235   8.848  1.00  0.00    -0.367 N 
HETATM   10  C   UNL     1      67.136   6.532   9.245  1.00  0.00     0.088 C 
ATOM     11  HN  UNL     1      69.204   6.541   9.383  1.00  0.00     0.165 HD
HETATM   12  C   UNL     1      66.013   6.210   8.513  1.00  0.00     0.017 C 
HETATM   13  C   UNL     1      66.190   5.700   7.234  1.00  0.00     0.003 C 
HETATM   14  C   UNL     1      67.479   5.423   6.783  1.00  0.00     0.027 C 
ENDBRANCH   3   8
TORSDOF 1
ENDMDL
MODEL 6
REMARK VINA RESULT:      -4.3     18.044     19.695
REMARK  1 active torsions:
REMARK  status: ('A' for Active; 'I' for Inactive)
REMARK    1  A    between atoms: C_5  and  C_6 
ROOT
HETATM    1  N   UNL     1      68.279   6.371   7.813  1.00  0.00    -0.386 N 
ATOM      2  HN  UNL     1      69.141   6.883   8.003  1.00  0.00     0.160 HD
HETATM    3  C   UNL     1      67.059   6.982   7.787  1.00  0.00     0.154 C 
HETATM    4  C   UNL     1      68.268   5.042   7.570  1.00  0.00     0.084 C 
HETATM    5  C   UNL     1      65.947   6.260   8.218  1.00  0.00     0.004 C 
HETATM    6  C   UNL     1      67.104   4.306   7.450  1.00  0.00     0.017 C 
HETATM    7  C   UNL     1      65.925   4.918   7.860  1.00  0.00    -0.000 C 
ENDROOT
BRANCH   3   8
HETATM    8  C   UNL     1      66.788   7.698   6.463  1.00  0.00     0.035 C 
HETATM    9  N   UNL     1      65.478   8.050   6.293  1.00  0.00    -0.367 N 
HETATM   10  C   UNL     1      64.882   7.680   5.139  1.00  0.00     0.088 C 
ATOM     11  HN  UNL     1      64.971   8.572   7.009  1.00  0.00     0.165 HD
HETATM   12  C   UNL     1      65.548   7.045   4.113  1.00  0.00     0.017 C 
HETATM   13  C   UNL     1      66.929   6.925   4.204  1.00  0.00     0.003 C 
HETATM   14  C   UNL     1      67.573   7.338   5.367  1.00  0.00     0.027 C 
ENDBRANCH   3   8
TORSDOF 1
ENDMDL
MODEL 7
REMARK VINA RESULT:      -4.3     23.446     26.028
REMARK  1 active torsions:
REMARK  status: ('A' for Active; 'I' for Inactive)
REMARK    1  A    between atoms: C_5  and  C_6 
ROOT
HETATM    1  N   UNL     1      62.536   8.834   3.388  1.00  0.00    -0.386 N 
ATOM      2  HN  UNL     1      62.985   8.017   3.802  1.00  0.00     0.160 HD
HETATM    3  C   UNL     1      62.071   8.838   2.105  1.00  0.00     0.154 C 
HETATM    4  C   UNL     1      62.361   9.986   4.073  1.00  0.00     0.084 C 
HETATM    5  C   UNL     1      62.129  10.029   1.384  1.00  0.00     0.004 C 
HETATM    6  C   UNL     1      61.884  11.145   3.491  1.00  0.00     0.017 C 
HETATM    7  C   UNL     1      61.842  11.184   2.102  1.00  0.00    -0.000 C 
ENDROOT
BRANCH   3   8
HETATM    8  C   UNL     1      60.704   8.165   1.972  1.00  0.00     0.035 C 
HETATM    9  N   UNL     1      60.590   7.015   2.702  1.00  0.00    -0.367 N 
HETATM   10  C   UNL     1      60.154   5.912   2.056  1.00  0.00     0.088 C 
ATOM     11  HN  UNL     1      60.824   6.991   3.695  1.00  0.00     0.165 HD
HETATM   12  C   UNL     1      59.752   5.916   0.738  1.00  0.00     0.017 C 
HETATM   13  C   UNL     1      59.637   7.141   0.092  1.00  0.00     0.003 C 
HETATM   14  C   UNL     1      60.040   8.299   0.752  1.00  0.00     0.027 C 
ENDBRANCH   3   8
TORSDOF 1
ENDMDL
MODEL 8
REMARK VINA RESULT:      -4.2     21.123     23.199
REMARK  1 active torsions:
REMARK  status: ('A' for Active; 'I' for Inactive)
REMARK    1  A    between atoms: C_5  and  C_6 
ROOT
HETATM    1  N   UNL     1      61.629   8.231   2.657  1.00  0.00    -0.386 N 
ATOM      2  HN  UNL     1      61.297   7.275   2.533  1.00  0.00     0.160 HD
HETATM    3  C   UNL     1      62.233   8.649   3.807  1.00  0.00     0.154 C 
HETATM    4  C   UNL     1      61.501   9.171   1.694  1.00  0.00     0.084 C 
HETATM    5  C   UNL     1      62.036   9.967   4.218  1.00  0.00     0.004 C 
HETATM    6  C   UNL     1      61.814  10.502   1.892  1.00  0.00     0.017 C 
HETATM    7  C   UNL     1      62.012  10.917   3.204  1.00  0.00    -0.000 C 
ENDROOT
BRANCH   3   8
HETATM    8  C   UNL     1      63.708   8.253   3.875  1.00  0.00     0.035 C 
HETATM    9  N   UNL     1      63.970   7.029   3.324  1.00  0.00    -0.367 N 
HETATM   10  C   UNL     1      64.663   6.148   4.075  1.00  0.00     0.088 C 
ATOM     11  HN  UNL     1      63.654   6.793   2.383  1.00  0.00     0.165 HD
HETATM   12  C   UNL     1      65.177   6.450   5.318  1.00  0.00     0.017 C 
HETATM   13  C   UNL     1      65.118   7.770   5.747  1.00  0.00     0.003 C 
HETATM   14  C   UNL     1      64.445   8.709   4.970  1.00  0.00     0.027 C 
ENDBRANCH   3   8
TORSDOF 1
ENDMDL
MODEL 9
REMARK VINA RESULT:      -4.2      9.239     11.167
REMARK  1 active torsions:
REMARK  status: ('A' for Active; 'I' for Inactive)
REMARK    1  A    between atoms: C_5  and  C_6 
ROOT
HETATM    1  N   UNL     1      77.048   0.648  17.209  1.00  0.00    -0.386 N 
ATOM      2  HN  UNL     1      76.966   0.692  16.193  1.00  0.00     0.160 HD
HETATM    3  C   UNL     1      77.548   1.682  17.944  1.00  0.00     0.154 C 
HETATM    4  C   UNL     1      76.668  -0.438  17.917  1.00  0.00     0.084 C 
HETATM    5  C   UNL     1      78.269   1.386  19.100  1.00  0.00     0.004 C 
HETATM    6  C   UNL     1      76.898  -0.574  19.273  1.00  0.00     0.017 C 
HETATM    7  C   UNL     1      77.785   0.324  19.856  1.00  0.00    -0.000 C 
ENDROOT
BRANCH   3   8
HETATM    8  C   UNL     1      76.515   2.783  18.192  1.00  0.00     0.035 C 
HETATM    9  N   UNL     1      75.311   2.545  17.590  1.00  0.00    -0.367 N 
HETATM   10  C   UNL     1      74.798   3.530  16.822  1.00  0.00     0.088 C 
ATOM     11  HN  UNL     1      74.820   1.659  17.716  1.00  0.00     0.165 HD
HETATM   12  C   UNL     1      75.386   4.769  16.687  1.00  0.00     0.017 C 
HETATM   13  C   UNL     1      76.468   5.073  17.503  1.00  0.00     0.003 C 
HETATM   14  C   UNL     1      76.991   4.087  18.336  1.00  0.00     0.027 C 
ENDBRANCH   3   8
TORSDOF 1
ENDMDL
