MODEL 1
REMARK VINA RESULT:      -4.9      0.000      0.000
REMARK  1 active torsions:
REMARK  status: ('A' for Active; 'I' for Inactive)
REMARK    1  A    between atoms: C_1  and  C_4 
ROOT
HETATM    1  C   UNL     1      75.402   2.651  17.506  1.00  0.00     0.100 A 
HETATM    2  N   UNL     1      74.670   3.645  16.914  1.00  0.00    -0.360 N 
ATOM      3  HN  UNL     1      73.715   3.488  16.590  1.00  0.00     0.165 HD
HETATM    4  C   UNL     1      76.709   2.874  17.952  1.00  0.00     0.035 A 
HETATM    5  N   UNL     1      77.296   4.102  17.803  1.00  0.00    -0.366 N 
ATOM      6  HN  UNL     1      78.249   4.278  18.123  1.00  0.00     0.165 HD
HETATM    7  C   UNL     1      75.274   4.844  16.782  1.00  0.00     0.105 A 
HETATM    8  C   UNL     1      76.560   5.070  17.217  1.00  0.00     0.105 A 
HETATM    9  C   UNL     1      77.612   1.874  18.605  1.00  0.00     0.070 C 
ENDROOT
BRANCH   1  10
HETATM   10  C   UNL     1      74.668   1.349  17.615  1.00  0.00     0.173 C 
HETATM   11  O   UNL     1      74.333   0.864  18.692  1.00  0.00    -0.291 OA
HETATM   12  C   UNL     1      74.349   0.629  16.326  1.00  0.00     0.098 C 
ENDBRANCH   1  10
TORSDOF 1
ENDMDL
MODEL 2
REMARK VINA RESULT:      -4.3      1.334      2.518
REMARK  1 active torsions:
REMARK  status: ('A' for Active; 'I' for Inactive)
REMARK    1  A    between atoms: C_1  and  C_4 
ROOT
HETATM    1  C   UNL     1      76.536   2.803  17.792  1.00  0.00     0.100 A 
HETATM    2  N   UNL     1      77.336   3.861  18.130  1.00  0.00    -0.360 N 
ATOM      3  HN  UNL     1      78.216   3.730  18.630  1.00  0.00     0.165 HD
HETATM    4  C   UNL     1      75.332   2.988  17.104  1.00  0.00     0.035 A 
HETATM    5  N   UNL     1      74.918   4.245  16.753  1.00  0.00    -0.366 N 
ATOM      6  HN  UNL     1      74.041   4.396  16.253  1.00  0.00     0.165 HD
HETATM    7  C   UNL     1      76.902   5.086  17.770  1.00  0.00     0.105 A 
HETATM    8  C   UNL     1      75.718   5.277  17.095  1.00  0.00     0.105 A 
HETATM    9  C   UNL     1      74.370   1.922  16.685  1.00  0.00     0.070 C 
ENDROOT
BRANCH   1  10
HETATM   10  C   UNL     1      77.080   1.476  18.227  1.00  0.00     0.173 C 
HETATM   11  O   UNL     1      77.358   1.223  19.395  1.00  0.00    -0.291 OA
HETATM   12  C   UNL     1      77.286   0.432  17.155  1.00  0.00     0.098 C 
ENDBRANCH   1  10
TORSDOF 1
ENDMDL
MODEL 3
REMARK VINA RESULT:      -4.3     14.517     15.694
REMARK  1 active torsions:
REMARK  status: ('A' for Active; 'I' for Inactive)
REMARK    1  A    between atoms: C_1  and  C_4 
ROOT
HETATM    1  C   UNL     1      65.917   7.573   6.286  1.00  0.00     0.100 A 
HETATM    2  N   UNL     1      65.305   7.019   7.379  1.00  0.00    -0.360 N 
ATOM      3  HN  UNL     1      64.309   7.150   7.559  1.00  0.00     0.165 HD
HETATM    4  C   UNL     1      67.282   7.387   6.042  1.00  0.00     0.035 A 
HETATM    5  N   UNL     1      68.047   6.643   6.900  1.00  0.00    -0.366 N 
ATOM      6  HN  UNL     1      69.044   6.501   6.735  1.00  0.00     0.165 HD
HETATM    7  C   UNL     1      66.084   6.291   8.204  1.00  0.00     0.105 A 
HETATM    8  C   UNL     1      67.428   6.106   7.971  1.00  0.00     0.105 A 
HETATM    9  C   UNL     1      68.067   7.942   4.895  1.00  0.00     0.070 C 
ENDROOT
BRANCH   1  10
HETATM   10  C   UNL     1      64.991   8.369   5.419  1.00  0.00     0.173 C 
HETATM   11  O   UNL     1      64.753   9.557   5.616  1.00  0.00    -0.291 OA
HETATM   12  C   UNL     1      64.336   7.645   4.265  1.00  0.00     0.098 C 
ENDBRANCH   1  10
TORSDOF 1
ENDMDL
MODEL 4
REMARK VINA RESULT:      -4.3     19.489     20.765
REMARK  1 active torsions:
REMARK  status: ('A' for Active; 'I' for Inactive)
REMARK    1  A    between atoms: C_1  and  C_4 
ROOT
HETATM    1  C   UNL     1      61.701   9.526   3.763  1.00  0.00     0.100 A 
HETATM    2  N   UNL     1      60.521   9.007   3.302  1.00  0.00    -0.360 N 
ATOM      3  HN  UNL     1      59.834   9.587   2.819  1.00  0.00     0.165 HD
HETATM    4  C   UNL     1      62.642   8.726   4.422  1.00  0.00     0.035 A 
HETATM    5  N   UNL     1      62.401   7.394   4.626  1.00  0.00    -0.366 N 
ATOM      6  HN  UNL     1      63.077   6.799   5.106  1.00  0.00     0.165 HD
HETATM    7  C   UNL     1      60.313   7.692   3.517  1.00  0.00     0.105 A 
HETATM    8  C   UNL     1      61.233   6.900   4.165  1.00  0.00     0.105 A 
HETATM    9  C   UNL     1      63.958   9.171   4.978  1.00  0.00     0.070 C 
ENDROOT
BRANCH   1  10
HETATM   10  C   UNL     1      61.860  10.990   3.492  1.00  0.00     0.173 C 
HETATM   11  O   UNL     1      61.982  11.822   4.387  1.00  0.00    -0.291 OA
HETATM   12  C   UNL     1      61.862  11.426   2.046  1.00  0.00     0.098 C 
ENDBRANCH   1  10
TORSDOF 1
ENDMDL
MODEL 5
REMARK VINA RESULT:      -4.3     20.054     21.121
REMARK  1 active torsions:
REMARK  status: ('A' for Active; 'I' for Inactive)
REMARK    1  A    between atoms: C_1  and  C_4 
ROOT
HETATM    1  C   UNL     1      71.766  22.898  13.816  1.00  0.00     0.100 A 
HETATM    2  N   UNL     1      72.835  22.042  13.790  1.00  0.00    -0.360 N 
ATOM      3  HN  UNL     1      72.884  21.266  13.128  1.00  0.00     0.165 HD
HETATM    4  C   UNL     1      71.705  23.962  14.723  1.00  0.00     0.035 A 
HETATM    5  N   UNL     1      72.721  24.173  15.616  1.00  0.00    -0.366 N 
ATOM      6  HN  UNL     1      72.689  24.944  16.284  1.00  0.00     0.165 HD
HETATM    7  C   UNL     1      73.819  22.276  14.681  1.00  0.00     0.105 A 
HETATM    8  C   UNL     1      73.766  23.320  15.577  1.00  0.00     0.105 A 
HETATM    9  C   UNL     1      70.597  24.957  14.857  1.00  0.00     0.070 C 
ENDROOT
BRANCH   1  10
HETATM   10  C   UNL     1      70.713  22.574  12.802  1.00  0.00     0.173 C 
HETATM   11  O   UNL     1      69.518  22.776  12.998  1.00  0.00    -0.291 OA
HETATM   12  C   UNL     1      71.176  21.970  11.497  1.00  0.00     0.098 C 
ENDBRANCH   1  10
TORSDOF 1
ENDMDL
MODEL 6
REMARK VINA RESULT:      -4.1     13.390     14.694
REMARK  1 active torsions:
REMARK  status: ('A' for Active; 'I' for Inactive)
REMARK    1  A    between atoms: C_1  and  C_4 
ROOT
HETATM    1  C   UNL     1      66.847   6.729   7.056  1.00  0.00     0.100 A 
HETATM    2  N   UNL     1      68.050   6.642   7.704  1.00  0.00    -0.360 N 
ATOM      3  HN  UNL     1      68.790   7.329   7.555  1.00  0.00     0.165 HD
HETATM    4  C   UNL     1      65.835   5.785   7.265  1.00  0.00     0.035 A 
HETATM    5  N   UNL     1      66.026   4.740   8.129  1.00  0.00    -0.366 N 
ATOM      6  HN  UNL     1      65.297   4.044   8.291  1.00  0.00     0.165 HD
HETATM    7  C   UNL     1      68.208   5.602   8.549  1.00  0.00     0.105 A 
HETATM    8  C   UNL     1      67.218   4.670   8.759  1.00  0.00     0.105 A 
HETATM    9  C   UNL     1      64.487   5.764   6.617  1.00  0.00     0.070 C 
ENDROOT
BRANCH   1  10
HETATM   10  C   UNL     1      66.746   7.904   6.133  1.00  0.00     0.173 C 
HETATM   11  O   UNL     1      66.110   8.916   6.413  1.00  0.00    -0.291 OA
HETATM   12  C   UNL     1      67.466   7.803   4.808  1.00  0.00     0.098 C 
ENDBRANCH   1  10
TORSDOF 1
ENDMDL
MODEL 7
REMARK VINA RESULT:      -4.1     10.901     11.962
REMARK  1 active torsions:
REMARK  status: ('A' for Active; 'I' for Inactive)
REMARK    1  A    between atoms: C_1  and  C_4 
ROOT
HETATM    1  C   UNL     1      67.635   4.068   8.780  1.00  0.00     0.100 A 
HETATM    2  N   UNL     1      66.347   4.509   8.636  1.00  0.00    -0.360 N 
ATOM      3  HN  UNL     1      65.559   3.862   8.607  1.00  0.00     0.165 HD
HETATM    4  C   UNL     1      68.713   4.960   8.822  1.00  0.00     0.035 A 
HETATM    5  N   UNL     1      68.503   6.309   8.718  1.00  0.00    -0.366 N 
ATOM      6  HN  UNL     1      69.279   6.971   8.746  1.00  0.00     0.165 HD
HETATM    7  C   UNL     1      66.173   5.843   8.537  1.00  0.00     0.105 A 
HETATM    8  C   UNL     1      67.228   6.726   8.576  1.00  0.00     0.105 A 
HETATM    9  C   UNL     1      70.159   4.606   8.967  1.00  0.00     0.070 C 
ENDROOT
BRANCH   1  10
HETATM   10  C   UNL     1      67.752   2.578   8.880  1.00  0.00     0.173 C 
HETATM   11  O   UNL     1      67.500   1.960   9.911  1.00  0.00    -0.291 OA
HETATM   12  C   UNL     1      68.205   1.838   7.644  1.00  0.00     0.098 C 
ENDBRANCH   1  10
TORSDOF 1
ENDMDL
MODEL 8
REMARK VINA RESULT:      -3.9     20.989     21.641
REMARK  1 active torsions:
REMARK  status: ('A' for Active; 'I' for Inactive)
REMARK    1  A    between atoms: C_1  and  C_4 
ROOT
HETATM    1  C   UNL     1      72.016  23.459  13.624  1.00  0.00     0.100 A 
HETATM    2  N   UNL     1      72.780  22.866  12.655  1.00  0.00    -0.360 N 
ATOM      3  HN  UNL     1      73.799  22.924  12.666  1.00  0.00     0.165 HD
HETATM    4  C   UNL     1      70.619  23.375  13.606  1.00  0.00     0.035 A 
HETATM    5  N   UNL     1      69.976  22.694  12.608  1.00  0.00    -0.366 N 
ATOM      6  HN  UNL     1      68.958  22.625  12.582  1.00  0.00     0.165 HD
HETATM    7  C   UNL     1      72.118  22.202  11.685  1.00  0.00     0.105 A 
HETATM    8  C   UNL     1      70.744  22.116  11.660  1.00  0.00     0.105 A 
HETATM    9  C   UNL     1      69.676  23.981  14.597  1.00  0.00     0.070 C 
ENDROOT
BRANCH   1  10
HETATM   10  C   UNL     1      72.818  24.181  14.663  1.00  0.00     0.173 C 
HETATM   11  O   UNL     1      72.741  25.393  14.839  1.00  0.00    -0.291 OA
HETATM   12  C   UNL     1      73.755  23.350  15.509  1.00  0.00     0.098 C 
ENDBRANCH   1  10
TORSDOF 1
ENDMDL
MODEL 9
REMARK VINA RESULT:      -3.9     10.295     11.586
REMARK  1 active torsions:
REMARK  status: ('A' for Active; 'I' for Inactive)
REMARK    1  A    between atoms: C_1  and  C_4 
ROOT
HETATM    1  C   UNL     1      68.174   3.831   8.981  1.00  0.00     0.100 A 
HETATM    2  N   UNL     1      67.424   2.773   9.418  1.00  0.00    -0.360 N 
ATOM      3  HN  UNL     1      66.426   2.704   9.216  1.00  0.00     0.165 HD
HETATM    4  C   UNL     1      69.543   3.919   9.257  1.00  0.00     0.035 A 
HETATM    5  N   UNL     1      70.171   2.941   9.982  1.00  0.00    -0.366 N 
ATOM      6  HN  UNL     1      71.168   2.993  10.193  1.00  0.00     0.165 HD
HETATM    7  C   UNL     1      68.070   1.826  10.129  1.00  0.00     0.105 A 
HETATM    8  C   UNL     1      69.416   1.906  10.406  1.00  0.00     0.105 A 
HETATM    9  C   UNL     1      70.468   5.020   8.845  1.00  0.00     0.070 C 
ENDROOT
BRANCH   1  10
HETATM   10  C   UNL     1      67.390   4.843   8.203  1.00  0.00     0.173 C 
HETATM   11  O   UNL     1      67.220   4.761   6.990  1.00  0.00    -0.291 OA
HETATM   12  C   UNL     1      66.803   6.000   8.975  1.00  0.00     0.098 C 
ENDBRANCH   1  10
TORSDOF 1
ENDMDL
