MODEL 1
REMARK VINA RESULT:      -3.7      0.000      0.000
REMARK  1 active torsions:
REMARK  status: ('A' for Active; 'I' for Inactive)
REMARK    1  A    between atoms: C_3  and  N_4 
ROOT
HETATM    1  N   UNL     1      76.966  13.849  19.450  1.00  0.00    -0.375 N 
ATOM      2  HN  UNL     1      76.731  14.841  19.467  1.00  0.00     0.164 HD
HETATM    3  C   UNL     1      77.541  11.097  19.453  1.00  0.00     0.028 A 
HETATM    4  C   UNL     1      78.108  11.946  20.399  1.00  0.00     0.046 A 
HETATM    5  C   UNL     1      76.747  11.659  18.456  1.00  0.00     0.046 A 
HETATM    6  C   UNL     1      76.477  13.018  18.505  1.00  0.00     0.089 A 
HETATM    7  C   UNL     1      77.782  13.293  20.368  1.00  0.00     0.089 A 
ENDROOT
BRANCH   3   8
HETATM    8  N   UNL     1      77.949   9.761  19.365  1.00  0.00    -0.399 N 
HETATM    9  H   UNL     1      77.556   9.169  18.683  1.00  0.00     0.156 HD
HETATM   10  H   UNL     1      78.630   9.413  19.986  1.00  0.00     0.156 HD
ENDBRANCH   3   8
TORSDOF 1
ENDMDL
MODEL 2
REMARK VINA RESULT:      -3.6      1.371      2.130
REMARK  1 active torsions:
REMARK  status: ('A' for Active; 'I' for Inactive)
REMARK    1  A    between atoms: C_3  and  N_4 
ROOT
HETATM    1  N   UNL     1      76.445  12.798  18.398  1.00  0.00    -0.375 N 
ATOM      2  HN  UNL     1      75.826  13.080  17.639  1.00  0.00     0.164 HD
HETATM    3  C   UNL     1      78.223  12.038  20.439  1.00  0.00     0.028 A 
HETATM    4  C   UNL     1      77.729  11.100  19.537  1.00  0.00     0.046 A 
HETATM    5  C   UNL     1      77.750  13.346  20.354  1.00  0.00     0.046 A 
HETATM    6  C   UNL     1      76.888  13.677  19.320  1.00  0.00     0.089 A 
HETATM    7  C   UNL     1      76.867  11.524  18.537  1.00  0.00     0.089 A 
ENDROOT
BRANCH   3   8
HETATM    8  N   UNL     1      78.984  11.629  21.541  1.00  0.00    -0.399 N 
HETATM    9  H   UNL     1      79.545  12.280  22.021  1.00  0.00     0.156 HD
HETATM   10  H   UNL     1      78.957  10.690  21.835  1.00  0.00     0.156 HD
ENDBRANCH   3   8
TORSDOF 1
ENDMDL
MODEL 3
REMARK VINA RESULT:      -3.6     20.567     21.531
REMARK  1 active torsions:
REMARK  status: ('A' for Active; 'I' for Inactive)
REMARK    1  A    between atoms: C_3  and  N_4 
ROOT
HETATM    1  N   UNL     1      63.481   9.627   5.575  1.00  0.00    -0.375 N 
ATOM      2  HN  UNL     1      63.993   9.281   6.385  1.00  0.00     0.164 HD
HETATM    3  C   UNL     1      61.990  10.550   3.378  1.00  0.00     0.028 A 
HETATM    4  C   UNL     1      62.577   9.288   3.362  1.00  0.00     0.046 A 
HETATM    5  C   UNL     1      62.229  11.374   4.475  1.00  0.00     0.046 A 
HETATM    6  C   UNL     1      62.955  10.869   5.542  1.00  0.00     0.089 A 
HETATM    7  C   UNL     1      63.289   8.869   4.476  1.00  0.00     0.089 A 
ENDROOT
BRANCH   3   8
HETATM    8  N   UNL     1      61.381  11.063   2.225  1.00  0.00    -0.399 N 
HETATM    9  H   UNL     1      60.560  10.648   1.876  1.00  0.00     0.156 HD
HETATM   10  H   UNL     1      61.776  11.839   1.764  1.00  0.00     0.156 HD
ENDBRANCH   3   8
TORSDOF 1
ENDMDL
MODEL 4
REMARK VINA RESULT:      -3.6     20.047     21.021
REMARK  1 active torsions:
REMARK  status: ('A' for Active; 'I' for Inactive)
REMARK    1  A    between atoms: C_3  and  N_4 
ROOT
HETATM    1  N   UNL     1      62.361   9.117   3.140  1.00  0.00    -0.375 N 
ATOM      2  HN  UNL     1      62.038   8.554   2.354  1.00  0.00     0.164 HD
HETATM    3  C   UNL     1      63.184  10.634   5.358  1.00  0.00     0.028 A 
HETATM    4  C   UNL     1      62.282  11.154   4.434  1.00  0.00     0.046 A 
HETATM    5  C   UNL     1      63.730   9.377   5.112  1.00  0.00     0.046 A 
HETATM    6  C   UNL     1      63.280   8.658   4.014  1.00  0.00     0.089 A 
HETATM    7  C   UNL     1      61.893  10.362   3.364  1.00  0.00     0.089 A 
ENDROOT
BRANCH   3   8
HETATM    8  N   UNL     1      63.706  11.446   6.373  1.00  0.00    -0.399 N 
HETATM    9  H   UNL     1      63.276  12.305   6.586  1.00  0.00     0.156 HD
HETATM   10  H   UNL     1      64.505  11.157   6.872  1.00  0.00     0.156 HD
ENDBRANCH   3   8
TORSDOF 1
ENDMDL
MODEL 5
REMARK VINA RESULT:      -3.6     13.585     13.780
REMARK  1 active torsions:
REMARK  status: ('A' for Active; 'I' for Inactive)
REMARK    1  A    between atoms: C_3  and  N_4 
ROOT
HETATM    1  N   UNL     1      72.036  24.143  15.391  1.00  0.00    -0.375 N 
ATOM      2  HN  UNL     1      71.946  24.546  16.323  1.00  0.00     0.164 HD
HETATM    3  C   UNL     1      72.293  22.948  12.859  1.00  0.00     0.028 A 
HETATM    4  C   UNL     1      73.406  23.455  13.525  1.00  0.00     0.046 A 
HETATM    5  C   UNL     1      71.040  23.121  13.442  1.00  0.00     0.046 A 
HETATM    6  C   UNL     1      70.965  23.701  14.700  1.00  0.00     0.089 A 
HETATM    7  C   UNL     1      73.232  24.020  14.780  1.00  0.00     0.089 A 
ENDROOT
BRANCH   3   8
HETATM    8  N   UNL     1      72.404  22.495  11.539  1.00  0.00    -0.399 N 
HETATM    9  H   UNL     1      73.244  22.091  11.225  1.00  0.00     0.156 HD
HETATM   10  H   UNL     1      71.639  22.581  10.924  1.00  0.00     0.156 HD
ENDBRANCH   3   8
TORSDOF 1
ENDMDL
MODEL 6
REMARK VINA RESULT:      -3.5      4.716      5.987
REMARK  1 active torsions:
REMARK  status: ('A' for Active; 'I' for Inactive)
REMARK    1  A    between atoms: C_3  and  N_4 
ROOT
HETATM    1  N   UNL     1      76.902   7.666  17.952  1.00  0.00    -0.375 N 
ATOM      2  HN  UNL     1      76.761   7.679  18.962  1.00  0.00     0.164 HD
HETATM    3  C   UNL     1      77.206   7.654  15.158  1.00  0.00     0.028 A 
HETATM    4  C   UNL     1      76.861   6.492  15.843  1.00  0.00     0.046 A 
HETATM    5  C   UNL     1      77.476   8.801  15.900  1.00  0.00     0.046 A 
HETATM    6  C   UNL     1      77.296   8.764  17.275  1.00  0.00     0.089 A 
HETATM    7  C   UNL     1      76.706   6.551  17.220  1.00  0.00     0.089 A 
ENDROOT
BRANCH   3   8
HETATM    8  N   UNL     1      77.504   7.608  13.791  1.00  0.00    -0.399 N 
HETATM    9  H   UNL     1      78.409   7.834  13.476  1.00  0.00     0.156 HD
HETATM   10  H   UNL     1      76.807   7.350  13.144  1.00  0.00     0.156 HD
ENDBRANCH   3   8
TORSDOF 1
ENDMDL
MODEL 7
REMARK VINA RESULT:      -3.5     20.204     21.144
REMARK  1 active torsions:
REMARK  status: ('A' for Active; 'I' for Inactive)
REMARK    1  A    between atoms: C_3  and  N_4 
ROOT
HETATM    1  N   UNL     1      62.286   9.223   2.980  1.00  0.00    -0.375 N 
ATOM      2  HN  UNL     1      62.012   8.698   2.150  1.00  0.00     0.164 HD
HETATM    3  C   UNL     1      63.112  10.703   5.222  1.00  0.00     0.028 A 
HETATM    4  C   UNL     1      63.527   9.386   5.045  1.00  0.00     0.046 A 
HETATM    5  C   UNL     1      62.213  11.240   4.305  1.00  0.00     0.046 A 
HETATM    6  C   UNL     1      61.847  10.479   3.205  1.00  0.00     0.089 A 
HETATM    7  C   UNL     1      63.107   8.701   3.914  1.00  0.00     0.089 A 
ENDROOT
BRANCH   3   8
HETATM    8  N   UNL     1      63.400  11.382   6.413  1.00  0.00    -0.399 N 
HETATM    9  H   UNL     1      62.669  11.727   6.973  1.00  0.00     0.156 HD
HETATM   10  H   UNL     1      64.337  11.514   6.689  1.00  0.00     0.156 HD
ENDBRANCH   3   8
TORSDOF 1
ENDMDL
MODEL 8
REMARK VINA RESULT:      -3.2     22.011     22.790
REMARK  1 active torsions:
REMARK  status: ('A' for Active; 'I' for Inactive)
REMARK    1  A    between atoms: C_3  and  N_4 
ROOT
HETATM    1  N   UNL     1      61.780  11.396   3.172  1.00  0.00    -0.375 N 
ATOM      2  HN  UNL     1      61.549  12.348   3.455  1.00  0.00     0.164 HD
HETATM    3  C   UNL     1      62.502   8.797   2.385  1.00  0.00     0.028 A 
HETATM    4  C   UNL     1      62.104   9.742   1.443  1.00  0.00     0.046 A 
HETATM    5  C   UNL     1      62.455   9.147   3.731  1.00  0.00     0.046 A 
HETATM    6  C   UNL     1      62.109  10.446   4.071  1.00  0.00     0.089 A 
HETATM    7  C   UNL     1      61.773  11.017   1.878  1.00  0.00     0.089 A 
ENDROOT
BRANCH   3   8
HETATM    8  N   UNL     1      62.712   7.465   2.005  1.00  0.00    -0.399 N 
HETATM    9  H   UNL     1      62.885   6.779   2.690  1.00  0.00     0.156 HD
HETATM   10  H   UNL     1      62.688   7.215   1.053  1.00  0.00     0.156 HD
ENDBRANCH   3   8
TORSDOF 1
ENDMDL
MODEL 9
REMARK VINA RESULT:      -3.1     15.002     16.126
REMARK  1 active torsions:
REMARK  status: ('A' for Active; 'I' for Inactive)
REMARK    1  A    between atoms: C_3  and  N_4 
ROOT
HETATM    1  N   UNL     1      68.072   4.804   6.896  1.00  0.00    -0.375 N 
ATOM      2  HN  UNL     1      67.668   5.130   6.018  1.00  0.00     0.164 HD
HETATM    3  C   UNL     1      69.267   3.932   9.286  1.00  0.00     0.028 A 
HETATM    4  C   UNL     1      69.104   3.062   8.211  1.00  0.00     0.046 A 
HETATM    5  C   UNL     1      68.750   5.220   9.175  1.00  0.00     0.046 A 
HETATM    6  C   UNL     1      68.185   5.611   7.971  1.00  0.00     0.089 A 
HETATM    7  C   UNL     1      68.524   3.542   7.046  1.00  0.00     0.089 A 
ENDROOT
BRANCH   3   8
HETATM    8  N   UNL     1      69.721   3.453  10.521  1.00  0.00    -0.399 N 
HETATM    9  H   UNL     1      70.333   2.684  10.557  1.00  0.00     0.156 HD
HETATM   10  H   UNL     1      69.427   3.888  11.354  1.00  0.00     0.156 HD
ENDBRANCH   3   8
TORSDOF 1
ENDMDL
