MODEL 1
REMARK VINA RESULT:      -6.4      0.000      0.000
REMARK  2 active torsions:
REMARK  status: ('A' for Active; 'I' for Inactive)
REMARK       I    between atoms: C_1  and  N_4 
REMARK    1  A    between atoms: C_1  and  C_3 
REMARK    2  A    between atoms: N_4  and  C_10 
ROOT
HETATM    1  N   UNL     1      63.988   7.012   3.763  1.00  0.00    -0.058 N 
HETATM    2  C   UNL     1      64.233   7.966   4.886  1.00  0.00     0.281 C 
HETATM    3  C   UNL     1      63.056   8.889   5.240  1.00  0.00     0.082 C 
HETATM    4  C   UNL     1      62.603   9.615   4.008  1.00  0.00    -0.048 A 
HETATM    5  C   UNL     1      62.897   7.417   2.853  1.00  0.00     0.272 C 
HETATM    6  C   UNL     1      62.585   8.894   2.807  1.00  0.00    -0.026 A 
HETATM    7  C   UNL     1      62.193  10.953   4.042  1.00  0.00     0.008 A 
HETATM    8  C   UNL     1      62.165   9.531   1.635  1.00  0.00     0.009 A 
HETATM    9  C   UNL     1      61.791  11.580   2.868  1.00  0.00     0.001 A 
HETATM   10  C   UNL     1      61.780  10.875   1.664  1.00  0.00     0.001 A 
HETATM   11  H   UNL     1      63.751   6.103   4.161  1.00  0.00     0.278 HD
HETATM   12  H   UNL     1      64.841   6.988   3.205  1.00  0.00     0.278 HD
ENDROOT
BRANCH   2  13
HETATM   13  C   UNL     1      64.675   7.217   6.166  1.00  0.00     0.249 C 
HETATM   14  N   UNL     1      65.917   6.621   6.083  1.00  0.00    -0.351 N 
HETATM   15  H   UNL     1      66.422   6.738   5.247  1.00  0.00     0.163 HD
HETATM   16  O   UNL     1      63.982   7.187   7.183  1.00  0.00    -0.271 OA
BRANCH  14  17
HETATM   17  C   UNL     1      66.544   5.821   7.150  1.00  0.00     0.022 C 
HETATM   18  C   UNL     1      65.660   4.617   7.522  1.00  0.00     0.037 C 
HETATM   19  C   UNL     1      67.890   5.298   6.620  1.00  0.00     0.037 C 
HETATM   20  C   UNL     1      66.814   6.655   8.414  1.00  0.00     0.037 C 
ENDBRANCH  14  17
ENDBRANCH   2  13
TORSDOF 2
ENDMDL
MODEL 2
REMARK VINA RESULT:      -6.1      2.291      7.546
REMARK  2 active torsions:
REMARK  status: ('A' for Active; 'I' for Inactive)
REMARK       I    between atoms: C_1  and  N_4 
REMARK    1  A    between atoms: C_1  and  C_3 
REMARK    2  A    between atoms: N_4  and  C_10 
ROOT
HETATM    1  N   UNL     1      67.121   7.481   8.117  1.00  0.00    -0.058 N 
HETATM    2  C   UNL     1      67.159   6.938   6.725  1.00  0.00     0.281 C 
HETATM    3  C   UNL     1      66.878   5.433   6.592  1.00  0.00     0.082 C 
HETATM    4  C   UNL     1      67.806   4.671   7.492  1.00  0.00    -0.048 A 
HETATM    5  C   UNL     1      67.324   6.463   9.167  1.00  0.00     0.272 C 
HETATM    6  C   UNL     1      68.075   5.221   8.752  1.00  0.00    -0.026 A 
HETATM    7  C   UNL     1      68.373   3.450   7.111  1.00  0.00     0.008 A 
HETATM    8  C   UNL     1      68.931   4.541   9.624  1.00  0.00     0.009 A 
HETATM    9  C   UNL     1      69.234   2.790   7.981  1.00  0.00     0.001 A 
HETATM   10  C   UNL     1      69.518   3.333   9.234  1.00  0.00     0.001 A 
HETATM   11  H   UNL     1      66.210   7.917   8.265  1.00  0.00     0.278 HD
HETATM   12  H   UNL     1      67.893   8.143   8.196  1.00  0.00     0.278 HD
ENDROOT
BRANCH   2  13
HETATM   13  C   UNL     1      66.184   7.706   5.801  1.00  0.00     0.249 C 
HETATM   14  N   UNL     1      64.848   7.454   6.040  1.00  0.00    -0.351 N 
HETATM   15  H   UNL     1      64.626   6.842   6.778  1.00  0.00     0.163 HD
HETATM   16  O   UNL     1      66.575   8.498   4.945  1.00  0.00    -0.271 OA
BRANCH  14  17
HETATM   17  C   UNL     1      63.728   8.030   5.275  1.00  0.00     0.022 C 
HETATM   18  C   UNL     1      63.773   7.566   3.808  1.00  0.00     0.037 C 
HETATM   19  C   UNL     1      62.417   7.533   5.908  1.00  0.00     0.037 C 
HETATM   20  C   UNL     1      63.731   9.567   5.316  1.00  0.00     0.037 C 
ENDBRANCH  14  17
ENDBRANCH   2  13
TORSDOF 2
ENDMDL
MODEL 3
REMARK VINA RESULT:      -5.7      1.590      6.860
REMARK  2 active torsions:
REMARK  status: ('A' for Active; 'I' for Inactive)
REMARK       I    between atoms: C_1  and  N_4 
REMARK    1  A    between atoms: C_1  and  C_3 
REMARK    2  A    between atoms: N_4  and  C_10 
ROOT
HETATM    1  N   UNL     1      65.487   5.227   5.321  1.00  0.00    -0.058 N 
HETATM    2  C   UNL     1      64.951   5.984   6.493  1.00  0.00     0.281 C 
HETATM    3  C   UNL     1      65.992   6.771   7.305  1.00  0.00     0.082 C 
HETATM    4  C   UNL     1      67.100   5.849   7.722  1.00  0.00    -0.048 A 
HETATM    5  C   UNL     1      66.931   4.929   5.404  1.00  0.00     0.272 C 
HETATM    6  C   UNL     1      67.523   4.890   6.792  1.00  0.00    -0.026 A 
HETATM    7  C   UNL     1      67.711   5.942   8.978  1.00  0.00     0.008 A 
HETATM    8  C   UNL     1      68.556   4.014   7.138  1.00  0.00     0.009 A 
HETATM    9  C   UNL     1      68.729   5.056   9.315  1.00  0.00     0.001 A 
HETATM   10  C   UNL     1      69.150   4.090   8.402  1.00  0.00     0.001 A 
HETATM   11  H   UNL     1      65.322   5.780   4.480  1.00  0.00     0.278 HD
HETATM   12  H   UNL     1      65.002   4.329   5.304  1.00  0.00     0.278 HD
ENDROOT
BRANCH   2  13
HETATM   13  C   UNL     1      63.825   6.954   6.062  1.00  0.00     0.249 C 
HETATM   14  N   UNL     1      63.661   7.073   4.696  1.00  0.00    -0.351 N 
HETATM   15  H   UNL     1      64.240   6.524   4.120  1.00  0.00     0.163 HD
HETATM   16  O   UNL     1      63.119   7.545   6.877  1.00  0.00    -0.271 OA
BRANCH  14  17
HETATM   17  C   UNL     1      62.686   7.957   4.036  1.00  0.00     0.022 C 
HETATM   18  C   UNL     1      62.866   9.414   4.502  1.00  0.00     0.037 C 
HETATM   19  C   UNL     1      62.938   7.892   2.519  1.00  0.00     0.037 C 
HETATM   20  C   UNL     1      61.235   7.520   4.303  1.00  0.00     0.037 C 
ENDBRANCH  14  17
ENDBRANCH   2  13
TORSDOF 2
ENDMDL
MODEL 4
REMARK VINA RESULT:      -5.7      1.223      2.092
REMARK  2 active torsions:
REMARK  status: ('A' for Active; 'I' for Inactive)
REMARK       I    between atoms: C_1  and  N_4 
REMARK    1  A    between atoms: C_1  and  C_3 
REMARK    2  A    between atoms: N_4  and  C_10 
ROOT
HETATM    1  N   UNL     1      63.250   8.780   5.798  1.00  0.00    -0.058 N 
HETATM    2  C   UNL     1      63.569   7.392   5.343  1.00  0.00     0.281 C 
HETATM    3  C   UNL     1      64.107   7.272   3.908  1.00  0.00     0.082 C 
HETATM    4  C   UNL     1      63.156   7.942   2.961  1.00  0.00    -0.048 A 
HETATM    5  C   UNL     1      63.012   9.736   4.697  1.00  0.00     0.272 C 
HETATM    6  C   UNL     1      62.564   9.139   3.385  1.00  0.00    -0.026 A 
HETATM    7  C   UNL     1      62.874   7.417   1.695  1.00  0.00     0.008 A 
HETATM    8  C   UNL     1      61.675   9.799   2.531  1.00  0.00     0.009 A 
HETATM    9  C   UNL     1      61.979   8.075   0.860  1.00  0.00     0.001 A 
HETATM   10  C   UNL     1      61.374   9.262   1.275  1.00  0.00     0.001 A 
HETATM   11  H   UNL     1      64.034   9.122   6.355  1.00  0.00     0.278 HD
HETATM   12  H   UNL     1      62.382   8.723   6.330  1.00  0.00     0.278 HD
ENDROOT
BRANCH   2  13
HETATM   13  C   UNL     1      64.570   6.708   6.305  1.00  0.00     0.249 C 
HETATM   14  N   UNL     1      65.495   5.892   5.685  1.00  0.00    -0.351 N 
HETATM   15  H   UNL     1      65.463   5.832   4.703  1.00  0.00     0.163 HD
HETATM   16  O   UNL     1      64.555   6.904   7.519  1.00  0.00    -0.271 OA
BRANCH  14  17
HETATM   17  C   UNL     1      66.527   5.103   6.380  1.00  0.00     0.022 C 
HETATM   18  C   UNL     1      65.889   3.949   7.175  1.00  0.00     0.037 C 
HETATM   19  C   UNL     1      67.465   4.508   5.316  1.00  0.00     0.037 C 
HETATM   20  C   UNL     1      67.367   5.967   7.337  1.00  0.00     0.037 C 
ENDBRANCH  14  17
ENDBRANCH   2  13
TORSDOF 2
ENDMDL
MODEL 5
REMARK VINA RESULT:      -5.6      2.577      4.039
REMARK  2 active torsions:
REMARK  status: ('A' for Active; 'I' for Inactive)
REMARK       I    between atoms: C_1  and  N_4 
REMARK    1  A    between atoms: C_1  and  C_3 
REMARK    2  A    between atoms: N_4  and  C_10 
ROOT
HETATM    1  N   UNL     1      67.246   7.787   6.771  1.00  0.00    -0.058 N 
HETATM    2  C   UNL     1      66.485   6.893   7.695  1.00  0.00     0.281 C 
HETATM    3  C   UNL     1      65.393   6.034   7.036  1.00  0.00     0.082 C 
HETATM    4  C   UNL     1      64.464   6.918   6.258  1.00  0.00    -0.048 A 
HETATM    5  C   UNL     1      66.539   8.096   5.511  1.00  0.00     0.272 C 
HETATM    6  C   UNL     1      65.034   7.984   5.549  1.00  0.00    -0.026 A 
HETATM    7  C   UNL     1      63.084   6.692   6.216  1.00  0.00     0.008 A 
HETATM    8  C   UNL     1      64.205   8.830   4.807  1.00  0.00     0.009 A 
HETATM    9  C   UNL     1      62.268   7.548   5.486  1.00  0.00     0.001 A 
HETATM   10  C   UNL     1      62.823   8.619   4.785  1.00  0.00     0.001 A 
HETATM   11  H   UNL     1      68.129   7.331   6.539  1.00  0.00     0.278 HD
HETATM   12  H   UNL     1      67.375   8.673   7.260  1.00  0.00     0.278 HD
ENDROOT
BRANCH   2  13
HETATM   13  C   UNL     1      67.439   5.961   8.480  1.00  0.00     0.249 C 
HETATM   14  N   UNL     1      67.912   4.883   7.758  1.00  0.00    -0.351 N 
HETATM   15  H   UNL     1      67.633   4.809   6.817  1.00  0.00     0.163 HD
HETATM   16  O   UNL     1      67.769   6.187   9.643  1.00  0.00    -0.271 OA
BRANCH  14  17
HETATM   17  C   UNL     1      68.801   3.835   8.288  1.00  0.00     0.022 C 
HETATM   18  C   UNL     1      69.157   2.814   7.192  1.00  0.00     0.037 C 
HETATM   19  C   UNL     1      70.097   4.512   8.769  1.00  0.00     0.037 C 
HETATM   20  C   UNL     1      68.173   3.093   9.480  1.00  0.00     0.037 C 
ENDBRANCH  14  17
ENDBRANCH   2  13
TORSDOF 2
ENDMDL
MODEL 6
REMARK VINA RESULT:      -5.5      2.357      7.546
REMARK  2 active torsions:
REMARK  status: ('A' for Active; 'I' for Inactive)
REMARK       I    between atoms: C_1  and  N_4 
REMARK    1  A    between atoms: C_1  and  C_3 
REMARK    2  A    between atoms: N_4  and  C_10 
ROOT
HETATM    1  N   UNL     1      65.282   4.027   7.470  1.00  0.00    -0.058 N 
HETATM    2  C   UNL     1      65.713   5.453   7.587  1.00  0.00     0.281 C 
HETATM    3  C   UNL     1      67.176   5.737   7.212  1.00  0.00     0.082 C 
HETATM    4  C   UNL     1      68.078   4.837   8.005  1.00  0.00    -0.048 A 
HETATM    5  C   UNL     1      66.394   3.056   7.512  1.00  0.00     0.272 C 
HETATM    6  C   UNL     1      67.653   3.517   8.205  1.00  0.00    -0.026 A 
HETATM    7  C   UNL     1      69.304   5.276   8.514  1.00  0.00     0.008 A 
HETATM    8  C   UNL     1      68.466   2.643   8.934  1.00  0.00     0.009 A 
HETATM    9  C   UNL     1      70.097   4.402   9.249  1.00  0.00     0.001 A 
HETATM   10  C   UNL     1      69.680   3.089   9.465  1.00  0.00     0.001 A 
HETATM   11  H   UNL     1      64.790   3.913   6.583  1.00  0.00     0.278 HD
HETATM   12  H   UNL     1      64.691   3.831   8.278  1.00  0.00     0.278 HD
ENDROOT
BRANCH   2  13
HETATM   13  C   UNL     1      64.800   6.381   6.750  1.00  0.00     0.249 C 
HETATM   14  N   UNL     1      64.752   6.077   5.404  1.00  0.00    -0.351 N 
HETATM   15  H   UNL     1      65.268   5.298   5.096  1.00  0.00     0.163 HD
HETATM   16  O   UNL     1      64.150   7.295   7.255  1.00  0.00    -0.271 OA
BRANCH  14  17
HETATM   17  C   UNL     1      63.988   6.830   4.394  1.00  0.00     0.022 C 
HETATM   18  C   UNL     1      64.276   8.338   4.503  1.00  0.00     0.037 C 
HETATM   19  C   UNL     1      64.434   6.343   3.004  1.00  0.00     0.037 C 
HETATM   20  C   UNL     1      62.473   6.597   4.524  1.00  0.00     0.037 C 
ENDBRANCH  14  17
ENDBRANCH   2  13
TORSDOF 2
ENDMDL
MODEL 7
REMARK VINA RESULT:      -5.5      0.854      1.510
REMARK  2 active torsions:
REMARK  status: ('A' for Active; 'I' for Inactive)
REMARK       I    between atoms: C_1  and  N_4 
REMARK    1  A    between atoms: C_1  and  C_3 
REMARK    2  A    between atoms: N_4  and  C_10 
ROOT
HETATM    1  N   UNL     1      64.212   6.000   3.960  1.00  0.00    -0.058 N 
HETATM    2  C   UNL     1      64.445   7.235   4.768  1.00  0.00     0.281 C 
HETATM    3  C   UNL     1      63.249   8.196   4.870  1.00  0.00     0.082 C 
HETATM    4  C   UNL     1      62.766   8.538   3.492  1.00  0.00    -0.048 A 
HETATM    5  C   UNL     1      63.101   6.112   2.992  1.00  0.00     0.272 C 
HETATM    6  C   UNL     1      62.753   7.510   2.541  1.00  0.00    -0.026 A 
HETATM    7  C   UNL     1      62.323   9.824   3.158  1.00  0.00     0.008 A 
HETATM    8  C   UNL     1      62.305   7.786   1.245  1.00  0.00     0.009 A 
HETATM    9  C   UNL     1      61.893  10.089   1.863  1.00  0.00     0.001 A 
HETATM   10  C   UNL     1      61.887   9.076   0.904  1.00  0.00     0.001 A 
HETATM   11  H   UNL     1      64.002   5.233   4.600  1.00  0.00     0.278 HD
HETATM   12  H   UNL     1      65.059   5.839   3.416  1.00  0.00     0.278 HD
ENDROOT
BRANCH   2  13
HETATM   13  C   UNL     1      64.919   6.883   6.198  1.00  0.00     0.249 C 
HETATM   14  N   UNL     1      66.199   6.372   6.270  1.00  0.00    -0.351 N 
HETATM   15  H   UNL     1      66.707   6.298   5.430  1.00  0.00     0.163 HD
HETATM   16  O   UNL     1      64.216   7.075   7.190  1.00  0.00    -0.271 OA
BRANCH  14  17
HETATM   17  C   UNL     1      66.864   5.928   7.507  1.00  0.00     0.022 C 
HETATM   18  C   UNL     1      66.754   7.002   8.604  1.00  0.00     0.037 C 
HETATM   19  C   UNL     1      66.155   4.652   7.994  1.00  0.00     0.037 C 
HETATM   20  C   UNL     1      68.349   5.596   7.277  1.00  0.00     0.037 C 
ENDBRANCH  14  17
ENDBRANCH   2  13
TORSDOF 2
ENDMDL
MODEL 8
REMARK VINA RESULT:      -5.5      1.886      6.422
REMARK  2 active torsions:
REMARK  status: ('A' for Active; 'I' for Inactive)
REMARK       I    between atoms: C_1  and  N_4 
REMARK    1  A    between atoms: C_1  and  C_3 
REMARK    2  A    between atoms: N_4  and  C_10 
ROOT
HETATM    1  N   UNL     1      62.846   8.022   6.122  1.00  0.00    -0.058 N 
HETATM    2  C   UNL     1      63.591   8.822   5.102  1.00  0.00     0.281 C 
HETATM    3  C   UNL     1      64.684   8.063   4.333  1.00  0.00     0.082 C 
HETATM    4  C   UNL     1      65.628   7.424   5.309  1.00  0.00    -0.048 A 
HETATM    5  C   UNL     1      63.570   6.824   6.595  1.00  0.00     0.272 C 
HETATM    6  C   UNL     1      65.074   6.863   6.467  1.00  0.00    -0.026 A 
HETATM    7  C   UNL     1      67.007   7.366   5.079  1.00  0.00     0.008 A 
HETATM    8  C   UNL     1      65.918   6.254   7.401  1.00  0.00     0.009 A 
HETATM    9  C   UNL     1      67.838   6.770   6.022  1.00  0.00     0.001 A 
HETATM   10  C   UNL     1      67.298   6.218   7.183  1.00  0.00     0.001 A 
HETATM   11  H   UNL     1      61.963   7.720   5.709  1.00  0.00     0.278 HD
HETATM   12  H   UNL     1      62.717   8.627   6.932  1.00  0.00     0.278 HD
ENDROOT
BRANCH   2  13
HETATM   13  C   UNL     1      62.621   9.460   4.079  1.00  0.00     0.249 C 
HETATM   14  N   UNL     1      62.667   8.901   2.818  1.00  0.00    -0.351 N 
HETATM   15  H   UNL     1      63.279   8.143   2.679  1.00  0.00     0.163 HD
HETATM   16  O   UNL     1      61.852  10.372   4.381  1.00  0.00    -0.271 OA
BRANCH  14  17
HETATM   17  C   UNL     1      61.873   9.353   1.663  1.00  0.00     0.022 C 
HETATM   18  C   UNL     1      61.799  10.890   1.617  1.00  0.00     0.037 C 
HETATM   19  C   UNL     1      62.570   8.857   0.384  1.00  0.00     0.037 C 
HETATM   20  C   UNL     1      60.444   8.783   1.686  1.00  0.00     0.037 C 
ENDBRANCH  14  17
ENDBRANCH   2  13
TORSDOF 2
ENDMDL
MODEL 9
REMARK VINA RESULT:      -5.3      1.465      6.700
REMARK  2 active torsions:
REMARK  status: ('A' for Active; 'I' for Inactive)
REMARK       I    between atoms: C_1  and  N_4 
REMARK    1  A    between atoms: C_1  and  C_3 
REMARK    2  A    between atoms: N_4  and  C_10 
ROOT
HETATM    1  N   UNL     1      65.598   8.007   6.561  1.00  0.00    -0.058 N 
HETATM    2  C   UNL     1      64.879   7.424   5.388  1.00  0.00     0.281 C 
HETATM    3  C   UNL     1      64.530   5.931   5.500  1.00  0.00     0.082 C 
HETATM    4  C   UNL     1      65.773   5.150   5.810  1.00  0.00    -0.048 A 
HETATM    5  C   UNL     1      66.301   7.010   7.395  1.00  0.00     0.272 C 
HETATM    6  C   UNL     1      66.684   5.721   6.708  1.00  0.00    -0.026 A 
HETATM    7  C   UNL     1      66.019   3.892   5.249  1.00  0.00     0.008 A 
HETATM    8  C   UNL     1      67.853   5.025   7.028  1.00  0.00     0.009 A 
HETATM    9  C   UNL     1      67.192   3.215   5.564  1.00  0.00     0.001 A 
HETATM   10  C   UNL     1      68.112   3.779   6.448  1.00  0.00     0.001 A 
HETATM   11  H   UNL     1      64.917   8.491   7.146  1.00  0.00     0.278 HD
HETATM   12  H   UNL     1      66.312   8.631   6.187  1.00  0.00     0.278 HD
ENDROOT
BRANCH   2  13
HETATM   13  C   UNL     1      63.582   8.212   5.082  1.00  0.00     0.249 C 
HETATM   14  N   UNL     1      63.280   8.322   3.740  1.00  0.00    -0.351 N 
HETATM   15  H   UNL     1      63.883   7.879   3.101  1.00  0.00     0.163 HD
HETATM   16  O   UNL     1      62.868   8.673   5.972  1.00  0.00    -0.271 OA
BRANCH  14  17
HETATM   17  C   UNL     1      62.125   9.052   3.191  1.00  0.00     0.022 C 
HETATM   18  C   UNL     1      62.074  10.489   3.740  1.00  0.00     0.037 C 
HETATM   19  C   UNL     1      62.287   9.115   1.662  1.00  0.00     0.037 C 
HETATM   20  C   UNL     1      60.794   8.348   3.505  1.00  0.00     0.037 C 
ENDBRANCH  14  17
ENDBRANCH   2  13
TORSDOF 2
ENDMDL
