MODEL 1
REMARK VINA RESULT:      -4.7      0.000      0.000
REMARK  3 active torsions:
REMARK  status: ('A' for Active; 'I' for Inactive)
REMARK    1  A    between atoms: C_1  and  C_3 
REMARK    2  A    between atoms: C_2  and  O_8 
REMARK    3  A    between atoms: C_3  and  O_9 
ROOT
HETATM    1  C   UNL     1      77.820  11.287  19.473  1.00  0.00     0.113 A 
HETATM    2  C   UNL     1      78.300  11.957  20.583  1.00  0.00     0.089 A 
HETATM    3  S   UNL     1      76.524  12.171  18.755  1.00  0.00    -0.093 SA
HETATM    4  C   UNL     1      77.612  13.176  20.844  1.00  0.00     0.045 A 
HETATM    5  C   UNL     1      76.620  13.412  19.920  1.00  0.00     0.053 A 
ENDROOT
BRANCH   1   6
HETATM    6  C   UNL     1      78.196  10.035  18.838  1.00  0.00     0.302 C 
HETATM    7  O   UNL     1      79.184   9.871  18.122  1.00  0.00    -0.259 OA
BRANCH   6   8
HETATM    8  O   UNL     1      77.315   9.034  19.126  1.00  0.00    -0.322 OA
HETATM    9  C   UNL     1      76.968   8.245  17.986  1.00  0.00     0.213 C 
ENDBRANCH   6   8
ENDBRANCH   1   6
BRANCH   2  10
HETATM   10  O   UNL     1      79.316  11.493  21.335  1.00  0.00    -0.359 OA
HETATM   11  H   UNL     1      80.180  11.443  20.975  1.00  0.00     0.217 HD
ENDBRANCH   2  10
TORSDOF 3
ENDMDL
MODEL 2
REMARK VINA RESULT:      -4.6     18.685     20.031
REMARK  3 active torsions:
REMARK  status: ('A' for Active; 'I' for Inactive)
REMARK    1  A    between atoms: C_1  and  C_3 
REMARK    2  A    between atoms: C_2  and  O_8 
REMARK    3  A    between atoms: C_3  and  O_9 
ROOT
HETATM    1  C   UNL     1      63.756   9.346   5.016  1.00  0.00     0.113 A 
HETATM    2  C   UNL     1      63.488  10.654   5.374  1.00  0.00     0.089 A 
HETATM    3  S   UNL     1      62.643   8.816   3.809  1.00  0.00    -0.093 SA
HETATM    4  C   UNL     1      62.381  11.212   4.673  1.00  0.00     0.045 A 
HETATM    5  C   UNL     1      61.831  10.315   3.787  1.00  0.00     0.053 A 
ENDROOT
BRANCH   1   6
HETATM    6  C   UNL     1      64.759   8.390   5.454  1.00  0.00     0.302 C 
HETATM    7  O   UNL     1      64.708   7.173   5.270  1.00  0.00    -0.259 OA
BRANCH   6   8
HETATM    8  O   UNL     1      65.791   8.998   6.108  1.00  0.00    -0.322 OA
HETATM    9  C   UNL     1      66.823   8.089   6.496  1.00  0.00     0.213 C 
ENDBRANCH   6   8
ENDBRANCH   1   6
BRANCH   2  10
HETATM   10  O   UNL     1      64.206  11.322   6.296  1.00  0.00    -0.359 OA
HETATM   11  H   UNL     1      64.937  10.908   6.710  1.00  0.00     0.217 HD
ENDBRANCH   2  10
TORSDOF 3
ENDMDL
MODEL 3
REMARK VINA RESULT:      -4.4     14.090     14.573
REMARK  3 active torsions:
REMARK  status: ('A' for Active; 'I' for Inactive)
REMARK    1  A    between atoms: C_1  and  C_3 
REMARK    2  A    between atoms: C_2  and  O_8 
REMARK    3  A    between atoms: C_3  and  O_9 
ROOT
HETATM    1  C   UNL     1      72.140  22.858  12.973  1.00  0.00     0.113 A 
HETATM    2  C   UNL     1      73.430  22.987  13.455  1.00  0.00     0.089 A 
HETATM    3  S   UNL     1      71.008  23.478  14.119  1.00  0.00    -0.093 SA
HETATM    4  C   UNL     1      73.489  23.581  14.748  1.00  0.00     0.045 A 
HETATM    5  C   UNL     1      72.237  23.897  15.224  1.00  0.00     0.053 A 
ENDROOT
BRANCH   1   6
HETATM    6  C   UNL     1      71.599  22.322  11.736  1.00  0.00     0.302 C 
HETATM    7  O   UNL     1      70.505  22.615  11.254  1.00  0.00    -0.259 OA
BRANCH   6   8
HETATM    8  O   UNL     1      72.453  21.434  11.150  1.00  0.00    -0.322 OA
HETATM    9  C   UNL     1      71.789  20.481  10.318  1.00  0.00     0.213 C 
ENDBRANCH   6   8
ENDBRANCH   1   6
BRANCH   2  10
HETATM   10  O   UNL     1      74.513  22.587  12.763  1.00  0.00    -0.359 OA
HETATM   11  H   UNL     1      75.293  22.336  13.218  1.00  0.00     0.217 HD
ENDBRANCH   2  10
TORSDOF 3
ENDMDL
MODEL 4
REMARK VINA RESULT:      -4.4     20.145     21.540
REMARK  3 active torsions:
REMARK  status: ('A' for Active; 'I' for Inactive)
REMARK    1  A    between atoms: C_1  and  C_3 
REMARK    2  A    between atoms: C_2  and  O_8 
REMARK    3  A    between atoms: C_3  and  O_9 
ROOT
HETATM    1  C   UNL     1      62.732   9.636   4.164  1.00  0.00     0.113 A 
HETATM    2  C   UNL     1      62.224  10.888   3.870  1.00  0.00     0.089 A 
HETATM    3  S   UNL     1      62.614   8.604   2.786  1.00  0.00    -0.093 SA
HETATM    4  C   UNL     1      61.740  10.997   2.535  1.00  0.00     0.045 A 
HETATM    5  C   UNL     1      61.895   9.822   1.836  1.00  0.00     0.053 A 
ENDROOT
BRANCH   1   6
HETATM    6  C   UNL     1      63.317   9.067   5.366  1.00  0.00     0.302 C 
HETATM    7  O   UNL     1      62.716   8.379   6.191  1.00  0.00    -0.259 OA
BRANCH   6   8
HETATM    8  O   UNL     1      64.639   9.385   5.488  1.00  0.00    -0.322 OA
HETATM    9  C   UNL     1      65.504   8.260   5.325  1.00  0.00     0.213 C 
ENDBRANCH   6   8
ENDBRANCH   1   6
BRANCH   2  10
HETATM   10  O   UNL     1      62.193  11.893   4.764  1.00  0.00    -0.359 OA
HETATM   11  H   UNL     1      62.659  11.814   5.574  1.00  0.00     0.217 HD
ENDBRANCH   2  10
TORSDOF 3
ENDMDL
MODEL 5
REMARK VINA RESULT:      -4.3     12.907     14.146
REMARK  3 active torsions:
REMARK  status: ('A' for Active; 'I' for Inactive)
REMARK    1  A    between atoms: C_1  and  C_3 
REMARK    2  A    between atoms: C_2  and  O_8 
REMARK    3  A    between atoms: C_3  and  O_9 
ROOT
HETATM    1  C   UNL     1      72.334  22.837  14.047  1.00  0.00     0.113 A 
HETATM    2  C   UNL     1      71.440  23.759  14.560  1.00  0.00     0.089 A 
HETATM    3  S   UNL     1      71.608  21.958  12.751  1.00  0.00    -0.093 SA
HETATM    4  C   UNL     1      70.177  23.742  13.904  1.00  0.00     0.045 A 
HETATM    5  C   UNL     1      70.135  22.805  12.896  1.00  0.00     0.053 A 
ENDROOT
BRANCH   1   6
HETATM    6  C   UNL     1      73.704  22.497  14.388  1.00  0.00     0.302 C 
HETATM    7  O   UNL     1      74.654  22.506  13.604  1.00  0.00    -0.259 OA
BRANCH   6   8
HETATM    8  O   UNL     1      73.832  22.155  15.703  1.00  0.00    -0.322 OA
HETATM    9  C   UNL     1      75.021  21.412  15.977  1.00  0.00     0.213 C 
ENDBRANCH   6   8
ENDBRANCH   1   6
BRANCH   2  10
HETATM   10  O   UNL     1      71.745  24.584  15.579  1.00  0.00    -0.359 OA
HETATM   11  H   UNL     1      71.194  25.319  15.768  1.00  0.00     0.217 HD
ENDBRANCH   2  10
TORSDOF 3
ENDMDL
MODEL 6
REMARK VINA RESULT:      -4.2      6.764      9.010
REMARK  3 active torsions:
REMARK  status: ('A' for Active; 'I' for Inactive)
REMARK    1  A    between atoms: C_1  and  C_3 
REMARK    2  A    between atoms: C_2  and  O_8 
REMARK    3  A    between atoms: C_3  and  O_9 
ROOT
HETATM    1  C   UNL     1      77.083   2.574  18.306  1.00  0.00     0.113 A 
HETATM    2  C   UNL     1      77.847   2.345  19.435  1.00  0.00     0.089 A 
HETATM    3  S   UNL     1      76.911   1.118  17.395  1.00  0.00    -0.093 SA
HETATM    4  C   UNL     1      78.291   0.997  19.549  1.00  0.00     0.045 A 
HETATM    5  C   UNL     1      77.849   0.222  18.501  1.00  0.00     0.053 A 
ENDROOT
BRANCH   1   6
HETATM    6  C   UNL     1      76.431   3.761  17.780  1.00  0.00     0.302 C 
HETATM    7  O   UNL     1      75.524   3.763  16.947  1.00  0.00    -0.259 OA
BRANCH   6   8
HETATM    8  O   UNL     1      76.946   4.905  18.318  1.00  0.00    -0.322 OA
HETATM    9  C   UNL     1      76.796   6.043  17.468  1.00  0.00     0.213 C 
ENDBRANCH   6   8
ENDBRANCH   1   6
BRANCH   2  10
HETATM   10  O   UNL     1      78.138   3.309  20.329  1.00  0.00    -0.359 OA
HETATM   11  H   UNL     1      77.824   4.182  20.195  1.00  0.00     0.217 HD
ENDBRANCH   2  10
TORSDOF 3
ENDMDL
MODEL 7
REMARK VINA RESULT:      -4.1     13.115     14.449
REMARK  3 active torsions:
REMARK  status: ('A' for Active; 'I' for Inactive)
REMARK    1  A    between atoms: C_1  and  C_3 
REMARK    2  A    between atoms: C_2  and  O_8 
REMARK    3  A    between atoms: C_3  and  O_9 
ROOT
HETATM    1  C   UNL     1      72.297  22.969  13.672  1.00  0.00     0.113 A 
HETATM    2  C   UNL     1      72.131  22.465  12.396  1.00  0.00     0.089 A 
HETATM    3  S   UNL     1      70.771  23.423  14.339  1.00  0.00    -0.093 SA
HETATM    4  C   UNL     1      70.773  22.455  11.968  1.00  0.00     0.045 A 
HETATM    5  C   UNL     1      69.928  22.950  12.935  1.00  0.00     0.053 A 
ENDROOT
BRANCH   1   6
HETATM    6  C   UNL     1      73.468  23.173  14.507  1.00  0.00     0.302 C 
HETATM    7  O   UNL     1      73.575  24.032  15.383  1.00  0.00    -0.259 OA
BRANCH   6   8
HETATM    8  O   UNL     1      74.465  22.290  14.211  1.00  0.00    -0.322 OA
HETATM    9  C   UNL     1      75.073  21.718  15.371  1.00  0.00     0.213 C 
ENDBRANCH   6   8
ENDBRANCH   1   6
BRANCH   2  10
HETATM   10  O   UNL     1      73.159  22.031  11.642  1.00  0.00    -0.359 OA
HETATM   11  H   UNL     1      73.974  22.493  11.650  1.00  0.00     0.217 HD
ENDBRANCH   2  10
TORSDOF 3
ENDMDL
MODEL 8
REMARK VINA RESULT:      -4.1     14.114     14.601
REMARK  3 active torsions:
REMARK  status: ('A' for Active; 'I' for Inactive)
REMARK    1  A    between atoms: C_1  and  C_3 
REMARK    2  A    between atoms: C_2  and  O_8 
REMARK    3  A    between atoms: C_3  and  O_9 
ROOT
HETATM    1  C   UNL     1      71.951  22.541  12.893  1.00  0.00     0.113 A 
HETATM    2  C   UNL     1      70.870  23.151  13.504  1.00  0.00     0.089 A 
HETATM    3  S   UNL     1      73.424  23.068  13.621  1.00  0.00    -0.093 SA
HETATM    4  C   UNL     1      71.245  24.041  14.550  1.00  0.00     0.045 A 
HETATM    5  C   UNL     1      72.611  24.088  14.718  1.00  0.00     0.053 A 
ENDROOT
BRANCH   1   6
HETATM    6  C   UNL     1      72.058  21.585  11.805  1.00  0.00     0.302 C 
HETATM    7  O   UNL     1      72.801  21.700  10.829  1.00  0.00    -0.259 OA
BRANCH   6   8
HETATM    8  O   UNL     1      71.226  20.518  11.981  1.00  0.00    -0.322 OA
HETATM    9  C   UNL     1      71.018  19.764  10.784  1.00  0.00     0.213 C 
ENDBRANCH   6   8
ENDBRANCH   1   6
BRANCH   2  10
HETATM   10  O   UNL     1      69.596  22.919  13.136  1.00  0.00    -0.359 OA
HETATM   11  H   UNL     1      69.414  22.479  12.330  1.00  0.00     0.217 HD
ENDBRANCH   2  10
TORSDOF 3
ENDMDL
MODEL 9
REMARK VINA RESULT:      -3.9     14.771     15.949
REMARK  3 active torsions:
REMARK  status: ('A' for Active; 'I' for Inactive)
REMARK    1  A    between atoms: C_1  and  C_3 
REMARK    2  A    between atoms: C_2  and  O_8 
REMARK    3  A    between atoms: C_3  and  O_9 
ROOT
HETATM    1  C   UNL     1      71.272  24.014  14.237  1.00  0.00     0.113 A 
HETATM    2  C   UNL     1      71.304  23.011  13.286  1.00  0.00     0.089 A 
HETATM    3  S   UNL     1      72.875  24.427  14.724  1.00  0.00    -0.093 SA
HETATM    4  C   UNL     1      72.623  22.583  12.965  1.00  0.00     0.045 A 
HETATM    5  C   UNL     1      73.574  23.276  13.678  1.00  0.00     0.053 A 
ENDROOT
BRANCH   1   6
HETATM    6  C   UNL     1      70.184  24.744  14.864  1.00  0.00     0.302 C 
HETATM    7  O   UNL     1      70.318  25.657  15.679  1.00  0.00    -0.259 OA
BRANCH   6   8
HETATM    8  O   UNL     1      68.964  24.299  14.445  1.00  0.00    -0.322 OA
HETATM    9  C   UNL     1      67.927  24.514  15.405  1.00  0.00     0.213 C 
ENDBRANCH   6   8
ENDBRANCH   1   6
BRANCH   2  10
HETATM   10  O   UNL     1      70.192  22.497  12.728  1.00  0.00    -0.359 OA
HETATM   11  H   UNL     1      70.161  21.590  12.495  1.00  0.00     0.217 HD
ENDBRANCH   2  10
TORSDOF 3
ENDMDL
