MODEL 1
REMARK VINA RESULT:      -5.2      0.000      0.000
REMARK  2 active torsions:
REMARK  status: ('A' for Active; 'I' for Inactive)
REMARK    1  A    between atoms: C_2  and  C_7 
REMARK    2  A    between atoms: C_5  and  C_7 
ROOT
HETATM    1  C   UNL     1      62.325   9.526   2.404  1.00  0.00     0.056 A 
HETATM    2  C   UNL     1      62.053  10.809   2.892  1.00  0.00     0.055 A 
HETATM    3  C   UNL     1      62.826   8.543   3.267  1.00  0.00     0.033 A 
HETATM    4  C   UNL     1      63.054   8.831   4.622  1.00  0.00    -0.046 A 
HETATM    5  C   UNL     1      62.276  11.099   4.240  1.00  0.00     0.026 A 
HETATM    6 CL   UNL     1      62.071   9.090   0.752  1.00  0.00    -0.083 Cl
HETATM    7  C   UNL     1      62.774  10.117   5.101  1.00  0.00     0.009 A 
HETATM    8 CL   UNL     1      61.448  12.075   1.885  1.00  0.00    -0.083 Cl
ENDROOT
BRANCH   4   9
HETATM    9  C   UNL     1      63.643   7.784   5.539  1.00  0.00     0.151 C 
BRANCH   9  10
HETATM   10  C   UNL     1      65.115   7.983   5.809  1.00  0.00     0.176 C 
HETATM   11  O   UNL     1      65.940   8.541   5.106  1.00  0.00    -0.648 OA
HETATM   12  O   UNL     1      65.487   7.454   6.994  1.00  0.00    -0.648 OA
ENDBRANCH   9  10
ENDBRANCH   4   9
TORSDOF 2
ENDMDL
MODEL 2
REMARK VINA RESULT:      -4.9      5.903      7.737
REMARK  2 active torsions:
REMARK  status: ('A' for Active; 'I' for Inactive)
REMARK    1  A    between atoms: C_2  and  C_7 
REMARK    2  A    between atoms: C_5  and  C_7 
ROOT
HETATM    1  C   UNL     1      68.197   4.441   7.489  1.00  0.00     0.056 A 
HETATM    2  C   UNL     1      68.534   4.868   8.777  1.00  0.00     0.055 A 
HETATM    3  C   UNL     1      67.244   5.147   6.745  1.00  0.00     0.033 A 
HETATM    4  C   UNL     1      66.624   6.288   7.279  1.00  0.00    -0.046 A 
HETATM    5  C   UNL     1      67.921   6.005   9.312  1.00  0.00     0.026 A 
HETATM    6 CL   UNL     1      68.914   3.049   6.758  1.00  0.00    -0.083 Cl
HETATM    7  C   UNL     1      66.971   6.710   8.568  1.00  0.00     0.009 A 
HETATM    8 CL   UNL     1      69.689   4.040   9.758  1.00  0.00    -0.083 Cl
ENDROOT
BRANCH   4   9
HETATM    9  C   UNL     1      65.558   7.018   6.495  1.00  0.00     0.151 C 
BRANCH   9  10
HETATM   10  C   UNL     1      66.083   8.215   5.738  1.00  0.00     0.176 C 
HETATM   11  O   UNL     1      67.072   8.281   5.029  1.00  0.00    -0.648 OA
HETATM   12  O   UNL     1      65.309   9.306   5.920  1.00  0.00    -0.648 OA
ENDBRANCH   9  10
ENDBRANCH   4   9
TORSDOF 2
ENDMDL
MODEL 3
REMARK VINA RESULT:      -4.7      6.698      8.142
REMARK  2 active torsions:
REMARK  status: ('A' for Active; 'I' for Inactive)
REMARK    1  A    between atoms: C_2  and  C_7 
REMARK    2  A    between atoms: C_5  and  C_7 
ROOT
HETATM    1  C   UNL     1      67.653   5.238   6.720  1.00  0.00     0.056 A 
HETATM    2  C   UNL     1      67.064   6.335   7.357  1.00  0.00     0.055 A 
HETATM    3  C   UNL     1      68.481   4.372   7.444  1.00  0.00     0.033 A 
HETATM    4  C   UNL     1      68.724   4.592   8.809  1.00  0.00    -0.046 A 
HETATM    5  C   UNL     1      67.300   6.556   8.716  1.00  0.00     0.026 A 
HETATM    6 CL   UNL     1      67.404   4.896   5.044  1.00  0.00    -0.083 Cl
HETATM    7  C   UNL     1      68.126   5.691   9.438  1.00  0.00     0.009 A 
HETATM    8 CL   UNL     1      66.042   7.453   6.525  1.00  0.00    -0.083 Cl
ENDROOT
BRANCH   4   9
HETATM    9  C   UNL     1      69.661   3.686   9.576  1.00  0.00     0.151 C 
BRANCH   9  10
HETATM   10  C   UNL     1      68.967   2.505  10.211  1.00  0.00     0.176 C 
HETATM   11  O   UNL     1      67.806   2.157  10.083  1.00  0.00    -0.648 OA
HETATM   12  O   UNL     1      69.800   1.797  11.002  1.00  0.00    -0.648 OA
ENDBRANCH   9  10
ENDBRANCH   4   9
TORSDOF 2
ENDMDL
MODEL 4
REMARK VINA RESULT:      -4.6      3.891      5.358
REMARK  2 active torsions:
REMARK  status: ('A' for Active; 'I' for Inactive)
REMARK    1  A    between atoms: C_2  and  C_7 
REMARK    2  A    between atoms: C_5  and  C_7 
ROOT
HETATM    1  C   UNL     1      66.194   7.609   5.575  1.00  0.00     0.056 A 
HETATM    2  C   UNL     1      65.696   6.600   6.406  1.00  0.00     0.055 A 
HETATM    3  C   UNL     1      65.310   8.491   4.941  1.00  0.00     0.033 A 
HETATM    4  C   UNL     1      63.925   8.376   5.134  1.00  0.00    -0.046 A 
HETATM    5  C   UNL     1      64.318   6.483   6.603  1.00  0.00     0.026 A 
HETATM    6 CL   UNL     1      67.884   7.821   5.286  1.00  0.00    -0.083 Cl
HETATM    7  C   UNL     1      63.436   7.363   5.971  1.00  0.00     0.009 A 
HETATM    8 CL   UNL     1      66.724   5.468   7.209  1.00  0.00    -0.083 Cl
ENDROOT
BRANCH   4   9
HETATM    9  C   UNL     1      62.970   9.295   4.407  1.00  0.00     0.151 C 
BRANCH   9  10
HETATM   10  C   UNL     1      62.745  10.608   5.116  1.00  0.00     0.176 C 
HETATM   11  O   UNL     1      63.200  10.973   6.187  1.00  0.00    -0.648 OA
HETATM   12  O   UNL     1      61.931  11.427   4.417  1.00  0.00    -0.648 OA
ENDBRANCH   9  10
ENDBRANCH   4   9
TORSDOF 2
ENDMDL
MODEL 5
REMARK VINA RESULT:      -4.6      6.608      8.455
REMARK  2 active torsions:
REMARK  status: ('A' for Active; 'I' for Inactive)
REMARK    1  A    between atoms: C_2  and  C_7 
REMARK    2  A    between atoms: C_5  and  C_7 
ROOT
HETATM    1  C   UNL     1      68.768   4.273   8.181  1.00  0.00     0.056 A 
HETATM    2  C   UNL     1      68.551   3.173   7.344  1.00  0.00     0.055 A 
HETATM    3  C   UNL     1      68.394   5.555   7.760  1.00  0.00     0.033 A 
HETATM    4  C   UNL     1      67.797   5.749   6.505  1.00  0.00    -0.046 A 
HETATM    5  C   UNL     1      67.955   3.361   6.094  1.00  0.00     0.026 A 
HETATM    6 CL   UNL     1      69.495   4.120   9.741  1.00  0.00    -0.083 Cl
HETATM    7  C   UNL     1      67.581   4.640   5.676  1.00  0.00     0.009 A 
HETATM    8 CL   UNL     1      68.998   1.565   7.789  1.00  0.00    -0.083 Cl
ENDROOT
BRANCH   4   9
HETATM    9  C   UNL     1      67.443   7.140   6.031  1.00  0.00     0.151 C 
BRANCH   9  10
HETATM   10  C   UNL     1      66.176   7.679   6.649  1.00  0.00     0.176 C 
HETATM   11  O   UNL     1      65.344   7.078   7.307  1.00  0.00    -0.648 OA
HETATM   12  O   UNL     1      66.013   8.996   6.399  1.00  0.00    -0.648 OA
ENDBRANCH   9  10
ENDBRANCH   4   9
TORSDOF 2
ENDMDL
MODEL 6
REMARK VINA RESULT:      -4.5      6.567      8.677
REMARK  2 active torsions:
REMARK  status: ('A' for Active; 'I' for Inactive)
REMARK    1  A    between atoms: C_2  and  C_7 
REMARK    2  A    between atoms: C_5  and  C_7 
ROOT
HETATM    1  C   UNL     1      67.624   3.117   8.090  1.00  0.00     0.056 A 
HETATM    2  C   UNL     1      68.438   3.336   9.207  1.00  0.00     0.055 A 
HETATM    3  C   UNL     1      67.351   4.170   7.208  1.00  0.00     0.033 A 
HETATM    4  C   UNL     1      67.889   5.447   7.431  1.00  0.00    -0.046 A 
HETATM    5  C   UNL     1      68.979   4.605   9.431  1.00  0.00     0.026 A 
HETATM    6 CL   UNL     1      66.923   1.577   7.742  1.00  0.00    -0.083 Cl
HETATM    7  C   UNL     1      68.706   5.655   8.551  1.00  0.00     0.009 A 
HETATM    8 CL   UNL     1      68.807   2.090  10.344  1.00  0.00    -0.083 Cl
ENDROOT
BRANCH   4   9
HETATM    9  C   UNL     1      67.550   6.594   6.508  1.00  0.00     0.151 C 
BRANCH   9  10
HETATM   10  C   UNL     1      66.390   7.430   6.992  1.00  0.00     0.176 C 
HETATM   11  O   UNL     1      65.357   7.051   7.517  1.00  0.00    -0.648 OA
HETATM   12  O   UNL     1      66.596   8.748   6.784  1.00  0.00    -0.648 OA
ENDBRANCH   9  10
ENDBRANCH   4   9
TORSDOF 2
ENDMDL
MODEL 7
REMARK VINA RESULT:      -4.2      5.299      7.259
REMARK  2 active torsions:
REMARK  status: ('A' for Active; 'I' for Inactive)
REMARK    1  A    between atoms: C_2  and  C_7 
REMARK    2  A    between atoms: C_5  and  C_7 
ROOT
HETATM    1  C   UNL     1      67.717   5.743   7.555  1.00  0.00     0.056 A 
HETATM    2  C   UNL     1      67.992   4.510   6.956  1.00  0.00     0.055 A 
HETATM    3  C   UNL     1      67.113   6.763   6.810  1.00  0.00     0.033 A 
HETATM    4  C   UNL     1      66.775   6.559   5.463  1.00  0.00    -0.046 A 
HETATM    5  C   UNL     1      67.654   4.301   5.616  1.00  0.00     0.026 A 
HETATM    6 CL   UNL     1      68.100   6.075   9.207  1.00  0.00    -0.083 Cl
HETATM    7  C   UNL     1      67.051   5.319   4.873  1.00  0.00     0.009 A 
HETATM    8 CL   UNL     1      68.747   3.211   7.808  1.00  0.00    -0.083 Cl
ENDROOT
BRANCH   4   9
HETATM    9  C   UNL     1      66.172   7.679   4.646  1.00  0.00     0.151 C 
BRANCH   9  10
HETATM   10  C   UNL     1      65.032   8.382   5.342  1.00  0.00     0.176 C 
HETATM   11  O   UNL     1      65.014   9.510   5.804  1.00  0.00    -0.648 OA
HETATM   12  O   UNL     1      63.933   7.603   5.423  1.00  0.00    -0.648 OA
ENDBRANCH   9  10
ENDBRANCH   4   9
TORSDOF 2
ENDMDL
MODEL 8
REMARK VINA RESULT:      -4.2      2.437      3.169
REMARK  2 active torsions:
REMARK  status: ('A' for Active; 'I' for Inactive)
REMARK    1  A    between atoms: C_2  and  C_7 
REMARK    2  A    between atoms: C_5  and  C_7 
ROOT
HETATM    1  C   UNL     1      60.454   7.180   2.938  1.00  0.00     0.056 A 
HETATM    2  C   UNL     1      60.320   7.985   1.802  1.00  0.00     0.055 A 
HETATM    3  C   UNL     1      61.626   7.238   3.701  1.00  0.00     0.033 A 
HETATM    4  C   UNL     1      62.671   8.102   3.340  1.00  0.00    -0.046 A 
HETATM    5  C   UNL     1      61.357   8.849   1.440  1.00  0.00     0.026 A 
HETATM    6 CL   UNL     1      59.214   6.091   3.453  1.00  0.00    -0.083 Cl
HETATM    7  C   UNL     1      62.526   8.907   2.202  1.00  0.00     0.009 A 
HETATM    8 CL   UNL     1      58.910   7.957   0.805  1.00  0.00    -0.083 Cl
ENDROOT
BRANCH   4   9
HETATM    9  C   UNL     1      63.957   8.124   4.135  1.00  0.00     0.151 C 
BRANCH   9  10
HETATM   10  C   UNL     1      63.970   9.167   5.226  1.00  0.00     0.176 C 
HETATM   11  O   UNL     1      63.037   9.836   5.638  1.00  0.00    -0.648 OA
HETATM   12  O   UNL     1      65.198   9.320   5.764  1.00  0.00    -0.648 OA
ENDBRANCH   9  10
ENDBRANCH   4   9
TORSDOF 2
ENDMDL
MODEL 9
REMARK VINA RESULT:      -4.0      3.920      5.118
REMARK  2 active torsions:
REMARK  status: ('A' for Active; 'I' for Inactive)
REMARK    1  A    between atoms: C_2  and  C_7 
REMARK    2  A    between atoms: C_5  and  C_7 
ROOT
HETATM    1  C   UNL     1      66.134   7.585   4.874  1.00  0.00     0.056 A 
HETATM    2  C   UNL     1      65.786   6.655   3.889  1.00  0.00     0.055 A 
HETATM    3  C   UNL     1      65.214   8.565   5.265  1.00  0.00     0.033 A 
HETATM    4  C   UNL     1      63.940   8.622   4.680  1.00  0.00    -0.046 A 
HETATM    5  C   UNL     1      64.517   6.705   3.306  1.00  0.00     0.026 A 
HETATM    6 CL   UNL     1      67.681   7.583   5.644  1.00  0.00    -0.083 Cl
HETATM    7  C   UNL     1      63.599   7.683   3.697  1.00  0.00     0.009 A 
HETATM    8 CL   UNL     1      66.873   5.426   3.347  1.00  0.00    -0.083 Cl
ENDROOT
BRANCH   4   9
HETATM    9  C   UNL     1      62.967   9.714   5.065  1.00  0.00     0.151 C 
BRANCH   9  10
HETATM   10  C   UNL     1      62.104  10.180   3.918  1.00  0.00     0.176 C 
HETATM   11  O   UNL     1      62.240  11.179   3.232  1.00  0.00    -0.648 OA
HETATM   12  O   UNL     1      61.077   9.337   3.684  1.00  0.00    -0.648 OA
ENDBRANCH   9  10
ENDBRANCH   4   9
TORSDOF 2
ENDMDL
