MODEL 1
REMARK VINA RESULT:      -4.3      0.000      0.000
REMARK  7 active torsions:
REMARK  status: ('A' for Active; 'I' for Inactive)
REMARK    1  A    between atoms: C_1  and  C_6 
REMARK    2  A    between atoms: C_3  and  C_10 
REMARK    3  A    between atoms: C_6  and  N_7 
REMARK    4  A    between atoms: S_8  and  C_10 
REMARK    5  A    between atoms: S_8  and  C_11 
REMARK    6  A    between atoms: N_9  and  C_14 
REMARK    7  A    between atoms: C_11  and  C_14 
ROOT
HETATM    1  C   UNL     1      64.419   7.781   5.962  1.00  0.00     0.079 A 
HETATM    2  O   UNL     1      64.496   7.089   7.135  1.00  0.00    -0.317 OA
HETATM    3  C   UNL     1      65.808   6.773   7.335  1.00  0.00     0.062 A 
HETATM    4  C   UNL     1      65.681   7.941   5.427  1.00  0.00     0.037 A 
HETATM    5  C   UNL     1      66.573   7.286   6.308  1.00  0.00     0.036 A 
ENDROOT
BRANCH   3   6
HETATM    6  C   UNL     1      66.102   5.930   8.520  1.00  0.00     0.139 C 
BRANCH   6   7
HETATM    7  S   UNL     1      67.824   6.029   9.089  1.00  0.00    -0.161 SA
BRANCH   7   8
HETATM    8  C   UNL     1      68.393   4.310   8.801  1.00  0.00     0.101 C 
BRANCH   8   9
HETATM    9  C   UNL     1      69.790   3.972   9.340  1.00  0.00     0.239 C 
BRANCH   9  10
HETATM   10  N   UNL     1      69.768   3.291  10.634  1.00  0.00    -0.079 N 
HETATM   11  H   UNL     1      69.103   2.518  10.599  1.00  0.00     0.274 HD
HETATM   12  H   UNL     1      69.487   3.950  11.360  1.00  0.00     0.274 HD
HETATM   13  H   UNL     1      70.698   2.930  10.844  1.00  0.00     0.274 HD
ENDBRANCH   9  10
ENDBRANCH   8   9
ENDBRANCH   7   8
ENDBRANCH   6   7
ENDBRANCH   3   6
BRANCH   1  14
HETATM   14  C   UNL     1      63.051   8.168   5.504  1.00  0.00     0.298 C 
BRANCH  14  15
HETATM   15  N   UNL     1      63.062   9.316   4.574  1.00  0.00    -0.073 N 
HETATM   16  C   UNL     1      61.971   9.227   3.599  1.00  0.00     0.269 C 
HETATM   17  C   UNL     1      62.941  10.565   5.330  1.00  0.00     0.269 C 
HETATM   18  H   UNL     1      63.946   9.300   4.066  1.00  0.00     0.279 HD
ENDBRANCH  14  15
ENDBRANCH   1  14
TORSDOF 7
ENDMDL
MODEL 2
REMARK VINA RESULT:      -4.2      3.274      7.103
REMARK  7 active torsions:
REMARK  status: ('A' for Active; 'I' for Inactive)
REMARK    1  A    between atoms: C_1  and  C_6 
REMARK    2  A    between atoms: C_3  and  C_10 
REMARK    3  A    between atoms: C_6  and  N_7 
REMARK    4  A    between atoms: S_8  and  C_10 
REMARK    5  A    between atoms: S_8  and  C_11 
REMARK    6  A    between atoms: N_9  and  C_14 
REMARK    7  A    between atoms: C_11  and  C_14 
ROOT
HETATM    1  C   UNL     1      68.544   3.427   9.400  1.00  0.00     0.079 A 
HETATM    2  O   UNL     1      67.449   4.238   9.328  1.00  0.00    -0.317 OA
HETATM    3  C   UNL     1      67.862   5.434   8.818  1.00  0.00     0.062 A 
HETATM    4  C   UNL     1      69.650   4.087   8.904  1.00  0.00     0.037 A 
HETATM    5  C   UNL     1      69.211   5.380   8.537  1.00  0.00     0.036 A 
ENDROOT
BRANCH   3   6
HETATM    6  C   UNL     1      66.833   6.500   8.745  1.00  0.00     0.139 C 
BRANCH   6   7
HETATM    7  S   UNL     1      65.867   6.491   7.208  1.00  0.00    -0.161 SA
BRANCH   7   8
HETATM    8  C   UNL     1      66.493   8.004   6.385  1.00  0.00     0.101 C 
BRANCH   8   9
HETATM    9  C   UNL     1      67.316   7.776   5.109  1.00  0.00     0.239 C 
BRANCH   9  10
HETATM   10  N   UNL     1      68.751   7.992   5.294  1.00  0.00    -0.079 N 
HETATM   11  H   UNL     1      69.269   7.242   4.836  1.00  0.00     0.274 HD
HETATM   12  H   UNL     1      68.967   7.997   6.290  1.00  0.00     0.274 HD
HETATM   13  H   UNL     1      69.015   8.887   4.884  1.00  0.00     0.274 HD
ENDBRANCH   9  10
ENDBRANCH   8   9
ENDBRANCH   7   8
ENDBRANCH   6   7
ENDBRANCH   3   6
BRANCH   1  14
HETATM   14  C   UNL     1      68.337   2.077  10.003  1.00  0.00     0.298 C 
BRANCH  14  15
HETATM   15  N   UNL     1      67.036   1.480   9.641  1.00  0.00    -0.073 N 
HETATM   16  C   UNL     1      67.031   1.000   8.256  1.00  0.00     0.269 C 
HETATM   17  C   UNL     1      66.734   0.368  10.545  1.00  0.00     0.269 C 
HETATM   18  H   UNL     1      66.323   2.204   9.729  1.00  0.00     0.279 HD
ENDBRANCH  14  15
ENDBRANCH   1  14
TORSDOF 7
ENDMDL
MODEL 3
REMARK VINA RESULT:      -4.2      1.131      1.404
REMARK  7 active torsions:
REMARK  status: ('A' for Active; 'I' for Inactive)
REMARK    1  A    between atoms: C_1  and  C_6 
REMARK    2  A    between atoms: C_3  and  C_10 
REMARK    3  A    between atoms: C_6  and  N_7 
REMARK    4  A    between atoms: S_8  and  C_10 
REMARK    5  A    between atoms: S_8  and  C_11 
REMARK    6  A    between atoms: N_9  and  C_14 
REMARK    7  A    between atoms: C_11  and  C_14 
ROOT
HETATM    1  C   UNL     1      65.501   8.065   5.635  1.00  0.00     0.079 A 
HETATM    2  O   UNL     1      65.369   7.619   6.918  1.00  0.00    -0.317 OA
HETATM    3  C   UNL     1      66.500   6.920   7.223  1.00  0.00     0.062 A 
HETATM    4  C   UNL     1      66.727   7.685   5.129  1.00  0.00     0.037 A 
HETATM    5  C   UNL     1      67.366   6.942   6.149  1.00  0.00     0.036 A 
ENDROOT
BRANCH   3   6
HETATM    6  C   UNL     1      66.521   6.263   8.553  1.00  0.00     0.139 C 
BRANCH   6   7
HETATM    7  S   UNL     1      68.161   5.668   9.058  1.00  0.00    -0.161 SA
BRANCH   7   8
HETATM    8  C   UNL     1      68.019   3.878   8.684  1.00  0.00     0.101 C 
BRANCH   8   9
HETATM    9  C   UNL     1      68.582   2.929   9.752  1.00  0.00     0.239 C 
BRANCH   9  10
HETATM   10  N   UNL     1      69.722   3.483  10.482  1.00  0.00    -0.079 N 
HETATM   11  H   UNL     1      69.960   2.866  11.259  1.00  0.00     0.274 HD
HETATM   12  H   UNL     1      69.479   4.406  10.842  1.00  0.00     0.274 HD
HETATM   13  H   UNL     1      70.522   3.563   9.854  1.00  0.00     0.274 HD
ENDBRANCH   9  10
ENDBRANCH   8   9
ENDBRANCH   7   8
ENDBRANCH   6   7
ENDBRANCH   3   6
BRANCH   1  14
HETATM   14  C   UNL     1      64.335   8.801   5.061  1.00  0.00     0.298 C 
BRANCH  14  15
HETATM   15  N   UNL     1      63.731   8.107   3.906  1.00  0.00    -0.073 N 
HETATM   16  C   UNL     1      63.138   6.825   4.300  1.00  0.00     0.269 C 
HETATM   17  C   UNL     1      62.701   8.956   3.302  1.00  0.00     0.269 C 
HETATM   18  H   UNL     1      64.470   7.921   3.229  1.00  0.00     0.279 HD
ENDBRANCH  14  15
ENDBRANCH   1  14
TORSDOF 7
ENDMDL
MODEL 4
REMARK VINA RESULT:      -4.1     15.148     16.534
REMARK  7 active torsions:
REMARK  status: ('A' for Active; 'I' for Inactive)
REMARK    1  A    between atoms: C_1  and  C_6 
REMARK    2  A    between atoms: C_3  and  C_10 
REMARK    3  A    between atoms: C_6  and  N_7 
REMARK    4  A    between atoms: S_8  and  C_10 
REMARK    5  A    between atoms: S_8  and  C_11 
REMARK    6  A    between atoms: N_9  and  C_14 
REMARK    7  A    between atoms: C_11  and  C_14 
ROOT
HETATM    1  C   UNL     1      74.671   1.758  17.161  1.00  0.00     0.079 A 
HETATM    2  O   UNL     1      74.512   1.215  18.403  1.00  0.00    -0.317 OA
HETATM    3  C   UNL     1      74.077  -0.067  18.234  1.00  0.00     0.062 A 
HETATM    4  C   UNL     1      74.374   0.817  16.196  1.00  0.00     0.037 A 
HETATM    5  C   UNL     1      73.985  -0.354  16.888  1.00  0.00     0.036 A 
ENDROOT
BRANCH   3   6
HETATM    6  C   UNL     1      73.749  -0.812  19.474  1.00  0.00     0.139 C 
BRANCH   6   7
HETATM    7  S   UNL     1      74.782  -2.280  19.749  1.00  0.00    -0.161 SA
BRANCH   7   8
HETATM    8  C   UNL     1      76.420  -1.672  19.194  1.00  0.00     0.101 C 
BRANCH   8   9
HETATM    9  C   UNL     1      77.202  -0.836  20.218  1.00  0.00     0.239 C 
BRANCH   9  10
HETATM   10  N   UNL     1      76.668  -0.929  21.576  1.00  0.00    -0.079 N 
HETATM   11  H   UNL     1      75.915  -1.617  21.598  1.00  0.00     0.274 HD
HETATM   12  H   UNL     1      76.307  -0.019  21.862  1.00  0.00     0.274 HD
HETATM   13  H   UNL     1      77.410  -1.216  22.214  1.00  0.00     0.274 HD
ENDBRANCH   9  10
ENDBRANCH   8   9
ENDBRANCH   7   8
ENDBRANCH   6   7
ENDBRANCH   3   6
BRANCH   1  14
HETATM   14  C   UNL     1      75.076   3.194  17.106  1.00  0.00     0.298 C 
BRANCH  14  15
HETATM   15  N   UNL     1      76.172   3.517  18.041  1.00  0.00    -0.073 N 
HETATM   16  C   UNL     1      77.232   2.505  17.997  1.00  0.00     0.269 C 
HETATM   17  C   UNL     1      76.735   4.828  17.709  1.00  0.00     0.269 C 
HETATM   18  H   UNL     1      75.787   3.532  18.985  1.00  0.00     0.279 HD
ENDBRANCH  14  15
ENDBRANCH   1  14
TORSDOF 7
ENDMDL
MODEL 5
REMARK VINA RESULT:      -4.1      2.458      3.404
REMARK  7 active torsions:
REMARK  status: ('A' for Active; 'I' for Inactive)
REMARK    1  A    between atoms: C_1  and  C_6 
REMARK    2  A    between atoms: C_3  and  C_10 
REMARK    3  A    between atoms: C_6  and  N_7 
REMARK    4  A    between atoms: S_8  and  C_10 
REMARK    5  A    between atoms: S_8  and  C_11 
REMARK    6  A    between atoms: N_9  and  C_14 
REMARK    7  A    between atoms: C_11  and  C_14 
ROOT
HETATM    1  C   UNL     1      66.166   5.946   7.693  1.00  0.00     0.079 A 
HETATM    2  O   UNL     1      67.120   5.002   7.451  1.00  0.00    -0.317 OA
HETATM    3  C   UNL     1      68.080   5.138   8.411  1.00  0.00     0.062 A 
HETATM    4  C   UNL     1      66.492   6.664   8.826  1.00  0.00     0.037 A 
HETATM    5  C   UNL     1      67.727   6.147   9.283  1.00  0.00     0.036 A 
ENDROOT
BRANCH   3   6
HETATM    6  C   UNL     1      69.266   4.259   8.275  1.00  0.00     0.139 C 
BRANCH   6   7
HETATM    7  S   UNL     1      69.611   3.249   9.744  1.00  0.00    -0.161 SA
BRANCH   7   8
HETATM    8  C   UNL     1      68.101   2.214   9.827  1.00  0.00     0.101 C 
BRANCH   8   9
HETATM    9  C   UNL     1      67.648   1.589   8.499  1.00  0.00     0.239 C 
BRANCH   9  10
HETATM   10  N   UNL     1      66.320   2.028   8.072  1.00  0.00    -0.079 N 
HETATM   11  H   UNL     1      65.621   1.685   8.731  1.00  0.00     0.274 HD
HETATM   12  H   UNL     1      66.124   1.658   7.142  1.00  0.00     0.274 HD
HETATM   13  H   UNL     1      66.291   3.047   8.045  1.00  0.00     0.274 HD
ENDBRANCH   9  10
ENDBRANCH   8   9
ENDBRANCH   7   8
ENDBRANCH   6   7
ENDBRANCH   3   6
BRANCH   1  14
HETATM   14  C   UNL     1      65.044   6.030   6.711  1.00  0.00     0.298 C 
BRANCH  14  15
HETATM   15  N   UNL     1      64.530   7.404   6.543  1.00  0.00    -0.073 N 
HETATM   16  C   UNL     1      65.262   8.128   5.500  1.00  0.00     0.269 C 
HETATM   17  C   UNL     1      63.106   7.360   6.200  1.00  0.00     0.269 C 
HETATM   18  H   UNL     1      64.660   7.898   7.425  1.00  0.00     0.279 HD
ENDBRANCH  14  15
ENDBRANCH   1  14
TORSDOF 7
ENDMDL
MODEL 6
REMARK VINA RESULT:      -4.0      3.618      5.119
REMARK  7 active torsions:
REMARK  status: ('A' for Active; 'I' for Inactive)
REMARK    1  A    between atoms: C_1  and  C_6 
REMARK    2  A    between atoms: C_3  and  C_10 
REMARK    3  A    between atoms: C_6  and  N_7 
REMARK    4  A    between atoms: S_8  and  C_10 
REMARK    5  A    between atoms: S_8  and  C_11 
REMARK    6  A    between atoms: N_9  and  C_14 
REMARK    7  A    between atoms: C_11  and  C_14 
ROOT
HETATM    1  C   UNL     1      68.005   5.191   8.641  1.00  0.00     0.079 A 
HETATM    2  O   UNL     1      67.537   3.993   9.095  1.00  0.00    -0.317 OA
HETATM    3  C   UNL     1      68.613   3.268   9.515  1.00  0.00     0.062 A 
HETATM    4  C   UNL     1      69.375   5.251   8.802  1.00  0.00     0.037 A 
HETATM    5  C   UNL     1      69.765   4.010   9.358  1.00  0.00     0.036 A 
ENDROOT
BRANCH   3   6
HETATM    6  C   UNL     1      68.330   1.883   9.964  1.00  0.00     0.139 C 
BRANCH   6   7
HETATM    7  S   UNL     1      68.395   0.647   8.635  1.00  0.00    -0.161 SA
BRANCH   7   8
HETATM    8  C   UNL     1      70.117   0.040   8.797  1.00  0.00     0.101 C 
BRANCH   8   9
HETATM    9  C   UNL     1      70.816   0.369  10.124  1.00  0.00     0.239 C 
BRANCH   9  10
HETATM   10  N   UNL     1      72.266   0.178  10.082  1.00  0.00    -0.079 N 
HETATM   11  H   UNL     1      72.720   1.072   9.896  1.00  0.00     0.274 HD
HETATM   12  H   UNL     1      72.500  -0.484   9.343  1.00  0.00     0.274 HD
HETATM   13  H   UNL     1      72.586  -0.186  10.979  1.00  0.00     0.274 HD
ENDBRANCH   9  10
ENDBRANCH   8   9
ENDBRANCH   7   8
ENDBRANCH   6   7
ENDBRANCH   3   6
BRANCH   1  14
HETATM   14  C   UNL     1      66.997   6.126   8.058  1.00  0.00     0.298 C 
BRANCH  14  15
HETATM   15  N   UNL     1      67.526   6.902   6.919  1.00  0.00    -0.073 N 
HETATM   16  C   UNL     1      67.568   6.098   5.694  1.00  0.00     0.269 C 
HETATM   17  C   UNL     1      66.691   8.086   6.698  1.00  0.00     0.269 C 
HETATM   18  H   UNL     1      68.478   7.185   7.147  1.00  0.00     0.279 HD
ENDBRANCH  14  15
ENDBRANCH   1  14
TORSDOF 7
ENDMDL
MODEL 7
REMARK VINA RESULT:      -4.0      2.717      7.254
REMARK  7 active torsions:
REMARK  status: ('A' for Active; 'I' for Inactive)
REMARK    1  A    between atoms: C_1  and  C_6 
REMARK    2  A    between atoms: C_3  and  C_10 
REMARK    3  A    between atoms: C_6  and  N_7 
REMARK    4  A    between atoms: S_8  and  C_10 
REMARK    5  A    between atoms: S_8  and  C_11 
REMARK    6  A    between atoms: N_9  and  C_14 
REMARK    7  A    between atoms: C_11  and  C_14 
ROOT
HETATM    1  C   UNL     1      65.881   7.193   6.847  1.00  0.00     0.079 A 
HETATM    2  O   UNL     1      64.518   7.231   6.798  1.00  0.00    -0.317 OA
HETATM    3  C   UNL     1      64.170   7.882   5.650  1.00  0.00     0.062 A 
HETATM    4  C   UNL     1      66.408   7.786   5.718  1.00  0.00     0.037 A 
HETATM    5  C   UNL     1      65.306   8.235   4.952  1.00  0.00     0.036 A 
ENDROOT
BRANCH   3   6
HETATM    6  C   UNL     1      62.720   8.116   5.448  1.00  0.00     0.139 C 
BRANCH   6   7
HETATM    7  S   UNL     1      62.057   7.378   3.927  1.00  0.00    -0.161 SA
BRANCH   7   8
HETATM    8  C   UNL     1      61.831   8.866   2.880  1.00  0.00     0.101 C 
BRANCH   8   9
HETATM    9  C   UNL     1      62.000  10.215   3.594  1.00  0.00     0.239 C 
BRANCH   9  10
HETATM   10  N   UNL     1      61.653  11.364   2.758  1.00  0.00    -0.079 N 
HETATM   11  H   UNL     1      60.638  11.445   2.697  1.00  0.00     0.274 HD
HETATM   12  H   UNL     1      62.043  11.235   1.825  1.00  0.00     0.274 HD
HETATM   13  H   UNL     1      62.038  12.213   3.173  1.00  0.00     0.274 HD
ENDBRANCH   9  10
ENDBRANCH   8   9
ENDBRANCH   7   8
ENDBRANCH   6   7
ENDBRANCH   3   6
BRANCH   1  14
HETATM   14  C   UNL     1      66.489   6.585   8.068  1.00  0.00     0.298 C 
BRANCH  14  15
HETATM   15  N   UNL     1      67.680   5.766   7.767  1.00  0.00    -0.073 N 
HETATM   16  C   UNL     1      68.520   5.582   8.955  1.00  0.00     0.269 C 
HETATM   17  C   UNL     1      67.264   4.458   7.256  1.00  0.00     0.269 C 
HETATM   18  H   UNL     1      68.229   6.257   7.062  1.00  0.00     0.279 HD
ENDBRANCH  14  15
ENDBRANCH   1  14
TORSDOF 7
ENDMDL
MODEL 8
REMARK VINA RESULT:      -3.9      3.844      5.559
REMARK  7 active torsions:
REMARK  status: ('A' for Active; 'I' for Inactive)
REMARK    1  A    between atoms: C_1  and  C_6 
REMARK    2  A    between atoms: C_3  and  C_10 
REMARK    3  A    between atoms: C_6  and  N_7 
REMARK    4  A    between atoms: S_8  and  C_10 
REMARK    5  A    between atoms: S_8  and  C_11 
REMARK    6  A    between atoms: N_9  and  C_14 
REMARK    7  A    between atoms: C_11  and  C_14 
ROOT
HETATM    1  C   UNL     1      68.549   4.739   8.239  1.00  0.00     0.079 A 
HETATM    2  O   UNL     1      67.878   3.674   8.766  1.00  0.00    -0.317 OA
HETATM    3  C   UNL     1      68.725   3.047   9.631  1.00  0.00     0.062 A 
HETATM    4  C   UNL     1      69.811   4.818   8.792  1.00  0.00     0.037 A 
HETATM    5  C   UNL     1      69.926   3.724   9.682  1.00  0.00     0.036 A 
ENDROOT
BRANCH   3   6
HETATM    6  C   UNL     1      68.218   1.796  10.248  1.00  0.00     0.139 C 
BRANCH   6   7
HETATM    7  S   UNL     1      68.080   0.404   9.089  1.00  0.00    -0.161 SA
BRANCH   7   8
HETATM    8  C   UNL     1      66.275   0.387   8.768  1.00  0.00     0.101 C 
BRANCH   8   9
HETATM    9  C   UNL     1      65.824   1.062   7.465  1.00  0.00     0.239 C 
BRANCH   9  10
HETATM   10  N   UNL     1      65.459   2.468   7.633  1.00  0.00    -0.079 N 
HETATM   11  H   UNL     1      64.796   2.736   6.905  1.00  0.00     0.274 HD
HETATM   12  H   UNL     1      66.295   3.047   7.561  1.00  0.00     0.274 HD
HETATM   13  H   UNL     1      65.031   2.601   8.549  1.00  0.00     0.274 HD
ENDBRANCH   9  10
ENDBRANCH   8   9
ENDBRANCH   7   8
ENDBRANCH   6   7
ENDBRANCH   3   6
BRANCH   1  14
HETATM   14  C   UNL     1      67.830   5.534   7.200  1.00  0.00     0.298 C 
BRANCH  14  15
HETATM   15  N   UNL     1      67.458   6.885   7.668  1.00  0.00    -0.073 N 
HETATM   16  C   UNL     1      66.761   7.642   6.624  1.00  0.00     0.269 C 
HETATM   17  C   UNL     1      66.600   6.779   8.850  1.00  0.00     0.269 C 
HETATM   18  H   UNL     1      68.316   7.383   7.903  1.00  0.00     0.279 HD
ENDBRANCH  14  15
ENDBRANCH   1  14
TORSDOF 7
ENDMDL
MODEL 9
REMARK VINA RESULT:      -3.9      2.649      3.724
REMARK  7 active torsions:
REMARK  status: ('A' for Active; 'I' for Inactive)
REMARK    1  A    between atoms: C_1  and  C_6 
REMARK    2  A    between atoms: C_3  and  C_10 
REMARK    3  A    between atoms: C_6  and  N_7 
REMARK    4  A    between atoms: S_8  and  C_10 
REMARK    5  A    between atoms: S_8  and  C_11 
REMARK    6  A    between atoms: N_9  and  C_14 
REMARK    7  A    between atoms: C_11  and  C_14 
ROOT
HETATM    1  C   UNL     1      66.894   6.083   7.963  1.00  0.00     0.079 A 
HETATM    2  O   UNL     1      67.300   4.984   7.264  1.00  0.00    -0.317 OA
HETATM    3  C   UNL     1      68.382   4.466   7.913  1.00  0.00     0.062 A 
HETATM    4  C   UNL     1      67.689   6.250   9.078  1.00  0.00     0.037 A 
HETATM    5  C   UNL     1      68.651   5.213   9.041  1.00  0.00     0.036 A 
ENDROOT
BRANCH   3   6
HETATM    6  C   UNL     1      69.041   3.309   7.260  1.00  0.00     0.139 C 
BRANCH   6   7
HETATM    7  S   UNL     1      68.209   1.722   7.552  1.00  0.00    -0.161 SA
BRANCH   7   8
HETATM    8  C   UNL     1      69.146   1.089   8.996  1.00  0.00     0.101 C 
BRANCH   8   9
HETATM    9  C   UNL     1      68.754   1.684  10.356  1.00  0.00     0.239 C 
BRANCH   9  10
HETATM   10  N   UNL     1      69.837   2.422  11.004  1.00  0.00    -0.079 N 
HETATM   11  H   UNL     1      70.531   1.764  11.359  1.00  0.00     0.274 HD
HETATM   12  H   UNL     1      69.459   2.970  11.776  1.00  0.00     0.274 HD
HETATM   13  H   UNL     1      70.275   3.046  10.326  1.00  0.00     0.274 HD
ENDBRANCH   9  10
ENDBRANCH   8   9
ENDBRANCH   7   8
ENDBRANCH   6   7
ENDBRANCH   3   6
BRANCH   1  14
HETATM   14  C   UNL     1      65.756   6.859   7.386  1.00  0.00     0.298 C 
BRANCH  14  15
HETATM   15  N   UNL     1      65.547   6.588   5.950  1.00  0.00    -0.073 N 
HETATM   16  C   UNL     1      64.136   6.323   5.652  1.00  0.00     0.269 C 
HETATM   17  C   UNL     1      66.007   7.732   5.159  1.00  0.00     0.269 C 
HETATM   18  H   UNL     1      66.085   5.757   5.705  1.00  0.00     0.279 HD
ENDBRANCH  14  15
ENDBRANCH   1  14
TORSDOF 7
ENDMDL
