MODEL 1
REMARK VINA RESULT:      -4.8      0.000      0.000
REMARK  1 active torsions:
REMARK  status: ('A' for Active; 'I' for Inactive)
REMARK    1  A    between atoms: C_3  and  O_5 
ROOT
HETATM    1  N   UNL     1      80.170  11.281  20.902  1.00  0.00    -0.341 N 
ATOM      2  HN  UNL     1      81.094  10.851  20.857  1.00  0.00     0.167 HD
HETATM    3  C   UNL     1      79.232  11.047  19.969  1.00  0.00     0.140 A 
HETATM    4  C   UNL     1      79.817  12.119  21.907  1.00  0.00     0.007 A 
HETATM    5  C   UNL     1      77.618  12.433  20.994  1.00  0.00     0.006 A 
HETATM    6  C   UNL     1      77.964  11.586  19.951  1.00  0.00     0.056 A 
HETATM    7  C   UNL     1      78.554  12.705  21.990  1.00  0.00     0.025 A 
HETATM    8  C   UNL     1      80.857  12.431  22.941  1.00  0.00     0.068 C 
ENDROOT
BRANCH   3   9
HETATM    9  O   UNL     1      79.632  10.195  18.994  1.00  0.00    -0.346 OA
HETATM   10  H   UNL     1      79.782   9.292  19.192  1.00  0.00     0.219 HD
ENDBRANCH   3   9
TORSDOF 1
ENDMDL
MODEL 2
REMARK VINA RESULT:      -4.7      1.726      3.127
REMARK  1 active torsions:
REMARK  status: ('A' for Active; 'I' for Inactive)
REMARK    1  A    between atoms: C_3  and  O_5 
ROOT
HETATM    1  N   UNL     1      78.782  11.042  20.029  1.00  0.00    -0.341 N 
ATOM      2  HN  UNL     1      79.361  10.244  19.767  1.00  0.00     0.167 HD
HETATM    3  C   UNL     1      79.113  11.856  21.045  1.00  0.00     0.140 A 
HETATM    4  C   UNL     1      77.635  11.342  19.373  1.00  0.00     0.007 A 
HETATM    5  C   UNL     1      77.223  13.247  20.777  1.00  0.00     0.006 A 
HETATM    6  C   UNL     1      78.389  12.950  21.468  1.00  0.00     0.056 A 
HETATM    7  C   UNL     1      76.837  12.435  19.712  1.00  0.00     0.025 A 
HETATM    8  C   UNL     1      77.218  10.427  18.260  1.00  0.00     0.068 C 
ENDROOT
BRANCH   3   9
HETATM    9  O   UNL     1      80.273  11.519  21.660  1.00  0.00    -0.346 OA
HETATM   10  H   UNL     1      80.641  12.084  22.310  1.00  0.00     0.219 HD
ENDBRANCH   3   9
TORSDOF 1
ENDMDL
MODEL 3
REMARK VINA RESULT:      -4.5     14.016     14.931
REMARK  1 active torsions:
REMARK  status: ('A' for Active; 'I' for Inactive)
REMARK    1  A    between atoms: C_3  and  O_5 
ROOT
HETATM    1  N   UNL     1      72.553  21.959  13.900  1.00  0.00    -0.341 N 
ATOM      2  HN  UNL     1      72.569  21.012  13.523  1.00  0.00     0.167 HD
HETATM    3  C   UNL     1      73.468  22.387  14.786  1.00  0.00     0.140 A 
HETATM    4  C   UNL     1      71.608  22.860  13.537  1.00  0.00     0.007 A 
HETATM    5  C   UNL     1      72.548  24.556  14.954  1.00  0.00     0.006 A 
HETATM    6  C   UNL     1      73.518  23.645  15.347  1.00  0.00     0.056 A 
HETATM    7  C   UNL     1      71.577  24.162  14.034  1.00  0.00     0.025 A 
HETATM    8  C   UNL     1      70.548  22.399  12.581  1.00  0.00     0.068 C 
ENDROOT
BRANCH   3   9
HETATM    9  O   UNL     1      74.396  21.452  15.107  1.00  0.00    -0.346 OA
HETATM   10  H   UNL     1      74.629  21.312  16.003  1.00  0.00     0.219 HD
ENDBRANCH   3   9
TORSDOF 1
ENDMDL
MODEL 4
REMARK VINA RESULT:      -4.4     21.840     22.829
REMARK  1 active torsions:
REMARK  status: ('A' for Active; 'I' for Inactive)
REMARK    1  A    between atoms: C_3  and  O_5 
ROOT
HETATM    1  N   UNL     1      64.178   9.561   5.474  1.00  0.00    -0.341 N 
ATOM      2  HN  UNL     1      64.983   9.278   6.033  1.00  0.00     0.167 HD
HETATM    3  C   UNL     1      63.603  10.767   5.617  1.00  0.00     0.140 A 
HETATM    4  C   UNL     1      63.626   8.743   4.545  1.00  0.00     0.007 A 
HETATM    5  C   UNL     1      61.971  10.381   3.954  1.00  0.00     0.006 A 
HETATM    6  C   UNL     1      62.515  11.228   4.909  1.00  0.00     0.056 A 
HETATM    7  C   UNL     1      62.533   9.119   3.765  1.00  0.00     0.025 A 
HETATM    8  C   UNL     1      64.221   7.375   4.392  1.00  0.00     0.068 C 
ENDROOT
BRANCH   3   9
HETATM    9  O   UNL     1      64.198  11.549   6.551  1.00  0.00    -0.346 OA
HETATM   10  H   UNL     1      64.946  11.234   7.019  1.00  0.00     0.219 HD
ENDBRANCH   3   9
TORSDOF 1
ENDMDL
MODEL 5
REMARK VINA RESULT:      -4.4      8.523      9.692
REMARK  1 active torsions:
REMARK  status: ('A' for Active; 'I' for Inactive)
REMARK    1  A    between atoms: C_3  and  O_5 
ROOT
HETATM    1  N   UNL     1      76.118   2.775  18.352  1.00  0.00    -0.341 N 
ATOM      2  HN  UNL     1      76.157   1.893  18.864  1.00  0.00     0.167 HD
HETATM    3  C   UNL     1      76.852   3.840  18.715  1.00  0.00     0.140 A 
HETATM    4  C   UNL     1      75.322   2.941  17.268  1.00  0.00     0.007 A 
HETATM    5  C   UNL     1      76.044   5.212  16.970  1.00  0.00     0.006 A 
HETATM    6  C   UNL     1      76.858   5.066  18.085  1.00  0.00     0.056 A 
HETATM    7  C   UNL     1      75.264   4.135  16.551  1.00  0.00     0.025 A 
HETATM    8  C   UNL     1      74.459   1.782  16.864  1.00  0.00     0.068 C 
ENDROOT
BRANCH   3   9
HETATM    9  O   UNL     1      77.638   3.619  19.797  1.00  0.00    -0.346 OA
HETATM   10  H   UNL     1      77.293   3.171  20.544  1.00  0.00     0.219 HD
ENDBRANCH   3   9
TORSDOF 1
ENDMDL
MODEL 6
REMARK VINA RESULT:      -4.3     23.354     24.580
REMARK  1 active torsions:
REMARK  status: ('A' for Active; 'I' for Inactive)
REMARK    1  A    between atoms: C_3  and  O_5 
ROOT
HETATM    1  N   UNL     1      61.799  10.741   2.951  1.00  0.00    -0.341 N 
ATOM      2  HN  UNL     1      61.293  11.409   2.369  1.00  0.00     0.167 HD
HETATM    3  C   UNL     1      62.220  11.054   4.188  1.00  0.00     0.140 A 
HETATM    4  C   UNL     1      62.085   9.488   2.523  1.00  0.00     0.007 A 
HETATM    5  C   UNL     1      63.184   8.935   4.586  1.00  0.00     0.006 A 
HETATM    6  C   UNL     1      62.910  10.218   5.039  1.00  0.00     0.056 A 
HETATM    7  C   UNL     1      62.766   8.560   3.310  1.00  0.00     0.025 A 
HETATM    8  C   UNL     1      61.664   9.123   1.131  1.00  0.00     0.068 C 
ENDROOT
BRANCH   3   9
HETATM    9  O   UNL     1      61.899  12.314   4.572  1.00  0.00    -0.346 OA
HETATM   10  H   UNL     1      61.821  12.994   3.933  1.00  0.00     0.219 HD
ENDBRANCH   3   9
TORSDOF 1
ENDMDL
MODEL 7
REMARK VINA RESULT:      -4.2      9.352     10.326
REMARK  1 active torsions:
REMARK  status: ('A' for Active; 'I' for Inactive)
REMARK    1  A    between atoms: C_3  and  O_5 
ROOT
HETATM    1  N   UNL     1      77.801   2.688  19.304  1.00  0.00    -0.341 N 
ATOM      2  HN  UNL     1      78.308   3.167  20.050  1.00  0.00     0.167 HD
HETATM    3  C   UNL     1      76.888   3.320  18.548  1.00  0.00     0.140 A 
HETATM    4  C   UNL     1      78.011   1.380  19.020  1.00  0.00     0.007 A 
HETATM    5  C   UNL     1      76.395   1.414  17.243  1.00  0.00     0.006 A 
HETATM    6  C   UNL     1      76.158   2.751  17.526  1.00  0.00     0.056 A 
HETATM    7  C   UNL     1      77.336   0.714  17.997  1.00  0.00     0.025 A 
HETATM    8  C   UNL     1      78.995   0.638  19.875  1.00  0.00     0.068 C 
ENDROOT
BRANCH   3   9
HETATM    9  O   UNL     1      76.725   4.627  18.866  1.00  0.00    -0.346 OA
HETATM   10  H   UNL     1      77.433   5.229  18.756  1.00  0.00     0.219 HD
ENDBRANCH   3   9
TORSDOF 1
ENDMDL
MODEL 8
REMARK VINA RESULT:      -4.1      8.239      9.291
REMARK  1 active torsions:
REMARK  status: ('A' for Active; 'I' for Inactive)
REMARK    1  A    between atoms: C_3  and  O_5 
ROOT
HETATM    1  N   UNL     1      77.320   4.077  18.180  1.00  0.00    -0.341 N 
ATOM      2  HN  UNL     1      78.174   4.264  18.706  1.00  0.00     0.167 HD
HETATM    3  C   UNL     1      76.595   5.065  17.629  1.00  0.00     0.140 A 
HETATM    4  C   UNL     1      76.852   2.819  17.995  1.00  0.00     0.007 A 
HETATM    5  C   UNL     1      74.975   3.606  16.720  1.00  0.00     0.006 A 
HETATM    6  C   UNL     1      75.431   4.903  16.908  1.00  0.00     0.056 A 
HETATM    7  C   UNL     1      75.694   2.545  17.269  1.00  0.00     0.025 A 
HETATM    8  C   UNL     1      77.619   1.699  18.633  1.00  0.00     0.068 C 
ENDROOT
BRANCH   3   9
HETATM    9  O   UNL     1      77.110   6.301  17.834  1.00  0.00    -0.346 OA
HETATM   10  H   UNL     1      77.617   6.715  17.164  1.00  0.00     0.219 HD
ENDBRANCH   3   9
TORSDOF 1
ENDMDL
MODEL 9
REMARK VINA RESULT:      -4.0      9.620     10.841
REMARK  1 active torsions:
REMARK  status: ('A' for Active; 'I' for Inactive)
REMARK    1  A    between atoms: C_3  and  O_5 
ROOT
HETATM    1  N   UNL     1      76.158   3.047  18.488  1.00  0.00    -0.341 N 
ATOM      2  HN  UNL     1      75.696   3.926  18.724  1.00  0.00     0.167 HD
HETATM    3  C   UNL     1      77.286   2.651  19.100  1.00  0.00     0.140 A 
HETATM    4  C   UNL     1      75.668   2.212  17.540  1.00  0.00     0.007 A 
HETATM    5  C   UNL     1      77.451   0.638  17.876  1.00  0.00     0.006 A 
HETATM    6  C   UNL     1      77.974   1.485  18.842  1.00  0.00     0.056 A 
HETATM    7  C   UNL     1      76.279   1.002  17.213  1.00  0.00     0.025 A 
HETATM    8  C   UNL     1      74.432   2.647  16.810  1.00  0.00     0.068 C 
ENDROOT
BRANCH   3   9
HETATM    9  O   UNL     1      77.727   3.516  20.046  1.00  0.00    -0.346 OA
HETATM   10  H   UNL     1      77.173   4.210  20.343  1.00  0.00     0.219 HD
ENDBRANCH   3   9
TORSDOF 1
ENDMDL
