MODEL 1
REMARK VINA RESULT:      -4.8      0.000      0.000
REMARK  2 active torsions:
REMARK  status: ('A' for Active; 'I' for Inactive)
REMARK    1  A    between atoms: C_2  and  C_9 
REMARK    2  A    between atoms: N_4  and  C_9 
ROOT
HETATM    1  C   UNL     1      76.789   6.828  17.191  1.00  0.00     0.116 A 
HETATM    2  C   UNL     1      77.489   8.686  15.227  1.00  0.00    -0.033 A 
HETATM    3  F   UNL     1      76.453   5.938  18.135  1.00  0.00    -0.206 F 
HETATM    4  C   UNL     1      76.749   6.456  15.854  1.00  0.00     0.043 A 
HETATM    5  C   UNL     1      77.170   8.111  17.566  1.00  0.00     0.043 A 
HETATM    6  C   UNL     1      77.098   7.383  14.872  1.00  0.00     0.012 A 
HETATM    7  C   UNL     1      77.520   9.041  16.586  1.00  0.00     0.012 A 
ENDROOT
BRANCH   2   8
HETATM    8  C   UNL     1      77.855   9.690  14.163  1.00  0.00     0.268 C 
BRANCH   8   9
HETATM    9  N   UNL     1      77.461  11.041  14.545  1.00  0.00    -0.075 N 
HETATM   10  H   UNL     1      77.010  11.501  13.754  1.00  0.00     0.274 HD
HETATM   11  H   UNL     1      78.286  11.572  14.821  1.00  0.00     0.274 HD
HETATM   12  H   UNL     1      76.808  10.996  15.329  1.00  0.00     0.274 HD
ENDBRANCH   8   9
ENDBRANCH   2   8
TORSDOF 2
ENDMDL
MODEL 2
REMARK VINA RESULT:      -4.7      3.046      4.187
REMARK  2 active torsions:
REMARK  status: ('A' for Active; 'I' for Inactive)
REMARK    1  A    between atoms: C_2  and  C_9 
REMARK    2  A    between atoms: N_4  and  C_9 
ROOT
HETATM    1  C   UNL     1      77.542   9.086  15.263  1.00  0.00     0.116 A 
HETATM    2  C   UNL     1      76.889   6.839  16.788  1.00  0.00    -0.033 A 
HETATM    3  F   UNL     1      77.855  10.163  14.530  1.00  0.00    -0.206 F 
HETATM    4  C   UNL     1      77.555   9.174  16.649  1.00  0.00     0.043 A 
HETATM    5  C   UNL     1      77.207   7.899  14.624  1.00  0.00     0.043 A 
HETATM    6  C   UNL     1      77.228   8.052  17.411  1.00  0.00     0.012 A 
HETATM    7  C   UNL     1      76.880   6.774  15.384  1.00  0.00     0.012 A 
ENDROOT
BRANCH   2   8
HETATM    8  C   UNL     1      76.525   5.631  17.614  1.00  0.00     0.268 C 
BRANCH   8   9
HETATM    9  N   UNL     1      75.344   4.958  17.086  1.00  0.00    -0.075 N 
HETATM   10  H   UNL     1      75.554   4.574  16.165  1.00  0.00     0.274 HD
HETATM   11  H   UNL     1      74.577   5.626  17.009  1.00  0.00     0.274 HD
HETATM   12  H   UNL     1      75.073   4.202  17.717  1.00  0.00     0.274 HD
ENDBRANCH   8   9
ENDBRANCH   2   8
TORSDOF 2
ENDMDL
MODEL 3
REMARK VINA RESULT:      -4.6     16.844     17.807
REMARK  2 active torsions:
REMARK  status: ('A' for Active; 'I' for Inactive)
REMARK    1  A    between atoms: C_2  and  C_9 
REMARK    2  A    between atoms: N_4  and  C_9 
ROOT
HETATM    1  C   UNL     1      72.690  24.200  13.861  1.00  0.00     0.116 A 
HETATM    2  C   UNL     1      70.069  24.469  14.789  1.00  0.00    -0.033 A 
HETATM    3  F   UNL     1      73.948  24.074  13.417  1.00  0.00    -0.206 F 
HETATM    4  C   UNL     1      71.739  23.254  13.504  1.00  0.00     0.043 A 
HETATM    5  C   UNL     1      72.358  25.277  14.674  1.00  0.00     0.043 A 
HETATM    6  C   UNL     1      70.430  23.387  13.968  1.00  0.00     0.012 A 
HETATM    7  C   UNL     1      71.049  25.413  15.139  1.00  0.00     0.012 A 
ENDROOT
BRANCH   2   8
HETATM    8  C   UNL     1      68.656  24.604  15.298  1.00  0.00     0.268 C 
BRANCH   8   9
HETATM    9  N   UNL     1      67.878  25.524  14.478  1.00  0.00    -0.075 N 
HETATM   10  H   UNL     1      68.330  26.438  14.469  1.00  0.00     0.274 HD
HETATM   11  H   UNL     1      66.938  25.613  14.864  1.00  0.00     0.274 HD
HETATM   12  H   UNL     1      67.821  25.163  13.524  1.00  0.00     0.274 HD
ENDBRANCH   8   9
ENDBRANCH   2   8
TORSDOF 2
ENDMDL
MODEL 4
REMARK VINA RESULT:      -4.6     19.340     19.995
REMARK  2 active torsions:
REMARK  status: ('A' for Active; 'I' for Inactive)
REMARK    1  A    between atoms: C_2  and  C_9 
REMARK    2  A    between atoms: N_4  and  C_9 
ROOT
HETATM    1  C   UNL     1      61.797  11.390   2.296  1.00  0.00     0.116 A 
HETATM    2  C   UNL     1      62.461   9.162   3.845  1.00  0.00    -0.033 A 
HETATM    3  F   UNL     1      61.479  12.461   1.556  1.00  0.00    -0.206 F 
HETATM    4  C   UNL     1      61.972  10.159   1.680  1.00  0.00     0.043 A 
HETATM    5  C   UNL     1      61.950  11.532   3.671  1.00  0.00     0.043 A 
HETATM    6  C   UNL     1      62.305   9.045   2.453  1.00  0.00     0.012 A 
HETATM    7  C   UNL     1      62.281  10.419   4.446  1.00  0.00     0.012 A 
ENDROOT
BRANCH   2   8
HETATM    8  C   UNL     1      62.832   7.960   4.676  1.00  0.00     0.268 C 
BRANCH   8   9
HETATM    9  N   UNL     1      63.005   8.313   6.080  1.00  0.00    -0.075 N 
HETATM   10  H   UNL     1      63.690   9.065   6.160  1.00  0.00     0.274 HD
HETATM   11  H   UNL     1      63.332   7.498   6.599  1.00  0.00     0.274 HD
HETATM   12  H   UNL     1      62.112   8.624   6.464  1.00  0.00     0.274 HD
ENDBRANCH   8   9
ENDBRANCH   2   8
TORSDOF 2
ENDMDL
MODEL 5
REMARK VINA RESULT:      -4.4     15.164     16.175
REMARK  2 active torsions:
REMARK  status: ('A' for Active; 'I' for Inactive)
REMARK    1  A    between atoms: C_2  and  C_9 
REMARK    2  A    between atoms: N_4  and  C_9 
ROOT
HETATM    1  C   UNL     1      70.301  23.609  13.939  1.00  0.00     0.116 A 
HETATM    2  C   UNL     1      72.970  22.872  14.303  1.00  0.00    -0.033 A 
HETATM    3  F   UNL     1      69.021  23.965  13.766  1.00  0.00    -0.206 F 
HETATM    4  C   UNL     1      70.871  22.667  13.093  1.00  0.00     0.043 A 
HETATM    5  C   UNL     1      71.040  24.192  14.962  1.00  0.00     0.043 A 
HETATM    6  C   UNL     1      72.204  22.299  13.273  1.00  0.00     0.012 A 
HETATM    7  C   UNL     1      72.374  23.824  15.145  1.00  0.00     0.012 A 
ENDROOT
BRANCH   2   8
HETATM    8  C   UNL     1      74.415  22.480  14.489  1.00  0.00     0.268 C 
BRANCH   8   9
HETATM    9  N   UNL     1      74.572  21.514  15.569  1.00  0.00    -0.075 N 
HETATM   10  H   UNL     1      73.766  21.566  16.192  1.00  0.00     0.274 HD
HETATM   11  H   UNL     1      75.421  21.724  16.094  1.00  0.00     0.274 HD
HETATM   12  H   UNL     1      74.639  20.574  15.177  1.00  0.00     0.274 HD
ENDBRANCH   8   9
ENDBRANCH   2   8
TORSDOF 2
ENDMDL
MODEL 6
REMARK VINA RESULT:      -4.3     19.103     19.737
REMARK  2 active torsions:
REMARK  status: ('A' for Active; 'I' for Inactive)
REMARK    1  A    between atoms: C_2  and  C_9 
REMARK    2  A    between atoms: N_4  and  C_9 
ROOT
HETATM    1  C   UNL     1      62.345   8.859   1.763  1.00  0.00     0.116 A 
HETATM    2  C   UNL     1      62.434  10.480   4.036  1.00  0.00    -0.033 A 
HETATM    3  F   UNL     1      62.301   8.083   0.672  1.00  0.00    -0.206 F 
HETATM    4  C   UNL     1      62.890   8.358   2.938  1.00  0.00     0.043 A 
HETATM    5  C   UNL     1      61.846  10.154   1.701  1.00  0.00     0.043 A 
HETATM    6  C   UNL     1      62.936   9.167   4.074  1.00  0.00     0.012 A 
HETATM    7  C   UNL     1      61.889  10.966   2.836  1.00  0.00     0.012 A 
ENDROOT
BRANCH   2   8
HETATM    8  C   UNL     1      62.495  11.356   5.262  1.00  0.00     0.268 C 
BRANCH   8   9
HETATM    9  N   UNL     1      63.711  11.117   6.031  1.00  0.00    -0.075 N 
HETATM   10  H   UNL     1      63.620  11.542   6.953  1.00  0.00     0.274 HD
HETATM   11  H   UNL     1      64.508  11.527   5.544  1.00  0.00     0.274 HD
HETATM   12  H   UNL     1      63.856  10.112   6.132  1.00  0.00     0.274 HD
ENDBRANCH   8   9
ENDBRANCH   2   8
TORSDOF 2
ENDMDL
MODEL 7
REMARK VINA RESULT:      -4.2     15.895     16.974
REMARK  2 active torsions:
REMARK  status: ('A' for Active; 'I' for Inactive)
REMARK    1  A    between atoms: C_2  and  C_9 
REMARK    2  A    between atoms: N_4  and  C_9 
ROOT
HETATM    1  C   UNL     1      71.172  24.919  14.855  1.00  0.00     0.116 A 
HETATM    2  C   UNL     1      71.715  23.024  12.876  1.00  0.00    -0.033 A 
HETATM    3  F   UNL     1      70.914  25.828  15.805  1.00  0.00    -0.206 F 
HETATM    4  C   UNL     1      70.147  24.106  14.389  1.00  0.00     0.043 A 
HETATM    5  C   UNL     1      72.462  24.805  14.351  1.00  0.00     0.043 A 
HETATM    6  C   UNL     1      70.417  23.161  13.399  1.00  0.00     0.012 A 
HETATM    7  C   UNL     1      72.735  23.858  13.362  1.00  0.00     0.012 A 
ENDROOT
BRANCH   2   8
HETATM    8  C   UNL     1      72.001  22.009  11.798  1.00  0.00     0.268 C 
BRANCH   8   9
HETATM    9  N   UNL     1      71.107  20.861  11.894  1.00  0.00    -0.075 N 
HETATM   10  H   UNL     1      71.238  20.402  12.796  1.00  0.00     0.274 HD
HETATM   11  H   UNL     1      71.317  20.202  11.145  1.00  0.00     0.274 HD
HETATM   12  H   UNL     1      70.140  21.175  11.810  1.00  0.00     0.274 HD
ENDBRANCH   8   9
ENDBRANCH   2   8
TORSDOF 2
ENDMDL
MODEL 8
REMARK VINA RESULT:      -4.2     19.801     20.415
REMARK  2 active torsions:
REMARK  status: ('A' for Active; 'I' for Inactive)
REMARK    1  A    between atoms: C_2  and  C_9 
REMARK    2  A    between atoms: N_4  and  C_9 
ROOT
HETATM    1  C   UNL     1      62.279  10.925   4.184  1.00  0.00     0.116 A 
HETATM    2  C   UNL     1      62.160   9.396   1.849  1.00  0.00    -0.033 A 
HETATM    3  F   UNL     1      62.336  11.660   5.302  1.00  0.00    -0.206 F 
HETATM    4  C   UNL     1      62.642   9.586   4.225  1.00  0.00     0.043 A 
HETATM    5  C   UNL     1      61.856  11.515   2.999  1.00  0.00     0.043 A 
HETATM    6  C   UNL     1      62.582   8.821   3.060  1.00  0.00     0.012 A 
HETATM    7  C   UNL     1      61.795  10.753   1.831  1.00  0.00     0.012 A 
ENDROOT
BRANCH   2   8
HETATM    8  C   UNL     1      62.084   8.565   0.593  1.00  0.00     0.268 C 
BRANCH   8   9
HETATM    9  N   UNL     1      60.784   7.918   0.457  1.00  0.00    -0.075 N 
HETATM   10  H   UNL     1      60.445   8.034  -0.498  1.00  0.00     0.274 HD
HETATM   11  H   UNL     1      60.123   8.343   1.107  1.00  0.00     0.274 HD
HETATM   12  H   UNL     1      60.876   6.923   0.668  1.00  0.00     0.274 HD
ENDBRANCH   8   9
ENDBRANCH   2   8
TORSDOF 2
ENDMDL
MODEL 9
REMARK VINA RESULT:      -4.1     16.014     16.825
REMARK  2 active torsions:
REMARK  status: ('A' for Active; 'I' for Inactive)
REMARK    1  A    between atoms: C_2  and  C_9 
REMARK    2  A    between atoms: N_4  and  C_9 
ROOT
HETATM    1  C   UNL     1      71.683  22.179  12.212  1.00  0.00     0.116 A 
HETATM    2  C   UNL     1      71.443  24.162  14.164  1.00  0.00    -0.033 A 
HETATM    3  F   UNL     1      71.800  21.228  11.275  1.00  0.00    -0.206 F 
HETATM    4  C   UNL     1      70.431  22.478  12.731  1.00  0.00     0.043 A 
HETATM    5  C   UNL     1      72.818  22.850  12.650  1.00  0.00     0.043 A 
HETATM    6  C   UNL     1      70.310  23.468  13.707  1.00  0.00     0.012 A 
HETATM    7  C   UNL     1      72.701  23.842  13.625  1.00  0.00     0.012 A 
ENDROOT
BRANCH   2   8
HETATM    8  C   UNL     1      71.312  25.224  15.227  1.00  0.00     0.268 C 
BRANCH   8   9
HETATM    9  N   UNL     1      69.939  25.704  15.336  1.00  0.00    -0.075 N 
HETATM   10  H   UNL     1      69.657  26.130  14.453  1.00  0.00     0.274 HD
HETATM   11  H   UNL     1      69.879  26.397  16.082  1.00  0.00     0.274 HD
HETATM   12  H   UNL     1      69.321  24.920  15.549  1.00  0.00     0.274 HD
ENDBRANCH   8   9
ENDBRANCH   2   8
TORSDOF 2
ENDMDL
