MODEL 1
REMARK VINA RESULT:      -5.5      0.000      0.000
REMARK  1 active torsions:
REMARK  status: ('A' for Active; 'I' for Inactive)
REMARK    1  A    between atoms: C_1  and  C_2 
ROOT
HETATM    1  C   UNL     1      76.894   7.036  16.585  1.00  0.00     0.012 A 
HETATM    2  C   UNL     1      77.010   7.136  15.197  1.00  0.00     0.057 A 
HETATM    3  C   UNL     1      77.433   8.335  14.630  1.00  0.00     0.117 A 
HETATM    4  F   UNL     1      77.541   8.427  13.299  1.00  0.00    -0.206 F 
HETATM    5  C   UNL     1      77.209   8.146  17.386  1.00  0.00     0.015 A 
HETATM    6  C   UNL     1      77.634   9.344  16.804  1.00  0.00     0.004 A 
HETATM    7  C   UNL     1      77.745   9.437  15.418  1.00  0.00     0.042 A 
ENDROOT
BRANCH   1   8
HETATM    8  C   UNL     1      76.442   5.779  17.254  1.00  0.00     0.155 C 
HETATM    9  O   UNL     1      76.934   5.450  18.332  1.00  0.00    -0.293 OA
HETATM   10  C   UNL     1      75.385   4.940  16.588  1.00  0.00     0.096 C 
ENDBRANCH   1   8
TORSDOF 1
ENDMDL
MODEL 2
REMARK VINA RESULT:      -4.8      3.348      5.466
REMARK  1 active torsions:
REMARK  status: ('A' for Active; 'I' for Inactive)
REMARK    1  A    between atoms: C_1  and  C_2 
ROOT
HETATM    1  C   UNL     1      76.174   4.597  17.221  1.00  0.00     0.012 A 
HETATM    2  C   UNL     1      76.959   3.664  17.904  1.00  0.00     0.057 A 
HETATM    3  C   UNL     1      76.505   2.356  18.037  1.00  0.00     0.117 A 
HETATM    4  F   UNL     1      77.260   1.465  18.693  1.00  0.00    -0.206 F 
HETATM    5  C   UNL     1      74.942   4.198  16.680  1.00  0.00     0.015 A 
HETATM    6  C   UNL     1      74.498   2.880  16.821  1.00  0.00     0.004 A 
HETATM    7  C   UNL     1      75.285   1.955  17.504  1.00  0.00     0.042 A 
ENDROOT
BRANCH   1   8
HETATM    8  C   UNL     1      76.603   6.017  17.047  1.00  0.00     0.155 C 
HETATM    9  O   UNL     1      76.755   6.735  18.034  1.00  0.00    -0.293 OA
HETATM   10  C   UNL     1      76.844   6.540  15.657  1.00  0.00     0.096 C 
ENDBRANCH   1   8
TORSDOF 1
ENDMDL
MODEL 3
REMARK VINA RESULT:      -4.7      3.108      5.135
REMARK  1 active torsions:
REMARK  status: ('A' for Active; 'I' for Inactive)
REMARK    1  A    between atoms: C_1  and  C_2 
ROOT
HETATM    1  C   UNL     1      76.319   4.716  17.320  1.00  0.00     0.012 A 
HETATM    2  C   UNL     1      75.246   4.098  16.672  1.00  0.00     0.057 A 
HETATM    3  C   UNL     1      74.992   2.750  16.907  1.00  0.00     0.117 A 
HETATM    4  F   UNL     1      73.963   2.161  16.284  1.00  0.00    -0.206 F 
HETATM    5  C   UNL     1      77.120   3.968  18.198  1.00  0.00     0.015 A 
HETATM    6  C   UNL     1      76.852   2.615  18.425  1.00  0.00     0.004 A 
HETATM    7  C   UNL     1      75.782   2.004  17.774  1.00  0.00     0.042 A 
ENDROOT
BRANCH   1   8
HETATM    8  C   UNL     1      76.647   6.158  17.108  1.00  0.00     0.155 C 
HETATM    9  O   UNL     1      76.745   6.911  18.075  1.00  0.00    -0.293 OA
HETATM   10  C   UNL     1      76.854   6.660  15.704  1.00  0.00     0.096 C 
ENDBRANCH   1   8
TORSDOF 1
ENDMDL
MODEL 4
REMARK VINA RESULT:      -4.7     17.777     18.386
REMARK  1 active torsions:
REMARK  status: ('A' for Active; 'I' for Inactive)
REMARK    1  A    between atoms: C_1  and  C_2 
ROOT
HETATM    1  C   UNL     1      63.266   8.885   4.857  1.00  0.00     0.012 A 
HETATM    2  C   UNL     1      62.983  10.193   5.259  1.00  0.00     0.057 A 
HETATM    3  C   UNL     1      62.327  11.051   4.382  1.00  0.00     0.117 A 
HETATM    4  F   UNL     1      62.059  12.304   4.771  1.00  0.00    -0.206 F 
HETATM    5  C   UNL     1      62.881   8.458   3.576  1.00  0.00     0.015 A 
HETATM    6  C   UNL     1      62.221   9.331   2.705  1.00  0.00     0.004 A 
HETATM    7  C   UNL     1      61.944  10.634   3.112  1.00  0.00     0.042 A 
ENDROOT
BRANCH   1   8
HETATM    8  C   UNL     1      63.970   7.917   5.750  1.00  0.00     0.155 C 
HETATM    9  O   UNL     1      63.394   7.466   6.738  1.00  0.00    -0.293 OA
HETATM   10  C   UNL     1      65.381   7.510   5.415  1.00  0.00     0.096 C 
ENDBRANCH   1   8
TORSDOF 1
ENDMDL
MODEL 5
REMARK VINA RESULT:      -4.7     18.950     19.512
REMARK  1 active torsions:
REMARK  status: ('A' for Active; 'I' for Inactive)
REMARK    1  A    between atoms: C_1  and  C_2 
ROOT
HETATM    1  C   UNL     1      62.557   9.239   3.977  1.00  0.00     0.012 A 
HETATM    2  C   UNL     1      62.517   8.762   2.665  1.00  0.00     0.057 A 
HETATM    3  C   UNL     1      62.155   9.624   1.634  1.00  0.00     0.117 A 
HETATM    4  F   UNL     1      62.117   9.162   0.378  1.00  0.00    -0.206 F 
HETATM    5  C   UNL     1      62.233  10.581   4.233  1.00  0.00     0.015 A 
HETATM    6  C   UNL     1      61.872  11.436   3.188  1.00  0.00     0.004 A 
HETATM    7  C   UNL     1      61.832  10.953   1.882  1.00  0.00     0.042 A 
ENDROOT
BRANCH   1   8
HETATM    8  C   UNL     1      62.933   8.364   5.128  1.00  0.00     0.155 C 
HETATM    9  O   UNL     1      63.889   8.669   5.840  1.00  0.00    -0.293 OA
HETATM   10  C   UNL     1      62.127   7.121   5.392  1.00  0.00     0.096 C 
ENDBRANCH   1   8
TORSDOF 1
ENDMDL
MODEL 6
REMARK VINA RESULT:      -4.7     19.938     20.538
REMARK  1 active torsions:
REMARK  status: ('A' for Active; 'I' for Inactive)
REMARK    1  A    between atoms: C_1  and  C_2 
ROOT
HETATM    1  C   UNL     1      62.313   9.029   2.213  1.00  0.00     0.012 A 
HETATM    2  C   UNL     1      61.986  10.208   1.538  1.00  0.00     0.057 A 
HETATM    3  C   UNL     1      61.804  11.382   2.263  1.00  0.00     0.117 A 
HETATM    4  F   UNL     1      61.489  12.509   1.612  1.00  0.00    -0.206 F 
HETATM    5  C   UNL     1      62.455   9.050   3.610  1.00  0.00     0.015 A 
HETATM    6  C   UNL     1      62.270  10.237   4.325  1.00  0.00     0.004 A 
HETATM    7  C   UNL     1      61.941  11.408   3.646  1.00  0.00     0.042 A 
ENDROOT
BRANCH   1   8
HETATM    8  C   UNL     1      62.518   7.736   1.494  1.00  0.00     0.155 C 
HETATM    9  O   UNL     1      63.226   6.864   1.995  1.00  0.00    -0.293 OA
HETATM   10  C   UNL     1      61.846   7.527   0.163  1.00  0.00     0.096 C 
ENDBRANCH   1   8
TORSDOF 1
ENDMDL
MODEL 7
REMARK VINA RESULT:      -4.6     18.535     19.302
REMARK  1 active torsions:
REMARK  status: ('A' for Active; 'I' for Inactive)
REMARK    1  A    between atoms: C_1  and  C_2 
ROOT
HETATM    1  C   UNL     1      62.593   9.727   3.576  1.00  0.00     0.012 A 
HETATM    2  C   UNL     1      63.253   9.341   4.745  1.00  0.00     0.057 A 
HETATM    3  C   UNL     1      63.764   8.050   4.847  1.00  0.00     0.117 A 
HETATM    4  F   UNL     1      64.396   7.684   5.970  1.00  0.00    -0.206 F 
HETATM    5  C   UNL     1      62.458   8.807   2.524  1.00  0.00     0.015 A 
HETATM    6  C   UNL     1      62.977   7.514   2.639  1.00  0.00     0.004 A 
HETATM    7  C   UNL     1      63.633   7.135   3.809  1.00  0.00     0.042 A 
ENDROOT
BRANCH   1   8
HETATM    8  C   UNL     1      62.019  11.095   3.406  1.00  0.00     0.155 C 
HETATM    9  O   UNL     1      61.781  11.785   4.395  1.00  0.00    -0.293 OA
HETATM   10  C   UNL     1      61.745  11.603   2.015  1.00  0.00     0.096 C 
ENDBRANCH   1   8
TORSDOF 1
ENDMDL
MODEL 8
REMARK VINA RESULT:      -4.5      3.857      5.144
REMARK  1 active torsions:
REMARK  status: ('A' for Active; 'I' for Inactive)
REMARK    1  A    between atoms: C_1  and  C_2 
ROOT
HETATM    1  C   UNL     1      75.904   2.478  17.580  1.00  0.00     0.012 A 
HETATM    2  C   UNL     1      76.858   3.462  17.855  1.00  0.00     0.057 A 
HETATM    3  C   UNL     1      76.615   4.776  17.467  1.00  0.00     0.117 A 
HETATM    4  F   UNL     1      77.532   5.716  17.732  1.00  0.00    -0.206 F 
HETATM    5  C   UNL     1      74.717   2.833  16.919  1.00  0.00     0.015 A 
HETATM    6  C   UNL     1      74.486   4.157  16.536  1.00  0.00     0.004 A 
HETATM    7  C   UNL     1      75.442   5.133  16.812  1.00  0.00     0.042 A 
ENDROOT
BRANCH   1   8
HETATM    8  C   UNL     1      76.106   1.049  17.966  1.00  0.00     0.155 C 
HETATM    9  O   UNL     1      75.363   0.530  18.797  1.00  0.00    -0.293 OA
HETATM   10  C   UNL     1      77.223   0.271  17.322  1.00  0.00     0.096 C 
ENDBRANCH   1   8
TORSDOF 1
ENDMDL
MODEL 9
REMARK VINA RESULT:      -4.5     19.973     20.701
REMARK  1 active torsions:
REMARK  status: ('A' for Active; 'I' for Inactive)
REMARK    1  A    between atoms: C_1  and  C_2 
ROOT
HETATM    1  C   UNL     1      62.208   9.578   2.491  1.00  0.00     0.012 A 
HETATM    2  C   UNL     1      61.934   9.179   1.181  1.00  0.00     0.057 A 
HETATM    3  C   UNL     1      62.270   7.891   0.773  1.00  0.00     0.117 A 
HETATM    4  F   UNL     1      62.007   7.513  -0.484  1.00  0.00    -0.206 F 
HETATM    5  C   UNL     1      62.817   8.672   3.375  1.00  0.00     0.015 A 
HETATM    6  C   UNL     1      63.148   7.382   2.953  1.00  0.00     0.004 A 
HETATM    7  C   UNL     1      62.874   6.991   1.644  1.00  0.00     0.042 A 
ENDROOT
BRANCH   1   8
HETATM    8  C   UNL     1      61.875  10.946   2.989  1.00  0.00     0.155 C 
HETATM    9  O   UNL     1      61.779  11.151   4.197  1.00  0.00    -0.293 OA
HETATM   10  C   UNL     1      61.666  12.054   1.990  1.00  0.00     0.096 C 
ENDBRANCH   1   8
TORSDOF 1
ENDMDL
