MODEL 1
REMARK VINA RESULT:      -5.4      0.000      0.000
REMARK  4 active torsions:
REMARK  status: ('A' for Active; 'I' for Inactive)
REMARK    1  A    between atoms: N_1  and  C_4 
REMARK    2  A    between atoms: C_4  and  C_11 
REMARK    3  A    between atoms: C_5  and  O_12 
REMARK    4  A    between atoms: C_6  and  C_11 
ROOT
HETATM    1  C   UNL     1      77.476   8.744  16.134  1.00  0.00     0.068 A 
HETATM    2  C   UNL     1      76.568   6.128  16.667  1.00  0.00    -0.046 A 
HETATM    3  C   UNL     1      77.252   8.325  17.446  1.00  0.00     0.037 A 
HETATM    4  C   UNL     1      77.238   7.857  15.086  1.00  0.00     0.037 A 
HETATM    5  C   UNL     1      76.807   7.030  17.715  1.00  0.00     0.011 A 
HETATM    6  C   UNL     1      76.786   6.559  15.349  1.00  0.00     0.011 A 
ENDROOT
BRANCH   2   7
HETATM    7  C   UNL     1      75.995   4.758  16.945  1.00  0.00     0.142 C 
BRANCH   7   8
HETATM    8  C   UNL     1      76.627   4.160  18.192  1.00  0.00    -0.073 C 
BRANCH   8   9
HETATM    9  N   UNL     1      77.151   3.664  19.226  1.00  0.00    -0.369 N 
ATOM     10  HN2 UNL     1      76.697   4.068  18.407  1.00  0.00     0.165 HD
ATOM     11  HN1 UNL     1      77.575   3.263  20.062  1.00  0.00     0.165 HD
ENDBRANCH   8   9
ENDBRANCH   7   8
ENDBRANCH   2   7
BRANCH   1  12
HETATM   12  O   UNL     1      77.874  10.043  15.997  1.00  0.00    -0.356 OA
HETATM   13  C   UNL     1      77.666  10.625  14.714  1.00  0.00     0.210 C 
ENDBRANCH   1  12
TORSDOF 4
ENDMDL
MODEL 2
REMARK VINA RESULT:      -5.3      1.685      2.234
REMARK  4 active torsions:
REMARK  status: ('A' for Active; 'I' for Inactive)
REMARK    1  A    between atoms: N_1  and  C_4 
REMARK    2  A    between atoms: C_4  and  C_11 
REMARK    3  A    between atoms: C_5  and  O_12 
REMARK    4  A    between atoms: C_6  and  C_11 
ROOT
HETATM    1  C   UNL     1      77.487  10.075  17.662  1.00  0.00     0.068 A 
HETATM    2  C   UNL     1      77.054   7.440  16.758  1.00  0.00    -0.046 A 
HETATM    3  C   UNL     1      77.063   9.083  18.547  1.00  0.00     0.037 A 
HETATM    4  C   UNL     1      77.687   9.752  16.321  1.00  0.00     0.037 A 
HETATM    5  C   UNL     1      76.852   7.775  18.104  1.00  0.00     0.011 A 
HETATM    6  C   UNL     1      77.471   8.445  15.870  1.00  0.00     0.011 A 
ENDROOT
BRANCH   2   7
HETATM    7  C   UNL     1      76.735   6.052  16.253  1.00  0.00     0.142 C 
BRANCH   7   8
HETATM    8  C   UNL     1      76.706   5.061  17.405  1.00  0.00    -0.073 C 
BRANCH   8   9
HETATM    9  N   UNL     1      76.682   4.237  18.361  1.00  0.00    -0.369 N 
ATOM     10  HN2 UNL     1      76.668   4.910  17.595  1.00  0.00     0.165 HD
ATOM     11  HN1 UNL     1      76.663   3.572  19.134  1.00  0.00     0.165 HD
ENDBRANCH   8   9
ENDBRANCH   7   8
ENDBRANCH   2   7
BRANCH   1  12
HETATM   12  O   UNL     1      77.623  11.320  18.206  1.00  0.00    -0.356 OA
HETATM   13  C   UNL     1      77.710  11.372  19.626  1.00  0.00     0.210 C 
ENDBRANCH   1  12
TORSDOF 4
ENDMDL
MODEL 3
REMARK VINA RESULT:      -5.1      5.055      6.649
REMARK  4 active torsions:
REMARK  status: ('A' for Active; 'I' for Inactive)
REMARK    1  A    between atoms: N_1  and  C_4 
REMARK    2  A    between atoms: C_4  and  C_11 
REMARK    3  A    between atoms: C_5  and  O_12 
REMARK    4  A    between atoms: C_6  and  C_11 
ROOT
HETATM    1  C   UNL     1      77.426  10.504  18.244  1.00  0.00     0.068 A 
HETATM    2  C   UNL     1      78.151  12.122  20.436  1.00  0.00    -0.046 A 
HETATM    3  C   UNL     1      78.536  10.182  19.026  1.00  0.00     0.037 A 
HETATM    4  C   UNL     1      76.681  11.640  18.553  1.00  0.00     0.037 A 
HETATM    5  C   UNL     1      78.896  10.977  20.115  1.00  0.00     0.011 A 
HETATM    6  C   UNL     1      77.041  12.445  19.640  1.00  0.00     0.011 A 
ENDROOT
BRANCH   2   7
HETATM    7  C   UNL     1      78.591  13.039  21.553  1.00  0.00     0.142 C 
BRANCH   7   8
HETATM    8  C   UNL     1      79.999  12.690  22.005  1.00  0.00    -0.073 C 
BRANCH   8   9
HETATM    9  N   UNL     1      81.168  12.400  22.381  1.00  0.00    -0.369 N 
ATOM     10  HN2 UNL     1      80.237  12.652  22.051  1.00  0.00     0.165 HD
ATOM     11  HN1 UNL     1      82.113  12.165  22.685  1.00  0.00     0.165 HD
ENDBRANCH   8   9
ENDBRANCH   7   8
ENDBRANCH   2   7
BRANCH   1  12
HETATM   12  O   UNL     1      77.197   9.670  17.186  1.00  0.00    -0.356 OA
HETATM   13  C   UNL     1      77.170   8.279  17.487  1.00  0.00     0.210 C 
ENDBRANCH   1  12
TORSDOF 4
ENDMDL
MODEL 4
REMARK VINA RESULT:      -5.0     12.371     13.182
REMARK  4 active torsions:
REMARK  status: ('A' for Active; 'I' for Inactive)
REMARK    1  A    between atoms: N_1  and  C_4 
REMARK    2  A    between atoms: C_4  and  C_11 
REMARK    3  A    between atoms: C_5  and  O_12 
REMARK    4  A    between atoms: C_6  and  C_11 
ROOT
HETATM    1  C   UNL     1      65.957   6.535   7.830  1.00  0.00     0.068 A 
HETATM    2  C   UNL     1      68.470   5.384   8.385  1.00  0.00    -0.046 A 
HETATM    3  C   UNL     1      66.695   5.923   6.816  1.00  0.00     0.037 A 
HETATM    4  C   UNL     1      66.478   6.579   9.121  1.00  0.00     0.037 A 
HETATM    5  C   UNL     1      67.938   5.347   7.087  1.00  0.00     0.011 A 
HETATM    6  C   UNL     1      67.726   6.010   9.398  1.00  0.00     0.011 A 
ENDROOT
BRANCH   2   7
HETATM    7  C   UNL     1      69.855   4.850   8.664  1.00  0.00     0.142 C 
BRANCH   7   8
HETATM    8  C   UNL     1      69.815   3.832   9.793  1.00  0.00    -0.073 C 
BRANCH   8   9
HETATM    9  N   UNL     1      69.781   2.987  10.729  1.00  0.00    -0.369 N 
ATOM     10  HN2 UNL     1      69.828   3.690   9.992  1.00  0.00     0.165 HD
ATOM     11  HN1 UNL     1      69.754   2.303  11.485  1.00  0.00     0.165 HD
ENDBRANCH   8   9
ENDBRANCH   7   8
ENDBRANCH   2   7
BRANCH   1  12
HETATM   12  O   UNL     1      64.774   7.092   7.433  1.00  0.00    -0.356 OA
HETATM   13  C   UNL     1      64.143   6.478   6.314  1.00  0.00     0.210 C 
ENDBRANCH   1  12
TORSDOF 4
ENDMDL
MODEL 5
REMARK VINA RESULT:      -4.5     18.472     19.307
REMARK  4 active torsions:
REMARK  status: ('A' for Active; 'I' for Inactive)
REMARK    1  A    between atoms: N_1  and  C_4 
REMARK    2  A    between atoms: C_4  and  C_11 
REMARK    3  A    between atoms: C_5  and  O_12 
REMARK    4  A    between atoms: C_6  and  C_11 
ROOT
HETATM    1  C   UNL     1      64.182   8.090   5.303  1.00  0.00     0.068 A 
HETATM    2  C   UNL     1      62.640   8.903   3.087  1.00  0.00    -0.046 A 
HETATM    3  C   UNL     1      63.464   9.286   5.340  1.00  0.00     0.037 A 
HETATM    4  C   UNL     1      64.136   7.302   4.155  1.00  0.00     0.037 A 
HETATM    5  C   UNL     1      62.696   9.690   4.247  1.00  0.00     0.011 A 
HETATM    6  C   UNL     1      63.373   7.706   3.053  1.00  0.00     0.011 A 
ENDROOT
BRANCH   2   7
HETATM    7  C   UNL     1      61.890   9.382   1.867  1.00  0.00     0.142 C 
BRANCH   7   8
HETATM    8  C   UNL     1      61.834  10.900   1.838  1.00  0.00    -0.073 C 
BRANCH   8   9
HETATM    9  N   UNL     1      61.787  12.161   1.814  1.00  0.00    -0.369 N 
ATOM     10  HN2 UNL     1      61.853  11.143   1.813  1.00  0.00     0.165 HD
ATOM     11  HN1 UNL     1      61.748  13.180   1.795  1.00  0.00     0.165 HD
ENDBRANCH   8   9
ENDBRANCH   7   8
ENDBRANCH   2   7
BRANCH   1  12
HETATM   12  O   UNL     1      64.923   7.821   6.419  1.00  0.00    -0.356 OA
HETATM   13  C   UNL     1      66.209   7.254   6.188  1.00  0.00     0.210 C 
ENDBRANCH   1  12
TORSDOF 4
ENDMDL
MODEL 6
REMARK VINA RESULT:      -4.4     19.864     20.601
REMARK  4 active torsions:
REMARK  status: ('A' for Active; 'I' for Inactive)
REMARK    1  A    between atoms: N_1  and  C_4 
REMARK    2  A    between atoms: C_4  and  C_11 
REMARK    3  A    between atoms: C_5  and  O_12 
REMARK    4  A    between atoms: C_6  and  C_11 
ROOT
HETATM    1  C   UNL     1      62.158  10.807   3.673  1.00  0.00     0.068 A 
HETATM    2  C   UNL     1      62.215   8.962   1.542  1.00  0.00    -0.046 A 
HETATM    3  C   UNL     1      62.527   9.480   3.895  1.00  0.00     0.037 A 
HETATM    4  C   UNL     1      61.809  11.212   2.387  1.00  0.00     0.037 A 
HETATM    5  C   UNL     1      62.562   8.564   2.842  1.00  0.00     0.011 A 
HETATM    6  C   UNL     1      61.835  10.296   1.328  1.00  0.00     0.011 A 
ENDROOT
BRANCH   2   7
HETATM    7  C   UNL     1      62.157   7.955   0.418  1.00  0.00     0.142 C 
BRANCH   7   8
HETATM    8  C   UNL     1      62.953   6.710   0.776  1.00  0.00    -0.073 C 
BRANCH   8   9
HETATM    9  N   UNL     1      63.615   5.678   1.074  1.00  0.00    -0.369 N 
ATOM     10  HN2 UNL     1      63.066   6.512   0.865  1.00  0.00     0.165 HD
ATOM     11  HN1 UNL     1      64.150   4.844   1.314  1.00  0.00     0.165 HD
ENDBRANCH   8   9
ENDBRANCH   7   8
ENDBRANCH   2   7
BRANCH   1  12
HETATM   12  O   UNL     1      62.127  11.597   4.787  1.00  0.00    -0.356 OA
HETATM   13  C   UNL     1      62.995  11.209   5.847  1.00  0.00     0.210 C 
ENDBRANCH   1  12
TORSDOF 4
ENDMDL
MODEL 7
REMARK VINA RESULT:      -4.3     12.283     13.408
REMARK  4 active torsions:
REMARK  status: ('A' for Active; 'I' for Inactive)
REMARK    1  A    between atoms: N_1  and  C_4 
REMARK    2  A    between atoms: C_4  and  C_11 
REMARK    3  A    between atoms: C_5  and  O_12 
REMARK    4  A    between atoms: C_6  and  C_11 
ROOT
HETATM    1  C   UNL     1      69.367   3.584   8.858  1.00  0.00     0.068 A 
HETATM    2  C   UNL     1      67.875   5.061   6.976  1.00  0.00    -0.046 A 
HETATM    3  C   UNL     1      69.035   4.917   9.106  1.00  0.00     0.037 A 
HETATM    4  C   UNL     1      68.960   2.990   7.666  1.00  0.00     0.037 A 
HETATM    5  C   UNL     1      68.292   5.650   8.179  1.00  0.00     0.011 A 
HETATM    6  C   UNL     1      68.222   3.723   6.729  1.00  0.00     0.011 A 
ENDROOT
BRANCH   2   7
HETATM    7  C   UNL     1      67.156   5.876   5.927  1.00  0.00     0.142 C 
BRANCH   7   8
HETATM    8  C   UNL     1      67.997   7.073   5.515  1.00  0.00    -0.073 C 
BRANCH   8   9
HETATM    9  N   UNL     1      68.694   8.067   5.173  1.00  0.00    -0.369 N 
ATOM     10  HN2 UNL     1      68.157   7.243   5.442  1.00  0.00     0.165 HD
ATOM     11  HN1 UNL     1      69.258   8.871   4.897  1.00  0.00     0.165 HD
ENDBRANCH   8   9
ENDBRANCH   7   8
ENDBRANCH   2   7
BRANCH   1  12
HETATM   12  O   UNL     1      70.126   2.985   9.823  1.00  0.00    -0.356 OA
HETATM   13  C   UNL     1      69.746   1.659  10.177  1.00  0.00     0.210 C 
ENDBRANCH   1  12
TORSDOF 4
ENDMDL
MODEL 8
REMARK VINA RESULT:      -4.3      4.811      6.642
REMARK  4 active torsions:
REMARK  status: ('A' for Active; 'I' for Inactive)
REMARK    1  A    between atoms: N_1  and  C_4 
REMARK    2  A    between atoms: C_4  and  C_11 
REMARK    3  A    between atoms: C_5  and  O_12 
REMARK    4  A    between atoms: C_6  and  C_11 
ROOT
HETATM    1  C   UNL     1      76.363   2.251  17.848  1.00  0.00     0.068 A 
HETATM    2  C   UNL     1      75.410   0.524  15.834  1.00  0.00    -0.046 A 
HETATM    3  C   UNL     1      75.126   2.481  17.245  1.00  0.00     0.037 A 
HETATM    4  C   UNL     1      77.129   1.162  17.440  1.00  0.00     0.037 A 
HETATM    5  C   UNL     1      74.648   1.626  16.250  1.00  0.00     0.011 A 
HETATM    6  C   UNL     1      76.658   0.304  16.438  1.00  0.00     0.011 A 
ENDROOT
BRANCH   2   7
HETATM    7  C   UNL     1      74.943  -0.348  14.692  1.00  0.00     0.142 C 
BRANCH   7   8
HETATM    8  C   UNL     1      75.784  -0.096  13.451  1.00  0.00    -0.073 C 
BRANCH   8   9
HETATM    9  N   UNL     1      76.482   0.113  12.421  1.00  0.00    -0.369 N 
ATOM     10  HN2 UNL     1      75.935  -0.085  13.259  1.00  0.00     0.165 HD
ATOM     11  HN1 UNL     1      77.046   0.282  11.588  1.00  0.00     0.165 HD
ENDBRANCH   8   9
ENDBRANCH   7   8
ENDBRANCH   2   7
BRANCH   1  12
HETATM   12  O   UNL     1      76.736   3.177  18.781  1.00  0.00    -0.356 OA
HETATM   13  C   UNL     1      76.823   4.521  18.321  1.00  0.00     0.210 C 
ENDBRANCH   1  12
TORSDOF 4
ENDMDL
MODEL 9
REMARK VINA RESULT:      -4.1     19.146     19.981
REMARK  4 active torsions:
REMARK  status: ('A' for Active; 'I' for Inactive)
REMARK    1  A    between atoms: N_1  and  C_4 
REMARK    2  A    between atoms: C_4  and  C_11 
REMARK    3  A    between atoms: C_5  and  O_12 
REMARK    4  A    between atoms: C_6  and  C_11 
ROOT
HETATM    1  C   UNL     1      63.548   8.491   5.214  1.00  0.00     0.068 A 
HETATM    2  C   UNL     1      62.387   9.328   2.785  1.00  0.00    -0.046 A 
HETATM    3  C   UNL     1      63.605   7.675   4.083  1.00  0.00     0.037 A 
HETATM    4  C   UNL     1      62.902   9.723   5.134  1.00  0.00     0.037 A 
HETATM    5  C   UNL     1      63.036   8.088   2.877  1.00  0.00     0.011 A 
HETATM    6  C   UNL     1      62.324  10.139   3.930  1.00  0.00     0.011 A 
ENDROOT
BRANCH   2   7
HETATM    7  C   UNL     1      61.686   9.738   1.512  1.00  0.00     0.142 C 
BRANCH   7   8
HETATM    8  C   UNL     1      61.031   8.534   0.853  1.00  0.00    -0.073 C 
BRANCH   8   9
HETATM    9  N   UNL     1      60.487   7.535   0.307  1.00  0.00    -0.369 N 
ATOM     10  HN2 UNL     1      60.958   8.328   0.744  1.00  0.00     0.165 HD
ATOM     11  HN1 UNL     1      60.047   6.728  -0.135  1.00  0.00     0.165 HD
ENDBRANCH   8   9
ENDBRANCH   7   8
ENDBRANCH   2   7
BRANCH   1  12
HETATM   12  O   UNL     1      64.108   7.962   6.342  1.00  0.00    -0.356 OA
HETATM   13  C   UNL     1      64.086   6.542   6.440  1.00  0.00     0.210 C 
ENDBRANCH   1  12
TORSDOF 4
ENDMDL
