MODEL 1
REMARK VINA RESULT:      -4.6      0.000      0.000
REMARK  0 active torsions:
REMARK  status: ('A' for Active; 'I' for Inactive)
ROOT
HETATM    1  N   UNL     1      61.118   9.646   3.557  1.00  0.00    -0.376 N 
ATOM      2  HN  UNL     1      61.027  10.272   4.358  1.00  0.00     0.164 HD
HETATM    3  N   UNL     1      60.612   8.746   1.810  1.00  0.00    -0.379 N 
ATOM      4  HN  UNL     1      60.249   9.563   2.300  1.00  0.00     0.164 HD
HETATM    5  C   UNL     1      61.926   6.433   0.153  1.00  0.00     0.036 A 
HETATM    6  C   UNL     1      61.570   7.505   0.828  1.00  0.00     0.014 A 
HETATM    7  C   UNL     1      60.437   8.049   3.638  1.00  0.00     0.084 A 
HETATM    8  C   UNL     1      62.302   8.043   2.445  1.00  0.00     0.067 C 
HETATM    9  C   UNL     1      61.957  10.198   2.123  1.00  0.00     0.084 A 
HETATM   10  C   UNL     1      59.673   8.158   0.536  1.00  0.00     0.083 C 
HETATM   11  C   UNL     1      62.228   9.211   0.694  1.00  0.00     0.005 A 
HETATM   12  C   UNL     1      60.613   6.873   2.349  1.00  0.00     0.005 A 
HETATM   13  C   UNL     1      62.938   6.833   1.468  1.00  0.00     0.050 A 
HETATM   14  C   UNL     1      60.351   6.937  -0.285  1.00  0.00    -0.003 C 
ENDROOT
TORSDOF 0
ENDMDL
MODEL 2
REMARK VINA RESULT:      -4.4     21.666     22.735
REMARK  0 active torsions:
REMARK  status: ('A' for Active; 'I' for Inactive)
ROOT
HETATM    1  N   UNL     1      77.326   1.829  18.800  1.00  0.00    -0.376 N 
ATOM      2  HN  UNL     1      77.999   2.346  19.366  1.00  0.00     0.164 HD
HETATM    3  N   UNL     1      75.603   0.855  18.353  1.00  0.00    -0.379 N 
ATOM      4  HN  UNL     1      75.882   1.451  19.132  1.00  0.00     0.164 HD
HETATM    5  C   UNL     1      74.645  -0.713  15.815  1.00  0.00     0.036 A 
HETATM    6  C   UNL     1      75.076   0.115  16.742  1.00  0.00     0.014 A 
HETATM    7  C   UNL     1      77.354   0.091  18.813  1.00  0.00     0.084 A 
HETATM    8  C   UNL     1      76.778   0.848  16.813  1.00  0.00     0.067 C 
HETATM    9  C   UNL     1      76.163   2.706  17.830  1.00  0.00     0.084 A 
HETATM   10  C   UNL     1      74.170  -0.015  18.551  1.00  0.00     0.083 C 
HETATM   11  C   UNL     1      74.982   1.946  16.774  1.00  0.00     0.005 A 
HETATM   12  C   UNL     1      76.296  -0.885  17.811  1.00  0.00     0.005 A 
HETATM   13  C   UNL     1      76.156   0.012  15.496  1.00  0.00     0.050 A 
HETATM   14  C   UNL     1      73.710  -0.850  17.241  1.00  0.00    -0.003 C 
ENDROOT
TORSDOF 0
ENDMDL
MODEL 3
REMARK VINA RESULT:      -4.4      7.370      8.597
REMARK  0 active torsions:
REMARK  status: ('A' for Active; 'I' for Inactive)
ROOT
HETATM    1  N   UNL     1      68.350   6.078   9.187  1.00  0.00    -0.376 N 
ATOM      2  HN  UNL     1      68.834   6.281  10.062  1.00  0.00     0.164 HD
HETATM    3  N   UNL     1      67.908   6.209   7.211  1.00  0.00    -0.379 N 
ATOM      4  HN  UNL     1      68.694   6.540   7.770  1.00  0.00     0.164 HD
HETATM    5  C   UNL     1      65.659   4.926   5.447  1.00  0.00     0.036 A 
HETATM    6  C   UNL     1      66.655   5.256   6.240  1.00  0.00     0.014 A 
HETATM    7  C   UNL     1      66.976   7.040   8.728  1.00  0.00     0.084 A 
HETATM    8  C   UNL     1      66.717   4.943   8.066  1.00  0.00     0.067 C 
HETATM    9  C   UNL     1      68.914   4.767   8.174  1.00  0.00     0.084 A 
HETATM   10  C   UNL     1      67.791   6.826   5.645  1.00  0.00     0.083 C 
HETATM   11  C   UNL     1      68.147   4.280   6.669  1.00  0.00     0.005 A 
HETATM   12  C   UNL     1      66.028   6.717   7.289  1.00  0.00     0.005 A 
HETATM   13  C   UNL     1      65.572   4.287   7.027  1.00  0.00     0.050 A 
HETATM   14  C   UNL     1      66.598   6.179   4.760  1.00  0.00    -0.003 C 
ENDROOT
TORSDOF 0
ENDMDL
MODEL 4
REMARK VINA RESULT:      -4.4      1.446      3.422
REMARK  0 active torsions:
REMARK  status: ('A' for Active; 'I' for Inactive)
ROOT
HETATM    1  N   UNL     1      59.419   8.111   1.634  1.00  0.00    -0.376 N 
ATOM      2  HN  UNL     1      58.553   8.120   1.095  1.00  0.00     0.164 HD
HETATM    3  N   UNL     1      60.835   8.779   2.925  1.00  0.00    -0.379 N 
ATOM      4  HN  UNL     1      59.880   9.077   2.727  1.00  0.00     0.164 HD
HETATM    5  C   UNL     1      63.645   7.670   3.756  1.00  0.00     0.036 A 
HETATM    6  C   UNL     1      62.389   7.939   3.474  1.00  0.00     0.014 A 
HETATM    7  C   UNL     1      60.851   8.833   0.961  1.00  0.00     0.084 A 
HETATM    8  C   UNL     1      61.371   7.068   2.193  1.00  0.00     0.067 C 
HETATM    9  C   UNL     1      59.441   7.369   3.219  1.00  0.00     0.084 A 
HETATM   10  C   UNL     1      61.770   9.832   3.855  1.00  0.00     0.083 C 
HETATM   11  C   UNL     1      60.872   7.241   4.231  1.00  0.00     0.005 A 
HETATM   12  C   UNL     1      62.406   8.794   1.771  1.00  0.00     0.005 A 
HETATM   13  C   UNL     1      62.876   6.547   2.728  1.00  0.00     0.050 A 
HETATM   14  C   UNL     1      63.235   9.258   4.243  1.00  0.00    -0.003 C 
ENDROOT
TORSDOF 0
ENDMDL
MODEL 5
REMARK VINA RESULT:      -4.4     21.657     22.836
REMARK  0 active torsions:
REMARK  status: ('A' for Active; 'I' for Inactive)
ROOT
HETATM    1  N   UNL     1      75.918  -0.784  19.911  1.00  0.00    -0.376 N 
ATOM      2  HN  UNL     1      76.103  -1.156  20.843  1.00  0.00     0.164 HD
HETATM    3  N   UNL     1      75.445   0.594  18.499  1.00  0.00    -0.379 N 
ATOM      4  HN  UNL     1      75.700   0.668  19.483  1.00  0.00     0.164 HD
HETATM    5  C   UNL     1      74.971   0.392  15.408  1.00  0.00     0.036 A 
HETATM    6  C   UNL     1      75.368   0.389  16.662  1.00  0.00     0.014 A 
HETATM    7  C   UNL     1      74.292  -0.781  19.298  1.00  0.00     0.084 A 
HETATM    8  C   UNL     1      75.742  -1.127  17.662  1.00  0.00     0.067 C 
HETATM    9  C   UNL     1      77.245  -0.160  18.954  1.00  0.00     0.084 A 
HETATM   10  C   UNL     1      74.811   1.984  17.782  1.00  0.00     0.083 C 
HETATM   11  C   UNL     1      77.077   0.465  17.320  1.00  0.00     0.005 A 
HETATM   12  C   UNL     1      73.886  -0.242  17.680  1.00  0.00     0.005 A 
HETATM   13  C   UNL     1      75.496  -1.120  16.000  1.00  0.00     0.050 A 
HETATM   14  C   UNL     1      74.536   1.849  16.191  1.00  0.00    -0.003 C 
ENDROOT
TORSDOF 0
ENDMDL
MODEL 6
REMARK VINA RESULT:      -4.3      6.915      8.414
REMARK  0 active torsions:
REMARK  status: ('A' for Active; 'I' for Inactive)
ROOT
HETATM    1  N   UNL     1      65.012   7.815   6.100  1.00  0.00    -0.376 N 
ATOM      2  HN  UNL     1      64.350   8.485   5.708  1.00  0.00     0.164 HD
HETATM    3  N   UNL     1      66.173   6.925   7.506  1.00  0.00    -0.379 N 
ATOM      4  HN  UNL     1      65.420   7.611   7.560  1.00  0.00     0.164 HD
HETATM    5  C   UNL     1      68.263   4.594   7.372  1.00  0.00     0.036 A 
HETATM    6  C   UNL     1      67.244   5.426   7.343  1.00  0.00     0.014 A 
HETATM    7  C   UNL     1      66.709   8.193   6.104  1.00  0.00     0.084 A 
HETATM    8  C   UNL     1      66.393   6.022   5.807  1.00  0.00     0.067 C 
HETATM    9  C   UNL     1      64.422   6.304   6.757  1.00  0.00     0.084 A 
HETATM   10  C   UNL     1      67.087   6.705   8.908  1.00  0.00     0.083 C 
HETATM   11  C   UNL     1      65.452   5.043   7.417  1.00  0.00     0.005 A 
HETATM   12  C   UNL     1      67.931   7.073   6.677  1.00  0.00     0.005 A 
HETATM   13  C   UNL     1      67.508   4.766   5.851  1.00  0.00     0.050 A 
HETATM   14  C   UNL     1      68.189   5.522   8.807  1.00  0.00    -0.003 C 
ENDROOT
TORSDOF 0
ENDMDL
MODEL 7
REMARK VINA RESULT:      -4.2      6.779      8.264
REMARK  0 active torsions:
REMARK  status: ('A' for Active; 'I' for Inactive)
ROOT
HETATM    1  N   UNL     1      67.513   6.173   3.970  1.00  0.00    -0.376 N 
ATOM      2  HN  UNL     1      67.760   6.111   2.981  1.00  0.00     0.164 HD
HETATM    3  N   UNL     1      67.793   6.168   5.979  1.00  0.00    -0.379 N 
ATOM      4  HN  UNL     1      68.436   6.214   5.189  1.00  0.00     0.164 HD
HETATM    5  C   UNL     1      65.814   6.345   8.401  1.00  0.00     0.036 A 
HETATM    6  C   UNL     1      66.555   6.463   7.321  1.00  0.00     0.014 A 
HETATM    7  C   UNL     1      67.103   4.725   4.840  1.00  0.00     0.084 A 
HETATM    8  C   UNL     1      65.918   6.442   5.580  1.00  0.00     0.067 C 
HETATM    9  C   UNL     1      67.508   7.734   4.761  1.00  0.00     0.084 A 
HETATM   10  C   UNL     1      68.484   5.862   7.488  1.00  0.00     0.083 C 
HETATM   11  C   UNL     1      67.058   7.990   6.440  1.00  0.00     0.005 A 
HETATM   12  C   UNL     1      66.585   4.736   6.515  1.00  0.00     0.005 A 
HETATM   13  C   UNL     1      64.948   6.559   6.947  1.00  0.00     0.050 A 
HETATM   14  C   UNL     1      67.439   5.919   8.725  1.00  0.00    -0.003 C 
ENDROOT
TORSDOF 0
ENDMDL
MODEL 8
REMARK VINA RESULT:      -4.2     13.243     14.479
REMARK  0 active torsions:
REMARK  status: ('A' for Active; 'I' for Inactive)
ROOT
HETATM    1  N   UNL     1      55.021   1.398  14.491  1.00  0.00    -0.376 N 
ATOM      2  HN  UNL     1      54.139   1.559  14.977  1.00  0.00     0.164 HD
HETATM    3  N   UNL     1      57.031   1.355  14.211  1.00  0.00    -0.379 N 
ATOM      4  HN  UNL     1      56.447   1.482  15.038  1.00  0.00     0.164 HD
HETATM    5  C   UNL     1      58.817   0.655  11.734  1.00  0.00     0.036 A 
HETATM    6  C   UNL     1      57.983   0.746  12.747  1.00  0.00     0.014 A 
HETATM    7  C   UNL     1      55.736   2.685  13.567  1.00  0.00     0.084 A 
HETATM    8  C   UNL     1      56.133   0.726  12.615  1.00  0.00     0.067 C 
HETATM    9  C   UNL     1      55.791  -0.170  14.601  1.00  0.00     0.084 A 
HETATM   10  C   UNL     1      58.670   1.718  14.389  1.00  0.00     0.083 C 
HETATM   11  C   UNL     1      57.284  -0.599  13.779  1.00  0.00     0.005 A 
HETATM   12  C   UNL     1      57.205   2.481  12.630  1.00  0.00     0.005 A 
HETATM   13  C   UNL     1      57.182   0.344  11.358  1.00  0.00     0.050 A 
HETATM   14  C   UNL     1      59.572   1.385  13.085  1.00  0.00    -0.003 C 
ENDROOT
TORSDOF 0
ENDMDL
MODEL 9
REMARK VINA RESULT:      -4.2      7.644      8.686
REMARK  0 active torsions:
REMARK  status: ('A' for Active; 'I' for Inactive)
ROOT
HETATM    1  N   UNL     1      67.138   7.759   7.512  1.00  0.00    -0.376 N 
ATOM      2  HN  UNL     1      67.148   8.772   7.633  1.00  0.00     0.164 HD
HETATM    3  N   UNL     1      66.365   5.918   7.152  1.00  0.00    -0.379 N 
ATOM      4  HN  UNL     1      66.000   6.861   7.025  1.00  0.00     0.164 HD
HETATM    5  C   UNL     1      67.599   3.039   7.247  1.00  0.00     0.036 A 
HETATM    6  C   UNL     1      67.242   4.291   7.062  1.00  0.00     0.014 A 
HETATM    7  C   UNL     1      66.811   6.738   8.881  1.00  0.00     0.084 A 
HETATM    8  C   UNL     1      68.262   5.772   7.515  1.00  0.00     0.067 C 
HETATM    9  C   UNL     1      67.452   7.077   5.931  1.00  0.00     0.084 A 
HETATM   10  C   UNL     1      65.249   4.659   7.023  1.00  0.00     0.083 C 
HETATM   11  C   UNL     1      67.513   5.353   5.592  1.00  0.00     0.005 A 
HETATM   12  C   UNL     1      66.855   4.987   8.793  1.00  0.00     0.005 A 
HETATM   13  C   UNL     1      68.830   4.191   7.508  1.00  0.00     0.050 A 
HETATM   14  C   UNL     1      65.900   3.177   7.113  1.00  0.00    -0.003 C 
ENDROOT
TORSDOF 0
ENDMDL
