MODEL 1
REMARK VINA RESULT:      -4.5      0.000      0.000
REMARK  0 active torsions:
REMARK  status: ('A' for Active; 'I' for Inactive)
ROOT
HETATM    1  O   UNL     1      62.997   9.515   5.688  1.00  0.00    -0.350 OA
HETATM    2  C   UNL     1      62.601   9.879   4.427  1.00  0.00     0.075 A 
HETATM    3  C   UNL     1      62.717   8.860   3.493  1.00  0.00    -0.023 A 
HETATM    4  C   UNL     1      63.093   8.074   5.607  1.00  0.00     0.180 C 
HETATM    5  C   UNL     1      63.300   7.668   4.147  1.00  0.00     0.068 C 
HETATM    6  C   UNL     1      62.140  11.133   4.087  1.00  0.00     0.037 A 
HETATM    7  C   UNL     1      62.373   9.067   2.169  1.00  0.00     0.010 A 
HETATM    8  C   UNL     1      61.772  11.353   2.759  1.00  0.00     0.003 A 
HETATM    9  C   UNL     1      61.887  10.327   1.806  1.00  0.00     0.001 A 
ENDROOT
TORSDOF 0
ENDMDL
MODEL 2
REMARK VINA RESULT:      -4.4      1.636      2.849
REMARK  0 active torsions:
REMARK  status: ('A' for Active; 'I' for Inactive)
ROOT
HETATM    1  O   UNL     1      62.855   7.448   2.463  1.00  0.00    -0.350 OA
HETATM    2  C   UNL     1      62.550   8.737   2.814  1.00  0.00     0.075 A 
HETATM    3  C   UNL     1      62.145   9.523   1.745  1.00  0.00    -0.023 A 
HETATM    4  C   UNL     1      62.320   7.331   1.123  1.00  0.00     0.180 C 
HETATM    5  C   UNL     1      62.216   8.724   0.502  1.00  0.00     0.068 C 
HETATM    6  C   UNL     1      62.641   9.238   4.095  1.00  0.00     0.037 A 
HETATM    7  C   UNL     1      61.817  10.855   1.927  1.00  0.00     0.010 A 
HETATM    8  C   UNL     1      62.296  10.575   4.299  1.00  0.00     0.003 A 
HETATM    9  C   UNL     1      61.886  11.379   3.221  1.00  0.00     0.001 A 
ENDROOT
TORSDOF 0
ENDMDL
MODEL 3
REMARK VINA RESULT:      -4.3     19.028     20.258
REMARK  0 active torsions:
REMARK  status: ('A' for Active; 'I' for Inactive)
ROOT
HETATM    1  O   UNL     1      76.372   1.459  18.452  1.00  0.00    -0.350 OA
HETATM    2  C   UNL     1      76.260   2.747  17.997  1.00  0.00     0.075 A 
HETATM    3  C   UNL     1      75.238   2.925  17.077  1.00  0.00    -0.023 A 
HETATM    4  C   UNL     1      75.142   0.840  18.008  1.00  0.00     0.180 C 
HETATM    5  C   UNL     1      74.589   1.621  16.816  1.00  0.00     0.068 C 
HETATM    6  C   UNL     1      77.079   3.785  18.388  1.00  0.00     0.037 A 
HETATM    7  C   UNL     1      75.000   4.164  16.508  1.00  0.00     0.010 A 
HETATM    8  C   UNL     1      76.842   5.046  17.837  1.00  0.00     0.003 A 
HETATM    9  C   UNL     1      75.809   5.234  16.903  1.00  0.00     0.001 A 
ENDROOT
TORSDOF 0
ENDMDL
MODEL 4
REMARK VINA RESULT:      -4.2      1.322      2.147
REMARK  0 active torsions:
REMARK  status: ('A' for Active; 'I' for Inactive)
ROOT
HETATM    1  O   UNL     1      62.906   7.596   2.670  1.00  0.00    -0.350 OA
HETATM    2  C   UNL     1      62.542   8.916   2.739  1.00  0.00     0.075 A 
HETATM    3  C   UNL     1      62.613   9.446   4.019  1.00  0.00    -0.023 A 
HETATM    4  C   UNL     1      63.536   7.355   3.950  1.00  0.00     0.180 C 
HETATM    5  C   UNL     1      63.024   8.382   4.961  1.00  0.00     0.068 C 
HETATM    6  C   UNL     1      62.127   9.666   1.660  1.00  0.00     0.037 A 
HETATM    7  C   UNL     1      62.265  10.762   4.263  1.00  0.00     0.010 A 
HETATM    8  C   UNL     1      61.788  11.002   1.886  1.00  0.00     0.003 A 
HETATM    9  C   UNL     1      61.857  11.546   3.180  1.00  0.00     0.001 A 
ENDROOT
TORSDOF 0
ENDMDL
MODEL 5
REMARK VINA RESULT:      -4.2     18.808     20.338
REMARK  0 active torsions:
REMARK  status: ('A' for Active; 'I' for Inactive)
ROOT
HETATM    1  O   UNL     1      77.142   4.889  17.823  1.00  0.00    -0.350 OA
HETATM    2  C   UNL     1      76.606   3.633  17.690  1.00  0.00     0.075 A 
HETATM    3  C   UNL     1      75.419   3.609  16.974  1.00  0.00    -0.023 A 
HETATM    4  C   UNL     1      76.392   5.675  16.867  1.00  0.00     0.180 C 
HETATM    5  C   UNL     1      75.049   4.992  16.601  1.00  0.00     0.068 C 
HETATM    6  C   UNL     1      77.163   2.489  18.220  1.00  0.00     0.037 A 
HETATM    7  C   UNL     1      74.740   2.422  16.763  1.00  0.00     0.010 A 
HETATM    8  C   UNL     1      76.500   1.280  18.002  1.00  0.00     0.003 A 
HETATM    9  C   UNL     1      75.296   1.247  17.277  1.00  0.00     0.001 A 
ENDROOT
TORSDOF 0
ENDMDL
MODEL 6
REMARK VINA RESULT:      -4.0      8.855     10.394
REMARK  0 active torsions:
REMARK  status: ('A' for Active; 'I' for Inactive)
ROOT
HETATM    1  O   UNL     1      67.220   2.241   9.608  1.00  0.00    -0.350 OA
HETATM    2  C   UNL     1      67.998   3.305   9.230  1.00  0.00     0.075 A 
HETATM    3  C   UNL     1      69.319   3.201   9.639  1.00  0.00    -0.023 A 
HETATM    4  C   UNL     1      68.189   1.253  10.032  1.00  0.00     0.180 C 
HETATM    5  C   UNL     1      69.486   1.961  10.428  1.00  0.00     0.068 C 
HETATM    6  C   UNL     1      67.536   4.395   8.524  1.00  0.00     0.037 A 
HETATM    7  C   UNL     1      70.233   4.199   9.351  1.00  0.00     0.010 A 
HETATM    8  C   UNL     1      68.449   5.403   8.210  1.00  0.00     0.003 A 
HETATM    9  C   UNL     1      69.790   5.306   8.621  1.00  0.00     0.001 A 
ENDROOT
TORSDOF 0
ENDMDL
MODEL 7
REMARK VINA RESULT:      -4.0      7.189      9.524
REMARK  0 active torsions:
REMARK  status: ('A' for Active; 'I' for Inactive)
ROOT
HETATM    1  O   UNL     1      66.223   4.260   8.376  1.00  0.00    -0.350 OA
HETATM    2  C   UNL     1      67.545   4.157   8.724  1.00  0.00     0.075 A 
HETATM    3  C   UNL     1      68.297   5.273   8.387  1.00  0.00    -0.023 A 
HETATM    4  C   UNL     1      66.068   5.664   8.064  1.00  0.00     0.180 C 
HETATM    5  C   UNL     1      67.431   6.247   7.688  1.00  0.00     0.068 C 
HETATM    6  C   UNL     1      68.106   3.056   9.336  1.00  0.00     0.037 A 
HETATM    7  C   UNL     1      69.653   5.323   8.655  1.00  0.00     0.010 A 
HETATM    8  C   UNL     1      69.470   3.098   9.629  1.00  0.00     0.003 A 
HETATM    9  C   UNL     1      70.239   4.225   9.291  1.00  0.00     0.001 A 
ENDROOT
TORSDOF 0
ENDMDL
MODEL 8
REMARK VINA RESULT:      -3.7      6.903      8.439
REMARK  0 active torsions:
REMARK  status: ('A' for Active; 'I' for Inactive)
ROOT
HETATM    1  O   UNL     1      68.958   4.368   9.812  1.00  0.00    -0.350 OA
HETATM    2  C   UNL     1      68.247   5.112   8.906  1.00  0.00     0.075 A 
HETATM    3  C   UNL     1      68.291   4.605   7.615  1.00  0.00    -0.023 A 
HETATM    4  C   UNL     1      69.225   3.138   9.099  1.00  0.00     0.180 C 
HETATM    5  C   UNL     1      69.158   3.407   7.594  1.00  0.00     0.068 C 
HETATM    6  C   UNL     1      67.559   6.266   9.214  1.00  0.00     0.037 A 
HETATM    7  C   UNL     1      67.639   5.247   6.577  1.00  0.00     0.010 A 
HETATM    8  C   UNL     1      66.881   6.916   8.182  1.00  0.00     0.003 A 
HETATM    9  C   UNL     1      66.920   6.409   6.871  1.00  0.00     0.001 A 
ENDROOT
TORSDOF 0
ENDMDL
MODEL 9
REMARK VINA RESULT:      -3.7      5.302      7.478
REMARK  0 active torsions:
REMARK  status: ('A' for Active; 'I' for Inactive)
ROOT
HETATM    1  O   UNL     1      66.277   7.740   6.643  1.00  0.00    -0.350 OA
HETATM    2  C   UNL     1      67.003   6.851   7.392  1.00  0.00     0.075 A 
HETATM    3  C   UNL     1      67.640   5.877   6.637  1.00  0.00    -0.023 A 
HETATM    4  C   UNL     1      66.728   7.485   5.292  1.00  0.00     0.180 C 
HETATM    5  C   UNL     1      67.291   6.065   5.212  1.00  0.00     0.068 C 
HETATM    6  C   UNL     1      67.099   6.888   8.767  1.00  0.00     0.037 A 
HETATM    7  C   UNL     1      68.401   4.893   7.242  1.00  0.00     0.010 A 
HETATM    8  C   UNL     1      67.878   5.912   9.392  1.00  0.00     0.003 A 
HETATM    9  C   UNL     1      68.525   4.921   8.635  1.00  0.00     0.001 A 
ENDROOT
TORSDOF 0
ENDMDL
