MODEL 1
REMARK VINA RESULT:      -3.5      0.000      0.000
REMARK  0 active torsions:
REMARK  status: ('A' for Active; 'I' for Inactive)
ROOT
HETATM    1  C   UNL     1      71.181  23.699  14.317  1.00  0.00     0.131 C 
HETATM    2  O   UNL     1      70.351  24.490  14.766  1.00  0.00    -0.298 OA
HETATM    3  O   UNL     1      73.232  22.365  12.965  1.00  0.00    -0.390 OA
HETATM    4  C   UNL     1      72.520  23.499  14.979  1.00  0.00     0.104 C 
HETATM    5  C   UNL     1      70.853  22.775  13.173  1.00  0.00     0.104 C 
HETATM    6  C   UNL     1      72.047  22.705  12.241  1.00  0.00     0.175 C 
HETATM    7  C   UNL     1      73.580  23.388  13.902  1.00  0.00     0.175 C 
ENDROOT
TORSDOF 0
ENDMDL
MODEL 2
REMARK VINA RESULT:      -3.5     17.696     18.777
REMARK  0 active torsions:
REMARK  status: ('A' for Active; 'I' for Inactive)
ROOT
HETATM    1  C   UNL     1      63.719   9.602   5.158  1.00  0.00     0.131 C 
HETATM    2  O   UNL     1      64.862   9.382   5.559  1.00  0.00    -0.298 OA
HETATM    3  O   UNL     1      61.401  10.347   3.785  1.00  0.00    -0.390 OA
HETATM    4  C   UNL     1      62.956   8.583   4.352  1.00  0.00     0.104 C 
HETATM    5  C   UNL     1      62.959  10.834   5.575  1.00  0.00     0.104 C 
HETATM    6  C   UNL     1      62.201  11.372   4.378  1.00  0.00     0.175 C 
HETATM    7  C   UNL     1      62.213   9.301   3.244  1.00  0.00     0.175 C 
ENDROOT
TORSDOF 0
ENDMDL
MODEL 3
REMARK VINA RESULT:      -3.4     19.004     19.902
REMARK  0 active torsions:
REMARK  status: ('A' for Active; 'I' for Inactive)
ROOT
HETATM    1  C   UNL     1      61.927  10.857   2.478  1.00  0.00     0.131 C 
HETATM    2  O   UNL     1      61.979  11.991   2.001  1.00  0.00    -0.298 OA
HETATM    3  O   UNL     1      62.398   8.292   3.482  1.00  0.00    -0.390 OA
HETATM    4  C   UNL     1      61.977  10.624   3.966  1.00  0.00     0.104 C 
HETATM    5  C   UNL     1      61.659   9.650   1.617  1.00  0.00     0.104 C 
HETATM    6  C   UNL     1      62.548   8.511   2.078  1.00  0.00     0.175 C 
HETATM    7  C   UNL     1      62.854   9.418   4.236  1.00  0.00     0.175 C 
ENDROOT
TORSDOF 0
ENDMDL
MODEL 4
REMARK VINA RESULT:      -3.4      1.143      2.541
REMARK  0 active torsions:
REMARK  status: ('A' for Active; 'I' for Inactive)
ROOT
HETATM    1  C   UNL     1      72.147  22.422  13.237  1.00  0.00     0.131 C 
HETATM    2  O   UNL     1      72.067  21.351  12.636  1.00  0.00    -0.298 OA
HETATM    3  O   UNL     1      72.281  24.514  15.086  1.00  0.00    -0.390 OA
HETATM    4  C   UNL     1      73.478  23.026  13.602  1.00  0.00     0.104 C 
HETATM    5  C   UNL     1      70.929  23.267  13.510  1.00  0.00     0.104 C 
HETATM    6  C   UNL     1      71.033  23.841  14.910  1.00  0.00     0.175 C 
HETATM    7  C   UNL     1      73.381  23.603  15.000  1.00  0.00     0.175 C 
ENDROOT
TORSDOF 0
ENDMDL
MODEL 5
REMARK VINA RESULT:      -3.4     18.791     19.907
REMARK  0 active torsions:
REMARK  status: ('A' for Active; 'I' for Inactive)
ROOT
HETATM    1  C   UNL     1      62.458   8.986   2.761  1.00  0.00     0.131 C 
HETATM    2  O   UNL     1      63.088   8.002   2.374  1.00  0.00    -0.298 OA
HETATM    3  O   UNL     1      61.546  11.500   3.574  1.00  0.00    -0.390 OA
HETATM    4  C   UNL     1      61.694   9.861   1.801  1.00  0.00     0.104 C 
HETATM    5  C   UNL     1      62.286   9.287   4.227  1.00  0.00     0.104 C 
HETATM    6  C   UNL     1      62.427  10.782   4.441  1.00  0.00     0.175 C 
HETATM    7  C   UNL     1      61.897  11.308   2.201  1.00  0.00     0.175 C 
ENDROOT
TORSDOF 0
ENDMDL
MODEL 6
REMARK VINA RESULT:      -3.4     19.962     20.445
REMARK  0 active torsions:
REMARK  status: ('A' for Active; 'I' for Inactive)
ROOT
HETATM    1  C   UNL     1      76.844   3.727  18.651  1.00  0.00     0.131 C 
HETATM    2  O   UNL     1      77.289   3.705  19.799  1.00  0.00    -0.298 OA
HETATM    3  O   UNL     1      75.321   3.904  16.315  1.00  0.00    -0.390 OA
HETATM    4  C   UNL     1      76.889   4.978  17.811  1.00  0.00     0.104 C 
HETATM    5  C   UNL     1      76.370   2.474  17.964  1.00  0.00     0.104 C 
HETATM    6  C   UNL     1      75.109   2.789  17.182  1.00  0.00     0.175 C 
HETATM    7  C   UNL     1      75.580   5.099  17.057  1.00  0.00     0.175 C 
ENDROOT
TORSDOF 0
ENDMDL
MODEL 7
REMARK VINA RESULT:      -3.4      1.023      3.184
REMARK  0 active torsions:
REMARK  status: ('A' for Active; 'I' for Inactive)
ROOT
HETATM    1  C   UNL     1      73.366  22.887  13.925  1.00  0.00     0.131 C 
HETATM    2  O   UNL     1      74.457  22.610  13.426  1.00  0.00    -0.298 OA
HETATM    3  O   UNL     1      70.862  23.916  14.623  1.00  0.00    -0.390 OA
HETATM    4  C   UNL     1      72.109  22.153  13.533  1.00  0.00     0.104 C 
HETATM    5  C   UNL     1      73.244  23.865  15.064  1.00  0.00     0.104 C 
HETATM    6  C   UNL     1      72.017  24.729  14.841  1.00  0.00     0.175 C 
HETATM    7  C   UNL     1      70.981  23.157  13.416  1.00  0.00     0.175 C 
ENDROOT
TORSDOF 0
ENDMDL
MODEL 8
REMARK VINA RESULT:      -3.4      1.732      2.273
REMARK  0 active torsions:
REMARK  status: ('A' for Active; 'I' for Inactive)
ROOT
HETATM    1  C   UNL     1      71.073  23.049  13.585  1.00  0.00     0.131 C 
HETATM    2  O   UNL     1      70.253  22.600  12.784  1.00  0.00    -0.298 OA
HETATM    3  O   UNL     1      73.034  24.470  14.980  1.00  0.00    -0.390 OA
HETATM    4  C   UNL     1      70.677  24.041  14.648  1.00  0.00     0.104 C 
HETATM    5  C   UNL     1      72.483  22.522  13.651  1.00  0.00     0.104 C 
HETATM    6  C   UNL     1      73.433  23.685  13.855  1.00  0.00     0.175 C 
HETATM    7  C   UNL     1      71.764  25.091  14.758  1.00  0.00     0.175 C 
ENDROOT
TORSDOF 0
ENDMDL
MODEL 9
REMARK VINA RESULT:      -3.3     17.942     18.938
REMARK  0 active torsions:
REMARK  status: ('A' for Active; 'I' for Inactive)
ROOT
HETATM    1  C   UNL     1      62.143   9.399   3.822  1.00  0.00     0.131 C 
HETATM    2  O   UNL     1      61.117   8.971   3.293  1.00  0.00    -0.298 OA
HETATM    3  O   UNL     1      64.230  10.154   5.520  1.00  0.00    -0.390 OA
HETATM    4  C   UNL     1      63.400   8.570   3.892  1.00  0.00     0.104 C 
HETATM    5  C   UNL     1      62.252  10.825   4.294  1.00  0.00     0.104 C 
HETATM    6  C   UNL     1      62.985  10.849   5.621  1.00  0.00     0.175 C 
HETATM    7  C   UNL     1      64.029   8.763   5.256  1.00  0.00     0.175 C 
ENDROOT
TORSDOF 0
ENDMDL
