MODEL 1
REMARK VINA RESULT:      -5.2      0.000      0.000
REMARK  1 active torsions:
REMARK  status: ('A' for Active; 'I' for Inactive)
REMARK    1  A    between atoms: C_5  and  O_9 
ROOT
HETATM    1  C   UNL     1      76.908   7.163  16.707  1.00  0.00     0.075 A 
HETATM    2  C   UNL     1      76.952   7.011  15.321  1.00  0.00     0.063 A 
HETATM    3  C   UNL     1      77.265   8.380  17.289  1.00  0.00     0.138 A 
HETATM    4  C   UNL     1      77.662   9.455  16.496  1.00  0.00     0.047 A 
HETATM    5  C   UNL     1      77.357   8.087  14.535  1.00  0.00     0.067 A 
HETATM    6 CL   UNL     1      76.417   5.834  17.687  1.00  0.00    -0.081 Cl
HETATM    7  F   UNL     1      77.233   8.540  18.620  1.00  0.00    -0.204 F 
HETATM    8  C   UNL     1      77.710   9.306  15.110  1.00  0.00     0.039 A 
ENDROOT
BRANCH   5   9
HETATM    9  O   UNL     1      77.432   7.986  13.177  1.00  0.00    -0.361 OA
HETATM   10  H   UNL     1      77.758   8.705  12.672  1.00  0.00     0.217 HD
ENDBRANCH   5   9
TORSDOF 1
ENDMDL
MODEL 2
REMARK VINA RESULT:      -4.7      5.577      6.407
REMARK  1 active torsions:
REMARK  status: ('A' for Active; 'I' for Inactive)
REMARK    1  A    between atoms: C_5  and  O_9 
ROOT
HETATM    1  C   UNL     1      77.304  11.449  19.105  1.00  0.00     0.075 A 
HETATM    2  C   UNL     1      78.406  11.225  19.931  1.00  0.00     0.063 A 
HETATM    3  C   UNL     1      76.433  12.506  19.371  1.00  0.00     0.138 A 
HETATM    4  C   UNL     1      76.656  13.352  20.455  1.00  0.00     0.047 A 
HETATM    5  C   UNL     1      78.619  12.069  21.017  1.00  0.00     0.067 A 
HETATM    6 CL   UNL     1      77.027  10.403  17.764  1.00  0.00    -0.081 Cl
HETATM    7  F   UNL     1      75.367  12.731  18.590  1.00  0.00    -0.204 F 
HETATM    8  C   UNL     1      77.756  13.130  21.284  1.00  0.00     0.039 A 
ENDROOT
BRANCH   5   9
HETATM    9  O   UNL     1      79.672  11.886  21.864  1.00  0.00    -0.361 OA
HETATM   10  H   UNL     1      80.160  11.087  21.838  1.00  0.00     0.217 HD
ENDBRANCH   5   9
TORSDOF 1
ENDMDL
MODEL 3
REMARK VINA RESULT:      -4.5     19.299     19.830
REMARK  1 active torsions:
REMARK  status: ('A' for Active; 'I' for Inactive)
REMARK    1  A    between atoms: C_5  and  O_9 
ROOT
HETATM    1  C   UNL     1      62.239   9.747   2.546  1.00  0.00     0.075 A 
HETATM    2  C   UNL     1      62.789   8.919   3.525  1.00  0.00     0.063 A 
HETATM    3  C   UNL     1      61.888  11.060   2.857  1.00  0.00     0.138 A 
HETATM    4  C   UNL     1      62.087  11.562   4.142  1.00  0.00     0.047 A 
HETATM    5  C   UNL     1      62.978   9.423   4.809  1.00  0.00     0.067 A 
HETATM    6 CL   UNL     1      61.992   9.127   0.957  1.00  0.00    -0.081 Cl
HETATM    7  F   UNL     1      61.354  11.867   1.928  1.00  0.00    -0.204 F 
HETATM    8  C   UNL     1      62.634  10.736   5.124  1.00  0.00     0.039 A 
ENDROOT
BRANCH   5   9
HETATM    9  O   UNL     1      63.497   8.652   5.806  1.00  0.00    -0.361 OA
HETATM   10  H   UNL     1      64.096   9.025   6.423  1.00  0.00     0.217 HD
ENDBRANCH   5   9
TORSDOF 1
ENDMDL
MODEL 4
REMARK VINA RESULT:      -4.4     19.269     19.832
REMARK  1 active torsions:
REMARK  status: ('A' for Active; 'I' for Inactive)
REMARK    1  A    between atoms: C_5  and  O_9 
ROOT
HETATM    1  C   UNL     1      62.263   9.408   2.340  1.00  0.00     0.075 A 
HETATM    2  C   UNL     1      61.914  10.678   2.800  1.00  0.00     0.063 A 
HETATM    3  C   UNL     1      62.915   8.511   3.187  1.00  0.00     0.138 A 
HETATM    4  C   UNL     1      63.219   8.869   4.499  1.00  0.00     0.047 A 
HETATM    5  C   UNL     1      62.227  11.032   4.110  1.00  0.00     0.067 A 
HETATM    6 CL   UNL     1      61.888   8.965   0.717  1.00  0.00    -0.081 Cl
HETATM    7  F   UNL     1      63.262   7.289   2.758  1.00  0.00    -0.204 F 
HETATM    8  C   UNL     1      62.873  10.139   4.962  1.00  0.00     0.039 A 
ENDROOT
BRANCH   5   9
HETATM    9  O   UNL     1      61.921  12.265   4.605  1.00  0.00    -0.361 OA
HETATM   10  H   UNL     1      62.505  12.687   5.204  1.00  0.00     0.217 HD
ENDBRANCH   5   9
TORSDOF 1
ENDMDL
MODEL 5
REMARK VINA RESULT:      -4.4     19.518     20.094
REMARK  1 active torsions:
REMARK  status: ('A' for Active; 'I' for Inactive)
REMARK    1  A    between atoms: C_5  and  O_9 
ROOT
HETATM    1  C   UNL     1      62.649   8.772   3.487  1.00  0.00     0.075 A 
HETATM    2  C   UNL     1      62.541   9.925   4.266  1.00  0.00     0.063 A 
HETATM    3  C   UNL     1      62.340   8.814   2.127  1.00  0.00     0.138 A 
HETATM    4  C   UNL     1      61.929  10.005   1.531  1.00  0.00     0.047 A 
HETATM    5  C   UNL     1      62.121  11.109   3.666  1.00  0.00     0.067 A 
HETATM    6 CL   UNL     1      63.158   7.300   4.224  1.00  0.00    -0.081 Cl
HETATM    7  F   UNL     1      62.435   7.714   1.367  1.00  0.00    -0.204 F 
HETATM    8  C   UNL     1      61.817  11.159   2.307  1.00  0.00     0.039 A 
ENDROOT
BRANCH   5   9
HETATM    9  O   UNL     1      61.984  12.259   4.384  1.00  0.00    -0.361 OA
HETATM   10  H   UNL     1      62.084  12.245   5.316  1.00  0.00     0.217 HD
ENDBRANCH   5   9
TORSDOF 1
ENDMDL
MODEL 6
REMARK VINA RESULT:      -4.3     19.563     20.175
REMARK  1 active torsions:
REMARK  status: ('A' for Active; 'I' for Inactive)
REMARK    1  A    between atoms: C_5  and  O_9 
ROOT
HETATM    1  C   UNL     1      62.051  10.537   2.677  1.00  0.00     0.075 A 
HETATM    2  C   UNL     1      62.294  10.512   4.051  1.00  0.00     0.063 A 
HETATM    3  C   UNL     1      62.196   9.373   1.921  1.00  0.00     0.138 A 
HETATM    4  C   UNL     1      62.575   8.177   2.526  1.00  0.00     0.047 A 
HETATM    5  C   UNL     1      62.680   9.316   4.649  1.00  0.00     0.067 A 
HETATM    6 CL   UNL     1      61.583  12.016   1.928  1.00  0.00    -0.081 Cl
HETATM    7  F   UNL     1      61.971   9.381   0.599  1.00  0.00    -0.204 F 
HETATM    8  C   UNL     1      62.820   8.150   3.899  1.00  0.00     0.039 A 
ENDROOT
BRANCH   5   9
HETATM    9  O   UNL     1      62.943   9.241   5.984  1.00  0.00    -0.361 OA
HETATM   10  H   UNL     1      63.603   9.788   6.363  1.00  0.00     0.217 HD
ENDBRANCH   5   9
TORSDOF 1
ENDMDL
MODEL 7
REMARK VINA RESULT:      -4.2      5.031      5.798
REMARK  1 active torsions:
REMARK  status: ('A' for Active; 'I' for Inactive)
REMARK    1  A    between atoms: C_5  and  O_9 
ROOT
HETATM    1  C   UNL     1      76.018   2.191  17.702  1.00  0.00     0.075 A 
HETATM    2  C   UNL     1      76.897   3.216  18.053  1.00  0.00     0.063 A 
HETATM    3  C   UNL     1      74.880   2.474  16.945  1.00  0.00     0.138 A 
HETATM    4  C   UNL     1      74.613   3.776  16.527  1.00  0.00     0.047 A 
HETATM    5  C   UNL     1      76.620   4.516  17.639  1.00  0.00     0.067 A 
HETATM    6 CL   UNL     1      76.348   0.581  18.219  1.00  0.00    -0.081 Cl
HETATM    7  F   UNL     1      74.023   1.501  16.604  1.00  0.00    -0.204 F 
HETATM    8  C   UNL     1      75.489   4.803  16.878  1.00  0.00     0.039 A 
ENDROOT
BRANCH   5   9
HETATM    9  O   UNL     1      77.438   5.556  17.968  1.00  0.00    -0.361 OA
HETATM   10  H   UNL     1      77.911   5.543  18.777  1.00  0.00     0.217 HD
ENDBRANCH   5   9
TORSDOF 1
ENDMDL
MODEL 8
REMARK VINA RESULT:      -4.2     19.324     19.842
REMARK  1 active torsions:
REMARK  status: ('A' for Active; 'I' for Inactive)
REMARK    1  A    between atoms: C_5  and  O_9 
ROOT
HETATM    1  C   UNL     1      62.600   9.468   4.081  1.00  0.00     0.075 A 
HETATM    2  C   UNL     1      62.524   8.803   2.857  1.00  0.00     0.063 A 
HETATM    3  C   UNL     1      62.279  10.823   4.162  1.00  0.00     0.138 A 
HETATM    4  C   UNL     1      61.876  11.525   3.028  1.00  0.00     0.047 A 
HETATM    5  C   UNL     1      62.128   9.511   1.726  1.00  0.00     0.067 A 
HETATM    6 CL   UNL     1      63.099   8.601   5.484  1.00  0.00    -0.081 Cl
HETATM    7  F   UNL     1      62.352  11.478   5.330  1.00  0.00    -0.204 F 
HETATM    8  C   UNL     1      61.801  10.863   1.802  1.00  0.00     0.039 A 
ENDROOT
BRANCH   5   9
HETATM    9  O   UNL     1      62.052   8.913   0.503  1.00  0.00    -0.361 OA
HETATM   10  H   UNL     1      62.135   7.982   0.431  1.00  0.00     0.217 HD
ENDBRANCH   5   9
TORSDOF 1
ENDMDL
MODEL 9
REMARK VINA RESULT:      -4.0     19.453     20.039
REMARK  1 active torsions:
REMARK  status: ('A' for Active; 'I' for Inactive)
REMARK    1  A    between atoms: C_5  and  O_9 
ROOT
HETATM    1  C   UNL     1      62.455  10.213   3.831  1.00  0.00     0.075 A 
HETATM    2  C   UNL     1      62.902   8.896   3.951  1.00  0.00     0.063 A 
HETATM    3  C   UNL     1      61.951  10.672   2.614  1.00  0.00     0.138 A 
HETATM    4  C   UNL     1      61.882   9.824   1.510  1.00  0.00     0.047 A 
HETATM    5  C   UNL     1      62.837   8.057   2.842  1.00  0.00     0.067 A 
HETATM    6 CL   UNL     1      62.542  11.262   5.195  1.00  0.00    -0.081 Cl
HETATM    7  F   UNL     1      61.523  11.936   2.480  1.00  0.00    -0.204 F 
HETATM    8  C   UNL     1      62.329   8.508   1.626  1.00  0.00     0.039 A 
ENDROOT
BRANCH   5   9
HETATM    9  O   UNL     1      63.273   6.766   2.902  1.00  0.00    -0.361 OA
HETATM   10  H   UNL     1      63.984   6.538   3.469  1.00  0.00     0.217 HD
ENDBRANCH   5   9
TORSDOF 1
ENDMDL
