MODEL 1
REMARK VINA RESULT:      -4.4      0.000      0.000
REMARK  5 active torsions:
REMARK  status: ('A' for Active; 'I' for Inactive)
REMARK    1  A    between atoms: CA_3  and  C_7 
REMARK    2  A    between atoms: C_5  and  C_9 
REMARK    3  A    between atoms: C_7  and  O_8 
REMARK    4  A    between atoms: C_9  and  C_10 
REMARK    5  A    between atoms: C_10  and  C_11 
ROOT
HETATM    1  N   UNL     1      67.722   7.088   6.876  1.00  0.00    -0.346 N 
ATOM      2  HN  UNL     1      68.699   6.850   7.046  1.00  0.00     0.167 HD
HETATM    3  CA  UNL     1      67.198   7.705   5.757  1.00  0.00     0.049 A 
HETATM    4  N   UNL     1      65.529   7.293   7.101  1.00  0.00    -0.354 N 
HETATM    5  C   UNL     1      66.701   6.869   7.680  1.00  0.00     0.081 A 
HETATM    6  C   UNL     1      65.833   7.835   5.884  1.00  0.00     0.116 A 
HETATM    7  H   UNL     1      64.629   7.219   7.493  1.00  0.00     0.166 HD
ENDROOT
BRANCH   5   8
HETATM    8  C   UNL     1      66.730   6.242   9.032  1.00  0.00     0.076 C 
BRANCH   8   9
HETATM    9  C   UNL     1      68.121   5.756   9.448  1.00  0.00     0.007 C 
BRANCH   9  10
HETATM   10  C   UNL     1      68.384   4.284   9.115  1.00  0.00    -0.004 C 
HETATM   11  C   UNL     1      69.573   3.743   9.895  1.00  0.00     0.005 C 
ENDBRANCH   9  10
ENDBRANCH   8   9
ENDBRANCH   5   8
BRANCH   3  12
HETATM   12  C   UNL     1      68.081   8.094   4.623  1.00  0.00     0.222 C 
BRANCH  12  13
HETATM   13  O   UNL     1      69.399   8.399   5.071  1.00  0.00    -0.395 OA
HETATM   14  H   UNL     1      69.837   7.585   5.366  1.00  0.00     0.209 HD
ENDBRANCH  12  13
ENDBRANCH   3  12
TORSDOF 5
ENDMDL
MODEL 2
REMARK VINA RESULT:      -4.3      1.723      2.250
REMARK  5 active torsions:
REMARK  status: ('A' for Active; 'I' for Inactive)
REMARK    1  A    between atoms: CA_3  and  C_7 
REMARK    2  A    between atoms: C_5  and  C_9 
REMARK    3  A    between atoms: C_7  and  O_8 
REMARK    4  A    between atoms: C_9  and  C_10 
REMARK    5  A    between atoms: C_10  and  C_11 
ROOT
HETATM    1  N   UNL     1      65.793   7.370   7.226  1.00  0.00    -0.346 N 
ATOM      2  HN  UNL     1      64.921   7.383   7.755  1.00  0.00     0.167 HD
HETATM    3  CA  UNL     1      65.997   7.848   5.946  1.00  0.00     0.049 A 
HETATM    4  N   UNL     1      67.913   7.083   6.656  1.00  0.00    -0.354 N 
HETATM    5  C   UNL     1      66.957   6.895   7.624  1.00  0.00     0.081 A 
HETATM    6  C   UNL     1      67.314   7.678   5.582  1.00  0.00     0.116 A 
HETATM    7  H   UNL     1      68.863   6.834   6.725  1.00  0.00     0.166 HD
ENDROOT
BRANCH   5   8
HETATM    8  C   UNL     1      67.272   6.247   8.929  1.00  0.00     0.076 C 
BRANCH   8   9
HETATM    9  C   UNL     1      67.623   4.762   8.803  1.00  0.00     0.007 C 
BRANCH   9  10
HETATM   10  C   UNL     1      68.941   4.381   9.486  1.00  0.00    -0.004 C 
HETATM   11  C   UNL     1      70.136   4.959   8.743  1.00  0.00     0.005 C 
ENDBRANCH   9  10
ENDBRANCH   8   9
ENDBRANCH   5   8
BRANCH   3  12
HETATM   12  C   UNL     1      64.881   8.471   5.183  1.00  0.00     0.222 C 
BRANCH  12  13
HETATM   13  O   UNL     1      64.553   9.759   5.700  1.00  0.00    -0.395 OA
HETATM   14  H   UNL     1      64.467  10.389   4.967  1.00  0.00     0.209 HD
ENDBRANCH  12  13
ENDBRANCH   3  12
TORSDOF 5
ENDMDL
MODEL 3
REMARK VINA RESULT:      -4.2      1.773      2.700
REMARK  5 active torsions:
REMARK  status: ('A' for Active; 'I' for Inactive)
REMARK    1  A    between atoms: CA_3  and  C_7 
REMARK    2  A    between atoms: C_5  and  C_9 
REMARK    3  A    between atoms: C_7  and  O_8 
REMARK    4  A    between atoms: C_9  and  C_10 
REMARK    5  A    between atoms: C_10  and  C_11 
ROOT
HETATM    1  N   UNL     1      68.197   6.112   7.276  1.00  0.00    -0.346 N 
ATOM      2  HN  UNL     1      68.677   6.014   6.382  1.00  0.00     0.167 HD
HETATM    3  CA  UNL     1      67.016   6.787   7.517  1.00  0.00     0.049 A 
HETATM    4  N   UNL     1      67.659   5.925   9.416  1.00  0.00    -0.354 N 
HETATM    5  C   UNL     1      68.575   5.620   8.439  1.00  0.00     0.081 A 
HETATM    6  C   UNL     1      66.670   6.675   8.845  1.00  0.00     0.116 A 
HETATM    7  H   UNL     1      67.707   5.652  10.360  1.00  0.00     0.166 HD
ENDROOT
BRANCH   5   8
HETATM    8  C   UNL     1      69.801   4.822   8.729  1.00  0.00     0.076 C 
BRANCH   8   9
HETATM    9  C   UNL     1      69.657   3.906   9.948  1.00  0.00     0.007 C 
BRANCH   9  10
HETATM   10  C   UNL     1      69.435   2.433   9.588  1.00  0.00    -0.004 C 
HETATM   11  C   UNL     1      67.953   2.114   9.457  1.00  0.00     0.005 C 
ENDBRANCH   9  10
ENDBRANCH   8   9
ENDBRANCH   5   8
BRANCH   3  12
HETATM   12  C   UNL     1      66.293   7.470   6.409  1.00  0.00     0.222 C 
BRANCH  12  13
HETATM   13  O   UNL     1      66.302   8.885   6.577  1.00  0.00    -0.395 OA
HETATM   14  H   UNL     1      65.871   9.114   7.415  1.00  0.00     0.209 HD
ENDBRANCH  12  13
ENDBRANCH   3  12
TORSDOF 5
ENDMDL
MODEL 4
REMARK VINA RESULT:      -4.0     12.640     13.676
REMARK  5 active torsions:
REMARK  status: ('A' for Active; 'I' for Inactive)
REMARK    1  A    between atoms: CA_3  and  C_7 
REMARK    2  A    between atoms: C_5  and  C_9 
REMARK    3  A    between atoms: C_7  and  O_8 
REMARK    4  A    between atoms: C_9  and  C_10 
REMARK    5  A    between atoms: C_10  and  C_11 
ROOT
HETATM    1  N   UNL     1      77.226   4.594  17.960  1.00  0.00    -0.346 N 
ATOM      2  HN  UNL     1      78.124   4.649  18.440  1.00  0.00     0.167 HD
HETATM    3  CA  UNL     1      76.487   5.646  17.456  1.00  0.00     0.049 A 
HETATM    4  N   UNL     1      75.388   3.817  17.003  1.00  0.00    -0.354 N 
HETATM    5  C   UNL     1      76.533   3.505  17.694  1.00  0.00     0.081 A 
HETATM    6  C   UNL     1      75.341   5.174  16.855  1.00  0.00     0.116 A 
HETATM    7  H   UNL     1      74.718   3.175  16.673  1.00  0.00     0.166 HD
ENDROOT
BRANCH   5   8
HETATM    8  C   UNL     1      76.885   2.099  18.045  1.00  0.00     0.076 C 
BRANCH   8   9
HETATM    9  C   UNL     1      75.772   1.096  17.729  1.00  0.00     0.007 C 
BRANCH   9  10
HETATM   10  C   UNL     1      75.933   0.405  16.371  1.00  0.00    -0.004 C 
HETATM   11  C   UNL     1      74.685   0.566  15.516  1.00  0.00     0.005 C 
ENDBRANCH   9  10
ENDBRANCH   8   9
ENDBRANCH   5   8
BRANCH   3  12
HETATM   12  C   UNL     1      76.981   7.046  17.575  1.00  0.00     0.222 C 
BRANCH  12  13
HETATM   13  O   UNL     1      77.117   7.660  16.296  1.00  0.00    -0.395 OA
HETATM   14  H   UNL     1      77.699   7.120  15.739  1.00  0.00     0.209 HD
ENDBRANCH  12  13
ENDBRANCH   3  12
TORSDOF 5
ENDMDL
MODEL 5
REMARK VINA RESULT:      -4.0      4.162      6.333
REMARK  5 active torsions:
REMARK  status: ('A' for Active; 'I' for Inactive)
REMARK    1  A    between atoms: CA_3  and  C_7 
REMARK    2  A    between atoms: C_5  and  C_9 
REMARK    3  A    between atoms: C_7  and  O_8 
REMARK    4  A    between atoms: C_9  and  C_10 
REMARK    5  A    between atoms: C_10  and  C_11 
ROOT
HETATM    1  N   UNL     1      67.809   3.033   9.495  1.00  0.00    -0.346 N 
ATOM      2  HN  UNL     1      66.879   3.260   9.144  1.00  0.00     0.167 HD
HETATM    3  CA  UNL     1      68.193   1.878  10.148  1.00  0.00     0.049 A 
HETATM    4  N   UNL     1      69.969   3.132   9.971  1.00  0.00    -0.354 N 
HETATM    5  C   UNL     1      68.891   3.782   9.420  1.00  0.00     0.081 A 
HETATM    6  C   UNL     1      69.536   1.927  10.446  1.00  0.00     0.116 A 
HETATM    7  H   UNL     1      70.890   3.475  10.015  1.00  0.00     0.166 HD
ENDROOT
BRANCH   5   8
HETATM    8  C   UNL     1      69.011   5.142   8.822  1.00  0.00     0.076 C 
BRANCH   8   9
HETATM    9  C   UNL     1      67.844   6.069   9.176  1.00  0.00     0.007 C 
BRANCH   9  10
HETATM   10  C   UNL     1      66.882   6.321   8.011  1.00  0.00    -0.004 C 
HETATM   11  C   UNL     1      67.621   6.352   6.681  1.00  0.00     0.005 C 
ENDBRANCH   9  10
ENDBRANCH   8   9
ENDBRANCH   5   8
BRANCH   3  12
HETATM   12  C   UNL     1      67.210   0.789  10.403  1.00  0.00     0.222 C 
BRANCH  12  13
HETATM   13  O   UNL     1      66.704   0.846  11.734  1.00  0.00    -0.395 OA
HETATM   14  H   UNL     1      67.391   0.556  12.354  1.00  0.00     0.209 HD
ENDBRANCH  12  13
ENDBRANCH   3  12
TORSDOF 5
ENDMDL
MODEL 6
REMARK VINA RESULT:      -4.0      6.549      8.564
REMARK  5 active torsions:
REMARK  status: ('A' for Active; 'I' for Inactive)
REMARK    1  A    between atoms: CA_3  and  C_7 
REMARK    2  A    between atoms: C_5  and  C_9 
REMARK    3  A    between atoms: C_7  and  O_8 
REMARK    4  A    between atoms: C_9  and  C_10 
REMARK    5  A    between atoms: C_10  and  C_11 
ROOT
HETATM    1  N   UNL     1      62.606   9.515   3.516  1.00  0.00    -0.346 N 
ATOM      2  HN  UNL     1      63.021   8.588   3.609  1.00  0.00     0.167 HD
HETATM    3  CA  UNL     1      62.595  10.521   4.463  1.00  0.00     0.049 A 
HETATM    4  N   UNL     1      61.580  11.297   2.695  1.00  0.00    -0.354 N 
HETATM    5  C   UNL     1      61.970   9.999   2.468  1.00  0.00     0.081 A 
HETATM    6  C   UNL     1      61.962  11.636   3.962  1.00  0.00     0.116 A 
HETATM    7  H   UNL     1      61.109  11.880   2.057  1.00  0.00     0.166 HD
ENDROOT
BRANCH   5   8
HETATM    8  C   UNL     1      61.688   9.305   1.179  1.00  0.00     0.076 C 
BRANCH   8   9
HETATM    9  C   UNL     1      62.333   7.919   1.080  1.00  0.00     0.007 C 
BRANCH   9  10
HETATM   10  C   UNL     1      62.593   7.462  -0.359  1.00  0.00    -0.004 C 
HETATM   11  C   UNL     1      61.642   6.347  -0.766  1.00  0.00     0.005 C 
ENDBRANCH   9  10
ENDBRANCH   8   9
ENDBRANCH   5   8
BRANCH   3  12
HETATM   12  C   UNL     1      63.242  10.321   5.789  1.00  0.00     0.222 C 
BRANCH  12  13
HETATM   13  O   UNL     1      64.117  11.400   6.109  1.00  0.00    -0.395 OA
HETATM   14  H   UNL     1      64.530  11.733   5.298  1.00  0.00     0.209 HD
ENDBRANCH  12  13
ENDBRANCH   3  12
TORSDOF 5
ENDMDL
MODEL 7
REMARK VINA RESULT:      -4.0      2.856      5.154
REMARK  5 active torsions:
REMARK  status: ('A' for Active; 'I' for Inactive)
REMARK    1  A    between atoms: CA_3  and  C_7 
REMARK    2  A    between atoms: C_5  and  C_9 
REMARK    3  A    between atoms: C_7  and  O_8 
REMARK    4  A    between atoms: C_9  and  C_10 
REMARK    5  A    between atoms: C_10  and  C_11 
ROOT
HETATM    1  N   UNL     1      67.300   4.525   9.063  1.00  0.00    -0.346 N 
ATOM      2  HN  UNL     1      66.424   4.055   9.289  1.00  0.00     0.167 HD
HETATM    3  CA  UNL     1      68.579   4.047   9.275  1.00  0.00     0.049 A 
HETATM    4  N   UNL     1      68.776   6.001   8.324  1.00  0.00    -0.354 N 
HETATM    5  C   UNL     1      67.446   5.712   8.510  1.00  0.00     0.081 A 
HETATM    6  C   UNL     1      69.506   4.955   8.816  1.00  0.00     0.116 A 
HETATM    7  H   UNL     1      69.139   6.816   7.910  1.00  0.00     0.166 HD
ENDROOT
BRANCH   5   8
HETATM    8  C   UNL     1      66.369   6.659   8.100  1.00  0.00     0.076 C 
BRANCH   8   9
HETATM    9  C   UNL     1      66.115   6.675   6.590  1.00  0.00     0.007 C 
BRANCH   9  10
HETATM   10  C   UNL     1      66.552   7.974   5.906  1.00  0.00    -0.004 C 
HETATM   11  C   UNL     1      67.866   7.793   5.161  1.00  0.00     0.005 C 
ENDBRANCH   9  10
ENDBRANCH   8   9
ENDBRANCH   5   8
BRANCH   3  12
HETATM   12  C   UNL     1      68.796   2.707   9.887  1.00  0.00     0.222 C 
BRANCH  12  13
HETATM   13  O   UNL     1      69.817   2.749  10.880  1.00  0.00    -0.395 OA
HETATM   14  H   UNL     1      70.675   2.908  10.456  1.00  0.00     0.209 HD
ENDBRANCH  12  13
ENDBRANCH   3  12
TORSDOF 5
ENDMDL
MODEL 8
REMARK VINA RESULT:      -3.9     12.511     14.200
REMARK  5 active torsions:
REMARK  status: ('A' for Active; 'I' for Inactive)
REMARK    1  A    between atoms: CA_3  and  C_7 
REMARK    2  A    between atoms: C_5  and  C_9 
REMARK    3  A    between atoms: C_7  and  O_8 
REMARK    4  A    between atoms: C_9  and  C_10 
REMARK    5  A    between atoms: C_10  and  C_11 
ROOT
HETATM    1  N   UNL     1      76.773   3.766  17.780  1.00  0.00    -0.346 N 
ATOM      2  HN  UNL     1      77.676   3.613  18.227  1.00  0.00     0.167 HD
HETATM    3  CA  UNL     1      76.264   4.965  17.320  1.00  0.00     0.049 A 
HETATM    4  N   UNL     1      74.778   3.429  16.879  1.00  0.00    -0.354 N 
HETATM    5  C   UNL     1      75.851   2.860  17.522  1.00  0.00     0.081 A 
HETATM    6  C   UNL     1      75.024   4.768  16.754  1.00  0.00     0.116 A 
HETATM    7  H   UNL     1      73.975   2.957  16.564  1.00  0.00     0.166 HD
ENDROOT
BRANCH   5   8
HETATM    8  C   UNL     1      75.898   1.404  17.838  1.00  0.00     0.076 C 
BRANCH   8   9
HETATM    9  C   UNL     1      77.270   0.771  17.589  1.00  0.00     0.007 C 
BRANCH   9  10
HETATM   10  C   UNL     1      77.929   0.211  18.853  1.00  0.00    -0.004 C 
HETATM   11  C   UNL     1      78.670   1.297  19.619  1.00  0.00     0.005 C 
ENDBRANCH   9  10
ENDBRANCH   8   9
ENDBRANCH   5   8
BRANCH   3  12
HETATM   12  C   UNL     1      77.055   6.221  17.442  1.00  0.00     0.222 C 
BRANCH  12  13
HETATM   13  O   UNL     1      76.926   7.032  16.277  1.00  0.00    -0.395 OA
HETATM   14  H   UNL     1      77.185   6.519  15.495  1.00  0.00     0.209 HD
ENDBRANCH  12  13
ENDBRANCH   3  12
TORSDOF 5
ENDMDL
MODEL 9
REMARK VINA RESULT:      -3.8      3.245      6.321
REMARK  5 active torsions:
REMARK  status: ('A' for Active; 'I' for Inactive)
REMARK    1  A    between atoms: CA_3  and  C_7 
REMARK    2  A    between atoms: C_5  and  C_9 
REMARK    3  A    between atoms: C_7  and  O_8 
REMARK    4  A    between atoms: C_9  and  C_10 
REMARK    5  A    between atoms: C_10  and  C_11 
ROOT
HETATM    1  N   UNL     1      64.510   7.341   6.712  1.00  0.00    -0.346 N 
ATOM      2  HN  UNL     1      63.796   7.038   7.374  1.00  0.00     0.167 HD
HETATM    3  CA  UNL     1      65.875   7.157   6.819  1.00  0.00     0.049 A 
HETATM    4  N   UNL     1      65.515   8.197   4.935  1.00  0.00    -0.354 N 
HETATM    5  C   UNL     1      64.320   7.989   5.580  1.00  0.00     0.081 A 
HETATM    6  C   UNL     1      66.511   7.683   5.717  1.00  0.00     0.116 A 
HETATM    7  H   UNL     1      65.633   8.640   4.064  1.00  0.00     0.166 HD
ENDROOT
BRANCH   5   8
HETATM    8  C   UNL     1      63.024   8.450   5.006  1.00  0.00     0.076 C 
BRANCH   8   9
HETATM    9  C   UNL     1      63.043   8.574   3.480  1.00  0.00     0.007 C 
BRANCH   9  10
HETATM   10  C   UNL     1      62.118   9.669   2.940  1.00  0.00    -0.004 C 
HETATM   11  C   UNL     1      62.012   9.605   1.423  1.00  0.00     0.005 C 
ENDBRANCH   9  10
ENDBRANCH   8   9
ENDBRANCH   5   8
BRANCH   3  12
HETATM   12  C   UNL     1      66.454   6.442   7.990  1.00  0.00     0.222 C 
BRANCH  12  13
HETATM   13  O   UNL     1      67.445   7.232   8.643  1.00  0.00    -0.395 OA
HETATM   14  H   UNL     1      68.318   7.028   8.271  1.00  0.00     0.209 HD
ENDBRANCH  12  13
ENDBRANCH   3  12
TORSDOF 5
ENDMDL
