MODEL 1
REMARK VINA RESULT:      -6.5      0.000      0.000
REMARK  3 active torsions:
REMARK  status: ('A' for Active; 'I' for Inactive)
REMARK    1  A    between atoms: C_3  and  C_7 
REMARK    2  A    between atoms: C_4  and  C_9 
REMARK    3  A    between atoms: C_7  and  C_8 
REMARK       I    between atoms: C_8  and  N_13 
ROOT
HETATM    1  N   UNL     1      64.136   8.214   5.622  1.00  0.00    -0.352 N 
ATOM      2  HN  UNL     1      64.753   9.023   5.686  1.00  0.00     0.166 HD
HETATM    3  C   UNL     1      64.317   7.072   6.259  1.00  0.00     0.060 A 
HETATM    4  C   UNL     1      62.981   8.151   4.851  1.00  0.00     0.049 A 
HETATM    5  S   UNL     1      63.086   5.896   6.028  1.00  0.00    -0.086 SA
HETATM    6  C   UNL     1      62.271   6.973   4.973  1.00  0.00     0.081 A 
ENDROOT
BRANCH   4   7
HETATM    7  C   UNL     1      62.572   9.270   4.005  1.00  0.00    -0.009 A 
HETATM    8  C   UNL     1      62.344  10.551   4.537  1.00  0.00     0.017 A 
HETATM    9  C   UNL     1      61.951  11.605   3.707  1.00  0.00     0.043 A 
HETATM   10  C   UNL     1      61.781  11.382   2.347  1.00  0.00     0.116 A 
HETATM   11  C   UNL     1      61.991  10.123   1.801  1.00  0.00     0.043 A 
HETATM   12  F   UNL     1      61.406  12.394   1.554  1.00  0.00    -0.206 F 
HETATM   13  C   UNL     1      62.382   9.067   2.630  1.00  0.00     0.017 A 
ENDBRANCH   4   7
BRANCH   3  14
HETATM   14  C   UNL     1      65.498   6.771   7.119  1.00  0.00     0.167 C 
BRANCH  14  15
HETATM   15  C   UNL     1      66.644   7.680   6.743  1.00  0.00     0.221 C 
HETATM   16  O   UNL     1      66.582   8.904   6.807  1.00  0.00    -0.273 OA
HETATM   17  N   UNL     1      67.806   7.061   6.377  1.00  0.00    -0.370 N 
HETATM   18  H   UNL     1      67.845   6.078   6.329  1.00  0.00     0.159 HD
HETATM   19  H   UNL     1      68.603   7.596   6.161  1.00  0.00     0.159 HD
ENDBRANCH  14  15
ENDBRANCH   3  14
TORSDOF 3
ENDMDL
MODEL 2
REMARK VINA RESULT:      -5.7      3.837      6.734
REMARK  3 active torsions:
REMARK  status: ('A' for Active; 'I' for Inactive)
REMARK    1  A    between atoms: C_3  and  C_7 
REMARK    2  A    between atoms: C_4  and  C_9 
REMARK    3  A    between atoms: C_7  and  C_8 
REMARK       I    between atoms: C_8  and  N_13 
ROOT
HETATM    1  N   UNL     1      64.696   7.990   5.725  1.00  0.00    -0.352 N 
ATOM      2  HN  UNL     1      65.483   8.616   5.553  1.00  0.00     0.166 HD
HETATM    3  C   UNL     1      63.471   8.175   5.272  1.00  0.00     0.060 A 
HETATM    4  C   UNL     1      64.758   6.818   6.469  1.00  0.00     0.049 A 
HETATM    5  S   UNL     1      62.350   6.929   5.650  1.00  0.00    -0.086 SA
HETATM    6  C   UNL     1      63.579   6.101   6.511  1.00  0.00     0.081 A 
ENDROOT
BRANCH   4   7
HETATM    7  C   UNL     1      65.994   6.400   7.126  1.00  0.00    -0.009 A 
HETATM    8  C   UNL     1      66.996   5.699   6.434  1.00  0.00     0.017 A 
HETATM    9  C   UNL     1      68.169   5.307   7.085  1.00  0.00     0.043 A 
HETATM   10  C   UNL     1      68.343   5.612   8.428  1.00  0.00     0.116 A 
HETATM   11  C   UNL     1      67.363   6.296   9.136  1.00  0.00     0.043 A 
HETATM   12  F   UNL     1      69.469   5.239   9.050  1.00  0.00    -0.206 F 
HETATM   13  C   UNL     1      66.188   6.686   8.486  1.00  0.00     0.017 A 
ENDBRANCH   4   7
BRANCH   3  14
HETATM   14  C   UNL     1      63.036   9.372   4.495  1.00  0.00     0.167 C 
BRANCH  14  15
HETATM   15  C   UNL     1      63.315  10.623   5.293  1.00  0.00     0.221 C 
HETATM   16  O   UNL     1      64.278  10.742   6.044  1.00  0.00    -0.273 OA
HETATM   17  N   UNL     1      62.457  11.668   5.090  1.00  0.00    -0.370 N 
HETATM   18  H   UNL     1      61.687  11.562   4.485  1.00  0.00     0.159 HD
HETATM   19  H   UNL     1      62.608  12.526   5.548  1.00  0.00     0.159 HD
ENDBRANCH  14  15
ENDBRANCH   3  14
TORSDOF 3
ENDMDL
MODEL 3
REMARK VINA RESULT:      -5.6      3.641      6.093
REMARK  3 active torsions:
REMARK  status: ('A' for Active; 'I' for Inactive)
REMARK    1  A    between atoms: C_3  and  C_7 
REMARK    2  A    between atoms: C_4  and  C_9 
REMARK    3  A    between atoms: C_7  and  C_8 
REMARK       I    between atoms: C_8  and  N_13 
ROOT
HETATM    1  N   UNL     1      63.377   8.728   3.812  1.00  0.00    -0.352 N 
ATOM      2  HN  UNL     1      64.196   9.295   3.596  1.00  0.00     0.166 HD
HETATM    3  C   UNL     1      62.217   8.806   3.186  1.00  0.00     0.060 A 
HETATM    4  C   UNL     1      63.318   7.760   4.807  1.00  0.00     0.049 A 
HETATM    5  S   UNL     1      61.024   7.682   3.704  1.00  0.00    -0.086 SA
HETATM    6  C   UNL     1      62.121   7.073   4.871  1.00  0.00     0.081 A 
ENDROOT
BRANCH   4   7
HETATM    7  C   UNL     1      64.457   7.502   5.685  1.00  0.00    -0.009 A 
HETATM    8  C   UNL     1      65.628   8.277   5.619  1.00  0.00     0.017 A 
HETATM    9  C   UNL     1      66.706   8.009   6.468  1.00  0.00     0.043 A 
HETATM   10  C   UNL     1      66.618   6.968   7.382  1.00  0.00     0.116 A 
HETATM   11  C   UNL     1      65.474   6.183   7.459  1.00  0.00     0.043 A 
HETATM   12  F   UNL     1      67.650   6.715   8.197  1.00  0.00    -0.206 F 
HETATM   13  C   UNL     1      64.397   6.448   6.608  1.00  0.00     0.017 A 
ENDBRANCH   4   7
BRANCH   3  14
HETATM   14  C   UNL     1      61.911   9.791   2.109  1.00  0.00     0.167 C 
BRANCH  14  15
HETATM   15  C   UNL     1      61.806  11.176   2.704  1.00  0.00     0.221 C 
HETATM   16  O   UNL     1      61.798  11.390   3.912  1.00  0.00    -0.273 OA
HETATM   17  N   UNL     1      61.783  12.211   1.812  1.00  0.00    -0.370 N 
HETATM   18  H   UNL     1      61.790  12.028   0.845  1.00  0.00     0.159 HD
HETATM   19  H   UNL     1      61.758  13.140   2.137  1.00  0.00     0.159 HD
ENDBRANCH  14  15
ENDBRANCH   3  14
TORSDOF 3
ENDMDL
MODEL 4
REMARK VINA RESULT:      -5.4      4.839      7.738
REMARK  3 active torsions:
REMARK  status: ('A' for Active; 'I' for Inactive)
REMARK    1  A    between atoms: C_3  and  C_7 
REMARK    2  A    between atoms: C_4  and  C_9 
REMARK    3  A    between atoms: C_7  and  C_8 
REMARK       I    between atoms: C_8  and  N_13 
ROOT
HETATM    1  N   UNL     1      66.131   6.408   5.777  1.00  0.00    -0.352 N 
ATOM      2  HN  UNL     1      65.882   6.980   6.583  1.00  0.00     0.166 HD
HETATM    3  C   UNL     1      65.606   6.529   4.572  1.00  0.00     0.060 A 
HETATM    4  C   UNL     1      67.074   5.387   5.786  1.00  0.00     0.049 A 
HETATM    5  S   UNL     1      66.259   5.482   3.375  1.00  0.00    -0.086 SA
HETATM    6  C   UNL     1      67.291   4.793   4.558  1.00  0.00     0.081 A 
ENDROOT
BRANCH   4   7
HETATM    7  C   UNL     1      67.776   5.012   7.011  1.00  0.00    -0.009 A 
HETATM    8  C   UNL     1      67.797   5.854   8.136  1.00  0.00     0.017 A 
HETATM    9  C   UNL     1      68.477   5.473   9.297  1.00  0.00     0.043 A 
HETATM   10  C   UNL     1      69.138   4.253   9.336  1.00  0.00     0.116 A 
HETATM   11  C   UNL     1      69.139   3.408   8.233  1.00  0.00     0.043 A 
HETATM   12  F   UNL     1      69.787   3.889  10.449  1.00  0.00    -0.206 F 
HETATM   13  C   UNL     1      68.462   3.789   7.071  1.00  0.00     0.017 A 
ENDBRANCH   4   7
BRANCH   3  14
HETATM   14  C   UNL     1      64.511   7.481   4.227  1.00  0.00     0.167 C 
BRANCH  14  15
HETATM   15  C   UNL     1      64.331   8.475   5.351  1.00  0.00     0.221 C 
HETATM   16  O   UNL     1      65.194   9.284   5.678  1.00  0.00    -0.273 OA
HETATM   17  N   UNL     1      63.109   8.474   5.962  1.00  0.00    -0.370 N 
HETATM   18  H   UNL     1      62.424   7.821   5.691  1.00  0.00     0.159 HD
HETATM   19  H   UNL     1      62.913   9.126   6.673  1.00  0.00     0.159 HD
ENDBRANCH  14  15
ENDBRANCH   3  14
TORSDOF 3
ENDMDL
MODEL 5
REMARK VINA RESULT:      -5.4      2.400      3.093
REMARK  3 active torsions:
REMARK  status: ('A' for Active; 'I' for Inactive)
REMARK    1  A    between atoms: C_3  and  C_7 
REMARK    2  A    between atoms: C_4  and  C_9 
REMARK    3  A    between atoms: C_7  and  C_8 
REMARK       I    between atoms: C_8  and  N_13 
ROOT
HETATM    1  N   UNL     1      65.431   7.664   6.809  1.00  0.00    -0.352 N 
ATOM      2  HN  UNL     1      64.722   7.988   7.467  1.00  0.00     0.166 HD
HETATM    3  C   UNL     1      66.538   7.029   7.143  1.00  0.00     0.060 A 
HETATM    4  C   UNL     1      65.372   7.828   5.430  1.00  0.00     0.049 A 
HETATM    5  S   UNL     1      67.528   6.533   5.828  1.00  0.00    -0.086 SA
HETATM    6  C   UNL     1      66.417   7.250   4.737  1.00  0.00     0.081 A 
ENDROOT
BRANCH   4   7
HETATM    7  C   UNL     1      64.267   8.544   4.797  1.00  0.00    -0.009 A 
HETATM    8  C   UNL     1      63.668   8.077   3.614  1.00  0.00     0.017 A 
HETATM    9  C   UNL     1      62.613   8.782   3.026  1.00  0.00     0.043 A 
HETATM   10  C   UNL     1      62.157   9.953   3.615  1.00  0.00     0.116 A 
HETATM   11  C   UNL     1      62.739  10.438   4.779  1.00  0.00     0.043 A 
HETATM   12  F   UNL     1      61.145  10.625   3.051  1.00  0.00    -0.206 F 
HETATM   13  C   UNL     1      63.796   9.737   5.367  1.00  0.00     0.017 A 
ENDBRANCH   4   7
BRANCH   3  14
HETATM   14  C   UNL     1      66.953   6.750   8.548  1.00  0.00     0.167 C 
BRANCH  14  15
HETATM   15  C   UNL     1      67.073   5.258   8.754  1.00  0.00     0.221 C 
HETATM   16  O   UNL     1      66.146   4.476   8.568  1.00  0.00    -0.273 OA
HETATM   17  N   UNL     1      68.311   4.799   9.107  1.00  0.00    -0.370 N 
HETATM   18  H   UNL     1      69.048   5.436   9.254  1.00  0.00     0.159 HD
HETATM   19  H   UNL     1      68.467   3.834   9.215  1.00  0.00     0.159 HD
ENDBRANCH  14  15
ENDBRANCH   3  14
TORSDOF 3
ENDMDL
MODEL 6
REMARK VINA RESULT:      -5.4      2.780      3.765
REMARK  3 active torsions:
REMARK  status: ('A' for Active; 'I' for Inactive)
REMARK    1  A    between atoms: C_3  and  C_7 
REMARK    2  A    between atoms: C_4  and  C_9 
REMARK    3  A    between atoms: C_7  and  C_8 
REMARK       I    between atoms: C_8  and  N_13 
ROOT
HETATM    1  N   UNL     1      62.054   7.130   4.971  1.00  0.00    -0.352 N 
ATOM      2  HN  UNL     1      61.114   7.036   4.585  1.00  0.00     0.166 HD
HETATM    3  C   UNL     1      62.621   6.271   5.797  1.00  0.00     0.060 A 
HETATM    4  C   UNL     1      62.924   8.180   4.702  1.00  0.00     0.049 A 
HETATM    5  S   UNL     1      64.242   6.635   6.238  1.00  0.00    -0.086 SA
HETATM    6  C   UNL     1      64.169   8.059   5.287  1.00  0.00     0.081 A 
ENDROOT
BRANCH   4   7
HETATM    7  C   UNL     1      62.525   9.296   3.849  1.00  0.00    -0.009 A 
HETATM    8  C   UNL     1      62.348   9.139   2.464  1.00  0.00     0.017 A 
HETATM    9  C   UNL     1      61.969  10.224   1.667  1.00  0.00     0.043 A 
HETATM   10  C   UNL     1      61.768  11.467   2.252  1.00  0.00     0.116 A 
HETATM   11  C   UNL     1      61.946  11.649   3.617  1.00  0.00     0.043 A 
HETATM   12  F   UNL     1      61.402  12.504   1.488  1.00  0.00    -0.206 F 
HETATM   13  C   UNL     1      62.328  10.566   4.414  1.00  0.00     0.017 A 
ENDBRANCH   4   7
BRANCH   3  14
HETATM   14  C   UNL     1      61.941   5.063   6.348  1.00  0.00     0.167 C 
BRANCH  14  15
HETATM   15  C   UNL     1      60.464   5.340   6.503  1.00  0.00     0.221 C 
HETATM   16  O   UNL     1      59.672   5.314   5.566  1.00  0.00    -0.273 OA
HETATM   17  N   UNL     1      60.027   5.567   7.778  1.00  0.00    -0.370 N 
HETATM   18  H   UNL     1      60.671   5.586   8.523  1.00  0.00     0.159 HD
HETATM   19  H   UNL     1      59.070   5.712   7.952  1.00  0.00     0.159 HD
ENDBRANCH  14  15
ENDBRANCH   3  14
TORSDOF 3
ENDMDL
MODEL 7
REMARK VINA RESULT:      -5.3      2.426      2.897
REMARK  3 active torsions:
REMARK  status: ('A' for Active; 'I' for Inactive)
REMARK    1  A    between atoms: C_3  and  C_7 
REMARK    2  A    between atoms: C_4  and  C_9 
REMARK    3  A    between atoms: C_7  and  C_8 
REMARK       I    between atoms: C_8  and  N_13 
ROOT
HETATM    1  N   UNL     1      65.128   7.457   6.838  1.00  0.00    -0.352 N 
ATOM      2  HN  UNL     1      64.265   7.558   7.373  1.00  0.00     0.166 HD
HETATM    3  C   UNL     1      66.250   6.941   7.303  1.00  0.00     0.060 A 
HETATM    4  C   UNL     1      65.293   7.843   5.513  1.00  0.00     0.049 A 
HETATM    5  S   UNL     1      67.534   6.825   6.166  1.00  0.00    -0.086 SA
HETATM    6  C   UNL     1      66.532   7.549   4.979  1.00  0.00     0.081 A 
ENDROOT
BRANCH   4   7
HETATM    7  C   UNL     1      64.214   8.489   4.770  1.00  0.00    -0.009 A 
HETATM    8  C   UNL     1      63.609   9.672   5.228  1.00  0.00     0.017 A 
HETATM    9  C   UNL     1      62.577  10.271   4.500  1.00  0.00     0.043 A 
HETATM   10  C   UNL     1      62.145   9.690   3.316  1.00  0.00     0.116 A 
HETATM   11  C   UNL     1      62.722   8.516   2.847  1.00  0.00     0.043 A 
HETATM   12  F   UNL     1      61.158  10.266   2.618  1.00  0.00    -0.206 F 
HETATM   13  C   UNL     1      63.752   7.915   3.576  1.00  0.00     0.017 A 
ENDBRANCH   4   7
BRANCH   3  14
HETATM   14  C   UNL     1      66.444   6.489   8.711  1.00  0.00     0.167 C 
BRANCH  14  15
HETATM   15  C   UNL     1      67.007   5.087   8.721  1.00  0.00     0.221 C 
HETATM   16  O   UNL     1      68.123   4.813   9.150  1.00  0.00    -0.273 OA
HETATM   17  N   UNL     1      66.171   4.102   8.275  1.00  0.00    -0.370 N 
HETATM   18  H   UNL     1      65.277   4.333   7.933  1.00  0.00     0.159 HD
HETATM   19  H   UNL     1      66.462   3.163   8.295  1.00  0.00     0.159 HD
ENDBRANCH  14  15
ENDBRANCH   3  14
TORSDOF 3
ENDMDL
MODEL 8
REMARK VINA RESULT:      -5.1      9.056     10.841
REMARK  3 active torsions:
REMARK  status: ('A' for Active; 'I' for Inactive)
REMARK    1  A    between atoms: C_3  and  C_7 
REMARK    2  A    between atoms: C_4  and  C_9 
REMARK    3  A    between atoms: C_7  and  C_8 
REMARK       I    between atoms: C_8  and  N_13 
ROOT
HETATM    1  N   UNL     1      66.654   1.017  11.146  1.00  0.00    -0.352 N 
ATOM      2  HN  UNL     1      66.412   1.837  11.702  1.00  0.00     0.166 HD
HETATM    3  C   UNL     1      66.185  -0.200  11.351  1.00  0.00     0.060 A 
HETATM    4  C   UNL     1      67.524   1.017  10.062  1.00  0.00     0.049 A 
HETATM    5  S   UNL     1      66.702  -1.387  10.221  1.00  0.00    -0.086 SA
HETATM    6  C   UNL     1      67.647  -0.201   9.423  1.00  0.00     0.081 A 
ENDROOT
BRANCH   4   7
HETATM    7  C   UNL     1      68.221   2.232   9.648  1.00  0.00    -0.009 A 
HETATM    8  C   UNL     1      69.449   2.608  10.219  1.00  0.00     0.017 A 
HETATM    9  C   UNL     1      70.097   3.777   9.808  1.00  0.00     0.043 A 
HETATM   10  C   UNL     1      69.518   4.574   8.829  1.00  0.00     0.116 A 
HETATM   11  C   UNL     1      68.301   4.228   8.257  1.00  0.00     0.043 A 
HETATM   12  F   UNL     1      70.141   5.692   8.434  1.00  0.00    -0.206 F 
HETATM   13  C   UNL     1      67.651   3.061   8.669  1.00  0.00     0.017 A 
ENDBRANCH   4   7
BRANCH   3  14
HETATM   14  C   UNL     1      65.281  -0.571  12.477  1.00  0.00     0.167 C 
BRANCH  14  15
HETATM   15  C   UNL     1      66.034  -0.481  13.783  1.00  0.00     0.221 C 
HETATM   16  O   UNL     1      66.798   0.439  14.057  1.00  0.00    -0.273 OA
HETATM   17  N   UNL     1      65.773  -1.464  14.695  1.00  0.00    -0.370 N 
HETATM   18  H   UNL     1      65.158  -2.198  14.465  1.00  0.00     0.159 HD
HETATM   19  H   UNL     1      66.199  -1.440  15.582  1.00  0.00     0.159 HD
ENDBRANCH  14  15
ENDBRANCH   3  14
TORSDOF 3
ENDMDL
MODEL 9
REMARK VINA RESULT:      -5.0      5.059      8.138
REMARK  3 active torsions:
REMARK  status: ('A' for Active; 'I' for Inactive)
REMARK    1  A    between atoms: C_3  and  C_7 
REMARK    2  A    between atoms: C_4  and  C_9 
REMARK    3  A    between atoms: C_7  and  C_8 
REMARK       I    between atoms: C_8  and  N_13 
ROOT
HETATM    1  N   UNL     1      65.845   6.059   6.682  1.00  0.00    -0.352 N 
ATOM      2  HN  UNL     1      65.422   5.996   7.608  1.00  0.00     0.166 HD
HETATM    3  C   UNL     1      65.305   6.669   5.644  1.00  0.00     0.060 A 
HETATM    4  C   UNL     1      67.074   5.514   6.330  1.00  0.00     0.049 A 
HETATM    5  S   UNL     1      66.266   6.686   4.218  1.00  0.00    -0.086 SA
HETATM    6  C   UNL     1      67.472   5.783   5.034  1.00  0.00     0.081 A 
ENDROOT
BRANCH   4   7
HETATM    7  C   UNL     1      67.865   4.741   7.284  1.00  0.00    -0.009 A 
HETATM    8  C   UNL     1      68.249   3.415   7.020  1.00  0.00     0.017 A 
HETATM    9  C   UNL     1      69.004   2.695   7.951  1.00  0.00     0.043 A 
HETATM   10  C   UNL     1      69.374   3.296   9.147  1.00  0.00     0.116 A 
HETATM   11  C   UNL     1      68.998   4.602   9.434  1.00  0.00     0.043 A 
HETATM   12  F   UNL     1      70.099   2.605  10.036  1.00  0.00    -0.206 F 
HETATM   13  C   UNL     1      68.241   5.322   8.505  1.00  0.00     0.017 A 
ENDBRANCH   4   7
BRANCH   3  14
HETATM   14  C   UNL     1      63.955   7.302   5.653  1.00  0.00     0.167 C 
BRANCH  14  15
HETATM   15  C   UNL     1      64.056   8.721   5.146  1.00  0.00     0.221 C 
HETATM   16  O   UNL     1      64.761   9.576   5.674  1.00  0.00    -0.273 OA
HETATM   17  N   UNL     1      63.357   9.002   4.006  1.00  0.00    -0.370 N 
HETATM   18  H   UNL     1      62.795   8.309   3.590  1.00  0.00     0.159 HD
HETATM   19  H   UNL     1      63.415   9.897   3.600  1.00  0.00     0.159 HD
ENDBRANCH  14  15
ENDBRANCH   3  14
TORSDOF 3
ENDMDL
