MODEL 1
REMARK VINA RESULT:      -6.1      0.000      0.000
REMARK  2 active torsions:
REMARK  status: ('A' for Active; 'I' for Inactive)
REMARK    1  A    between atoms: C_5  and  C_7 
REMARK    2  A    between atoms: C_7  and  C_8 
ROOT
HETATM    1  C   UNL     1      80.770  12.285  24.321  1.00  0.00     0.361 C 
HETATM    2  N   UNL     1      79.493  12.344  23.830  1.00  0.00    -0.330 N 
HETATM    3  O   UNL     1      81.665  12.553  23.326  1.00  0.00    -0.302 OA
HETATM    4  O   UNL     1      81.063  11.999  25.467  1.00  0.00    -0.239 OA
HETATM    5  C   UNL     1      79.526  12.384  22.401  1.00  0.00     0.115 C 
HETATM    6  C   UNL     1      80.923  12.918  22.151  1.00  0.00     0.206 C 
HETATM    7  H   UNL     1      78.676  12.358  24.380  1.00  0.00     0.165 HD
ENDROOT
BRANCH   5   8
HETATM    8  C   UNL     1      78.395  13.223  21.806  1.00  0.00     0.066 C 
BRANCH   8   9
HETATM    9  C   UNL     1      77.815  12.642  20.541  1.00  0.00    -0.056 A 
HETATM   10  C   UNL     1      76.924  13.384  19.755  1.00  0.00     0.007 A 
HETATM   11  C   UNL     1      76.375  12.831  18.596  1.00  0.00     0.001 A 
HETATM   12  C   UNL     1      76.706  11.531  18.216  1.00  0.00     0.000 A 
HETATM   13  C   UNL     1      77.596  10.787  18.987  1.00  0.00     0.001 A 
HETATM   14  C   UNL     1      78.151  11.340  20.143  1.00  0.00     0.007 A 
ENDBRANCH   8   9
ENDBRANCH   5   8
TORSDOF 2
ENDMDL
MODEL 2
REMARK VINA RESULT:      -5.8      3.642      5.082
REMARK  2 active torsions:
REMARK  status: ('A' for Active; 'I' for Inactive)
REMARK    1  A    between atoms: C_5  and  C_7 
REMARK    2  A    between atoms: C_7  and  C_8 
ROOT
HETATM    1  C   UNL     1      79.004  11.563  20.393  1.00  0.00     0.361 C 
HETATM    2  N   UNL     1      78.947  10.366  19.732  1.00  0.00    -0.330 N 
HETATM    3  O   UNL     1      77.952  12.350  20.026  1.00  0.00    -0.302 OA
HETATM    4  O   UNL     1      79.886  11.891  21.166  1.00  0.00    -0.239 OA
HETATM    5  C   UNL     1      77.982  10.441  18.680  1.00  0.00     0.115 C 
HETATM    6  C   UNL     1      77.101  11.577  19.165  1.00  0.00     0.206 C 
HETATM    7  H   UNL     1      79.488   9.573  19.950  1.00  0.00     0.165 HD
ENDROOT
BRANCH   5   8
HETATM    8  C   UNL     1      77.258   9.115  18.444  1.00  0.00     0.066 C 
BRANCH   8   9
HETATM    9  C   UNL     1      77.278   8.665  17.004  1.00  0.00    -0.056 A 
HETATM   10  C   UNL     1      77.663   9.546  15.986  1.00  0.00     0.007 A 
HETATM   11  C   UNL     1      77.658   9.128  14.652  1.00  0.00     0.001 A 
HETATM   12  C   UNL     1      77.264   7.832  14.327  1.00  0.00     0.000 A 
HETATM   13  C   UNL     1      76.886   6.947  15.333  1.00  0.00     0.001 A 
HETATM   14  C   UNL     1      76.896   7.359  16.667  1.00  0.00     0.007 A 
ENDBRANCH   8   9
ENDBRANCH   5   8
TORSDOF 2
ENDMDL
MODEL 3
REMARK VINA RESULT:      -5.7     15.252     16.174
REMARK  2 active torsions:
REMARK  status: ('A' for Active; 'I' for Inactive)
REMARK    1  A    between atoms: C_5  and  C_7 
REMARK    2  A    between atoms: C_7  and  C_8 
ROOT
HETATM    1  C   UNL     1      72.826  20.933  10.292  1.00  0.00     0.361 C 
HETATM    2  N   UNL     1      72.392  21.942  11.109  1.00  0.00    -0.330 N 
HETATM    3  O   UNL     1      72.094  19.804  10.517  1.00  0.00    -0.302 OA
HETATM    4  O   UNL     1      73.752  21.021   9.508  1.00  0.00    -0.239 OA
HETATM    5  C   UNL     1      71.522  21.412  12.113  1.00  0.00     0.115 C 
HETATM    6  C   UNL     1      71.052  20.130  11.451  1.00  0.00     0.206 C 
HETATM    7  H   UNL     1      72.641  22.890  11.017  1.00  0.00     0.165 HD
ENDROOT
BRANCH   5   8
HETATM    8  C   UNL     1      70.409  22.384  12.506  1.00  0.00     0.066 C 
BRANCH   8   9
HETATM    9  C   UNL     1      70.858  23.456  13.468  1.00  0.00    -0.056 A 
HETATM   10  C   UNL     1      69.939  24.083  14.319  1.00  0.00     0.007 A 
HETATM   11  C   UNL     1      70.359  25.089  15.193  1.00  0.00     0.001 A 
HETATM   12  C   UNL     1      71.697  25.480  15.218  1.00  0.00     0.000 A 
HETATM   13  C   UNL     1      72.619  24.857  14.381  1.00  0.00     0.001 A 
HETATM   14  C   UNL     1      72.203  23.847  13.512  1.00  0.00     0.007 A 
ENDBRANCH   8   9
ENDBRANCH   5   8
TORSDOF 2
ENDMDL
MODEL 4
REMARK VINA RESULT:      -5.6      4.239      5.791
REMARK  2 active torsions:
REMARK  status: ('A' for Active; 'I' for Inactive)
REMARK    1  A    between atoms: C_5  and  C_7 
REMARK    2  A    between atoms: C_7  and  C_8 
ROOT
HETATM    1  C   UNL     1      76.980  12.611  19.449  1.00  0.00     0.361 C 
HETATM    2  N   UNL     1      76.669  11.945  18.294  1.00  0.00    -0.330 N 
HETATM    3  O   UNL     1      77.896  11.898  20.166  1.00  0.00    -0.302 OA
HETATM    4  O   UNL     1      76.485  13.665  19.800  1.00  0.00    -0.239 OA
HETATM    5  C   UNL     1      77.179  10.610  18.352  1.00  0.00     0.115 C 
HETATM    6  C   UNL     1      78.287  10.761  19.379  1.00  0.00     0.206 C 
HETATM    7  H   UNL     1      76.170  12.329  17.537  1.00  0.00     0.165 HD
ENDROOT
BRANCH   5   8
HETATM    8  C   UNL     1      77.627  10.087  16.987  1.00  0.00     0.066 C 
BRANCH   8   9
HETATM    9  C   UNL     1      77.288   8.635  16.758  1.00  0.00    -0.056 A 
HETATM   10  C   UNL     1      77.254   8.105  15.462  1.00  0.00     0.007 A 
HETATM   11  C   UNL     1      76.917   6.765  15.257  1.00  0.00     0.001 A 
HETATM   12  C   UNL     1      76.608   5.947  16.342  1.00  0.00     0.000 A 
HETATM   13  C   UNL     1      76.647   6.462  17.635  1.00  0.00     0.001 A 
HETATM   14  C   UNL     1      76.988   7.800  17.843  1.00  0.00     0.007 A 
ENDBRANCH   8   9
ENDBRANCH   5   8
TORSDOF 2
ENDMDL
MODEL 5
REMARK VINA RESULT:      -5.6      3.194      5.360
REMARK  2 active torsions:
REMARK  status: ('A' for Active; 'I' for Inactive)
REMARK    1  A    between atoms: C_5  and  C_7 
REMARK    2  A    between atoms: C_7  and  C_8 
ROOT
HETATM    1  C   UNL     1      78.444  10.240  18.740  1.00  0.00     0.361 C 
HETATM    2  N   UNL     1      78.784  10.911  19.883  1.00  0.00    -0.330 N 
HETATM    3  O   UNL     1      77.306  10.773  18.207  1.00  0.00    -0.302 OA
HETATM    4  O   UNL     1      79.047   9.285  18.287  1.00  0.00    -0.239 OA
HETATM    5  C   UNL     1      77.700  11.749  20.294  1.00  0.00     0.115 C 
HETATM    6  C   UNL     1      76.952  11.927  18.986  1.00  0.00     0.206 C 
HETATM    7  H   UNL     1      79.647  10.830  20.351  1.00  0.00     0.165 HD
ENDROOT
BRANCH   5   8
HETATM    8  C   UNL     1      78.170  13.045  20.954  1.00  0.00     0.066 C 
BRANCH   8   9
HETATM    9  C   UNL     1      79.190  12.830  22.045  1.00  0.00    -0.056 A 
HETATM   10  C   UNL     1      78.821  12.249  23.264  1.00  0.00     0.007 A 
HETATM   11  C   UNL     1      79.766  12.073  24.277  1.00  0.00     0.001 A 
HETATM   12  C   UNL     1      81.085  12.479  24.082  1.00  0.00     0.000 A 
HETATM   13  C   UNL     1      81.464  13.051  22.870  1.00  0.00     0.001 A 
HETATM   14  C   UNL     1      80.522  13.223  21.854  1.00  0.00     0.007 A 
ENDBRANCH   8   9
ENDBRANCH   5   8
TORSDOF 2
ENDMDL
MODEL 6
REMARK VINA RESULT:      -5.4      2.790      5.854
REMARK  2 active torsions:
REMARK  status: ('A' for Active; 'I' for Inactive)
REMARK    1  A    between atoms: C_5  and  C_7 
REMARK    2  A    between atoms: C_7  and  C_8 
ROOT
HETATM    1  C   UNL     1      78.486  11.323  19.790  1.00  0.00     0.361 C 
HETATM    2  N   UNL     1      79.527  11.330  20.678  1.00  0.00    -0.330 N 
HETATM    3  O   UNL     1      77.645  12.366  20.049  1.00  0.00    -0.302 OA
HETATM    4  O   UNL     1      78.316  10.489  18.921  1.00  0.00    -0.239 OA
HETATM    5  C   UNL     1      79.247  12.239  21.745  1.00  0.00     0.115 C 
HETATM    6  C   UNL     1      78.234  13.160  21.092  1.00  0.00     0.206 C 
HETATM    7  H   UNL     1      80.346  10.789  20.593  1.00  0.00     0.165 HD
ENDROOT
BRANCH   5   8
HETATM    8  C   UNL     1      80.502  12.931  22.279  1.00  0.00     0.066 C 
BRANCH   8   9
HETATM    9  C   UNL     1      80.574  12.969  23.785  1.00  0.00    -0.056 A 
HETATM   10  C   UNL     1      79.905  12.012  24.558  1.00  0.00     0.007 A 
HETATM   11  C   UNL     1      79.959  12.067  25.952  1.00  0.00     0.001 A 
HETATM   12  C   UNL     1      80.678  13.079  26.585  1.00  0.00     0.000 A 
HETATM   13  C   UNL     1      81.353  14.031  25.826  1.00  0.00     0.001 A 
HETATM   14  C   UNL     1      81.305  13.975  24.432  1.00  0.00     0.007 A 
ENDBRANCH   8   9
ENDBRANCH   5   8
TORSDOF 2
ENDMDL
MODEL 7
REMARK VINA RESULT:      -5.3     18.335     19.473
REMARK  2 active torsions:
REMARK  status: ('A' for Active; 'I' for Inactive)
REMARK    1  A    between atoms: C_5  and  C_7 
REMARK    2  A    between atoms: C_7  and  C_8 
ROOT
HETATM    1  C   UNL     1      66.380   7.823   6.814  1.00  0.00     0.361 C 
HETATM    2  N   UNL     1      67.636   7.297   6.944  1.00  0.00    -0.330 N 
HETATM    3  O   UNL     1      65.481   7.060   7.502  1.00  0.00    -0.302 OA
HETATM    4  O   UNL     1      66.100   8.805   6.152  1.00  0.00    -0.239 OA
HETATM    5  C   UNL     1      67.556   5.986   7.510  1.00  0.00     0.115 C 
HETATM    6  C   UNL     1      66.213   6.048   8.212  1.00  0.00     0.206 C 
HETATM    7  H   UNL     1      68.470   7.754   6.688  1.00  0.00     0.165 HD
ENDROOT
BRANCH   5   8
HETATM    8  C   UNL     1      68.745   5.657   8.413  1.00  0.00     0.066 C 
BRANCH   8   9
HETATM    9  C   UNL     1      68.954   4.177   8.617  1.00  0.00    -0.056 A 
HETATM   10  C   UNL     1      68.742   3.273   7.569  1.00  0.00     0.007 A 
HETATM   11  C   UNL     1      68.917   1.902   7.772  1.00  0.00     0.001 A 
HETATM   12  C   UNL     1      69.300   1.424   9.024  1.00  0.00     0.000 A 
HETATM   13  C   UNL     1      69.521   2.315  10.071  1.00  0.00     0.001 A 
HETATM   14  C   UNL     1      69.352   3.686   9.869  1.00  0.00     0.007 A 
ENDBRANCH   8   9
ENDBRANCH   5   8
TORSDOF 2
ENDMDL
MODEL 8
REMARK VINA RESULT:      -5.0     18.071     18.880
REMARK  2 active torsions:
REMARK  status: ('A' for Active; 'I' for Inactive)
REMARK    1  A    between atoms: C_5  and  C_7 
REMARK    2  A    between atoms: C_7  and  C_8 
ROOT
HETATM    1  C   UNL     1      67.697   1.325  10.476  1.00  0.00     0.361 C 
HETATM    2  N   UNL     1      67.750   2.507   9.788  1.00  0.00    -0.330 N 
HETATM    3  O   UNL     1      68.929   0.739  10.493  1.00  0.00    -0.302 OA
HETATM    4  O   UNL     1      66.690   0.850  10.967  1.00  0.00    -0.239 OA
HETATM    5  C   UNL     1      68.990   2.599   9.080  1.00  0.00     0.115 C 
HETATM    6  C   UNL     1      69.859   1.647   9.880  1.00  0.00     0.206 C 
HETATM    7  H   UNL     1      67.041   3.190   9.781  1.00  0.00     0.165 HD
ENDROOT
BRANCH   5   8
HETATM    8  C   UNL     1      69.514   4.033   8.989  1.00  0.00     0.066 C 
BRANCH   8   9
HETATM    9  C   UNL     1      68.506   5.008   8.432  1.00  0.00    -0.056 A 
HETATM   10  C   UNL     1      68.131   4.956   7.084  1.00  0.00     0.007 A 
HETATM   11  C   UNL     1      67.213   5.876   6.571  1.00  0.00     0.001 A 
HETATM   12  C   UNL     1      66.668   6.856   7.398  1.00  0.00     0.000 A 
HETATM   13  C   UNL     1      67.030   6.911   8.742  1.00  0.00     0.001 A 
HETATM   14  C   UNL     1      67.942   5.989   9.258  1.00  0.00     0.007 A 
ENDBRANCH   8   9
ENDBRANCH   5   8
TORSDOF 2
ENDMDL
MODEL 9
REMARK VINA RESULT:      -4.9     21.817     23.607
REMARK  2 active torsions:
REMARK  status: ('A' for Active; 'I' for Inactive)
REMARK    1  A    between atoms: C_5  and  C_7 
REMARK    2  A    between atoms: C_7  and  C_8 
ROOT
HETATM    1  C   UNL     1      66.072   6.923   4.763  1.00  0.00     0.361 C 
HETATM    2  N   UNL     1      65.031   7.609   4.197  1.00  0.00    -0.330 N 
HETATM    3  O   UNL     1      65.776   6.612   6.058  1.00  0.00    -0.302 OA
HETATM    4  O   UNL     1      67.121   6.662   4.203  1.00  0.00    -0.239 OA
HETATM    5  C   UNL     1      64.111   8.017   5.213  1.00  0.00     0.115 C 
HETATM    6  C   UNL     1      64.422   7.019   6.312  1.00  0.00     0.206 C 
HETATM    7  H   UNL     1      64.932   7.792   3.234  1.00  0.00     0.165 HD
ENDROOT
BRANCH   5   8
HETATM    8  C   UNL     1      62.660   8.020   4.731  1.00  0.00     0.066 C 
BRANCH   8   9
HETATM    9  C   UNL     1      62.348   9.139   3.769  1.00  0.00    -0.056 A 
HETATM   10  C   UNL     1      62.241   8.892   2.394  1.00  0.00     0.007 A 
HETATM   11  C   UNL     1      61.972   9.938   1.508  1.00  0.00     0.001 A 
HETATM   12  C   UNL     1      61.814  11.237   1.986  1.00  0.00     0.000 A 
HETATM   13  C   UNL     1      61.911  11.492   3.351  1.00  0.00     0.001 A 
HETATM   14  C   UNL     1      62.174  10.448   4.240  1.00  0.00     0.007 A 
ENDBRANCH   8   9
ENDBRANCH   5   8
TORSDOF 2
ENDMDL
