MODEL 1
REMARK VINA RESULT:      -4.5      0.000      0.000
REMARK  1 active torsions:
REMARK  status: ('A' for Active; 'I' for Inactive)
REMARK    1  A    between atoms: C_1  and  C_4 
ROOT
HETATM    1  C   UNL     1      76.720   3.277  17.885  1.00  0.00     0.087 A 
HETATM    2  N   UNL     1      77.300   4.515  18.153  1.00  0.00    -0.343 N 
ATOM      3  HN  UNL     1      78.163   4.687  18.669  1.00  0.00     0.167 HD
HETATM    4  C   UNL     1      75.560   3.471  17.161  1.00  0.00     0.122 A 
HETATM    5  C   UNL     1      76.514   5.419  17.607  1.00  0.00     0.077 A 
HETATM    6  N   UNL     1      75.443   4.822  16.993  1.00  0.00    -0.354 N 
HETATM    7  C   UNL     1      76.695   6.889  17.615  1.00  0.00     0.089 C 
HETATM    8  H   UNL     1      74.718   5.285  16.515  1.00  0.00     0.166 HD
ENDROOT
BRANCH   1   9
HETATM    9  C   UNL     1      77.332   2.039  18.348  1.00  0.00     0.122 C 
HETATM   10  S   UNL     1      77.117   0.597  17.556  1.00  0.00    -0.059 SA
HETATM   11  N   UNL     1      78.092   2.140  19.477  1.00  0.00    -0.388 N 
HETATM   12  H   UNL     1      78.199   3.012  19.923  1.00  0.00     0.157 HD
HETATM   13  H   UNL     1      78.535   1.341  19.844  1.00  0.00     0.157 HD
ENDBRANCH   1   9
TORSDOF 1
ENDMDL
MODEL 2
REMARK VINA RESULT:      -4.3     20.362     21.519
REMARK  1 active torsions:
REMARK  status: ('A' for Active; 'I' for Inactive)
REMARK    1  A    between atoms: C_1  and  C_4 
ROOT
HETATM    1  C   UNL     1      72.149  24.216  14.602  1.00  0.00     0.087 A 
HETATM    2  N   UNL     1      70.858  23.701  14.504  1.00  0.00    -0.343 N 
ATOM      3  HN  UNL     1      70.597  22.751  14.241  1.00  0.00     0.167 HD
HETATM    4  C   UNL     1      72.076  25.542  14.985  1.00  0.00     0.122 A 
HETATM    5  C   UNL     1      70.041  24.685  14.819  1.00  0.00     0.077 A 
HETATM    6  N   UNL     1      70.746  25.822  15.119  1.00  0.00    -0.354 N 
HETATM    7  C   UNL     1      68.561  24.644  14.865  1.00  0.00     0.089 C 
HETATM    8  H   UNL     1      70.361  26.689  15.384  1.00  0.00     0.166 HD
ENDROOT
BRANCH   1   9
HETATM    9  C   UNL     1      73.315  23.392  14.318  1.00  0.00     0.122 C 
HETATM   10  S   UNL     1      74.068  22.493  15.492  1.00  0.00    -0.059 SA
HETATM   11  N   UNL     1      73.751  23.407  13.025  1.00  0.00    -0.388 N 
HETATM   12  H   UNL     1      73.280  23.952  12.353  1.00  0.00     0.157 HD
HETATM   13  H   UNL     1      74.535  22.872  12.764  1.00  0.00     0.157 HD
ENDBRANCH   1   9
TORSDOF 1
ENDMDL
MODEL 3
REMARK VINA RESULT:      -4.3      6.003      7.258
REMARK  1 active torsions:
REMARK  status: ('A' for Active; 'I' for Inactive)
REMARK    1  A    between atoms: C_1  and  C_4 
ROOT
HETATM    1  C   UNL     1      78.028  10.036  18.469  1.00  0.00     0.087 A 
HETATM    2  N   UNL     1      77.189  11.029  18.969  1.00  0.00    -0.343 N 
ATOM      3  HN  UNL     1      76.244  11.248  18.651  1.00  0.00     0.167 HD
HETATM    4  C   UNL     1      79.221  10.062  19.167  1.00  0.00     0.122 A 
HETATM    5  C   UNL     1      77.856  11.628  19.933  1.00  0.00     0.077 A 
HETATM    6  N   UNL     1      79.097  11.067  20.084  1.00  0.00    -0.354 N 
HETATM    7  C   UNL     1      77.396  12.754  20.778  1.00  0.00     0.089 C 
HETATM    8  H   UNL     1      79.780  11.339  20.739  1.00  0.00     0.166 HD
ENDROOT
BRANCH   1   9
HETATM    9  C   UNL     1      77.607   9.168  17.378  1.00  0.00     0.122 C 
HETATM   10  S   UNL     1      76.937   7.674  17.646  1.00  0.00    -0.059 SA
HETATM   11  N   UNL     1      77.800   9.661  16.121  1.00  0.00    -0.388 N 
HETATM   12  H   UNL     1      78.201  10.552  15.997  1.00  0.00     0.157 HD
HETATM   13  H   UNL     1      77.537   9.126  15.337  1.00  0.00     0.157 HD
ENDBRANCH   1   9
TORSDOF 1
ENDMDL
MODEL 4
REMARK VINA RESULT:      -4.2      6.959      8.229
REMARK  1 active torsions:
REMARK  status: ('A' for Active; 'I' for Inactive)
REMARK    1  A    between atoms: C_1  and  C_4 
ROOT
HETATM    1  C   UNL     1      78.050  11.054  19.567  1.00  0.00     0.087 A 
HETATM    2  N   UNL     1      77.227  10.562  18.556  1.00  0.00    -0.343 N 
ATOM      3  HN  UNL     1      76.257  10.820  18.378  1.00  0.00     0.167 HD
HETATM    4  C   UNL     1      79.291  10.455  19.468  1.00  0.00     0.122 A 
HETATM    5  C   UNL     1      77.952   9.698  17.875  1.00  0.00     0.077 A 
HETATM    6  N   UNL     1      79.215   9.606  18.400  1.00  0.00    -0.354 N 
HETATM    7  C   UNL     1      77.531   8.902  16.699  1.00  0.00     0.089 C 
HETATM    8  H   UNL     1      79.940   9.030  18.066  1.00  0.00     0.166 HD
ENDROOT
BRANCH   1   9
HETATM    9  C   UNL     1      77.567  12.042  20.521  1.00  0.00     0.122 C 
HETATM   10  S   UNL     1      76.944  13.503  20.041  1.00  0.00    -0.059 SA
HETATM   11  N   UNL     1      77.660  11.690  21.836  1.00  0.00    -0.388 N 
HETATM   12  H   UNL     1      78.036  10.814  22.086  1.00  0.00     0.157 HD
HETATM   13  H   UNL     1      77.352  12.311  22.535  1.00  0.00     0.157 HD
ENDBRANCH   1   9
TORSDOF 1
ENDMDL
MODEL 5
REMARK VINA RESULT:      -4.2     19.250     19.997
REMARK  1 active torsions:
REMARK  status: ('A' for Active; 'I' for Inactive)
REMARK    1  A    between atoms: C_1  and  C_4 
ROOT
HETATM    1  C   UNL     1      71.615  21.748  11.740  1.00  0.00     0.087 A 
HETATM    2  N   UNL     1      72.704  22.508  12.161  1.00  0.00    -0.343 N 
ATOM      3  HN  UNL     1      73.664  22.439  11.825  1.00  0.00     0.167 HD
HETATM    4  C   UNL     1      70.491  22.148  12.437  1.00  0.00     0.122 A 
HETATM    5  C   UNL     1      72.247  23.335  13.078  1.00  0.00     0.077 A 
HETATM    6  N   UNL     1      70.903  23.147  13.274  1.00  0.00    -0.354 N 
HETATM    7  C   UNL     1      73.015  24.352  13.834  1.00  0.00     0.089 C 
HETATM    8  H   UNL     1      70.334  23.643  13.906  1.00  0.00     0.166 HD
ENDROOT
BRANCH   1   9
HETATM    9  C   UNL     1      71.760  20.721  10.719  1.00  0.00     0.122 C 
HETATM   10  S   UNL     1      70.810  19.360  10.693  1.00  0.00    -0.059 SA
HETATM   11  N   UNL     1      72.728  20.946   9.784  1.00  0.00    -0.388 N 
HETATM   12  H   UNL     1      73.274  21.765   9.829  1.00  0.00     0.157 HD
HETATM   13  H   UNL     1      72.879  20.292   9.065  1.00  0.00     0.157 HD
ENDBRANCH   1   9
TORSDOF 1
ENDMDL
MODEL 6
REMARK VINA RESULT:      -4.1     19.239     20.074
REMARK  1 active torsions:
REMARK  status: ('A' for Active; 'I' for Inactive)
REMARK    1  A    between atoms: C_1  and  C_4 
ROOT
HETATM    1  C   UNL     1      72.075  22.787  14.006  1.00  0.00     0.087 A 
HETATM    2  N   UNL     1      72.333  21.751  13.111  1.00  0.00    -0.343 N 
ATOM      3  HN  UNL     1      73.182  21.188  13.057  1.00  0.00     0.167 HD
HETATM    4  C   UNL     1      70.815  23.295  13.754  1.00  0.00     0.122 A 
HETATM    5  C   UNL     1      71.265  21.643  12.350  1.00  0.00     0.077 A 
HETATM    6  N   UNL     1      70.318  22.566  12.711  1.00  0.00    -0.354 N 
HETATM    7  C   UNL     1      71.045  20.685  11.241  1.00  0.00     0.089 C 
HETATM    8  H   UNL     1      69.434  22.683  12.292  1.00  0.00     0.166 HD
ENDROOT
BRANCH   1   9
HETATM    9  C   UNL     1      73.055  23.184  15.007  1.00  0.00     0.122 C 
HETATM   10  S   UNL     1      74.323  22.205  15.439  1.00  0.00    -0.059 SA
HETATM   11  N   UNL     1      72.864  24.413  15.568  1.00  0.00    -0.388 N 
HETATM   12  H   UNL     1      72.100  24.968  15.289  1.00  0.00     0.157 HD
HETATM   13  H   UNL     1      73.490  24.744  16.252  1.00  0.00     0.157 HD
ENDBRANCH   1   9
TORSDOF 1
ENDMDL
MODEL 7
REMARK VINA RESULT:      -4.1      2.815      3.932
REMARK  1 active torsions:
REMARK  status: ('A' for Active; 'I' for Inactive)
REMARK    1  A    between atoms: C_1  and  C_4 
ROOT
HETATM    1  C   UNL     1      75.760   2.696  17.797  1.00  0.00     0.087 A 
HETATM    2  N   UNL     1      75.504   1.547  18.541  1.00  0.00    -0.343 N 
ATOM      3  HN  UNL     1      75.920   1.293  19.436  1.00  0.00     0.167 HD
HETATM    4  C   UNL     1      74.996   2.667  16.645  1.00  0.00     0.122 A 
HETATM    5  C   UNL     1      74.616   0.854  17.858  1.00  0.00     0.077 A 
HETATM    6  N   UNL     1      74.282   1.503  16.698  1.00  0.00    -0.354 N 
HETATM    7  C   UNL     1      74.019  -0.451  18.227  1.00  0.00     0.089 C 
HETATM    8  H   UNL     1      73.640   1.188  16.022  1.00  0.00     0.166 HD
ENDROOT
BRANCH   1   9
HETATM    9  C   UNL     1      76.707   3.701  18.260  1.00  0.00     0.122 C 
HETATM   10  S   UNL     1      76.866   5.175  17.515  1.00  0.00    -0.059 SA
HETATM   11  N   UNL     1      77.456   3.353  19.346  1.00  0.00    -0.388 N 
HETATM   12  H   UNL     1      77.337   2.470  19.764  1.00  0.00     0.157 HD
HETATM   13  H   UNL     1      78.116   3.986  19.711  1.00  0.00     0.157 HD
ENDBRANCH   1   9
TORSDOF 1
ENDMDL
MODEL 8
REMARK VINA RESULT:      -3.9      1.680      1.815
REMARK  1 active torsions:
REMARK  status: ('A' for Active; 'I' for Inactive)
REMARK    1  A    between atoms: C_1  and  C_4 
ROOT
HETATM    1  C   UNL     1      76.784   1.931  17.953  1.00  0.00     0.087 A 
HETATM    2  N   UNL     1      77.380   3.174  18.156  1.00  0.00    -0.343 N 
ATOM      3  HN  UNL     1      78.281   3.355  18.598  1.00  0.00     0.167 HD
HETATM    4  C   UNL     1      75.568   2.113  17.322  1.00  0.00     0.122 A 
HETATM    5  C   UNL     1      76.549   4.068  17.663  1.00  0.00     0.077 A 
HETATM    6  N   UNL     1      75.434   3.461  17.146  1.00  0.00    -0.354 N 
HETATM    7  C   UNL     1      76.726   5.539  17.635  1.00  0.00     0.089 C 
HETATM    8  H   UNL     1      74.671   3.916  16.721  1.00  0.00     0.166 HD
ENDROOT
BRANCH   1   9
HETATM    9  C   UNL     1      77.434   0.701  18.383  1.00  0.00     0.122 C 
HETATM   10  S   UNL     1      78.700   0.699  19.455  1.00  0.00    -0.059 SA
HETATM   11  N   UNL     1      76.937  -0.450  17.846  1.00  0.00    -0.388 N 
HETATM   12  H   UNL     1      76.185  -0.413  17.211  1.00  0.00     0.157 HD
HETATM   13  H   UNL     1      77.330  -1.318  18.093  1.00  0.00     0.157 HD
ENDBRANCH   1   9
TORSDOF 1
ENDMDL
MODEL 9
REMARK VINA RESULT:      -3.9     13.046     14.450
REMARK  1 active torsions:
REMARK  status: ('A' for Active; 'I' for Inactive)
REMARK    1  A    between atoms: C_1  and  C_4 
ROOT
HETATM    1  C   UNL     1      67.200   6.257   7.451  1.00  0.00     0.087 A 
HETATM    2  N   UNL     1      68.416   5.949   8.056  1.00  0.00    -0.343 N 
ATOM      3  HN  UNL     1      69.304   6.434   7.925  1.00  0.00     0.167 HD
HETATM    4  C   UNL     1      66.240   5.365   7.890  1.00  0.00     0.122 A 
HETATM    5  C   UNL     1      68.192   4.908   8.831  1.00  0.00     0.077 A 
HETATM    6  N   UNL     1      66.878   4.523   8.757  1.00  0.00    -0.354 N 
HETATM    7  C   UNL     1      69.170   4.200   9.689  1.00  0.00     0.089 C 
HETATM    8  H   UNL     1      66.466   3.773   9.243  1.00  0.00     0.166 HD
ENDROOT
BRANCH   1   9
HETATM    9  C   UNL     1      67.080   7.368   6.518  1.00  0.00     0.122 C 
HETATM   10  S   UNL     1      67.193   7.159   4.875  1.00  0.00    -0.059 SA
HETATM   11  N   UNL     1      66.869   8.593   7.079  1.00  0.00    -0.388 N 
HETATM   12  H   UNL     1      66.806   8.682   8.058  1.00  0.00     0.157 HD
HETATM   13  H   UNL     1      66.778   9.389   6.506  1.00  0.00     0.157 HD
ENDBRANCH   1   9
TORSDOF 1
ENDMDL
