MODEL 1
REMARK VINA RESULT:      -5.8      0.000      0.000
REMARK  0 active torsions:
REMARK  status: ('A' for Active; 'I' for Inactive)
ROOT
HETATM    1  S   UNL     1      63.533   7.713   5.871  1.00  0.00     0.176 S 
HETATM    2  C   UNL     1      62.987   8.914   4.704  1.00  0.00     0.073 A 
HETATM    3  C   UNL     1      62.833   8.593   3.354  1.00  0.00     0.033 A 
HETATM    4  C   UNL     1      63.149   7.248   2.798  1.00  0.00     0.162 C 
HETATM    5  C   UNL     1      63.339   6.174   5.019  1.00  0.00     0.153 C 
HETATM    6  O   UNL     1      62.593   7.732   6.974  1.00  0.00    -0.223 OA
HETATM    7  O   UNL     1      64.948   7.953   6.069  1.00  0.00    -0.223 OA
HETATM    8  C   UNL     1      62.681  10.194   5.183  1.00  0.00     0.026 A 
HETATM    9  C   UNL     1      63.943   6.281   3.640  1.00  0.00     0.099 C 
HETATM   10  C   UNL     1      62.368   9.580   2.472  1.00  0.00     0.040 A 
HETATM   11  O   UNL     1      62.798   6.960   1.659  1.00  0.00    -0.292 OA
HETATM   12  C   UNL     1      62.075  10.860   2.946  1.00  0.00     0.035 A 
HETATM   13  C   UNL     1      62.227  11.170   4.297  1.00  0.00     0.025 A 
HETATM   14 CL   UNL     1      61.524  12.070   1.854  1.00  0.00    -0.084 Cl
ENDROOT
TORSDOF 0
ENDMDL
MODEL 2
REMARK VINA RESULT:      -5.5      5.583      7.052
REMARK  0 active torsions:
REMARK  status: ('A' for Active; 'I' for Inactive)
ROOT
HETATM    1  S   UNL     1      65.847   7.624   6.396  1.00  0.00     0.176 S 
HETATM    2  C   UNL     1      66.860   6.500   7.299  1.00  0.00     0.073 A 
HETATM    3  C   UNL     1      67.395   5.362   6.692  1.00  0.00     0.033 A 
HETATM    4  C   UNL     1      67.127   4.995   5.274  1.00  0.00     0.162 C 
HETATM    5  C   UNL     1      66.132   7.188   4.704  1.00  0.00     0.153 C 
HETATM    6  O   UNL     1      66.388   8.951   6.610  1.00  0.00    -0.223 OA
HETATM    7  O   UNL     1      64.477   7.294   6.731  1.00  0.00    -0.223 OA
HETATM    8  C   UNL     1      67.137   6.804   8.637  1.00  0.00     0.026 A 
HETATM    9  C   UNL     1      66.008   5.692   4.542  1.00  0.00     0.099 C 
HETATM   10  C   UNL     1      68.219   4.516   7.449  1.00  0.00     0.040 A 
HETATM   11  O   UNL     1      67.786   4.111   4.737  1.00  0.00    -0.292 OA
HETATM   12  C   UNL     1      68.485   4.811   8.788  1.00  0.00     0.035 A 
HETATM   13  C   UNL     1      67.949   5.952   9.384  1.00  0.00     0.025 A 
HETATM   14 CL   UNL     1      69.479   3.757   9.714  1.00  0.00    -0.084 Cl
ENDROOT
TORSDOF 0
ENDMDL
MODEL 3
REMARK VINA RESULT:      -5.4     19.127     20.698
REMARK  0 active torsions:
REMARK  status: ('A' for Active; 'I' for Inactive)
ROOT
HETATM    1  S   UNL     1      75.049  -0.017  18.027  1.00  0.00     0.176 S 
HETATM    2  C   UNL     1      75.615   1.636  17.800  1.00  0.00     0.073 A 
HETATM    3  C   UNL     1      76.876   2.035  18.245  1.00  0.00     0.033 A 
HETATM    4  C   UNL     1      77.809   1.125  18.966  1.00  0.00     0.162 C 
HETATM    5  C   UNL     1      76.518  -0.917  18.434  1.00  0.00     0.153 C 
HETATM    6  O   UNL     1      74.582  -0.487  16.738  1.00  0.00    -0.223 OA
HETATM    7  O   UNL     1      74.187   0.005  19.190  1.00  0.00    -0.223 OA
HETATM    8  C   UNL     1      74.768   2.528  17.130  1.00  0.00     0.026 A 
HETATM    9  C   UNL     1      77.280  -0.179  19.507  1.00  0.00     0.099 C 
HETATM   10  C   UNL     1      77.289   3.356  18.014  1.00  0.00     0.040 A 
HETATM   11  O   UNL     1      78.975   1.462  19.143  1.00  0.00    -0.292 OA
HETATM   12  C   UNL     1      76.441   4.250  17.357  1.00  0.00     0.035 A 
HETATM   13  C   UNL     1      75.184   3.841  16.913  1.00  0.00     0.025 A 
HETATM   14 CL   UNL     1      76.946   5.873  17.096  1.00  0.00    -0.084 Cl
ENDROOT
TORSDOF 0
ENDMDL
MODEL 4
REMARK VINA RESULT:      -5.3      2.146      3.637
REMARK  0 active torsions:
REMARK  status: ('A' for Active; 'I' for Inactive)
ROOT
HETATM    1  S   UNL     1      63.856   8.952   5.254  1.00  0.00     0.176 S 
HETATM    2  C   UNL     1      63.215   8.539   3.666  1.00  0.00     0.073 A 
HETATM    3  C   UNL     1      62.437   9.445   2.943  1.00  0.00     0.033 A 
HETATM    4  C   UNL     1      62.062  10.790   3.462  1.00  0.00     0.162 C 
HETATM    5  C   UNL     1      63.663  10.709   5.346  1.00  0.00     0.153 C 
HETATM    6  O   UNL     1      65.275   8.660   5.229  1.00  0.00    -0.223 OA
HETATM    7  O   UNL     1      62.967   8.341   6.222  1.00  0.00    -0.223 OA
HETATM    8  C   UNL     1      63.540   7.283   3.139  1.00  0.00     0.026 A 
HETATM    9  C   UNL     1      62.264  11.085   4.927  1.00  0.00     0.099 C 
HETATM   10  C   UNL     1      61.976   9.076   1.670  1.00  0.00     0.040 A 
HETATM   11  O   UNL     1      61.563  11.618   2.708  1.00  0.00    -0.292 OA
HETATM   12  C   UNL     1      62.288   7.819   1.149  1.00  0.00     0.035 A 
HETATM   13  C   UNL     1      63.069   6.922   1.877  1.00  0.00     0.025 A 
HETATM   14 CL   UNL     1      61.701   7.367  -0.403  1.00  0.00    -0.084 Cl
ENDROOT
TORSDOF 0
ENDMDL
MODEL 5
REMARK VINA RESULT:      -5.1      2.989      4.797
REMARK  0 active torsions:
REMARK  status: ('A' for Active; 'I' for Inactive)
ROOT
HETATM    1  S   UNL     1      62.163   7.938   2.625  1.00  0.00     0.176 S 
HETATM    2  C   UNL     1      63.652   7.757   3.549  1.00  0.00     0.073 A 
HETATM    3  C   UNL     1      63.982   8.650   4.571  1.00  0.00     0.033 A 
HETATM    4  C   UNL     1      63.138   9.824   4.927  1.00  0.00     0.162 C 
HETATM    5  C   UNL     1      61.199   9.067   3.589  1.00  0.00     0.153 C 
HETATM    6  O   UNL     1      61.493   6.653   2.643  1.00  0.00    -0.223 OA
HETATM    7  O   UNL     1      62.531   8.591   1.386  1.00  0.00    -0.223 OA
HETATM    8  C   UNL     1      64.478   6.668   3.246  1.00  0.00     0.026 A 
HETATM    9  C   UNL     1      62.049  10.252   3.976  1.00  0.00     0.099 C 
HETATM   10  C   UNL     1      65.166   8.443   5.294  1.00  0.00     0.040 A 
HETATM   11  O   UNL     1      63.362  10.446   5.960  1.00  0.00    -0.292 OA
HETATM   12  C   UNL     1      65.997   7.365   4.984  1.00  0.00     0.035 A 
HETATM   13  C   UNL     1      65.657   6.476   3.965  1.00  0.00     0.025 A 
HETATM   14 CL   UNL     1      67.457   7.131   5.863  1.00  0.00    -0.084 Cl
ENDROOT
TORSDOF 0
ENDMDL
MODEL 6
REMARK VINA RESULT:      -5.0      2.855      4.147
REMARK  0 active torsions:
REMARK  status: ('A' for Active; 'I' for Inactive)
ROOT
HETATM    1  S   UNL     1      66.180   5.402   4.254  1.00  0.00     0.176 S 
HETATM    2  C   UNL     1      65.052   6.753   4.165  1.00  0.00     0.073 A 
HETATM    3  C   UNL     1      65.155   7.838   5.038  1.00  0.00     0.033 A 
HETATM    4  C   UNL     1      66.180   7.921   6.115  1.00  0.00     0.162 C 
HETATM    5  C   UNL     1      67.507   6.020   5.248  1.00  0.00     0.153 C 
HETATM    6  O   UNL     1      66.690   5.185   2.915  1.00  0.00    -0.223 OA
HETATM    7  O   UNL     1      65.502   4.356   4.992  1.00  0.00    -0.223 OA
HETATM    8  C   UNL     1      64.069   6.717   3.169  1.00  0.00     0.026 A 
HETATM    9  C   UNL     1      66.946   6.675   6.486  1.00  0.00     0.099 C 
HETATM   10  C   UNL     1      64.249   8.901   4.905  1.00  0.00     0.040 A 
HETATM   11  O   UNL     1      66.360   8.979   6.707  1.00  0.00    -0.292 OA
HETATM   12  C   UNL     1      63.261   8.860   3.921  1.00  0.00     0.035 A 
HETATM   13  C   UNL     1      63.168   7.774   3.051  1.00  0.00     0.025 A 
HETATM   14 CL   UNL     1      62.141  10.158   3.779  1.00  0.00    -0.084 Cl
ENDROOT
TORSDOF 0
ENDMDL
MODEL 7
REMARK VINA RESULT:      -4.9      1.673      2.047
REMARK  0 active torsions:
REMARK  status: ('A' for Active; 'I' for Inactive)
ROOT
HETATM    1  S   UNL     1      64.698   7.605   5.962  1.00  0.00     0.176 S 
HETATM    2  C   UNL     1      63.733   7.933   4.525  1.00  0.00     0.073 A 
HETATM    3  C   UNL     1      63.904   7.191   3.355  1.00  0.00     0.033 A 
HETATM    4  C   UNL     1      64.920   6.111   3.218  1.00  0.00     0.162 C 
HETATM    5  C   UNL     1      65.410   6.016   5.642  1.00  0.00     0.153 C 
HETATM    6  O   UNL     1      63.776   7.464   7.071  1.00  0.00    -0.223 OA
HETATM    7  O   UNL     1      65.760   8.590   5.972  1.00  0.00    -0.223 OA
HETATM    8  C   UNL     1      62.766   8.943   4.607  1.00  0.00     0.026 A 
HETATM    9  C   UNL     1      66.008   6.002   4.257  1.00  0.00     0.099 C 
HETATM   10  C   UNL     1      63.089   7.475   2.249  1.00  0.00     0.040 A 
HETATM   11  O   UNL     1      64.884   5.357   2.253  1.00  0.00    -0.292 OA
HETATM   12  C   UNL     1      62.134   8.490   2.325  1.00  0.00     0.035 A 
HETATM   13  C   UNL     1      61.968   9.223   3.499  1.00  0.00     0.025 A 
HETATM   14 CL   UNL     1      61.153   8.846   0.957  1.00  0.00    -0.084 Cl
ENDROOT
TORSDOF 0
ENDMDL
MODEL 8
REMARK VINA RESULT:      -4.8      3.232      4.200
REMARK  0 active torsions:
REMARK  status: ('A' for Active; 'I' for Inactive)
ROOT
HETATM    1  S   UNL     1      65.690   4.972   6.925  1.00  0.00     0.176 S 
HETATM    2  C   UNL     1      64.858   6.386   6.281  1.00  0.00     0.073 A 
HETATM    3  C   UNL     1      65.564   7.425   5.673  1.00  0.00     0.033 A 
HETATM    4  C   UNL     1      67.049   7.438   5.555  1.00  0.00     0.162 C 
HETATM    5  C   UNL     1      67.304   5.065   6.206  1.00  0.00     0.153 C 
HETATM    6  O   UNL     1      65.026   3.804   6.381  1.00  0.00    -0.223 OA
HETATM    7  O   UNL     1      65.810   5.187   8.352  1.00  0.00    -0.223 OA
HETATM    8  C   UNL     1      63.461   6.417   6.373  1.00  0.00     0.026 A 
HETATM    9  C   UNL     1      67.852   6.460   6.375  1.00  0.00     0.099 C 
HETATM   10  C   UNL     1      64.851   8.514   5.151  1.00  0.00     0.040 A 
HETATM   11  O   UNL     1      67.597   8.262   4.831  1.00  0.00    -0.292 OA
HETATM   12  C   UNL     1      63.459   8.553   5.254  1.00  0.00     0.035 A 
HETATM   13  C   UNL     1      62.761   7.509   5.860  1.00  0.00     0.025 A 
HETATM   14 CL   UNL     1      62.593   9.902   4.630  1.00  0.00    -0.084 Cl
ENDROOT
TORSDOF 0
ENDMDL
MODEL 9
REMARK VINA RESULT:      -4.7      5.443      7.042
REMARK  0 active torsions:
REMARK  status: ('A' for Active; 'I' for Inactive)
ROOT
HETATM    1  S   UNL     1      68.187   4.323   8.488  1.00  0.00     0.176 S 
HETATM    2  C   UNL     1      67.575   4.516   6.847  1.00  0.00     0.073 A 
HETATM    3  C   UNL     1      66.825   5.635   6.482  1.00  0.00     0.033 A 
HETATM    4  C   UNL     1      66.458   6.715   7.440  1.00  0.00     0.162 C 
HETATM    5  C   UNL     1      68.017   5.935   9.197  1.00  0.00     0.153 C 
HETATM    6  O   UNL     1      69.602   4.030   8.382  1.00  0.00    -0.223 OA
HETATM    7  O   UNL     1      67.269   3.426   9.160  1.00  0.00    -0.223 OA
HETATM    8  C   UNL     1      67.894   3.523   5.912  1.00  0.00     0.026 A 
HETATM    9  C   UNL     1      66.632   6.465   8.918  1.00  0.00     0.099 C 
HETATM   10  C   UNL     1      66.387   5.753   5.155  1.00  0.00     0.040 A 
HETATM   11  O   UNL     1      65.987   7.767   7.023  1.00  0.00    -0.292 OA
HETATM   12  C   UNL     1      66.693   4.757   4.225  1.00  0.00     0.035 A 
HETATM   13  C   UNL     1      67.446   3.645   4.598  1.00  0.00     0.025 A 
HETATM   14 CL   UNL     1      66.133   4.900   2.605  1.00  0.00    -0.084 Cl
ENDROOT
TORSDOF 0
ENDMDL
