MODEL 1
REMARK VINA RESULT:      -5.3      0.000      0.000
REMARK  2 active torsions:
REMARK  status: ('A' for Active; 'I' for Inactive)
REMARK    1  A    between atoms: C_1  and  C_3 
REMARK    2  A    between atoms: C_2  and  N_4 
ROOT
HETATM    1  C   UNL     1      62.807   8.952   3.637  1.00  0.00     0.091 A 
HETATM    2  C   UNL     1      63.418   8.978   4.894  1.00  0.00     0.118 A 
HETATM    3  N   UNL     1      63.359  10.089   5.669  1.00  0.00    -0.352 N 
ATOM      4  HN  UNL     1      63.823  10.111   6.577  1.00  0.00     0.166 HD
HETATM    5  C   UNL     1      62.096  10.091   3.208  1.00  0.00     0.021 A 
HETATM    6  C   UNL     1      62.676  11.168   5.221  1.00  0.00     0.089 A 
HETATM    7  C   UNL     1      62.029  11.219   4.008  1.00  0.00     0.018 A 
ENDROOT
BRANCH   2   8
HETATM    8  N   UNL     1      64.159   7.910   5.360  1.00  0.00    -0.363 N 
HETATM    9  C   UNL     1      65.578   8.131   5.683  1.00  0.00     0.152 C 
HETATM   10  C   UNL     1      66.292   6.755   5.603  1.00  0.00     0.252 C 
HETATM   11  N   UNL     1      65.697   5.710   6.474  1.00  0.00    -0.072 N 
HETATM   12  C   UNL     1      64.238   5.631   6.227  1.00  0.00     0.252 C 
HETATM   13  H   UNL     1      66.127   4.807   6.265  1.00  0.00     0.277 HD
HETATM   14  H   UNL     1      65.865   5.946   7.453  1.00  0.00     0.277 HD
HETATM   15  C   UNL     1      63.523   7.004   6.331  1.00  0.00     0.152 C 
ENDBRANCH   2   8
BRANCH   1  16
HETATM   16  C   UNL     1      62.901   7.810   2.663  1.00  0.00     0.421 C 
HETATM   17  F   UNL     1      64.072   7.124   2.597  1.00  0.00    -0.166 F 
HETATM   18  F   UNL     1      61.950   6.862   2.920  1.00  0.00    -0.166 F 
HETATM   19  F   UNL     1      62.660   8.212   1.378  1.00  0.00    -0.166 F 
ENDBRANCH   1  16
TORSDOF 2
ENDMDL
MODEL 2
REMARK VINA RESULT:      -5.2      4.915      7.626
REMARK  2 active torsions:
REMARK  status: ('A' for Active; 'I' for Inactive)
REMARK    1  A    between atoms: C_1  and  C_3 
REMARK    2  A    between atoms: C_2  and  N_4 
ROOT
HETATM    1  C   UNL     1      68.385   4.133   7.765  1.00  0.00     0.091 A 
HETATM    2  C   UNL     1      67.592   4.440   6.655  1.00  0.00     0.118 A 
HETATM    3  N   UNL     1      67.529   3.595   5.596  1.00  0.00    -0.352 N 
ATOM      4  HN  UNL     1      66.966   3.831   4.779  1.00  0.00     0.166 HD
HETATM    5  C   UNL     1      69.085   2.911   7.778  1.00  0.00     0.021 A 
HETATM    6  C   UNL     1      68.223   2.434   5.638  1.00  0.00     0.089 A 
HETATM    7  C   UNL     1      69.009   2.047   6.699  1.00  0.00     0.018 A 
ENDROOT
BRANCH   2   8
HETATM    8  N   UNL     1      66.908   5.636   6.562  1.00  0.00    -0.363 N 
HETATM    9  C   UNL     1      67.571   6.772   5.903  1.00  0.00     0.152 C 
HETATM   10  C   UNL     1      66.901   8.070   6.430  1.00  0.00     0.252 C 
HETATM   11  N   UNL     1      65.430   8.117   6.234  1.00  0.00    -0.072 N 
HETATM   12  C   UNL     1      64.819   6.878   6.772  1.00  0.00     0.252 C 
HETATM   13  H   UNL     1      65.047   8.926   6.724  1.00  0.00     0.277 HD
HETATM   14  H   UNL     1      65.221   8.194   5.237  1.00  0.00     0.277 HD
HETATM   15  C   UNL     1      65.476   5.583   6.226  1.00  0.00     0.152 C 
ENDBRANCH   2   8
BRANCH   1  16
HETATM   16  C   UNL     1      68.602   5.047   8.939  1.00  0.00     0.421 C 
HETATM   17  F   UNL     1      67.553   5.801   9.361  1.00  0.00    -0.166 F 
HETATM   18  F   UNL     1      69.000   4.346  10.044  1.00  0.00    -0.166 F 
HETATM   19  F   UNL     1      69.607   5.945   8.710  1.00  0.00    -0.166 F 
ENDBRANCH   1  16
TORSDOF 2
ENDMDL
MODEL 3
REMARK VINA RESULT:      -5.1      2.234      3.566
REMARK  2 active torsions:
REMARK  status: ('A' for Active; 'I' for Inactive)
REMARK    1  A    between atoms: C_1  and  C_3 
REMARK    2  A    between atoms: C_2  and  N_4 
ROOT
HETATM    1  C   UNL     1      62.402   8.876   2.228  1.00  0.00     0.091 A 
HETATM    2  C   UNL     1      63.044   7.719   2.678  1.00  0.00     0.118 A 
HETATM    3  N   UNL     1      63.256   6.675   1.840  1.00  0.00    -0.352 N 
ATOM      4  HN  UNL     1      63.706   5.825   2.177  1.00  0.00     0.166 HD
HETATM    5  C   UNL     1      62.015   8.951   0.875  1.00  0.00     0.021 A 
HETATM    6  C   UNL     1      62.862   6.777   0.550  1.00  0.00     0.089 A 
HETATM    7  C   UNL     1      62.243   7.886   0.020  1.00  0.00     0.018 A 
ENDROOT
BRANCH   2   8
HETATM    8  N   UNL     1      63.418   7.567   3.999  1.00  0.00    -0.363 N 
HETATM    9  C   UNL     1      62.530   6.808   4.894  1.00  0.00     0.152 C 
HETATM   10  C   UNL     1      62.834   7.265   6.347  1.00  0.00     0.252 C 
HETATM   11  N   UNL     1      64.257   7.116   6.745  1.00  0.00    -0.072 N 
HETATM   12  C   UNL     1      65.125   7.760   5.731  1.00  0.00     0.252 C 
HETATM   13  H   UNL     1      64.405   7.561   7.652  1.00  0.00     0.277 HD
HETATM   14  H   UNL     1      64.489   6.125   6.813  1.00  0.00     0.277 HD
HETATM   15  C   UNL     1      64.834   7.284   4.284  1.00  0.00     0.152 C 
ENDBRANCH   2   8
BRANCH   1  16
HETATM   16  C   UNL     1      62.030  10.043   3.101  1.00  0.00     0.421 C 
HETATM   17  F   UNL     1      62.954  10.492   3.991  1.00  0.00    -0.166 F 
HETATM   18  F   UNL     1      61.702  11.137   2.349  1.00  0.00    -0.166 F 
HETATM   19  F   UNL     1      60.917   9.785   3.853  1.00  0.00    -0.166 F 
ENDBRANCH   1  16
TORSDOF 2
ENDMDL
MODEL 4
REMARK VINA RESULT:      -5.0      3.694      6.588
REMARK  2 active torsions:
REMARK  status: ('A' for Active; 'I' for Inactive)
REMARK    1  A    between atoms: C_1  and  C_3 
REMARK    2  A    between atoms: C_2  and  N_4 
ROOT
HETATM    1  C   UNL     1      68.072   4.568   6.866  1.00  0.00     0.091 A 
HETATM    2  C   UNL     1      67.612   5.755   7.445  1.00  0.00     0.118 A 
HETATM    3  N   UNL     1      68.097   6.175   8.640  1.00  0.00    -0.352 N 
ATOM      4  HN  UNL     1      67.745   7.030   9.069  1.00  0.00     0.166 HD
HETATM    5  C   UNL     1      69.078   3.839   7.529  1.00  0.00     0.021 A 
HETATM    6  C   UNL     1      69.056   5.444   9.254  1.00  0.00     0.089 A 
HETATM    7  C   UNL     1      69.579   4.277   8.743  1.00  0.00     0.018 A 
ENDROOT
BRANCH   2   8
HETATM    8  N   UNL     1      66.604   6.499   6.866  1.00  0.00    -0.363 N 
HETATM    9  C   UNL     1      65.275   6.489   7.499  1.00  0.00     0.152 C 
HETATM   10  C   UNL     1      64.238   6.872   6.408  1.00  0.00     0.252 C 
HETATM   11  N   UNL     1      64.509   8.171   5.741  1.00  0.00    -0.072 N 
HETATM   12  C   UNL     1      65.910   8.197   5.258  1.00  0.00     0.252 C 
HETATM   13  H   UNL     1      63.873   8.286   4.950  1.00  0.00     0.277 HD
HETATM   14  H   UNL     1      64.363   8.931   6.406  1.00  0.00     0.277 HD
HETATM   15  C   UNL     1      66.944   7.838   6.356  1.00  0.00     0.152 C 
ENDBRANCH   2   8
BRANCH   1  16
HETATM   16  C   UNL     1      67.526   3.967   5.600  1.00  0.00     0.421 C 
HETATM   17  F   UNL     1      67.530   4.733   4.478  1.00  0.00    -0.166 F 
HETATM   18  F   UNL     1      68.211   2.834   5.257  1.00  0.00    -0.166 F 
HETATM   19  F   UNL     1      66.227   3.565   5.744  1.00  0.00    -0.166 F 
ENDBRANCH   1  16
TORSDOF 2
ENDMDL
MODEL 5
REMARK VINA RESULT:      -4.7      2.673      4.451
REMARK  2 active torsions:
REMARK  status: ('A' for Active; 'I' for Inactive)
REMARK    1  A    between atoms: C_1  and  C_3 
REMARK    2  A    between atoms: C_2  and  N_4 
ROOT
HETATM    1  C   UNL     1      63.079   8.832   4.040  1.00  0.00     0.091 A 
HETATM    2  C   UNL     1      62.220   9.280   3.032  1.00  0.00     0.118 A 
HETATM    3  N   UNL     1      61.657  10.511   3.100  1.00  0.00    -0.352 N 
ATOM      4  HN  UNL     1      61.015  10.827   2.373  1.00  0.00     0.166 HD
HETATM    5  C   UNL     1      63.378   9.701   5.107  1.00  0.00     0.021 A 
HETATM    6  C   UNL     1      61.959  11.316   4.145  1.00  0.00     0.089 A 
HETATM    7  C   UNL     1      62.810  10.962   5.166  1.00  0.00     0.018 A 
ENDROOT
BRANCH   2   8
HETATM    8  N   UNL     1      61.857   8.467   1.976  1.00  0.00    -0.363 N 
HETATM    9  C   UNL     1      60.491   7.917   1.954  1.00  0.00     0.152 C 
HETATM   10  C   UNL     1      60.518   6.643   1.067  1.00  0.00     0.252 C 
HETATM   11  N   UNL     1      61.032   6.869  -0.308  1.00  0.00    -0.072 N 
HETATM   12  C   UNL     1      62.337   7.568  -0.240  1.00  0.00     0.252 C 
HETATM   13  H   UNL     1      61.150   5.972  -0.779  1.00  0.00     0.277 HD
HETATM   14  H   UNL     1      60.366   7.441  -0.829  1.00  0.00     0.277 HD
HETATM   15  C   UNL     1      62.301   8.853   0.627  1.00  0.00     0.152 C 
ENDBRANCH   2   8
BRANCH   1  16
HETATM   16  C   UNL     1      63.670   7.450   4.108  1.00  0.00     0.421 C 
HETATM   17  F   UNL     1      64.405   7.019   3.049  1.00  0.00    -0.166 F 
HETATM   18  F   UNL     1      64.498   7.321   5.189  1.00  0.00    -0.166 F 
HETATM   19  F   UNL     1      62.710   6.492   4.281  1.00  0.00    -0.166 F 
ENDBRANCH   1  16
TORSDOF 2
ENDMDL
MODEL 6
REMARK VINA RESULT:      -4.7      4.530      6.968
REMARK  2 active torsions:
REMARK  status: ('A' for Active; 'I' for Inactive)
REMARK    1  A    between atoms: C_1  and  C_3 
REMARK    2  A    between atoms: C_2  and  N_4 
ROOT
HETATM    1  C   UNL     1      67.554   5.505   8.311  1.00  0.00     0.091 A 
HETATM    2  C   UNL     1      67.632   4.851   7.079  1.00  0.00     0.118 A 
HETATM    3  N   UNL     1      68.535   3.859   6.879  1.00  0.00    -0.352 N 
ATOM      4  HN  UNL     1      68.603   3.398   5.972  1.00  0.00     0.166 HD
HETATM    5  C   UNL     1      68.404   5.087   9.354  1.00  0.00     0.021 A 
HETATM    6  C   UNL     1      69.343   3.489   7.899  1.00  0.00     0.089 A 
HETATM    7  C   UNL     1      69.316   4.066   9.148  1.00  0.00     0.018 A 
ENDROOT
BRANCH   2   8
HETATM    8  N   UNL     1      66.853   5.234   6.005  1.00  0.00    -0.363 N 
HETATM    9  C   UNL     1      67.462   6.079   4.965  1.00  0.00     0.152 C 
HETATM   10  C   UNL     1      66.310   6.827   4.241  1.00  0.00     0.252 C 
HETATM   11  N   UNL     1      65.270   5.934   3.670  1.00  0.00    -0.072 N 
HETATM   12  C   UNL     1      64.798   4.993   4.714  1.00  0.00     0.252 C 
HETATM   13  H   UNL     1      64.485   6.495   3.336  1.00  0.00     0.277 HD
HETATM   14  H   UNL     1      65.665   5.406   2.890  1.00  0.00     0.277 HD
HETATM   15  C   UNL     1      65.950   4.231   5.419  1.00  0.00     0.152 C 
ENDBRANCH   2   8
BRANCH   1  16
HETATM   16  C   UNL     1      66.661   6.681   8.600  1.00  0.00     0.421 C 
HETATM   17  F   UNL     1      65.356   6.596   8.231  1.00  0.00    -0.166 F 
HETATM   18  F   UNL     1      66.632   6.962   9.938  1.00  0.00    -0.166 F 
HETATM   19  F   UNL     1      67.118   7.827   8.009  1.00  0.00    -0.166 F 
ENDBRANCH   1  16
TORSDOF 2
ENDMDL
MODEL 7
REMARK VINA RESULT:      -4.7      2.444      3.547
REMARK  2 active torsions:
REMARK  status: ('A' for Active; 'I' for Inactive)
REMARK    1  A    between atoms: C_1  and  C_3 
REMARK    2  A    between atoms: C_2  and  N_4 
ROOT
HETATM    1  C   UNL     1      62.164   9.719   3.087  1.00  0.00     0.091 A 
HETATM    2  C   UNL     1      62.517   8.468   3.600  1.00  0.00     0.118 A 
HETATM    3  N   UNL     1      62.987   8.348   4.866  1.00  0.00    -0.352 N 
ATOM      4  HN  UNL     1      63.264   7.436   5.231  1.00  0.00     0.166 HD
HETATM    5  C   UNL     1      62.268  10.847   3.924  1.00  0.00     0.021 A 
HETATM    6  C   UNL     1      63.084   9.454   5.640  1.00  0.00     0.089 A 
HETATM    7  C   UNL     1      62.738  10.718   5.220  1.00  0.00     0.018 A 
ENDROOT
BRANCH   2   8
HETATM    8  N   UNL     1      62.472   7.327   2.823  1.00  0.00    -0.363 N 
HETATM    9  C   UNL     1      63.729   6.607   2.564  1.00  0.00     0.152 C 
HETATM   10  C   UNL     1      63.531   5.780   1.265  1.00  0.00     0.252 C 
HETATM   11  N   UNL     1      62.374   4.849   1.307  1.00  0.00    -0.072 N 
HETATM   12  C   UNL     1      61.160   5.588   1.726  1.00  0.00     0.252 C 
HETATM   13  H   UNL     1      62.226   4.448   0.380  1.00  0.00     0.277 HD
HETATM   14  H   UNL     1      62.564   4.100   1.974  1.00  0.00     0.277 HD
HETATM   15  C   UNL     1      61.354   6.394   3.037  1.00  0.00     0.152 C 
ENDBRANCH   2   8
BRANCH   1  16
HETATM   16  C   UNL     1      61.731   9.970   1.668  1.00  0.00     0.421 C 
HETATM   17  F   UNL     1      60.621   9.328   1.218  1.00  0.00    -0.166 F 
HETATM   18  F   UNL     1      61.482  11.298   1.456  1.00  0.00    -0.166 F 
HETATM   19  F   UNL     1      62.710   9.646   0.770  1.00  0.00    -0.166 F 
ENDBRANCH   1  16
TORSDOF 2
ENDMDL
MODEL 8
REMARK VINA RESULT:      -4.3      6.264      7.758
REMARK  2 active torsions:
REMARK  status: ('A' for Active; 'I' for Inactive)
REMARK    1  A    between atoms: C_1  and  C_3 
REMARK    2  A    between atoms: C_2  and  N_4 
ROOT
HETATM    1  C   UNL     1      67.954   4.741   8.666  1.00  0.00     0.091 A 
HETATM    2  C   UNL     1      67.097   4.482   7.593  1.00  0.00     0.118 A 
HETATM    3  N   UNL     1      66.113   5.356   7.268  1.00  0.00    -0.352 N 
ATOM      4  HN  UNL     1      65.476   5.155   6.497  1.00  0.00     0.166 HD
HETATM    5  C   UNL     1      67.800   5.946   9.378  1.00  0.00     0.021 A 
HETATM    6  C   UNL     1      65.987   6.500   7.980  1.00  0.00     0.089 A 
HETATM    7  C   UNL     1      66.801   6.841   9.036  1.00  0.00     0.018 A 
ENDROOT
BRANCH   2   8
HETATM    8  N   UNL     1      67.171   3.305   6.875  1.00  0.00    -0.363 N 
HETATM    9  C   UNL     1      66.091   2.317   7.039  1.00  0.00     0.152 C 
HETATM   10  C   UNL     1      66.665   0.931   6.637  1.00  0.00     0.252 C 
HETATM   11  N   UNL     1      67.237   0.884   5.268  1.00  0.00    -0.072 N 
HETATM   12  C   UNL     1      68.204   1.995   5.096  1.00  0.00     0.252 C 
HETATM   13  H   UNL     1      67.715  -0.007   5.129  1.00  0.00     0.277 HD
HETATM   14  H   UNL     1      66.487   0.977   4.582  1.00  0.00     0.277 HD
HETATM   15  C   UNL     1      67.620   3.380   5.475  1.00  0.00     0.152 C 
ENDBRANCH   2   8
BRANCH   1  16
HETATM   16  C   UNL     1      69.007   3.791   9.168  1.00  0.00     0.421 C 
HETATM   17  F   UNL     1      68.663   2.486   9.327  1.00  0.00    -0.166 F 
HETATM   18  F   UNL     1      70.092   3.772   8.336  1.00  0.00    -0.166 F 
HETATM   19  F   UNL     1      69.501   4.172  10.385  1.00  0.00    -0.166 F 
ENDBRANCH   1  16
TORSDOF 2
ENDMDL
MODEL 9
REMARK VINA RESULT:      -4.2      5.858      7.312
REMARK  2 active torsions:
REMARK  status: ('A' for Active; 'I' for Inactive)
REMARK    1  A    between atoms: C_1  and  C_3 
REMARK    2  A    between atoms: C_2  and  N_4 
ROOT
HETATM    1  C   UNL     1      67.877   5.445   7.018  1.00  0.00     0.091 A 
HETATM    2  C   UNL     1      67.662   4.265   6.300  1.00  0.00     0.118 A 
HETATM    3  N   UNL     1      67.315   4.306   4.990  1.00  0.00    -0.352 N 
ATOM      4  HN  UNL     1      67.139   3.444   4.475  1.00  0.00     0.166 HD
HETATM    5  C   UNL     1      67.764   6.676   6.342  1.00  0.00     0.021 A 
HETATM    6  C   UNL     1      67.206   5.506   4.376  1.00  0.00     0.089 A 
HETATM    7  C   UNL     1      67.421   6.713   5.002  1.00  0.00     0.018 A 
ENDROOT
BRANCH   2   8
HETATM    8  N   UNL     1      67.721   3.027   6.909  1.00  0.00    -0.363 N 
HETATM    9  C   UNL     1      66.541   2.152   6.831  1.00  0.00     0.152 C 
HETATM   10  C   UNL     1      66.622   1.155   8.019  1.00  0.00     0.252 C 
HETATM   11  N   UNL     1      67.878   0.364   8.063  1.00  0.00    -0.072 N 
HETATM   12  C   UNL     1      69.042   1.279   7.980  1.00  0.00     0.252 C 
HETATM   13  H   UNL     1      67.919  -0.161   8.938  1.00  0.00     0.277 HD
HETATM   14  H   UNL     1      67.899  -0.286   7.277  1.00  0.00     0.277 HD
HETATM   15  C   UNL     1      68.969   2.257   6.779  1.00  0.00     0.152 C 
ENDBRANCH   2   8
BRANCH   1  16
HETATM   16  C   UNL     1      68.163   5.510   8.493  1.00  0.00     0.421 C 
HETATM   17  F   UNL     1      67.851   6.656   9.153  1.00  0.00    -0.166 F 
HETATM   18  F   UNL     1      67.501   4.522   9.168  1.00  0.00    -0.166 F 
HETATM   19  F   UNL     1      69.486   5.298   8.767  1.00  0.00    -0.166 F 
ENDBRANCH   1  16
TORSDOF 2
ENDMDL
