MODEL 1
REMARK VINA RESULT:      -5.4      0.000      0.000
REMARK  1 active torsions:
REMARK  status: ('A' for Active; 'I' for Inactive)
REMARK    1  A    between atoms: C_3  and  C_7 
ROOT
HETATM    1  N   UNL     1      70.806  20.524  11.820  1.00  0.00    -0.351 N 
ATOM      2  HN  UNL     1      70.140  20.286  12.555  1.00  0.00     0.166 HD
HETATM    3  C   UNL     1      71.628  21.627  11.766  1.00  0.00     0.059 A 
HETATM    4  N   UNL     1      72.029  20.447   9.977  1.00  0.00    -0.360 N 
HETATM    5  C   UNL     1      71.060  19.843  10.726  1.00  0.00     0.180 A 
HETATM    6  C   UNL     1      72.404  21.589  10.626  1.00  0.00     0.119 A 
HETATM    7  H   UNL     1      72.393  20.118   9.123  1.00  0.00     0.166 HD
ENDROOT
BRANCH   3   8
HETATM    8  C   UNL     1      71.683  22.646  12.801  1.00  0.00    -0.008 A 
HETATM    9  C   UNL     1      72.908  23.245  13.118  1.00  0.00     0.014 A 
HETATM   10  C   UNL     1      72.977  24.254  14.082  1.00  0.00     0.001 A 
HETATM   11  C   UNL     1      71.824  24.661  14.750  1.00  0.00     0.000 A 
HETATM   12  C   UNL     1      70.602  24.057  14.458  1.00  0.00     0.001 A 
HETATM   13  C   UNL     1      70.531  23.054  13.488  1.00  0.00     0.014 A 
ENDBRANCH   3   8
TORSDOF 1
ENDMDL
MODEL 2
REMARK VINA RESULT:      -5.2     19.723     21.342
REMARK  1 active torsions:
REMARK  status: ('A' for Active; 'I' for Inactive)
REMARK    1  A    between atoms: C_3  and  C_7 
ROOT
HETATM    1  N   UNL     1      78.166   2.193  19.499  1.00  0.00    -0.351 N 
ATOM      2  HN  UNL     1      78.254   3.082  19.992  1.00  0.00     0.166 HD
HETATM    3  C   UNL     1      77.360   1.917  18.417  1.00  0.00     0.059 A 
HETATM    4  N   UNL     1      78.450   0.087  18.882  1.00  0.00    -0.360 N 
HETATM    5  C   UNL     1      78.796   1.071  19.762  1.00  0.00     0.180 A 
HETATM    6  C   UNL     1      77.533   0.609  18.014  1.00  0.00     0.119 A 
HETATM    7  H   UNL     1      78.800  -0.834  18.872  1.00  0.00     0.166 HD
ENDROOT
BRANCH   3   8
HETATM    8  C   UNL     1      76.496   2.897  17.781  1.00  0.00    -0.008 A 
HETATM    9  C   UNL     1      75.252   2.500  17.277  1.00  0.00     0.014 A 
HETATM   10  C   UNL     1      74.389   3.434  16.697  1.00  0.00     0.001 A 
HETATM   11  C   UNL     1      74.770   4.771  16.601  1.00  0.00     0.000 A 
HETATM   12  C   UNL     1      76.016   5.174  17.080  1.00  0.00     0.001 A 
HETATM   13  C   UNL     1      76.875   4.243  17.668  1.00  0.00     0.014 A 
ENDBRANCH   3   8
TORSDOF 1
ENDMDL
MODEL 3
REMARK VINA RESULT:      -4.9     17.313     18.289
REMARK  1 active torsions:
REMARK  status: ('A' for Active; 'I' for Inactive)
REMARK    1  A    between atoms: C_3  and  C_7 
ROOT
HETATM    1  N   UNL     1      62.575   7.450   5.445  1.00  0.00    -0.351 N 
ATOM      2  HN  UNL     1      61.606   7.183   5.271  1.00  0.00     0.166 HD
HETATM    3  C   UNL     1      63.282   8.464   4.839  1.00  0.00     0.059 A 
HETATM    4  N   UNL     1      64.623   7.529   6.282  1.00  0.00    -0.360 N 
HETATM    5  C   UNL     1      63.412   6.899   6.295  1.00  0.00     0.180 A 
HETATM    6  C   UNL     1      64.559   8.532   5.357  1.00  0.00     0.119 A 
HETATM    7  H   UNL     1      65.402   7.303   6.840  1.00  0.00     0.166 HD
ENDROOT
BRANCH   3   8
HETATM    8  C   UNL     1      62.721   9.350   3.833  1.00  0.00    -0.008 A 
HETATM    9  C   UNL     1      62.361  10.657   4.186  1.00  0.00     0.014 A 
HETATM   10  C   UNL     1      61.856  11.538   3.227  1.00  0.00     0.001 A 
HETATM   11  C   UNL     1      61.692  11.116   1.909  1.00  0.00     0.000 A 
HETATM   12  C   UNL     1      62.027   9.812   1.551  1.00  0.00     0.001 A 
HETATM   13  C   UNL     1      62.539   8.932   2.507  1.00  0.00     0.014 A 
ENDBRANCH   3   8
TORSDOF 1
ENDMDL
MODEL 4
REMARK VINA RESULT:      -4.8     17.309     18.288
REMARK  1 active torsions:
REMARK  status: ('A' for Active; 'I' for Inactive)
REMARK    1  A    between atoms: C_3  and  C_7 
ROOT
HETATM    1  N   UNL     1      64.826   8.149   5.067  1.00  0.00    -0.351 N 
ATOM      2  HN  UNL     1      65.562   8.501   4.455  1.00  0.00     0.166 HD
HETATM    3  C   UNL     1      63.477   8.411   4.984  1.00  0.00     0.059 A 
HETATM    4  N   UNL     1      63.760   7.063   6.675  1.00  0.00    -0.360 N 
HETATM    5  C   UNL     1      64.965   7.349   6.100  1.00  0.00     0.180 A 
HETATM    6  C   UNL     1      62.797   7.733   5.975  1.00  0.00     0.119 A 
HETATM    7  H   UNL     1      63.611   6.478   7.453  1.00  0.00     0.166 HD
ENDROOT
BRANCH   3   8
HETATM    8  C   UNL     1      62.878   9.248   3.959  1.00  0.00    -0.008 A 
HETATM    9  C   UNL     1      62.705   8.740   2.665  1.00  0.00     0.014 A 
HETATM   10  C   UNL     1      62.096   9.514   1.674  1.00  0.00     0.001 A 
HETATM   11  C   UNL     1      61.668  10.809   1.963  1.00  0.00     0.000 A 
HETATM   12  C   UNL     1      61.855  11.332   3.241  1.00  0.00     0.001 A 
HETATM   13  C   UNL     1      62.456  10.556   4.235  1.00  0.00     0.014 A 
ENDBRANCH   3   8
TORSDOF 1
ENDMDL
MODEL 5
REMARK VINA RESULT:      -4.8     19.509     21.508
REMARK  1 active torsions:
REMARK  status: ('A' for Active; 'I' for Inactive)
REMARK    1  A    between atoms: C_3  and  C_7 
ROOT
HETATM    1  N   UNL     1      75.255   4.232  16.851  1.00  0.00    -0.351 N 
ATOM      2  HN  UNL     1      74.415   4.383  16.291  1.00  0.00     0.166 HD
HETATM    3  C   UNL     1      75.726   3.034  17.341  1.00  0.00     0.059 A 
HETATM    4  N   UNL     1      77.134   4.576  17.968  1.00  0.00    -0.360 N 
HETATM    5  C   UNL     1      76.114   5.139  17.257  1.00  0.00     0.180 A 
HETATM    6  C   UNL     1      76.903   3.231  18.032  1.00  0.00     0.119 A 
HETATM    7  H   UNL     1      77.900   5.053  18.363  1.00  0.00     0.166 HD
ENDROOT
BRANCH   3   8
HETATM    8  C   UNL     1      75.078   1.755  17.106  1.00  0.00    -0.008 A 
HETATM    9  C   UNL     1      74.647   0.987  18.194  1.00  0.00     0.014 A 
HETATM   10  C   UNL     1      73.987  -0.228  17.990  1.00  0.00     0.001 A 
HETATM   11  C   UNL     1      73.768  -0.694  16.695  1.00  0.00     0.000 A 
HETATM   12  C   UNL     1      74.212   0.052  15.604  1.00  0.00     0.001 A 
HETATM   13  C   UNL     1      74.864   1.270  15.807  1.00  0.00     0.014 A 
ENDBRANCH   3   8
TORSDOF 1
ENDMDL
MODEL 6
REMARK VINA RESULT:      -4.7     16.426     18.274
REMARK  1 active torsions:
REMARK  status: ('A' for Active; 'I' for Inactive)
REMARK    1  A    between atoms: C_3  and  C_7 
ROOT
HETATM    1  N   UNL     1      67.561   7.540   6.687  1.00  0.00    -0.351 N 
ATOM      2  HN  UNL     1      68.543   7.775   6.543  1.00  0.00     0.166 HD
HETATM    3  C   UNL     1      67.053   6.395   7.260  1.00  0.00     0.059 A 
HETATM    4  N   UNL     1      65.351   7.650   6.729  1.00  0.00    -0.360 N 
HETATM    5  C   UNL     1      66.514   8.266   6.366  1.00  0.00     0.180 A 
HETATM    6  C   UNL     1      65.676   6.453   7.302  1.00  0.00     0.119 A 
HETATM    7  H   UNL     1      64.441   8.005   6.601  1.00  0.00     0.166 HD
ENDROOT
BRANCH   3   8
HETATM    8  C   UNL     1      67.877   5.318   7.781  1.00  0.00    -0.008 A 
HETATM    9  C   UNL     1      68.375   5.398   9.088  1.00  0.00     0.014 A 
HETATM   10  C   UNL     1      69.137   4.356   9.623  1.00  0.00     0.001 A 
HETATM   11  C   UNL     1      69.423   3.232   8.849  1.00  0.00     0.000 A 
HETATM   12  C   UNL     1      68.951   3.151   7.540  1.00  0.00     0.001 A 
HETATM   13  C   UNL     1      68.182   4.189   7.008  1.00  0.00     0.014 A 
ENDBRANCH   3   8
TORSDOF 1
ENDMDL
MODEL 7
REMARK VINA RESULT:      -4.6     17.509     18.936
REMARK  1 active torsions:
REMARK  status: ('A' for Active; 'I' for Inactive)
REMARK    1  A    between atoms: C_3  and  C_7 
ROOT
HETATM    1  N   UNL     1      67.716   2.520   9.574  1.00  0.00    -0.351 N 
ATOM      2  HN  UNL     1      66.801   2.273   9.198  1.00  0.00     0.166 HD
HETATM    3  C   UNL     1      68.439   3.665   9.325  1.00  0.00     0.059 A 
HETATM    4  N   UNL     1      69.613   2.462  10.714  1.00  0.00    -0.360 N 
HETATM    5  C   UNL     1      68.454   1.812  10.399  1.00  0.00     0.180 A 
HETATM    6  C   UNL     1      69.621   3.648  10.035  1.00  0.00     0.119 A 
HETATM    7  H   UNL     1      70.317   2.135  11.320  1.00  0.00     0.166 HD
ENDROOT
BRANCH   3   8
HETATM    8  C   UNL     1      67.975   4.742   8.467  1.00  0.00    -0.008 A 
HETATM    9  C   UNL     1      68.080   4.614   7.077  1.00  0.00     0.014 A 
HETATM   10  C   UNL     1      67.604   5.621   6.232  1.00  0.00     0.001 A 
HETATM   11  C   UNL     1      67.034   6.773   6.772  1.00  0.00     0.000 A 
HETATM   12  C   UNL     1      66.944   6.921   8.155  1.00  0.00     0.001 A 
HETATM   13  C   UNL     1      67.411   5.911   8.999  1.00  0.00     0.014 A 
ENDBRANCH   3   8
TORSDOF 1
ENDMDL
MODEL 8
REMARK VINA RESULT:      -4.5     16.371     18.304
REMARK  1 active torsions:
REMARK  status: ('A' for Active; 'I' for Inactive)
REMARK    1  A    between atoms: C_3  and  C_7 
ROOT
HETATM    1  N   UNL     1      67.070   7.437   7.470  1.00  0.00    -0.351 N 
ATOM      2  HN  UNL     1      66.939   7.587   8.470  1.00  0.00     0.166 HD
HETATM    3  C   UNL     1      67.681   6.364   6.861  1.00  0.00     0.059 A 
HETATM    4  N   UNL     1      67.011   7.700   5.273  1.00  0.00    -0.360 N 
HETATM    5  C   UNL     1      66.692   8.228   6.491  1.00  0.00     0.180 A 
HETATM    6  C   UNL     1      67.644   6.508   5.490  1.00  0.00     0.119 A 
HETATM    7  H   UNL     1      66.819   8.104   4.395  1.00  0.00     0.166 HD
ENDROOT
BRANCH   3   8
HETATM    8  C   UNL     1      68.234   5.232   7.584  1.00  0.00    -0.008 A 
HETATM    9  C   UNL     1      68.315   3.982   6.956  1.00  0.00     0.014 A 
HETATM   10  C   UNL     1      68.879   2.889   7.620  1.00  0.00     0.001 A 
HETATM   11  C   UNL     1      69.352   3.032   8.923  1.00  0.00     0.000 A 
HETATM   12  C   UNL     1      69.255   4.265   9.566  1.00  0.00     0.001 A 
HETATM   13  C   UNL     1      68.700   5.360   8.900  1.00  0.00     0.014 A 
ENDBRANCH   3   8
TORSDOF 1
ENDMDL
MODEL 9
REMARK VINA RESULT:      -4.5     21.452     22.785
REMARK  1 active torsions:
REMARK  status: ('A' for Active; 'I' for Inactive)
REMARK    1  A    between atoms: C_3  and  C_7 
ROOT
HETATM    1  N   UNL     1      78.077   0.745  18.834  1.00  0.00    -0.351 N 
ATOM      2  HN  UNL     1      78.332  -0.235  18.713  1.00  0.00     0.166 HD
HETATM    3  C   UNL     1      77.219   1.486  18.052  1.00  0.00     0.059 A 
HETATM    4  N   UNL     1      77.933   2.803  19.637  1.00  0.00    -0.360 N 
HETATM    5  C   UNL     1      78.500   1.567  19.767  1.00  0.00     0.180 A 
HETATM    6  C   UNL     1      77.111   2.769  18.545  1.00  0.00     0.119 A 
HETATM    7  H   UNL     1      78.087   3.578  20.224  1.00  0.00     0.166 HD
ENDROOT
BRANCH   3   8
HETATM    8  C   UNL     1      76.506   0.951  16.905  1.00  0.00    -0.008 A 
HETATM    9  C   UNL     1      75.162   1.290  16.705  1.00  0.00     0.014 A 
HETATM   10  C   UNL     1      74.468   0.818  15.588  1.00  0.00     0.001 A 
HETATM   11  C   UNL     1      75.108  -0.011  14.668  1.00  0.00     0.000 A 
HETATM   12  C   UNL     1      76.439  -0.373  14.867  1.00  0.00     0.001 A 
HETATM   13  C   UNL     1      77.136   0.105  15.980  1.00  0.00     0.014 A 
ENDBRANCH   3   8
TORSDOF 1
ENDMDL
