MODEL 1
REMARK VINA RESULT:      -5.6      0.000      0.000
REMARK  2 active torsions:
REMARK  status: ('A' for Active; 'I' for Inactive)
REMARK    1  A    between atoms: C_2  and  C_4 
REMARK    2  A    between atoms: C_3  and  C_8 
ROOT
HETATM    1  S   UNL     1      76.903   6.712  15.403  1.00  0.00    -0.086 SA
HETATM    2  C   UNL     1      76.504   6.065  16.938  1.00  0.00     0.022 A 
HETATM    3  C   UNL     1      77.308   8.245  16.041  1.00  0.00     0.051 A 
HETATM    4  C   UNL     1      76.715   7.004  17.930  1.00  0.00     0.021 A 
HETATM    5  C   UNL     1      77.174   8.256  17.416  1.00  0.00     0.024 A 
ENDROOT
BRANCH   2   6
HETATM    6  C   UNL     1      76.000   4.719  17.072  1.00  0.00     0.021 A 
HETATM    7  S   UNL     1      76.843   3.535  17.990  1.00  0.00    -0.101 SA
HETATM    8  C   UNL     1      75.638   2.356  17.713  1.00  0.00     0.050 A 
HETATM    9  C   UNL     1      74.621   2.834  16.921  1.00  0.00     0.008 A 
HETATM   10  C   UNL     1      74.832   4.193  16.548  1.00  0.00     0.021 A 
ENDBRANCH   2   6
BRANCH   3  11
HETATM   11  C   UNL     1      77.726   9.351  15.185  1.00  0.00     0.162 C 
HETATM   12  O   UNL     1      77.941  10.479  15.628  1.00  0.00    -0.292 OA
HETATM   13  C   UNL     1      77.894   9.085  13.705  1.00  0.00     0.097 C 
ENDBRANCH   3  11
TORSDOF 2
ENDMDL
MODEL 2
REMARK VINA RESULT:      -5.0     13.319     14.153
REMARK  2 active torsions:
REMARK  status: ('A' for Active; 'I' for Inactive)
REMARK    1  A    between atoms: C_2  and  C_4 
REMARK    2  A    between atoms: C_3  and  C_8 
ROOT
HETATM    1  S   UNL     1      65.687   6.780   6.989  1.00  0.00    -0.086 SA
HETATM    2  C   UNL     1      67.295   6.209   6.835  1.00  0.00     0.022 A 
HETATM    3  C   UNL     1      65.820   7.818   5.638  1.00  0.00     0.051 A 
HETATM    4  C   UNL     1      67.911   6.781   5.739  1.00  0.00     0.021 A 
HETATM    5  C   UNL     1      67.066   7.707   5.052  1.00  0.00     0.024 A 
ENDROOT
BRANCH   2   6
HETATM    6  C   UNL     1      67.848   5.275   7.787  1.00  0.00     0.021 A 
HETATM    7  S   UNL     1      67.235   3.675   7.932  1.00  0.00    -0.101 SA
HETATM    8  C   UNL     1      68.390   3.263   9.123  1.00  0.00     0.050 A 
HETATM    9  C   UNL     1      69.215   4.317   9.429  1.00  0.00     0.008 A 
HETATM   10  C   UNL     1      68.900   5.478   8.664  1.00  0.00     0.021 A 
ENDBRANCH   2   6
BRANCH   3  11
HETATM   11  C   UNL     1      64.722   8.685   5.219  1.00  0.00     0.162 C 
HETATM   12  O   UNL     1      64.541   9.800   5.708  1.00  0.00    -0.292 OA
HETATM   13  C   UNL     1      63.782   8.178   4.146  1.00  0.00     0.097 C 
ENDBRANCH   3  11
TORSDOF 2
ENDMDL
MODEL 3
REMARK VINA RESULT:      -4.7     11.555     13.112
REMARK  2 active torsions:
REMARK  status: ('A' for Active; 'I' for Inactive)
REMARK    1  A    between atoms: C_2  and  C_4 
REMARK    2  A    between atoms: C_3  and  C_8 
ROOT
HETATM    1  S   UNL     1      67.561   3.571   8.576  1.00  0.00    -0.086 SA
HETATM    2  C   UNL     1      68.251   5.066   8.103  1.00  0.00     0.022 A 
HETATM    3  C   UNL     1      68.953   3.088   9.444  1.00  0.00     0.051 A 
HETATM    4  C   UNL     1      69.518   5.207   8.636  1.00  0.00     0.021 A 
HETATM    5  C   UNL     1      69.923   4.071   9.403  1.00  0.00     0.024 A 
ENDROOT
BRANCH   2   6
HETATM    6  C   UNL     1      67.535   5.977   7.242  1.00  0.00     0.021 A 
HETATM    7  S   UNL     1      66.056   6.702   7.737  1.00  0.00    -0.101 SA
HETATM    8  C   UNL     1      65.932   7.607   6.293  1.00  0.00     0.050 A 
HETATM    9  C   UNL     1      66.974   7.355   5.434  1.00  0.00     0.008 A 
HETATM   10  C   UNL     1      67.896   6.413   5.978  1.00  0.00     0.021 A 
ENDBRANCH   2   6
BRANCH   3  11
HETATM   11  C   UNL     1      69.036   1.792  10.109  1.00  0.00     0.162 C 
HETATM   12  O   UNL     1      68.171   1.397  10.890  1.00  0.00    -0.292 OA
HETATM   13  C   UNL     1      70.237   0.917   9.819  1.00  0.00     0.097 C 
ENDBRANCH   3  11
TORSDOF 2
ENDMDL
MODEL 4
REMARK VINA RESULT:      -4.6     11.781     12.597
REMARK  2 active torsions:
REMARK  status: ('A' for Active; 'I' for Inactive)
REMARK    1  A    between atoms: C_2  and  C_4 
REMARK    2  A    between atoms: C_3  and  C_8 
ROOT
HETATM    1  S   UNL     1      67.634   5.330   6.849  1.00  0.00    -0.086 SA
HETATM    2  C   UNL     1      67.870   4.986   8.511  1.00  0.00     0.022 A 
HETATM    3  C   UNL     1      67.011   6.892   7.157  1.00  0.00     0.051 A 
HETATM    4  C   UNL     1      67.509   6.071   9.287  1.00  0.00     0.021 A 
HETATM    5  C   UNL     1      67.014   7.164   8.512  1.00  0.00     0.024 A 
ENDROOT
BRANCH   2   6
HETATM    6  C   UNL     1      68.361   3.699   8.943  1.00  0.00     0.021 A 
HETATM    7  S   UNL     1      67.772   2.239   8.253  1.00  0.00    -0.101 SA
HETATM    8  C   UNL     1      68.831   1.282   9.194  1.00  0.00     0.050 A 
HETATM    9  C   UNL     1      69.605   2.044  10.035  1.00  0.00     0.008 A 
HETATM   10  C   UNL     1      69.331   3.436   9.894  1.00  0.00     0.021 A 
ENDBRANCH   2   6
BRANCH   3  11
HETATM   11  C   UNL     1      66.550   7.764   6.082  1.00  0.00     0.162 C 
HETATM   12  O   UNL     1      66.037   8.862   6.300  1.00  0.00    -0.292 OA
HETATM   13  C   UNL     1      66.714   7.287   4.655  1.00  0.00     0.097 C 
ENDBRANCH   3  11
TORSDOF 2
ENDMDL
MODEL 5
REMARK VINA RESULT:      -4.5     15.359     16.543
REMARK  2 active torsions:
REMARK  status: ('A' for Active; 'I' for Inactive)
REMARK    1  A    between atoms: C_2  and  C_4 
REMARK    2  A    between atoms: C_3  and  C_8 
ROOT
HETATM    1  S   UNL     1      64.630   6.690   6.743  1.00  0.00    -0.086 SA
HETATM    2  C   UNL     1      65.008   7.834   5.526  1.00  0.00     0.022 A 
HETATM    3  C   UNL     1      66.264   6.492   7.205  1.00  0.00     0.051 A 
HETATM    4  C   UNL     1      66.366   8.087   5.501  1.00  0.00     0.021 A 
HETATM    5  C   UNL     1      67.089   7.315   6.463  1.00  0.00     0.024 A 
ENDROOT
BRANCH   2   6
HETATM    6  C   UNL     1      63.979   8.384   4.676  1.00  0.00     0.021 A 
HETATM    7  S   UNL     1      63.418   7.538   3.287  1.00  0.00    -0.101 SA
HETATM    8  C   UNL     1      62.263   8.745   2.929  1.00  0.00     0.050 A 
HETATM    9  C   UNL     1      62.308   9.786   3.825  1.00  0.00     0.008 A 
HETATM   10  C   UNL     1      63.299   9.580   4.829  1.00  0.00     0.021 A 
ENDBRANCH   2   6
BRANCH   3  11
HETATM   11  C   UNL     1      66.663   5.554   8.250  1.00  0.00     0.162 C 
HETATM   12  O   UNL     1      66.048   4.511   8.468  1.00  0.00    -0.292 OA
HETATM   13  C   UNL     1      67.878   5.893   9.088  1.00  0.00     0.097 C 
ENDBRANCH   3  11
TORSDOF 2
ENDMDL
MODEL 6
REMARK VINA RESULT:      -4.5      4.040      6.053
REMARK  2 active torsions:
REMARK  status: ('A' for Active; 'I' for Inactive)
REMARK    1  A    between atoms: C_2  and  C_4 
REMARK    2  A    between atoms: C_3  and  C_8 
ROOT
HETATM    1  S   UNL     1      76.884   1.208  17.538  1.00  0.00    -0.086 SA
HETATM    2  C   UNL     1      75.616   0.558  16.588  1.00  0.00     0.022 A 
HETATM    3  C   UNL     1      76.129   2.735  17.681  1.00  0.00     0.051 A 
HETATM    4  C   UNL     1      74.610   1.491  16.415  1.00  0.00     0.021 A 
HETATM    5  C   UNL     1      74.905   2.742  17.040  1.00  0.00     0.024 A 
ENDROOT
BRANCH   2   6
HETATM    6  C   UNL     1      75.690  -0.785  16.064  1.00  0.00     0.021 A 
HETATM    7  S   UNL     1      77.199  -1.585  15.864  1.00  0.00    -0.101 SA
HETATM    8  C   UNL     1      76.449  -3.018  15.312  1.00  0.00     0.050 A 
HETATM    9  C   UNL     1      75.081  -2.896  15.255  1.00  0.00     0.008 A 
HETATM   10  C   UNL     1      74.645  -1.608  15.683  1.00  0.00     0.021 A 
ENDBRANCH   2   6
BRANCH   3  11
HETATM   11  C   UNL     1      76.757   3.842  18.396  1.00  0.00     0.162 C 
HETATM   12  O   UNL     1      77.134   3.742  19.563  1.00  0.00    -0.292 OA
HETATM   13  C   UNL     1      76.942   5.153  17.661  1.00  0.00     0.097 C 
ENDBRANCH   3  11
TORSDOF 2
ENDMDL
MODEL 7
REMARK VINA RESULT:      -4.1      3.564      5.577
REMARK  2 active torsions:
REMARK  status: ('A' for Active; 'I' for Inactive)
REMARK    1  A    between atoms: C_2  and  C_4 
REMARK    2  A    between atoms: C_3  and  C_8 
ROOT
HETATM    1  S   UNL     1      74.978   2.188  17.209  1.00  0.00    -0.086 SA
HETATM    2  C   UNL     1      75.638   0.694  17.727  1.00  0.00     0.022 A 
HETATM    3  C   UNL     1      76.353   3.079  17.696  1.00  0.00     0.051 A 
HETATM    4  C   UNL     1      76.912   0.875  18.232  1.00  0.00     0.021 A 
HETATM    5  C   UNL     1      77.322   2.244  18.217  1.00  0.00     0.024 A 
ENDROOT
BRANCH   2   6
HETATM    6  C   UNL     1      74.879  -0.530  17.630  1.00  0.00     0.021 A 
HETATM    7  S   UNL     1      75.520  -1.922  16.850  1.00  0.00    -0.101 SA
HETATM    8  C   UNL     1      74.134  -2.853  17.212  1.00  0.00     0.050 A 
HETATM    9  C   UNL     1      73.187  -2.126  17.892  1.00  0.00     0.008 A 
HETATM   10  C   UNL     1      73.614  -0.787  18.128  1.00  0.00     0.021 A 
ENDBRANCH   2   6
BRANCH   3  11
HETATM   11  C   UNL     1      76.421   4.531  17.555  1.00  0.00     0.162 C 
HETATM   12  O   UNL     1      77.095   5.234  18.307  1.00  0.00    -0.292 OA
HETATM   13  C   UNL     1      75.628   5.178  16.439  1.00  0.00     0.097 C 
ENDBRANCH   3  11
TORSDOF 2
ENDMDL
MODEL 8
REMARK VINA RESULT:      -4.1     18.494     19.415
REMARK  2 active torsions:
REMARK  status: ('A' for Active; 'I' for Inactive)
REMARK    1  A    between atoms: C_2  and  C_4 
REMARK    2  A    between atoms: C_3  and  C_8 
ROOT
HETATM    1  S   UNL     1      63.427   7.229   3.926  1.00  0.00    -0.086 SA
HETATM    2  C   UNL     1      62.275   8.419   3.488  1.00  0.00     0.022 A 
HETATM    3  C   UNL     1      64.261   8.282   4.984  1.00  0.00     0.051 A 
HETATM    4  C   UNL     1      62.508   9.596   4.174  1.00  0.00     0.021 A 
HETATM    5  C   UNL     1      63.648   9.519   5.031  1.00  0.00     0.024 A 
ENDROOT
BRANCH   2   6
HETATM    6  C   UNL     1      61.254   8.141   2.507  1.00  0.00     0.021 A 
HETATM    7  S   UNL     1      60.030   6.969   2.796  1.00  0.00    -0.101 SA
HETATM    8  C   UNL     1      59.266   7.291   1.302  1.00  0.00     0.050 A 
HETATM    9  C   UNL     1      59.930   8.252   0.579  1.00  0.00     0.008 A 
HETATM   10  C   UNL     1      61.078   8.739   1.270  1.00  0.00     0.021 A 
ENDBRANCH   2   6
BRANCH   3  11
HETATM   11  C   UNL     1      65.459   7.862   5.705  1.00  0.00     0.162 C 
HETATM   12  O   UNL     1      65.445   7.601   6.908  1.00  0.00    -0.292 OA
HETATM   13  C   UNL     1      66.755   7.749   4.932  1.00  0.00     0.097 C 
ENDBRANCH   3  11
TORSDOF 2
ENDMDL
MODEL 9
REMARK VINA RESULT:      -4.1      2.352      5.821
REMARK  2 active torsions:
REMARK  status: ('A' for Active; 'I' for Inactive)
REMARK    1  A    between atoms: C_2  and  C_4 
REMARK    2  A    between atoms: C_3  and  C_8 
ROOT
HETATM    1  S   UNL     1      76.901   6.548  15.647  1.00  0.00    -0.086 SA
HETATM    2  C   UNL     1      77.247   8.202  15.928  1.00  0.00     0.022 A 
HETATM    3  C   UNL     1      76.795   6.183  17.313  1.00  0.00     0.051 A 
HETATM    4  C   UNL     1      77.243   8.475  17.283  1.00  0.00     0.021 A 
HETATM    5  C   UNL     1      76.986   7.317  18.079  1.00  0.00     0.024 A 
ENDROOT
BRANCH   2   6
HETATM    6  C   UNL     1      77.516   9.103  14.833  1.00  0.00     0.021 A 
HETATM    7  S   UNL     1      77.829   8.518  13.247  1.00  0.00    -0.101 SA
HETATM    8  C   UNL     1      77.960  10.098  12.610  1.00  0.00     0.050 A 
HETATM    9  C   UNL     1      77.793  11.060  13.577  1.00  0.00     0.008 A 
HETATM   10  C   UNL     1      77.542  10.487  14.859  1.00  0.00     0.021 A 
ENDBRANCH   2   6
BRANCH   3  11
HETATM   11  C   UNL     1      76.539   4.828  17.792  1.00  0.00     0.162 C 
HETATM   12  O   UNL     1      77.038   4.391  18.829  1.00  0.00    -0.292 OA
HETATM   13  C   UNL     1      75.626   3.941  16.972  1.00  0.00     0.097 C 
ENDBRANCH   3  11
TORSDOF 2
ENDMDL
