MODEL 1
REMARK VINA RESULT:      -5.8      0.000      0.000
REMARK  3 active torsions:
REMARK  status: ('A' for Active; 'I' for Inactive)
REMARK    1  A    between atoms: C_1  and  C_3 
REMARK    2  A    between atoms: C_2  and  N_7 
REMARK    3  A    between atoms: N_7  and  N_11 
ROOT
HETATM    1  C   UNL     1      77.200  11.191  18.596  1.00  0.00     0.117 A 
HETATM    2  C   UNL     1      77.786  12.298  20.676  1.00  0.00     0.052 A 
HETATM    3  C   UNL     1      77.893  11.203  19.805  1.00  0.00     0.066 A 
HETATM    4  N   UNL     1      76.410  12.243  18.251  1.00  0.00    -0.351 N 
ATOM      5  HN  UNL     1      75.894  12.236  17.372  1.00  0.00     0.166 HD
HETATM    6  C   UNL     1      76.320  13.295  19.091  1.00  0.00     0.090 A 
HETATM    7  C   UNL     1      76.978  13.371  20.303  1.00  0.00     0.033 A 
ENDROOT
BRANCH   1   8
HETATM    8  N   UNL     1      77.259  10.103  17.705  1.00  0.00    -0.305 N 
HETATM    9  C   UNL     1      77.260   8.730  18.190  1.00  0.00     0.173 C 
BRANCH   8  10
HETATM   10  N   UNL     1      77.724  10.357  16.388  1.00  0.00    -0.246 NA
HETATM   11  H   UNL     1      78.580   9.827  16.220  1.00  0.00     0.143 HD
HETATM   12  H   UNL     1      77.915  11.353  16.281  1.00  0.00     0.143 HD
ENDBRANCH   8  10
ENDBRANCH   1   8
BRANCH   2  13
HETATM   13  C   UNL     1      78.512  12.316  21.992  1.00  0.00     0.417 C 
HETATM   14  F   UNL     1      79.752  11.758  21.940  1.00  0.00    -0.166 F 
HETATM   15  F   UNL     1      77.839  11.642  22.965  1.00  0.00    -0.166 F 
HETATM   16  F   UNL     1      78.692  13.580  22.469  1.00  0.00    -0.166 F 
ENDBRANCH   2  13
TORSDOF 3
ENDMDL
MODEL 2
REMARK VINA RESULT:      -5.5     14.576     15.647
REMARK  3 active torsions:
REMARK  status: ('A' for Active; 'I' for Inactive)
REMARK    1  A    between atoms: C_1  and  C_3 
REMARK    2  A    between atoms: C_2  and  N_7 
REMARK    3  A    between atoms: N_7  and  N_11 
ROOT
HETATM    1  C   UNL     1      71.696  23.700  13.632  1.00  0.00     0.117 A 
HETATM    2  C   UNL     1      70.008  24.797  14.989  1.00  0.00     0.052 A 
HETATM    3  C   UNL     1      70.389  23.770  14.113  1.00  0.00     0.066 A 
HETATM    4  N   UNL     1      72.613  24.631  14.007  1.00  0.00    -0.351 N 
ATOM      5  HN  UNL     1      73.568  24.590  13.652  1.00  0.00     0.166 HD
HETATM    6  C   UNL     1      72.239  25.610  14.858  1.00  0.00     0.090 A 
HETATM    7  C   UNL     1      70.964  25.739  15.370  1.00  0.00     0.033 A 
ENDROOT
BRANCH   1   8
HETATM    8  N   UNL     1      72.114  22.701  12.732  1.00  0.00    -0.305 N 
HETATM    9  C   UNL     1      71.190  21.684  12.252  1.00  0.00     0.173 C 
BRANCH   8  10
HETATM   10  N   UNL     1      73.508  22.457  12.624  1.00  0.00    -0.246 NA
HETATM   11  H   UNL     1      73.821  22.678  11.679  1.00  0.00     0.143 HD
HETATM   12  H   UNL     1      73.697  21.475  12.824  1.00  0.00     0.143 HD
ENDBRANCH   8  10
ENDBRANCH   1   8
BRANCH   2  13
HETATM   13  C   UNL     1      68.598  24.898  15.500  1.00  0.00     0.417 C 
HETATM   14  F   UNL     1      68.122  23.734  16.022  1.00  0.00    -0.166 F 
HETATM   15  F   UNL     1      67.717  25.259  14.527  1.00  0.00    -0.166 F 
HETATM   16  F   UNL     1      68.468  25.828  16.488  1.00  0.00    -0.166 F 
ENDBRANCH   2  13
TORSDOF 3
ENDMDL
MODEL 3
REMARK VINA RESULT:      -5.5     14.010     15.333
REMARK  3 active torsions:
REMARK  status: ('A' for Active; 'I' for Inactive)
REMARK    1  A    between atoms: C_1  and  C_3 
REMARK    2  A    between atoms: C_2  and  N_7 
REMARK    3  A    between atoms: N_7  and  N_11 
ROOT
HETATM    1  C   UNL     1      70.526  23.881  14.610  1.00  0.00     0.117 A 
HETATM    2  C   UNL     1      71.570  22.442  12.956  1.00  0.00     0.052 A 
HETATM    3  C   UNL     1      70.459  23.166  13.416  1.00  0.00     0.066 A 
HETATM    4  N   UNL     1      71.672  23.880  15.344  1.00  0.00    -0.351 N 
ATOM      5  HN  UNL     1      71.724  24.394  16.223  1.00  0.00     0.166 HD
HETATM    6  C   UNL     1      72.738  23.188  14.890  1.00  0.00     0.090 A 
HETATM    7  C   UNL     1      72.739  22.458  13.717  1.00  0.00     0.033 A 
ENDROOT
BRANCH   1   8
HETATM    8  N   UNL     1      69.429  24.600  15.119  1.00  0.00    -0.305 N 
HETATM    9  C   UNL     1      68.075  24.345  14.646  1.00  0.00     0.173 C 
BRANCH   8  10
HETATM   10  N   UNL     1      69.698  25.828  15.779  1.00  0.00    -0.246 NA
HETATM   11  H   UNL     1      69.565  26.601  15.126  1.00  0.00     0.143 HD
HETATM   12  H   UNL     1      70.660  25.829  16.116  1.00  0.00     0.143 HD
ENDBRANCH   8  10
ENDBRANCH   1   8
BRANCH   2  13
HETATM   13  C   UNL     1      71.507  21.649  11.681  1.00  0.00     0.417 C 
HETATM   14  F   UNL     1      70.535  22.069  10.825  1.00  0.00    -0.166 F 
HETATM   15  F   UNL     1      71.265  20.328  11.901  1.00  0.00    -0.166 F 
HETATM   16  F   UNL     1      72.672  21.704  10.976  1.00  0.00    -0.166 F 
ENDBRANCH   2  13
TORSDOF 3
ENDMDL
MODEL 4
REMARK VINA RESULT:      -5.4     12.862     14.439
REMARK  3 active torsions:
REMARK  status: ('A' for Active; 'I' for Inactive)
REMARK    1  A    between atoms: C_1  and  C_3 
REMARK    2  A    between atoms: C_2  and  N_7 
REMARK    3  A    between atoms: N_7  and  N_11 
ROOT
HETATM    1  C   UNL     1      72.833  22.983  14.806  1.00  0.00     0.117 A 
HETATM    2  C   UNL     1      71.405  22.469  12.911  1.00  0.00     0.052 A 
HETATM    3  C   UNL     1      72.619  22.322  13.598  1.00  0.00     0.066 A 
HETATM    4  N   UNL     1      71.863  23.781  15.329  1.00  0.00    -0.351 N 
ATOM      5  HN  UNL     1      72.017  24.274  16.208  1.00  0.00     0.166 HD
HETATM    6  C   UNL     1      70.695  23.910  14.665  1.00  0.00     0.090 A 
HETATM    7  C   UNL     1      70.419  23.285  13.465  1.00  0.00     0.033 A 
ENDROOT
BRANCH   1   8
HETATM    8  N   UNL     1      74.044  22.883  15.516  1.00  0.00    -0.305 N 
HETATM    9  C   UNL     1      74.775  21.625  15.587  1.00  0.00     0.173 C 
BRANCH   8  10
HETATM   10  N   UNL     1      74.326  23.887  16.479  1.00  0.00    -0.246 NA
HETATM   11  H   UNL     1      74.975  23.519  17.175  1.00  0.00     0.143 HD
HETATM   12  H   UNL     1      73.460  24.170  16.937  1.00  0.00     0.143 HD
ENDBRANCH   8  10
ENDBRANCH   1   8
BRANCH   2  13
HETATM   13  C   UNL     1      71.168  21.778  11.597  1.00  0.00     0.417 C 
HETATM   14  F   UNL     1      72.292  21.639  10.843  1.00  0.00    -0.166 F 
HETATM   15  F   UNL     1      70.273  22.443  10.815  1.00  0.00    -0.166 F 
HETATM   16  F   UNL     1      70.666  20.520  11.754  1.00  0.00    -0.166 F 
ENDBRANCH   2  13
TORSDOF 3
ENDMDL
MODEL 5
REMARK VINA RESULT:      -5.3      7.991      9.403
REMARK  3 active torsions:
REMARK  status: ('A' for Active; 'I' for Inactive)
REMARK    1  A    between atoms: C_1  and  C_3 
REMARK    2  A    between atoms: C_2  and  N_7 
REMARK    3  A    between atoms: N_7  and  N_11 
ROOT
HETATM    1  C   UNL     1      76.891   1.925  18.090  1.00  0.00     0.117 A 
HETATM    2  C   UNL     1      76.165   4.116  17.337  1.00  0.00     0.052 A 
HETATM    3  C   UNL     1      77.116   3.294  17.960  1.00  0.00     0.066 A 
HETATM    4  N   UNL     1      75.742   1.373  17.616  1.00  0.00    -0.351 N 
ATOM      5  HN  UNL     1      75.567   0.374  17.716  1.00  0.00     0.166 HD
HETATM    6  C   UNL     1      74.836   2.170  17.011  1.00  0.00     0.090 A 
HETATM    7  C   UNL     1      74.996   3.532  16.849  1.00  0.00     0.033 A 
ENDROOT
BRANCH   1   8
HETATM    8  N   UNL     1      77.807   1.069  18.730  1.00  0.00    -0.305 N 
HETATM    9  C   UNL     1      77.482  -0.328  18.986  1.00  0.00     0.173 C 
BRANCH   8  10
HETATM   10  N   UNL     1      78.857   1.669  19.474  1.00  0.00    -0.246 NA
HETATM   11  H   UNL     1      79.318   2.376  18.902  1.00  0.00     0.143 HD
HETATM   12  H   UNL     1      79.534   0.955  19.743  1.00  0.00     0.143 HD
ENDBRANCH   8  10
ENDBRANCH   1   8
BRANCH   2  13
HETATM   13  C   UNL     1      76.384   5.597  17.207  1.00  0.00     0.417 C 
HETATM   14  F   UNL     1      75.558   6.342  17.991  1.00  0.00    -0.166 F 
HETATM   15  F   UNL     1      76.193   6.041  15.934  1.00  0.00    -0.166 F 
HETATM   16  F   UNL     1      77.652   5.967  17.545  1.00  0.00    -0.166 F 
ENDBRANCH   2  13
TORSDOF 3
ENDMDL
MODEL 6
REMARK VINA RESULT:      -5.2     13.379     13.914
REMARK  3 active torsions:
REMARK  status: ('A' for Active; 'I' for Inactive)
REMARK    1  A    between atoms: C_1  and  C_3 
REMARK    2  A    between atoms: C_2  and  N_7 
REMARK    3  A    between atoms: N_7  and  N_11 
ROOT
HETATM    1  C   UNL     1      71.349  21.591  11.785  1.00  0.00     0.117 A 
HETATM    2  C   UNL     1      72.194  22.905  13.643  1.00  0.00     0.052 A 
HETATM    3  C   UNL     1      72.411  22.010  12.584  1.00  0.00     0.066 A 
HETATM    4  N   UNL     1      70.090  22.044  12.028  1.00  0.00    -0.351 N 
ATOM      5  HN  UNL     1      69.308  21.734  11.452  1.00  0.00     0.166 HD
HETATM    6  C   UNL     1      69.893  22.911  13.043  1.00  0.00     0.090 A 
HETATM    7  C   UNL     1      70.898  23.367  13.873  1.00  0.00     0.033 A 
ENDROOT
BRANCH   1   8
HETATM    8  N   UNL     1      71.517  20.676  10.729  1.00  0.00    -0.305 N 
HETATM    9  C   UNL     1      70.734  19.450  10.661  1.00  0.00     0.173 C 
BRANCH   8  10
HETATM   10  N   UNL     1      72.718  20.756   9.975  1.00  0.00    -0.246 NA
HETATM   11  H   UNL     1      73.059  19.816   9.777  1.00  0.00     0.143 HD
HETATM   12  H   UNL     1      73.420  21.268  10.509  1.00  0.00     0.143 HD
ENDBRANCH   8  10
ENDBRANCH   1   8
BRANCH   2  13
HETATM   13  C   UNL     1      73.326  23.351  14.526  1.00  0.00     0.417 C 
HETATM   14  F   UNL     1      74.553  22.976  14.072  1.00  0.00    -0.166 F 
HETATM   15  F   UNL     1      73.226  22.853  15.789  1.00  0.00    -0.166 F 
HETATM   16  F   UNL     1      73.378  24.706  14.661  1.00  0.00    -0.166 F 
ENDBRANCH   2  13
TORSDOF 3
ENDMDL
MODEL 7
REMARK VINA RESULT:      -5.1     21.304     22.214
REMARK  3 active torsions:
REMARK  status: ('A' for Active; 'I' for Inactive)
REMARK    1  A    between atoms: C_1  and  C_3 
REMARK    2  A    between atoms: C_2  and  N_7 
REMARK    3  A    between atoms: N_7  and  N_11 
ROOT
HETATM    1  C   UNL     1      63.866   8.951   5.059  1.00  0.00     0.117 A 
HETATM    2  C   UNL     1      62.551   9.440   3.077  1.00  0.00     0.052 A 
HETATM    3  C   UNL     1      63.442   8.611   3.775  1.00  0.00     0.066 A 
HETATM    4  N   UNL     1      63.421  10.095   5.645  1.00  0.00    -0.351 N 
ATOM      5  HN  UNL     1      63.734  10.354   6.580  1.00  0.00     0.166 HD
HETATM    6  C   UNL     1      62.557  10.882   4.969  1.00  0.00     0.090 A 
HETATM    7  C   UNL     1      62.097  10.605   3.697  1.00  0.00     0.033 A 
ENDROOT
BRANCH   1   8
HETATM    8  N   UNL     1      64.778   8.162   5.784  1.00  0.00    -0.305 N 
HETATM    9  C   UNL     1      64.381   6.881   6.353  1.00  0.00     0.173 C 
BRANCH   8  10
HETATM   10  N   UNL     1      65.938   8.801   6.295  1.00  0.00    -0.246 NA
HETATM   11  H   UNL     1      66.724   8.635   5.666  1.00  0.00     0.143 HD
HETATM   12  H   UNL     1      66.155   8.425   7.218  1.00  0.00     0.143 HD
ENDBRANCH   8  10
ENDBRANCH   1   8
BRANCH   2  13
HETATM   13  C   UNL     1      62.100   9.097   1.685  1.00  0.00     0.417 C 
HETATM   14  F   UNL     1      62.425  10.039   0.758  1.00  0.00    -0.166 F 
HETATM   15  F   UNL     1      60.750   8.938   1.600  1.00  0.00    -0.166 F 
HETATM   16  F   UNL     1      62.642   7.930   1.235  1.00  0.00    -0.166 F 
ENDBRANCH   2  13
TORSDOF 3
ENDMDL
MODEL 8
REMARK VINA RESULT:      -5.1     15.808     16.787
REMARK  3 active torsions:
REMARK  status: ('A' for Active; 'I' for Inactive)
REMARK    1  A    between atoms: C_1  and  C_3 
REMARK    2  A    between atoms: C_2  and  N_7 
REMARK    3  A    between atoms: N_7  and  N_11 
ROOT
HETATM    1  C   UNL     1      66.872   6.949   7.072  1.00  0.00     0.117 A 
HETATM    2  C   UNL     1      68.376   5.647   8.464  1.00  0.00     0.052 A 
HETATM    3  C   UNL     1      68.066   6.248   7.234  1.00  0.00     0.066 A 
HETATM    4  N   UNL     1      65.994   7.052   8.105  1.00  0.00    -0.351 N 
ATOM      5  HN  UNL     1      65.115   7.556   7.990  1.00  0.00     0.166 HD
HETATM    6  C   UNL     1      66.305   6.478   9.287  1.00  0.00     0.090 A 
HETATM    7  C   UNL     1      67.469   5.771   9.516  1.00  0.00     0.033 A 
ENDROOT
BRANCH   1   8
HETATM    8  N   UNL     1      66.509   7.545   5.849  1.00  0.00    -0.305 N 
HETATM    9  C   UNL     1      67.172   7.179   4.605  1.00  0.00     0.173 C 
BRANCH   8  10
HETATM   10  N   UNL     1      65.798   8.773   5.903  1.00  0.00    -0.246 NA
HETATM   11  H   UNL     1      66.021   9.332   5.079  1.00  0.00     0.143 HD
HETATM   12  H   UNL     1      66.066   9.284   6.744  1.00  0.00     0.143 HD
ENDBRANCH   8  10
ENDBRANCH   1   8
BRANCH   2  13
HETATM   13  C   UNL     1      69.651   4.872   8.648  1.00  0.00     0.417 C 
HETATM   14  F   UNL     1      70.773   5.639   8.569  1.00  0.00    -0.166 F 
HETATM   15  F   UNL     1      69.801   3.891   7.716  1.00  0.00    -0.166 F 
HETATM   16  F   UNL     1      69.710   4.250   9.860  1.00  0.00    -0.166 F 
ENDBRANCH   2  13
TORSDOF 3
ENDMDL
MODEL 9
REMARK VINA RESULT:      -4.9     13.491     14.626
REMARK  3 active torsions:
REMARK  status: ('A' for Active; 'I' for Inactive)
REMARK    1  A    between atoms: C_1  and  C_3 
REMARK    2  A    between atoms: C_2  and  N_7 
REMARK    3  A    between atoms: N_7  and  N_11 
ROOT
HETATM    1  C   UNL     1      71.814  22.814  14.115  1.00  0.00     0.117 A 
HETATM    2  C   UNL     1      71.165  21.673  12.073  1.00  0.00     0.052 A 
HETATM    3  C   UNL     1      72.099  21.912  13.092  1.00  0.00     0.066 A 
HETATM    4  N   UNL     1      70.625  23.475  14.131  1.00  0.00    -0.351 N 
ATOM      5  HN  UNL     1      70.414  24.143  14.872  1.00  0.00     0.166 HD
HETATM    6  C   UNL     1      69.729  23.232  13.151  1.00  0.00     0.090 A 
HETATM    7  C   UNL     1      69.948  22.352  12.110  1.00  0.00     0.033 A 
ENDROOT
BRANCH   1   8
HETATM    8  N   UNL     1      72.732  23.103  15.142  1.00  0.00    -0.305 N 
HETATM    9  C   UNL     1      73.198  24.462  15.378  1.00  0.00     0.173 C 
BRANCH   8  10
HETATM   10  N   UNL     1      73.494  22.024  15.664  1.00  0.00    -0.246 NA
HETATM   11  H   UNL     1      74.089  21.642  14.929  1.00  0.00     0.143 HD
HETATM   12  H   UNL     1      72.865  21.297  16.004  1.00  0.00     0.143 HD
ENDBRANCH   8  10
ENDBRANCH   1   8
BRANCH   2  13
HETATM   13  C   UNL     1      71.467  20.717  10.952  1.00  0.00     0.417 C 
HETATM   14  F   UNL     1      70.508  20.688   9.986  1.00  0.00    -0.166 F 
HETATM   15  F   UNL     1      71.600  19.433  11.386  1.00  0.00    -0.166 F 
HETATM   16  F   UNL     1      72.632  21.018  10.311  1.00  0.00    -0.166 F 
ENDBRANCH   2  13
TORSDOF 3
ENDMDL
