MODEL 1
REMARK VINA RESULT:      -4.7      0.000      0.000
REMARK  0 active torsions:
REMARK  status: ('A' for Active; 'I' for Inactive)
REMARK       I    between atoms: N_1  and  C_2 
ROOT
HETATM    1  N   UNL     1      77.396  11.681  19.320  1.00  0.00    -0.352 N 
HETATM    2  C   UNL     1      77.467  12.988  19.783  1.00  0.00     0.215 C 
HETATM    3  N   UNL     1      76.491   7.482  18.125  1.00  0.00    -0.197 NA
HETATM    4  C   UNL     1      77.218   8.355  17.886  1.00  0.00     0.064 C 
HETATM    5  C   UNL     1      76.553  11.379  18.167  1.00  0.00     0.127 C 
HETATM    6  C   UNL     1      78.078  10.535  19.914  1.00  0.00     0.127 C 
HETATM    7  O   UNL     1      76.849  13.914  19.257  1.00  0.00    -0.274 OA
HETATM    8  C   UNL     1      78.139   9.474  17.608  1.00  0.00     0.096 C 
HETATM    9  C   UNL     1      78.944   9.840  18.864  1.00  0.00     0.039 C 
HETATM   10  C   UNL     1      77.376  10.694  17.075  1.00  0.00     0.039 C 
HETATM   11  C   UNL     1      78.359  13.256  20.968  1.00  0.00     0.117 C 
ENDROOT
TORSDOF 0
ENDMDL
MODEL 2
REMARK VINA RESULT:      -4.6     20.204     21.453
REMARK  0 active torsions:
REMARK  status: ('A' for Active; 'I' for Inactive)
REMARK       I    between atoms: N_1  and  C_2 
ROOT
HETATM    1  N   UNL     1      62.237   9.390   3.038  1.00  0.00    -0.352 N 
HETATM    2  C   UNL     1      62.037  10.068   1.844  1.00  0.00     0.215 C 
HETATM    3  N   UNL     1      62.205   6.938   6.762  1.00  0.00    -0.197 NA
HETATM    4  C   UNL     1      62.934   7.493   6.050  1.00  0.00     0.064 C 
HETATM    5  C   UNL     1      62.480   7.950   3.009  1.00  0.00     0.127 C 
HETATM    6  C   UNL     1      62.194   9.990   4.369  1.00  0.00     0.127 C 
HETATM    7  O   UNL     1      62.061   9.506   0.748  1.00  0.00    -0.274 OA
HETATM    8  C   UNL     1      63.841   8.217   5.138  1.00  0.00     0.096 C 
HETATM    9  C   UNL     1      63.502   9.715   5.109  1.00  0.00     0.039 C 
HETATM   10  C   UNL     1      63.790   7.619   3.725  1.00  0.00     0.039 C 
HETATM   11  C   UNL     1      61.802  11.555   1.921  1.00  0.00     0.117 C 
ENDROOT
TORSDOF 0
ENDMDL
MODEL 3
REMARK VINA RESULT:      -4.5     14.265     15.592
REMARK  0 active torsions:
REMARK  status: ('A' for Active; 'I' for Inactive)
REMARK       I    between atoms: N_1  and  C_2 
ROOT
HETATM    1  N   UNL     1      69.005   2.521   9.548  1.00  0.00    -0.352 N 
HETATM    2  C   UNL     1      69.526   1.271   9.852  1.00  0.00     0.215 C 
HETATM    3  N   UNL     1      67.111   6.548   9.276  1.00  0.00    -0.197 NA
HETATM    4  C   UNL     1      67.870   5.866   8.724  1.00  0.00     0.064 C 
HETATM    5  C   UNL     1      69.666   3.715  10.070  1.00  0.00     0.127 C 
HETATM    6  C   UNL     1      67.802   2.767   8.760  1.00  0.00     0.127 C 
HETATM    7  O   UNL     1      70.534   1.121  10.544  1.00  0.00    -0.274 OA
HETATM    8  C   UNL     1      68.822   4.976   8.031  1.00  0.00     0.096 C 
HETATM    9  C   UNL     1      68.127   3.682   7.580  1.00  0.00     0.039 C 
HETATM   10  C   UNL     1      70.029   4.661   8.926  1.00  0.00     0.039 C 
HETATM   11  C   UNL     1      68.819   0.068   9.282  1.00  0.00     0.117 C 
ENDROOT
TORSDOF 0
ENDMDL
MODEL 4
REMARK VINA RESULT:      -4.4     14.702     16.262
REMARK  0 active torsions:
REMARK  status: ('A' for Active; 'I' for Inactive)
REMARK       I    between atoms: N_1  and  C_2 
ROOT
HETATM    1  N   UNL     1      68.261   4.856   8.095  1.00  0.00    -0.352 N 
HETATM    2  C   UNL     1      69.004   3.752   8.490  1.00  0.00     0.215 C 
HETATM    3  N   UNL     1      66.469   8.584   6.432  1.00  0.00    -0.197 NA
HETATM    4  C   UNL     1      66.171   7.589   6.950  1.00  0.00     0.064 C 
HETATM    5  C   UNL     1      67.732   4.910   6.735  1.00  0.00     0.127 C 
HETATM    6  C   UNL     1      67.975   6.023   8.925  1.00  0.00     0.127 C 
HETATM    7  O   UNL     1      69.235   2.804   7.739  1.00  0.00    -0.274 OA
HETATM    8  C   UNL     1      65.816   6.324   7.622  1.00  0.00     0.096 C 
HETATM    9  C   UNL     1      66.466   6.246   9.011  1.00  0.00     0.039 C 
HETATM   10  C   UNL     1      66.218   5.116   6.764  1.00  0.00     0.039 C 
HETATM   11  C   UNL     1      69.519   3.733   9.906  1.00  0.00     0.117 C 
ENDROOT
TORSDOF 0
ENDMDL
MODEL 5
REMARK VINA RESULT:      -4.4      2.945      3.786
REMARK  0 active torsions:
REMARK  status: ('A' for Active; 'I' for Inactive)
REMARK       I    between atoms: N_1  and  C_2 
ROOT
HETATM    1  N   UNL     1      78.736  12.465  20.996  1.00  0.00    -0.352 N 
HETATM    2  C   UNL     1      79.579  12.319  22.089  1.00  0.00     0.215 C 
HETATM    3  N   UNL     1      76.634  13.154  17.125  1.00  0.00    -0.197 NA
HETATM    4  C   UNL     1      76.503  12.610  18.142  1.00  0.00     0.064 C 
HETATM    5  C   UNL     1      78.815  11.503  19.900  1.00  0.00     0.127 C 
HETATM    6  C   UNL     1      77.768  13.543  20.813  1.00  0.00     0.127 C 
HETATM    7  O   UNL     1      80.395  11.401  22.180  1.00  0.00    -0.274 OA
HETATM    8  C   UNL     1      76.353  11.937  19.447  1.00  0.00     0.096 C 
HETATM    9  C   UNL     1      76.373  12.961  20.592  1.00  0.00     0.039 C 
HETATM   10  C   UNL     1      77.444  10.876  19.646  1.00  0.00     0.039 C 
HETATM   11  C   UNL     1      79.454  13.327  23.202  1.00  0.00     0.117 C 
ENDROOT
TORSDOF 0
ENDMDL
MODEL 6
REMARK VINA RESULT:      -4.3     19.564     20.852
REMARK  0 active torsions:
REMARK  status: ('A' for Active; 'I' for Inactive)
REMARK       I    between atoms: N_1  and  C_2 
ROOT
HETATM    1  N   UNL     1      63.991   8.253   4.698  1.00  0.00    -0.352 N 
HETATM    2  C   UNL     1      65.276   8.360   5.211  1.00  0.00     0.215 C 
HETATM    3  N   UNL     1      59.690   7.629   3.707  1.00  0.00    -0.197 NA
HETATM    4  C   UNL     1      60.625   8.214   3.348  1.00  0.00     0.064 C 
HETATM    5  C   UNL     1      62.957   9.169   5.170  1.00  0.00     0.127 C 
HETATM    6  C   UNL     1      63.550   7.259   3.724  1.00  0.00     0.127 C 
HETATM    7  O   UNL     1      65.588   9.205   6.051  1.00  0.00    -0.274 OA
HETATM    8  C   UNL     1      61.831   8.939   2.903  1.00  0.00     0.096 C 
HETATM    9  C   UNL     1      62.942   7.954   2.506  1.00  0.00     0.039 C 
HETATM   10  C   UNL     1      62.323   9.906   3.989  1.00  0.00     0.039 C 
HETATM   11  C   UNL     1      66.315   7.402   4.686  1.00  0.00     0.117 C 
ENDROOT
TORSDOF 0
ENDMDL
MODEL 7
REMARK VINA RESULT:      -4.1     15.032     16.082
REMARK  0 active torsions:
REMARK  status: ('A' for Active; 'I' for Inactive)
REMARK       I    between atoms: N_1  and  C_2 
ROOT
HETATM    1  N   UNL     1      67.534   5.227   7.188  1.00  0.00    -0.352 N 
HETATM    2  C   UNL     1      67.344   6.184   6.201  1.00  0.00     0.215 C 
HETATM    3  N   UNL     1      67.514   1.864  10.115  1.00  0.00    -0.197 NA
HETATM    4  C   UNL     1      68.225   2.653   9.647  1.00  0.00     0.064 C 
HETATM    5  C   UNL     1      67.935   3.877   6.804  1.00  0.00     0.127 C 
HETATM    6  C   UNL     1      67.333   5.438   8.619  1.00  0.00     0.127 C 
HETATM    7  O   UNL     1      67.505   5.945   5.004  1.00  0.00    -0.274 OA
HETATM    8  C   UNL     1      69.108   3.673   9.050  1.00  0.00     0.096 C 
HETATM    9  C   UNL     1      68.609   5.087   9.383  1.00  0.00     0.039 C 
HETATM   10  C   UNL     1      69.220   3.479   7.531  1.00  0.00     0.039 C 
HETATM   11  C   UNL     1      66.943   7.568   6.644  1.00  0.00     0.117 C 
ENDROOT
TORSDOF 0
ENDMDL
MODEL 8
REMARK VINA RESULT:      -4.1     22.143     23.145
REMARK  0 active torsions:
REMARK  status: ('A' for Active; 'I' for Inactive)
REMARK       I    between atoms: N_1  and  C_2 
ROOT
HETATM    1  N   UNL     1      61.764   9.579   2.660  1.00  0.00    -0.352 N 
HETATM    2  C   UNL     1      61.818  10.904   3.070  1.00  0.00     0.215 C 
HETATM    3  N   UNL     1      62.300   5.299   1.537  1.00  0.00    -0.197 NA
HETATM    4  C   UNL     1      61.471   6.075   1.773  1.00  0.00     0.064 C 
HETATM    5  C   UNL     1      61.784   8.521   3.666  1.00  0.00     0.127 C 
HETATM    6  C   UNL     1      61.720   9.124   1.274  1.00  0.00     0.127 C 
HETATM    7  O   UNL     1      61.878  11.232   4.255  1.00  0.00    -0.274 OA
HETATM    8  C   UNL     1      60.433   7.083   2.065  1.00  0.00     0.096 C 
HETATM    9  C   UNL     1      60.496   8.237   1.053  1.00  0.00     0.039 C 
HETATM   10  C   UNL     1      60.568   7.610   3.500  1.00  0.00     0.039 C 
HETATM   11  C   UNL     1      61.781  11.964   1.998  1.00  0.00     0.117 C 
ENDROOT
TORSDOF 0
ENDMDL
MODEL 9
REMARK VINA RESULT:      -4.1     16.265     17.622
REMARK  0 active torsions:
REMARK  status: ('A' for Active; 'I' for Inactive)
REMARK       I    between atoms: N_1  and  C_2 
ROOT
HETATM    1  N   UNL     1      65.733   7.221   5.976  1.00  0.00    -0.352 N 
HETATM    2  C   UNL     1      65.030   8.279   5.417  1.00  0.00     0.215 C 
HETATM    3  N   UNL     1      68.572   4.100   7.418  1.00  0.00    -0.197 NA
HETATM    4  C   UNL     1      67.530   4.554   7.653  1.00  0.00     0.064 C 
HETATM    5  C   UNL     1      66.669   7.483   7.066  1.00  0.00     0.127 C 
HETATM    6  C   UNL     1      65.649   5.828   5.544  1.00  0.00     0.127 C 
HETATM    7  O   UNL     1      65.158   9.441   5.806  1.00  0.00    -0.274 OA
HETATM    8  C   UNL     1      66.202   5.137   7.925  1.00  0.00     0.096 C 
HETATM    9  C   UNL     1      65.264   4.937   6.725  1.00  0.00     0.039 C 
HETATM   10  C   UNL     1      66.319   6.625   8.282  1.00  0.00     0.039 C 
HETATM   11  C   UNL     1      64.065   7.961   4.304  1.00  0.00     0.117 C 
ENDROOT
TORSDOF 0
ENDMDL
