MODEL 1
REMARK VINA RESULT:      -4.7      0.000      0.000
REMARK  1 active torsions:
REMARK  status: ('A' for Active; 'I' for Inactive)
REMARK    1  A    between atoms: C_1  and  C_6 
ROOT
HETATM    1  C   UNL     1      71.173  21.948  12.244  1.00  0.00     0.083 A 
HETATM    2  S   UNL     1      72.628  22.708  12.755  1.00  0.00    -0.082 SA
HETATM    3  C   UNL     1      70.047  22.487  12.837  1.00  0.00     0.046 A 
HETATM    4  C   UNL     1      71.732  23.778  13.798  1.00  0.00     0.023 A 
HETATM    5  C   UNL     1      70.388  23.542  13.736  1.00  0.00     0.023 A 
HETATM    6  S   UNL     1      69.486  24.609  14.782  1.00  0.00    -0.101 SA
HETATM    7  C   UNL     1      72.072  24.838  14.695  1.00  0.00     0.027 A 
HETATM    8  C   UNL     1      70.943  25.358  15.284  1.00  0.00     0.052 A 
ENDROOT
BRANCH   1   9
HETATM    9  C   UNL     1      71.256  20.866  11.285  1.00  0.00     0.216 C 
HETATM   10  O   UNL     1      71.088  20.895  10.075  1.00  0.00    -0.643 OA
HETATM   11  O   UNL     1      71.565  19.694  11.888  1.00  0.00    -0.643 OA
ENDBRANCH   1   9
TORSDOF 1
ENDMDL
MODEL 2
REMARK VINA RESULT:      -4.6     13.956     14.712
REMARK  1 active torsions:
REMARK  status: ('A' for Active; 'I' for Inactive)
REMARK    1  A    between atoms: C_1  and  C_6 
ROOT
HETATM    1  C   UNL     1      77.652  10.315  18.018  1.00  0.00     0.083 A 
HETATM    2  S   UNL     1      78.950  10.171  19.137  1.00  0.00    -0.082 SA
HETATM    3  C   UNL     1      76.797  11.358  18.316  1.00  0.00     0.046 A 
HETATM    4  C   UNL     1      78.350  11.531  20.045  1.00  0.00     0.023 A 
HETATM    5  C   UNL     1      77.211  12.049  19.494  1.00  0.00     0.023 A 
HETATM    6  S   UNL     1      76.604  13.410  20.404  1.00  0.00    -0.101 SA
HETATM    7  C   UNL     1      78.767  12.227  21.222  1.00  0.00     0.027 A 
HETATM    8  C   UNL     1      77.902  13.256  21.512  1.00  0.00     0.052 A 
ENDROOT
BRANCH   1   9
HETATM    9  C   UNL     1      77.578   9.376  16.917  1.00  0.00     0.216 C 
HETATM   10  O   UNL     1      77.169   8.225  16.914  1.00  0.00    -0.643 OA
HETATM   11  O   UNL     1      78.043   9.922  15.770  1.00  0.00    -0.643 OA
ENDBRANCH   1   9
TORSDOF 1
ENDMDL
MODEL 3
REMARK VINA RESULT:      -4.5     15.053     16.647
REMARK  1 active torsions:
REMARK  status: ('A' for Active; 'I' for Inactive)
REMARK    1  A    between atoms: C_1  and  C_6 
ROOT
HETATM    1  C   UNL     1      77.598   9.725  18.019  1.00  0.00     0.083 A 
HETATM    2  S   UNL     1      77.751   9.694  16.307  1.00  0.00    -0.082 SA
HETATM    3  C   UNL     1      77.169   8.520  18.543  1.00  0.00     0.046 A 
HETATM    4  C   UNL     1      77.226   8.033  16.265  1.00  0.00     0.023 A 
HETATM    5  C   UNL     1      76.954   7.554  17.515  1.00  0.00     0.023 A 
HETATM    6  S   UNL     1      76.424   5.891  17.478  1.00  0.00    -0.101 SA
HETATM    7  C   UNL     1      77.015   7.064  15.237  1.00  0.00     0.027 A 
HETATM    8  C   UNL     1      76.580   5.873  15.771  1.00  0.00     0.052 A 
ENDROOT
BRANCH   1   9
HETATM    9  C   UNL     1      77.917  10.950  18.723  1.00  0.00     0.216 C 
HETATM   10  O   UNL     1      77.303  12.006  18.746  1.00  0.00    -0.643 OA
HETATM   11  O   UNL     1      79.065  10.830  19.428  1.00  0.00    -0.643 OA
ENDBRANCH   1   9
TORSDOF 1
ENDMDL
MODEL 4
REMARK VINA RESULT:      -4.4     14.453     15.221
REMARK  1 active torsions:
REMARK  status: ('A' for Active; 'I' for Inactive)
REMARK    1  A    between atoms: C_1  and  C_6 
ROOT
HETATM    1  C   UNL     1      78.061  10.389  18.471  1.00  0.00     0.083 A 
HETATM    2  S   UNL     1      76.897  11.600  18.837  1.00  0.00    -0.082 SA
HETATM    3  C   UNL     1      79.122  10.376  19.355  1.00  0.00     0.046 A 
HETATM    4  C   UNL     1      77.837  12.124  20.208  1.00  0.00     0.023 A 
HETATM    5  C   UNL     1      78.980  11.389  20.352  1.00  0.00     0.023 A 
HETATM    6  S   UNL     1      79.927  11.912  21.721  1.00  0.00    -0.101 SA
HETATM    7  C   UNL     1      77.693  13.134  21.208  1.00  0.00     0.027 A 
HETATM    8  C   UNL     1      78.760  13.116  22.076  1.00  0.00     0.052 A 
ENDROOT
BRANCH   1   9
HETATM    9  C   UNL     1      77.834   9.534  17.324  1.00  0.00     0.216 C 
HETATM   10  O   UNL     1      78.148   9.711  16.157  1.00  0.00    -0.643 OA
HETATM   11  O   UNL     1      77.180   8.402  17.674  1.00  0.00    -0.643 OA
ENDBRANCH   1   9
TORSDOF 1
ENDMDL
MODEL 5
REMARK VINA RESULT:      -4.3     17.106     19.244
REMARK  1 active torsions:
REMARK  status: ('A' for Active; 'I' for Inactive)
REMARK    1  A    between atoms: C_1  and  C_6 
ROOT
HETATM    1  C   UNL     1      62.803   9.877   4.280  1.00  0.00     0.083 A 
HETATM    2  S   UNL     1      63.875   8.618   4.749  1.00  0.00    -0.082 SA
HETATM    3  C   UNL     1      62.171   9.627   3.077  1.00  0.00     0.046 A 
HETATM    4  C   UNL     1      63.490   7.719   3.306  1.00  0.00     0.023 A 
HETATM    5  C   UNL     1      62.582   8.377   2.524  1.00  0.00     0.023 A 
HETATM    6  S   UNL     1      62.196   7.482   1.076  1.00  0.00    -0.101 SA
HETATM    7  C   UNL     1      63.897   6.466   2.755  1.00  0.00     0.027 A 
HETATM    8  C   UNL     1      63.267   6.234   1.554  1.00  0.00     0.052 A 
ENDROOT
BRANCH   1   9
HETATM    9  C   UNL     1      62.666  11.030   5.146  1.00  0.00     0.216 C 
HETATM   10  O   UNL     1      63.112  11.205   6.271  1.00  0.00    -0.643 OA
HETATM   11  O   UNL     1      61.932  12.004   4.561  1.00  0.00    -0.643 OA
ENDBRANCH   1   9
TORSDOF 1
ENDMDL
MODEL 6
REMARK VINA RESULT:      -4.3     17.362     18.780
REMARK  1 active torsions:
REMARK  status: ('A' for Active; 'I' for Inactive)
REMARK    1  A    between atoms: C_1  and  C_6 
ROOT
HETATM    1  C   UNL     1      66.620   6.493   7.305  1.00  0.00     0.083 A 
HETATM    2  S   UNL     1      67.130   6.541   8.946  1.00  0.00    -0.082 SA
HETATM    3  C   UNL     1      67.137   5.415   6.611  1.00  0.00     0.046 A 
HETATM    4  C   UNL     1      68.070   5.090   8.722  1.00  0.00     0.023 A 
HETATM    5  C   UNL     1      67.977   4.616   7.444  1.00  0.00     0.023 A 
HETATM    6  S   UNL     1      68.919   3.165   7.213  1.00  0.00    -0.101 SA
HETATM    7  C   UNL     1      68.907   4.287   9.556  1.00  0.00     0.027 A 
HETATM    8  C   UNL     1      69.421   3.224   8.851  1.00  0.00     0.052 A 
ENDROOT
BRANCH   1   9
HETATM    9  C   UNL     1      65.737   7.534   6.823  1.00  0.00     0.216 C 
HETATM   10  O   UNL     1      66.017   8.572   6.240  1.00  0.00    -0.643 OA
HETATM   11  O   UNL     1      64.442   7.248   7.090  1.00  0.00    -0.643 OA
ENDBRANCH   1   9
TORSDOF 1
ENDMDL
MODEL 7
REMARK VINA RESULT:      -4.3     16.967     19.122
REMARK  1 active torsions:
REMARK  status: ('A' for Active; 'I' for Inactive)
REMARK    1  A    between atoms: C_1  and  C_6 
ROOT
HETATM    1  C   UNL     1      63.011   9.787   4.516  1.00  0.00     0.083 A 
HETATM    2  S   UNL     1      62.089   9.536   3.087  1.00  0.00    -0.082 SA
HETATM    3  C   UNL     1      63.911   8.767   4.763  1.00  0.00     0.046 A 
HETATM    4  C   UNL     1      62.908   8.025   2.795  1.00  0.00     0.023 A 
HETATM    5  C   UNL     1      63.836   7.754   3.760  1.00  0.00     0.023 A 
HETATM    6  S   UNL     1      64.655   6.240   3.474  1.00  0.00    -0.101 SA
HETATM    7  C   UNL     1      62.836   7.013   1.789  1.00  0.00     0.027 A 
HETATM    8  C   UNL     1      63.730   6.001   2.052  1.00  0.00     0.052 A 
ENDROOT
BRANCH   1   9
HETATM    9  C   UNL     1      62.774  10.985   5.293  1.00  0.00     0.216 C 
HETATM   10  O   UNL     1      63.166  11.265   6.416  1.00  0.00    -0.643 OA
HETATM   11  O   UNL     1      62.005  11.869   4.616  1.00  0.00    -0.643 OA
ENDBRANCH   1   9
TORSDOF 1
ENDMDL
MODEL 8
REMARK VINA RESULT:      -4.2     17.631     19.107
REMARK  1 active torsions:
REMARK  status: ('A' for Active; 'I' for Inactive)
REMARK    1  A    between atoms: C_1  and  C_6 
ROOT
HETATM    1  C   UNL     1      62.047   9.977   3.793  1.00  0.00     0.083 A 
HETATM    2  S   UNL     1      63.084   9.742   5.144  1.00  0.00    -0.082 SA
HETATM    3  C   UNL     1      61.376   8.827   3.423  1.00  0.00     0.046 A 
HETATM    4  C   UNL     1      62.630   8.062   5.232  1.00  0.00     0.023 A 
HETATM    5  C   UNL     1      61.727   7.727   4.262  1.00  0.00     0.023 A 
HETATM    6  S   UNL     1      61.273   6.044   4.344  1.00  0.00    -0.101 SA
HETATM    7  C   UNL     1      62.978   6.962   6.076  1.00  0.00     0.027 A 
HETATM    8  C   UNL     1      62.310   5.823   5.690  1.00  0.00     0.052 A 
ENDROOT
BRANCH   1   9
HETATM    9  C   UNL     1      61.974  11.293   3.195  1.00  0.00     0.216 C 
HETATM   10  O   UNL     1      61.973  11.603   2.012  1.00  0.00    -0.643 OA
HETATM   11  O   UNL     1      61.898  12.261   4.138  1.00  0.00    -0.643 OA
ENDBRANCH   1   9
TORSDOF 1
ENDMDL
MODEL 9
REMARK VINA RESULT:      -4.2     17.041     18.956
REMARK  1 active torsions:
REMARK  status: ('A' for Active; 'I' for Inactive)
REMARK    1  A    between atoms: C_1  and  C_6 
ROOT
HETATM    1  C   UNL     1      63.024   9.825   4.518  1.00  0.00     0.083 A 
HETATM    2  S   UNL     1      62.263   9.327   3.059  1.00  0.00    -0.082 SA
HETATM    3  C   UNL     1      63.948   8.909   4.984  1.00  0.00     0.046 A 
HETATM    4  C   UNL     1      63.186   7.848   3.054  1.00  0.00     0.023 A 
HETATM    5  C   UNL     1      64.026   7.769   4.129  1.00  0.00     0.023 A 
HETATM    6  S   UNL     1      64.950   6.288   4.130  1.00  0.00    -0.101 SA
HETATM    7  C   UNL     1      63.268   6.709   2.195  1.00  0.00     0.027 A 
HETATM    8  C   UNL     1      64.184   5.802   2.676  1.00  0.00     0.052 A 
ENDROOT
BRANCH   1   9
HETATM    9  C   UNL     1      62.648  11.098   5.097  1.00  0.00     0.216 C 
HETATM   10  O   UNL     1      61.966  11.991   4.616  1.00  0.00    -0.643 OA
HETATM   11  O   UNL     1      63.157  11.245   6.342  1.00  0.00    -0.643 OA
ENDBRANCH   1   9
TORSDOF 1
ENDMDL
