MODEL 1
REMARK VINA RESULT:      -6.3      0.000      0.000
REMARK  1 active torsions:
REMARK  status: ('A' for Active; 'I' for Inactive)
REMARK    1  A    between atoms: C_3  and  C_7 
ROOT
HETATM    1  C   UNL     1      76.834   6.565  16.623  1.00  0.00    -0.001 A 
HETATM    2  C   UNL     1      76.854   6.691  15.226  1.00  0.00     0.015 A 
HETATM    3  C   UNL     1      77.114   7.703  17.393  1.00  0.00     0.015 A 
HETATM    4  C   UNL     1      77.425   8.923  16.786  1.00  0.00     0.007 A 
HETATM    5  C   UNL     1      77.165   7.912  14.617  1.00  0.00     0.007 A 
HETATM    6  C   UNL     1      77.461   9.036  15.392  1.00  0.00    -0.062 A 
HETATM    7  C   UNL     1      77.831  10.340  14.751  1.00  0.00     0.048 C 
ENDROOT
BRANCH   1   8
HETATM    8  C   UNL     1      76.548   5.278  17.244  1.00  0.00     0.102 A 
HETATM    9  C   UNL     1      75.726   4.207  16.957  1.00  0.00     0.127 A 
HETATM   10  N   UNL     1      75.873   3.221  17.901  1.00  0.00    -0.354 N 
HETATM   11  C   UNL     1      76.769   3.722  18.719  1.00  0.00     0.233 A 
ATOM     12  HN  UNL     1      75.401   2.318  17.954  1.00  0.00     0.166 HD
HETATM   13  O   UNL     1      77.227   4.961  18.393  1.00  0.00    -0.304 OA
ENDBRANCH   1   8
TORSDOF 1
ENDMDL
MODEL 2
REMARK VINA RESULT:      -5.8     15.227     17.359
REMARK  1 active torsions:
REMARK  status: ('A' for Active; 'I' for Inactive)
REMARK    1  A    between atoms: C_3  and  C_7 
ROOT
HETATM    1  C   UNL     1      71.599  22.369  12.646  1.00  0.00    -0.001 A 
HETATM    2  C   UNL     1      70.535  22.957  13.347  1.00  0.00     0.015 A 
HETATM    3  C   UNL     1      72.883  22.902  12.826  1.00  0.00     0.015 A 
HETATM    4  C   UNL     1      73.095  24.001  13.663  1.00  0.00     0.007 A 
HETATM    5  C   UNL     1      70.746  24.058  14.185  1.00  0.00     0.007 A 
HETATM    6  C   UNL     1      72.027  24.593  14.344  1.00  0.00    -0.062 A 
HETATM    7  C   UNL     1      72.259  25.795  15.211  1.00  0.00     0.048 C 
ENDROOT
BRANCH   1   8
HETATM    8  C   UNL     1      71.358  21.249  11.746  1.00  0.00     0.102 A 
HETATM    9  C   UNL     1      70.976  21.109  10.427  1.00  0.00     0.127 A 
HETATM   10  N   UNL     1      70.921  19.782  10.080  1.00  0.00    -0.354 N 
HETATM   11  C   UNL     1      71.267  19.168  11.188  1.00  0.00     0.233 A 
ATOM     12  HN  UNL     1      70.672  19.371   9.180  1.00  0.00     0.166 HD
HETATM   13  O   UNL     1      71.547  19.983  12.241  1.00  0.00    -0.304 OA
ENDBRANCH   1   8
TORSDOF 1
ENDMDL
MODEL 3
REMARK VINA RESULT:      -5.7      7.158      8.537
REMARK  1 active torsions:
REMARK  status: ('A' for Active; 'I' for Inactive)
REMARK    1  A    between atoms: C_3  and  C_7 
ROOT
HETATM    1  C   UNL     1      78.606  12.578  21.320  1.00  0.00    -0.001 A 
HETATM    2  C   UNL     1      78.588  11.591  20.323  1.00  0.00     0.015 A 
HETATM    3  C   UNL     1      77.558  13.509  21.348  1.00  0.00     0.015 A 
HETATM    4  C   UNL     1      76.535  13.468  20.396  1.00  0.00     0.007 A 
HETATM    5  C   UNL     1      77.564  11.550  19.369  1.00  0.00     0.007 A 
HETATM    6  C   UNL     1      76.534  12.493  19.394  1.00  0.00    -0.062 A 
HETATM    7  C   UNL     1      75.452  12.481  18.355  1.00  0.00     0.048 C 
ENDROOT
BRANCH   1   8
HETATM    8  C   UNL     1      79.699  12.633  22.283  1.00  0.00     0.102 A 
HETATM    9  C   UNL     1      79.835  12.393  23.635  1.00  0.00     0.127 A 
HETATM   10  N   UNL     1      81.134  12.589  24.031  1.00  0.00    -0.354 N 
HETATM   11  C   UNL     1      81.737  12.938  22.917  1.00  0.00     0.233 A 
ATOM     12  HN  UNL     1      81.535  12.488  24.963  1.00  0.00     0.166 HD
HETATM   13  O   UNL     1      80.939  12.989  21.816  1.00  0.00    -0.304 OA
ENDBRANCH   1   8
TORSDOF 1
ENDMDL
MODEL 4
REMARK VINA RESULT:      -5.5      3.043      4.724
REMARK  1 active torsions:
REMARK  status: ('A' for Active; 'I' for Inactive)
REMARK    1  A    between atoms: C_3  and  C_7 
ROOT
HETATM    1  C   UNL     1      75.195   2.544  17.412  1.00  0.00    -0.001 A 
HETATM    2  C   UNL     1      76.420   2.836  18.029  1.00  0.00     0.015 A 
HETATM    3  C   UNL     1      74.559   3.564  16.691  1.00  0.00     0.015 A 
HETATM    4  C   UNL     1      75.119   4.843  16.608  1.00  0.00     0.007 A 
HETATM    5  C   UNL     1      76.982   4.115  17.947  1.00  0.00     0.007 A 
HETATM    6  C   UNL     1      76.331   5.131  17.242  1.00  0.00    -0.062 A 
HETATM    7  C   UNL     1      76.905   6.515  17.178  1.00  0.00     0.048 C 
ENDROOT
BRANCH   1   8
HETATM    8  C   UNL     1      74.602   1.218  17.539  1.00  0.00     0.102 A 
HETATM    9  C   UNL     1      74.147   0.254  16.663  1.00  0.00     0.127 A 
HETATM   10  N   UNL     1      73.691  -0.843  17.350  1.00  0.00    -0.354 N 
HETATM   11  C   UNL     1      73.883  -0.512  18.605  1.00  0.00     0.233 A 
ATOM     12  HN  UNL     1      73.299  -1.708  16.975  1.00  0.00     0.166 HD
HETATM   13  O   UNL     1      74.430   0.719  18.805  1.00  0.00    -0.304 OA
ENDBRANCH   1   8
TORSDOF 1
ENDMDL
MODEL 5
REMARK VINA RESULT:      -5.5      2.320      5.162
REMARK  1 active torsions:
REMARK  status: ('A' for Active; 'I' for Inactive)
REMARK    1  A    between atoms: C_3  and  C_7 
ROOT
HETATM    1  C   UNL     1      76.341   5.295  17.300  1.00  0.00    -0.001 A 
HETATM    2  C   UNL     1      75.206   4.863  16.597  1.00  0.00     0.015 A 
HETATM    3  C   UNL     1      77.043   4.352  18.065  1.00  0.00     0.015 A 
HETATM    4  C   UNL     1      76.611   3.024  18.143  1.00  0.00     0.007 A 
HETATM    5  C   UNL     1      74.773   3.534  16.674  1.00  0.00     0.007 A 
HETATM    6  C   UNL     1      75.468   2.606  17.454  1.00  0.00    -0.062 A 
HETATM    7  C   UNL     1      74.993   1.188  17.573  1.00  0.00     0.048 C 
ENDROOT
BRANCH   1   8
HETATM    8  C   UNL     1      76.757   6.690  17.242  1.00  0.00     0.102 A 
HETATM    9  C   UNL     1      77.246   7.533  16.265  1.00  0.00     0.127 A 
HETATM   10  N   UNL     1      77.459   8.789  16.776  1.00  0.00    -0.354 N 
HETATM   11  C   UNL     1      77.097   8.667  18.032  1.00  0.00     0.233 A 
ATOM     12  HN  UNL     1      77.812   9.618  16.296  1.00  0.00     0.166 HD
HETATM   13  O   UNL     1      76.662   7.429  18.394  1.00  0.00    -0.304 OA
ENDBRANCH   1   8
TORSDOF 1
ENDMDL
MODEL 6
REMARK VINA RESULT:      -5.0     11.681     12.390
REMARK  1 active torsions:
REMARK  status: ('A' for Active; 'I' for Inactive)
REMARK    1  A    between atoms: C_3  and  C_7 
ROOT
HETATM    1  C   UNL     1      67.953   4.803   8.485  1.00  0.00    -0.001 A 
HETATM    2  C   UNL     1      68.051   4.699   7.089  1.00  0.00     0.015 A 
HETATM    3  C   UNL     1      67.354   5.951   9.021  1.00  0.00     0.015 A 
HETATM    4  C   UNL     1      66.886   6.974   8.190  1.00  0.00     0.007 A 
HETATM    5  C   UNL     1      67.584   5.722   6.256  1.00  0.00     0.007 A 
HETATM    6  C   UNL     1      67.005   6.871   6.800  1.00  0.00    -0.062 A 
HETATM    7  C   UNL     1      66.533   7.990   5.919  1.00  0.00     0.048 C 
ENDROOT
BRANCH   1   8
HETATM    8  C   UNL     1      68.480   3.748   9.341  1.00  0.00     0.102 A 
HETATM    9  C   UNL     1      69.644   3.548  10.055  1.00  0.00     0.127 A 
HETATM   10  N   UNL     1      69.600   2.348  10.720  1.00  0.00    -0.354 N 
HETATM   11  C   UNL     1      68.424   1.866  10.390  1.00  0.00     0.233 A 
ATOM     12  HN  UNL     1      70.309   1.932  11.324  1.00  0.00     0.166 HD
HETATM   13  O   UNL     1      67.685   2.651   9.560  1.00  0.00    -0.304 OA
ENDBRANCH   1   8
TORSDOF 1
ENDMDL
MODEL 7
REMARK VINA RESULT:      -4.9     17.199     18.096
REMARK  1 active torsions:
REMARK  status: ('A' for Active; 'I' for Inactive)
REMARK    1  A    between atoms: C_3  and  C_7 
ROOT
HETATM    1  C   UNL     1      63.973   8.157   4.410  1.00  0.00    -0.001 A 
HETATM    2  C   UNL     1      63.879   7.251   3.343  1.00  0.00     0.015 A 
HETATM    3  C   UNL     1      63.173   9.308   4.372  1.00  0.00     0.015 A 
HETATM    4  C   UNL     1      62.320   9.555   3.291  1.00  0.00     0.007 A 
HETATM    5  C   UNL     1      63.027   7.497   2.261  1.00  0.00     0.007 A 
HETATM    6  C   UNL     1      62.246   8.655   2.223  1.00  0.00    -0.062 A 
HETATM    7  C   UNL     1      61.356   8.948   1.051  1.00  0.00     0.048 C 
ENDROOT
BRANCH   1   8
HETATM    8  C   UNL     1      64.895   7.907   5.511  1.00  0.00     0.102 A 
HETATM    9  C   UNL     1      64.930   7.048   6.590  1.00  0.00     0.127 A 
HETATM   10  N   UNL     1      66.079   7.237   7.318  1.00  0.00    -0.354 N 
HETATM   11  C   UNL     1      66.694   8.195   6.663  1.00  0.00     0.233 A 
ATOM     12  HN  UNL     1      66.381   6.752   8.163  1.00  0.00     0.166 HD
HETATM   13  O   UNL     1      66.044   8.655   5.560  1.00  0.00    -0.304 OA
ENDBRANCH   1   8
TORSDOF 1
ENDMDL
MODEL 8
REMARK VINA RESULT:      -4.8     13.601     14.622
REMARK  1 active torsions:
REMARK  status: ('A' for Active; 'I' for Inactive)
REMARK    1  A    between atoms: C_3  and  C_7 
ROOT
HETATM    1  C   UNL     1      66.772   6.458   7.198  1.00  0.00    -0.001 A 
HETATM    2  C   UNL     1      67.493   5.387   6.650  1.00  0.00     0.015 A 
HETATM    3  C   UNL     1      66.969   6.763   8.553  1.00  0.00     0.015 A 
HETATM    4  C   UNL     1      67.844   6.007   9.339  1.00  0.00     0.007 A 
HETATM    5  C   UNL     1      68.369   4.630   7.436  1.00  0.00     0.007 A 
HETATM    6  C   UNL     1      68.545   4.930   8.789  1.00  0.00    -0.062 A 
HETATM    7  C   UNL     1      69.453   4.103   9.650  1.00  0.00     0.048 C 
ENDROOT
BRANCH   1   8
HETATM    8  C   UNL     1      65.833   7.213   6.377  1.00  0.00     0.102 A 
HETATM    9  C   UNL     1      65.928   8.027   5.267  1.00  0.00     0.127 A 
HETATM   10  N   UNL     1      64.686   8.473   4.890  1.00  0.00    -0.354 N 
HETATM   11  C   UNL     1      63.888   7.920   5.774  1.00  0.00     0.233 A 
ATOM     12  HN  UNL     1      64.442   9.085   4.111  1.00  0.00     0.166 HD
HETATM   13  O   UNL     1      64.503   7.144   6.707  1.00  0.00    -0.304 OA
ENDBRANCH   1   8
TORSDOF 1
ENDMDL
MODEL 9
REMARK VINA RESULT:      -4.8     12.189     13.412
REMARK  1 active torsions:
REMARK  status: ('A' for Active; 'I' for Inactive)
REMARK    1  A    between atoms: C_3  and  C_7 
ROOT
HETATM    1  C   UNL     1      68.166   5.148   7.869  1.00  0.00    -0.001 A 
HETATM    2  C   UNL     1      68.316   3.957   7.142  1.00  0.00     0.015 A 
HETATM    3  C   UNL     1      68.620   5.174   9.195  1.00  0.00     0.015 A 
HETATM    4  C   UNL     1      69.188   4.040   9.783  1.00  0.00     0.007 A 
HETATM    5  C   UNL     1      68.884   2.821   7.730  1.00  0.00     0.007 A 
HETATM    6  C   UNL     1      69.317   2.852   9.058  1.00  0.00    -0.062 A 
HETATM    7  C   UNL     1      69.894   1.629   9.709  1.00  0.00     0.048 C 
ENDROOT
BRANCH   1   8
HETATM    8  C   UNL     1      67.536   6.311   7.256  1.00  0.00     0.102 A 
HETATM    9  C   UNL     1      66.533   7.189   7.612  1.00  0.00     0.127 A 
HETATM   10  N   UNL     1      66.356   8.137   6.635  1.00  0.00    -0.354 N 
HETATM   11  C   UNL     1      67.247   7.805   5.730  1.00  0.00     0.233 A 
ATOM     12  HN  UNL     1      65.693   8.913   6.616  1.00  0.00     0.166 HD
HETATM   13  O   UNL     1      68.001   6.712   6.030  1.00  0.00    -0.304 OA
ENDBRANCH   1   8
TORSDOF 1
ENDMDL
