MODEL 1
REMARK VINA RESULT:      -5.4      0.000      0.000
REMARK  3 active torsions:
REMARK  status: ('A' for Active; 'I' for Inactive)
REMARK    1  A    between atoms: C_1  and  C_2 
REMARK    2  A    between atoms: C_1  and  C_5 
REMARK    3  A    between atoms: C_8  and  O_11 
ROOT
HETATM    1  C   UNL     1      67.371   3.348   7.734  1.00  0.00     0.163 C 
HETATM    2  O   UNL     1      66.491   2.557   8.037  1.00  0.00    -0.292 OA
ENDROOT
BRANCH   1   3
HETATM    3  C   UNL     1      66.969   4.717   7.262  1.00  0.00     0.010 A 
HETATM    4  C   UNL     1      66.070   5.494   8.022  1.00  0.00     0.018 A 
HETATM    5  C   UNL     1      65.681   6.770   7.588  1.00  0.00     0.037 A 
HETATM    6  C   UNL     1      66.176   7.296   6.386  1.00  0.00     0.068 A 
HETATM    7  C   UNL     1      67.072   6.526   5.629  1.00  0.00     0.037 A 
HETATM    8  C   UNL     1      67.465   5.261   6.059  1.00  0.00     0.018 A 
BRANCH   6   9
HETATM    9  O   UNL     1      65.775   8.532   5.996  1.00  0.00    -0.356 OA
HETATM   10  C   UNL     1      64.697   8.792   5.172  1.00  0.00     0.210 C 
ENDBRANCH   6   9
ENDBRANCH   1   3
BRANCH   1  11
HETATM   11  C   UNL     1      68.840   2.923   7.841  1.00  0.00     0.064 C 
HETATM   12  C   UNL     1      69.074   1.590   8.578  1.00  0.00     0.040 C 
HETATM   13  C   UNL     1      68.857   1.716  10.094  1.00  0.00     0.233 C 
HETATM   14  N   UNL     1      69.707   2.782  10.643  1.00  0.00    -0.075 N 
HETATM   15  C   UNL     1      69.409   4.081  10.017  1.00  0.00     0.233 C 
HETATM   16  H   UNL     1      70.685   2.548  10.473  1.00  0.00     0.277 HD
HETATM   17  H   UNL     1      69.522   2.858  11.643  1.00  0.00     0.277 HD
HETATM   18  C   UNL     1      69.698   4.015   8.509  1.00  0.00     0.040 C 
ENDBRANCH   1  11
TORSDOF 3
ENDMDL
MODEL 2
REMARK VINA RESULT:      -5.4      3.515      5.565
REMARK  3 active torsions:
REMARK  status: ('A' for Active; 'I' for Inactive)
REMARK    1  A    between atoms: C_1  and  C_2 
REMARK    2  A    between atoms: C_1  and  C_5 
REMARK    3  A    between atoms: C_8  and  O_11 
ROOT
HETATM    1  C   UNL     1      64.438   7.086   5.772  1.00  0.00     0.163 C 
HETATM    2  O   UNL     1      64.093   7.146   6.943  1.00  0.00    -0.292 OA
ENDROOT
BRANCH   1   3
HETATM    3  C   UNL     1      63.713   7.940   4.771  1.00  0.00     0.010 A 
HETATM    4  C   UNL     1      63.290   9.239   5.121  1.00  0.00     0.018 A 
HETATM    5  C   UNL     1      62.606  10.044   4.198  1.00  0.00     0.037 A 
HETATM    6  C   UNL     1      62.326   9.570   2.908  1.00  0.00     0.068 A 
HETATM    7  C   UNL     1      62.748   8.278   2.557  1.00  0.00     0.037 A 
HETATM    8  C   UNL     1      63.432   7.478   3.469  1.00  0.00     0.018 A 
BRANCH   6   9
HETATM    9  O   UNL     1      61.659  10.374   2.044  1.00  0.00    -0.356 OA
HETATM   10  C   UNL     1      61.753  11.752   2.010  1.00  0.00     0.210 C 
ENDBRANCH   6   9
ENDBRANCH   1   3
BRANCH   1  11
HETATM   11  C   UNL     1      65.581   6.149   5.367  1.00  0.00     0.064 C 
HETATM   12  C   UNL     1      66.290   5.449   6.543  1.00  0.00     0.040 C 
HETATM   13  C   UNL     1      67.180   6.413   7.344  1.00  0.00     0.233 C 
HETATM   14  N   UNL     1      68.149   7.069   6.454  1.00  0.00    -0.075 N 
HETATM   15  C   UNL     1      67.471   7.830   5.391  1.00  0.00     0.233 C 
HETATM   16  H   UNL     1      68.742   6.358   6.027  1.00  0.00     0.277 HD
HETATM   17  H   UNL     1      68.706   7.719   7.009  1.00  0.00     0.277 HD
HETATM   18  C   UNL     1      66.637   6.881   4.516  1.00  0.00     0.040 C 
ENDBRANCH   1  11
TORSDOF 3
ENDMDL
MODEL 3
REMARK VINA RESULT:      -5.3      3.034      6.340
REMARK  3 active torsions:
REMARK  status: ('A' for Active; 'I' for Inactive)
REMARK    1  A    between atoms: C_1  and  C_2 
REMARK    2  A    between atoms: C_1  and  C_5 
REMARK    3  A    between atoms: C_8  and  O_11 
ROOT
HETATM    1  C   UNL     1      66.059   7.784   6.192  1.00  0.00     0.163 C 
HETATM    2  O   UNL     1      66.110   8.990   6.386  1.00  0.00    -0.292 OA
ENDROOT
BRANCH   1   3
HETATM    3  C   UNL     1      66.835   6.881   7.108  1.00  0.00     0.010 A 
HETATM    4  C   UNL     1      66.674   6.979   8.506  1.00  0.00     0.018 A 
HETATM    5  C   UNL     1      67.399   6.147   9.372  1.00  0.00     0.037 A 
HETATM    6  C   UNL     1      68.302   5.202   8.863  1.00  0.00     0.068 A 
HETATM    7  C   UNL     1      68.461   5.100   7.473  1.00  0.00     0.037 A 
HETATM    8  C   UNL     1      67.740   5.922   6.610  1.00  0.00     0.018 A 
BRANCH   6   9
HETATM    9  O   UNL     1      68.988   4.417   9.731  1.00  0.00    -0.356 OA
HETATM   10  C   UNL     1      68.945   3.037   9.754  1.00  0.00     0.210 C 
ENDBRANCH   6   9
ENDBRANCH   1   3
BRANCH   1  11
HETATM   11  C   UNL     1      65.217   7.240   5.033  1.00  0.00     0.064 C 
HETATM   12  C   UNL     1      64.239   8.256   4.412  1.00  0.00     0.040 C 
HETATM   13  C   UNL     1      63.039   8.546   5.328  1.00  0.00     0.233 C 
HETATM   14  N   UNL     1      62.352   7.295   5.678  1.00  0.00    -0.075 N 
HETATM   15  C   UNL     1      63.258   6.362   6.371  1.00  0.00     0.233 C 
HETATM   16  H   UNL     1      62.011   6.853   4.825  1.00  0.00     0.277 HD
HETATM   17  H   UNL     1      61.579   7.517   6.305  1.00  0.00     0.277 HD
HETATM   18  C   UNL     1      64.427   5.983   5.449  1.00  0.00     0.040 C 
ENDBRANCH   1  11
TORSDOF 3
ENDMDL
MODEL 4
REMARK VINA RESULT:      -5.2      3.416      5.523
REMARK  3 active torsions:
REMARK  status: ('A' for Active; 'I' for Inactive)
REMARK    1  A    between atoms: C_1  and  C_2 
REMARK    2  A    between atoms: C_1  and  C_5 
REMARK    3  A    between atoms: C_8  and  O_11 
ROOT
HETATM    1  C   UNL     1      64.688   6.445   4.766  1.00  0.00     0.163 C 
HETATM    2  O   UNL     1      64.164   5.574   5.444  1.00  0.00    -0.292 OA
ENDROOT
BRANCH   1   3
HETATM    3  C   UNL     1      63.880   7.664   4.422  1.00  0.00     0.010 A 
HETATM    4  C   UNL     1      63.316   7.803   3.137  1.00  0.00     0.018 A 
HETATM    5  C   UNL     1      62.565   8.940   2.801  1.00  0.00     0.037 A 
HETATM    6  C   UNL     1      62.365   9.964   3.738  1.00  0.00     0.068 A 
HETATM    7  C   UNL     1      62.923   9.827   5.019  1.00  0.00     0.037 A 
HETATM    8  C   UNL     1      63.664   8.697   5.357  1.00  0.00     0.018 A 
BRANCH   6   9
HETATM    9  O   UNL     1      61.638  11.050   3.377  1.00  0.00    -0.356 OA
HETATM   10  C   UNL     1      61.738  11.704   2.165  1.00  0.00     0.210 C 
ENDBRANCH   6   9
ENDBRANCH   1   3
BRANCH   1  11
HETATM   11  C   UNL     1      66.134   6.266   4.290  1.00  0.00     0.064 C 
HETATM   12  C   UNL     1      66.909   5.134   4.992  1.00  0.00     0.040 C 
HETATM   13  C   UNL     1      67.285   5.495   6.438  1.00  0.00     0.233 C 
HETATM   14  N   UNL     1      68.041   6.756   6.468  1.00  0.00    -0.075 N 
HETATM   15  C   UNL     1      67.259   7.864   5.896  1.00  0.00     0.233 C 
HETATM   16  H   UNL     1      68.898   6.641   5.928  1.00  0.00     0.277 HD
HETATM   17  H   UNL     1      68.253   6.980   7.440  1.00  0.00     0.277 HD
HETATM   18  C   UNL     1      66.938   7.574   4.421  1.00  0.00     0.040 C 
ENDBRANCH   1  11
TORSDOF 3
ENDMDL
MODEL 5
REMARK VINA RESULT:      -5.2      5.890      9.361
REMARK  3 active torsions:
REMARK  status: ('A' for Active; 'I' for Inactive)
REMARK    1  A    between atoms: C_1  and  C_2 
REMARK    2  A    between atoms: C_1  and  C_5 
REMARK    3  A    between atoms: C_8  and  O_11 
ROOT
HETATM    1  C   UNL     1      60.975   8.111   2.668  1.00  0.00     0.163 C 
HETATM    2  O   UNL     1      60.071   7.408   3.094  1.00  0.00    -0.292 OA
ENDROOT
BRANCH   1   3
HETATM    3  C   UNL     1      62.174   8.340   3.543  1.00  0.00     0.010 A 
HETATM    4  C   UNL     1      62.353   9.580   4.192  1.00  0.00     0.018 A 
HETATM    5  C   UNL     1      63.472   9.809   5.006  1.00  0.00     0.037 A 
HETATM    6  C   UNL     1      64.438   8.809   5.188  1.00  0.00     0.068 A 
HETATM    7  C   UNL     1      64.261   7.573   4.546  1.00  0.00     0.037 A 
HETATM    8  C   UNL     1      63.148   7.340   3.741  1.00  0.00     0.018 A 
BRANCH   6   9
HETATM    9  O   UNL     1      65.509   9.067   5.979  1.00  0.00    -0.356 OA
HETATM   10  C   UNL     1      66.514   8.166   6.272  1.00  0.00     0.210 C 
ENDBRANCH   6   9
ENDBRANCH   1   3
BRANCH   1  11
HETATM   11  C   UNL     1      60.856   8.731   1.271  1.00  0.00     0.064 C 
HETATM   12  C   UNL     1      59.760   8.114   0.381  1.00  0.00     0.040 C 
HETATM   13  C   UNL     1      60.141   6.713  -0.124  1.00  0.00     0.233 C 
HETATM   14  N   UNL     1      61.432   6.757  -0.825  1.00  0.00    -0.075 N 
HETATM   15  C   UNL     1      62.504   7.246   0.058  1.00  0.00     0.233 C 
HETATM   16  H   UNL     1      61.353   7.382  -1.627  1.00  0.00     0.277 HD
HETATM   17  H   UNL     1      61.668   5.811  -1.125  1.00  0.00     0.277 HD
HETATM   18  C   UNL     1      62.197   8.681   0.514  1.00  0.00     0.040 C 
ENDBRANCH   1  11
TORSDOF 3
ENDMDL
MODEL 6
REMARK VINA RESULT:      -5.1      2.790      6.189
REMARK  3 active torsions:
REMARK  status: ('A' for Active; 'I' for Inactive)
REMARK    1  A    between atoms: C_1  and  C_2 
REMARK    2  A    between atoms: C_1  and  C_5 
REMARK    3  A    between atoms: C_8  and  O_11 
ROOT
HETATM    1  C   UNL     1      67.551   6.323   7.489  1.00  0.00     0.163 C 
HETATM    2  O   UNL     1      66.786   7.069   8.082  1.00  0.00    -0.292 OA
ENDROOT
BRANCH   1   3
HETATM    3  C   UNL     1      68.191   5.202   8.257  1.00  0.00     0.010 A 
HETATM    4  C   UNL     1      69.557   5.269   8.604  1.00  0.00     0.018 A 
HETATM    5  C   UNL     1      70.168   4.225   9.314  1.00  0.00     0.037 A 
HETATM    6  C   UNL     1      69.433   3.091   9.689  1.00  0.00     0.068 A 
HETATM    7  C   UNL     1      68.074   3.023   9.346  1.00  0.00     0.037 A 
HETATM    8  C   UNL     1      67.462   4.060   8.646  1.00  0.00     0.018 A 
BRANCH   6   9
HETATM    9  O   UNL     1      70.059   2.100  10.371  1.00  0.00    -0.356 OA
HETATM   10  C   UNL     1      70.313   0.836   9.877  1.00  0.00     0.210 C 
ENDBRANCH   6   9
ENDBRANCH   1   3
BRANCH   1  11
HETATM   11  C   UNL     1      67.832   6.555   6.000  1.00  0.00     0.064 C 
HETATM   12  C   UNL     1      67.197   7.831   5.414  1.00  0.00     0.040 C 
HETATM   13  C   UNL     1      65.674   7.701   5.247  1.00  0.00     0.233 C 
HETATM   14  N   UNL     1      65.351   6.523   4.429  1.00  0.00    -0.075 N 
HETATM   15  C   UNL     1      65.863   5.287   5.044  1.00  0.00     0.233 C 
HETATM   16  H   UNL     1      65.771   6.634   3.507  1.00  0.00     0.277 HD
HETATM   17  H   UNL     1      64.336   6.449   4.358  1.00  0.00     0.277 HD
HETATM   18  C   UNL     1      67.396   5.348   5.147  1.00  0.00     0.040 C 
ENDBRANCH   1  11
TORSDOF 3
ENDMDL
MODEL 7
REMARK VINA RESULT:      -4.9      1.807      2.245
REMARK  3 active torsions:
REMARK  status: ('A' for Active; 'I' for Inactive)
REMARK    1  A    between atoms: C_1  and  C_2 
REMARK    2  A    between atoms: C_1  and  C_5 
REMARK    3  A    between atoms: C_8  and  O_11 
ROOT
HETATM    1  C   UNL     1      68.418   5.223   7.726  1.00  0.00     0.163 C 
HETATM    2  O   UNL     1      68.929   5.594   8.772  1.00  0.00    -0.292 OA
ENDROOT
BRANCH   1   3
HETATM    3  C   UNL     1      67.553   6.193   6.971  1.00  0.00     0.010 A 
HETATM    4  C   UNL     1      66.249   6.481   7.425  1.00  0.00     0.018 A 
HETATM    5  C   UNL     1      65.428   7.379   6.725  1.00  0.00     0.037 A 
HETATM    6  C   UNL     1      65.888   8.004   5.558  1.00  0.00     0.068 A 
HETATM    7  C   UNL     1      67.186   7.720   5.106  1.00  0.00     0.037 A 
HETATM    8  C   UNL     1      68.006   6.834   5.801  1.00  0.00     0.018 A 
BRANCH   6   9
HETATM    9  O   UNL     1      65.066   8.863   4.906  1.00  0.00    -0.356 OA
HETATM   10  C   UNL     1      63.686   8.792   4.904  1.00  0.00     0.210 C 
ENDBRANCH   6   9
ENDBRANCH   1   3
BRANCH   1  11
HETATM   11  C   UNL     1      68.670   3.797   7.225  1.00  0.00     0.064 C 
HETATM   12  C   UNL     1      67.492   3.163   6.460  1.00  0.00     0.040 C 
HETATM   13  C   UNL     1      66.332   2.778   7.392  1.00  0.00     0.233 C 
HETATM   14  N   UNL     1      66.811   1.889   8.460  1.00  0.00    -0.075 N 
HETATM   15  C   UNL     1      67.864   2.534   9.262  1.00  0.00     0.233 C 
HETATM   16  H   UNL     1      67.188   1.039   8.041  1.00  0.00     0.277 HD
HETATM   17  H   UNL     1      66.027   1.672   9.075  1.00  0.00     0.277 HD
HETATM   18  C   UNL     1      69.077   2.856   8.376  1.00  0.00     0.040 C 
ENDBRANCH   1  11
TORSDOF 3
ENDMDL
MODEL 8
REMARK VINA RESULT:      -4.9      2.684      6.006
REMARK  3 active torsions:
REMARK  status: ('A' for Active; 'I' for Inactive)
REMARK    1  A    between atoms: C_1  and  C_2 
REMARK    2  A    between atoms: C_1  and  C_5 
REMARK    3  A    between atoms: C_8  and  O_11 
ROOT
HETATM    1  C   UNL     1      67.512   6.742   6.306  1.00  0.00     0.163 C 
HETATM    2  O   UNL     1      68.184   7.204   5.396  1.00  0.00    -0.292 OA
ENDROOT
BRANCH   1   3
HETATM    3  C   UNL     1      68.020   5.521   7.019  1.00  0.00     0.010 A 
HETATM    4  C   UNL     1      68.562   5.630   8.317  1.00  0.00     0.018 A 
HETATM    5  C   UNL     1      69.047   4.499   8.990  1.00  0.00     0.037 A 
HETATM    6  C   UNL     1      69.004   3.236   8.383  1.00  0.00     0.068 A 
HETATM    7  C   UNL     1      68.462   3.123   7.093  1.00  0.00     0.037 A 
HETATM    8  C   UNL     1      67.975   4.244   6.424  1.00  0.00     0.018 A 
BRANCH   6   9
HETATM    9  O   UNL     1      69.485   2.165   9.063  1.00  0.00    -0.356 OA
HETATM   10  C   UNL     1      69.387   1.984  10.428  1.00  0.00     0.210 C 
ENDBRANCH   6   9
ENDBRANCH   1   3
BRANCH   1  11
HETATM   11  C   UNL     1      66.187   7.413   6.685  1.00  0.00     0.064 C 
HETATM   12  C   UNL     1      65.110   6.455   7.231  1.00  0.00     0.040 C 
HETATM   13  C   UNL     1      64.505   5.570   6.129  1.00  0.00     0.233 C 
HETATM   14  N   UNL     1      63.973   6.403   5.041  1.00  0.00    -0.075 N 
HETATM   15  C   UNL     1      65.025   7.242   4.445  1.00  0.00     0.233 C 
HETATM   16  H   UNL     1      63.239   7.006   5.414  1.00  0.00     0.277 HD
HETATM   17  H   UNL     1      63.602   5.788   4.317  1.00  0.00     0.277 HD
HETATM   18  C   UNL     1      65.594   8.202   5.501  1.00  0.00     0.040 C 
ENDBRANCH   1  11
TORSDOF 3
ENDMDL
MODEL 9
REMARK VINA RESULT:      -4.9      1.813      2.538
REMARK  3 active torsions:
REMARK  status: ('A' for Active; 'I' for Inactive)
REMARK    1  A    between atoms: C_1  and  C_2 
REMARK    2  A    between atoms: C_1  and  C_5 
REMARK    3  A    between atoms: C_8  and  O_11 
ROOT
HETATM    1  C   UNL     1      68.996   4.031   9.204  1.00  0.00     0.163 C 
HETATM    2  O   UNL     1      70.203   4.160   9.346  1.00  0.00    -0.292 OA
ENDROOT
BRANCH   1   3
HETATM    3  C   UNL     1      68.231   5.144   8.546  1.00  0.00     0.010 A 
HETATM    4  C   UNL     1      68.208   5.255   7.140  1.00  0.00     0.018 A 
HETATM    5  C   UNL     1      67.504   6.295   6.515  1.00  0.00     0.037 A 
HETATM    6  C   UNL     1      66.812   7.247   7.277  1.00  0.00     0.068 A 
HETATM    7  C   UNL     1      66.832   7.137   8.676  1.00  0.00     0.037 A 
HETATM    8  C   UNL     1      67.525   6.104   9.300  1.00  0.00     0.018 A 
BRANCH   6   9
HETATM    9  O   UNL     1      66.146   8.241   6.637  1.00  0.00    -0.356 OA
HETATM   10  C   UNL     1      65.309   8.063   5.553  1.00  0.00     0.210 C 
ENDBRANCH   6   9
ENDBRANCH   1   3
BRANCH   1  11
HETATM   11  C   UNL     1      68.309   2.753   9.699  1.00  0.00     0.064 C 
HETATM   12  C   UNL     1      69.217   1.802  10.503  1.00  0.00     0.040 C 
HETATM   13  C   UNL     1      70.234   1.073   9.610  1.00  0.00     0.233 C 
HETATM   14  N   UNL     1      69.541   0.358   8.528  1.00  0.00    -0.075 N 
HETATM   15  C   UNL     1      68.758   1.282   7.691  1.00  0.00     0.233 C 
HETATM   16  H   UNL     1      68.912  -0.333   8.936  1.00  0.00     0.277 HD
HETATM   17  H   UNL     1      70.242  -0.093   7.940  1.00  0.00     0.277 HD
HETATM   18  C   UNL     1      67.672   1.966   8.537  1.00  0.00     0.040 C 
ENDBRANCH   1  11
TORSDOF 3
ENDMDL
