MODEL 1
REMARK VINA RESULT:      -5.2      0.000      0.000
REMARK  4 active torsions:
REMARK  status: ('A' for Active; 'I' for Inactive)
REMARK    1  A    between atoms: C_1  and  C_8 
REMARK    2  A    between atoms: C_2  and  N_9 
REMARK    3  A    between atoms: C_3  and  C_6 
REMARK    4  A    between atoms: C_8  and  N_15 
ROOT
HETATM    1  C   UNL     1      66.644   6.310   7.165  1.00  0.00     0.097 A 
HETATM    2  C   UNL     1      67.219   5.217   6.470  1.00  0.00     0.061 A 
HETATM    3  C   UNL     1      68.607   4.902   8.474  1.00  0.00     0.065 A 
HETATM    4  N   UNL     1      67.012   6.695   8.424  1.00  0.00    -0.361 N 
ATOM      5  HN  UNL     1      66.573   7.496   8.877  1.00  0.00     0.165 HD
HETATM    6  C   UNL     1      68.229   4.536   7.172  1.00  0.00     0.049 A 
HETATM    7  C   UNL     1      67.969   5.984   9.046  1.00  0.00     0.104 A 
ENDROOT
BRANCH   1   8
HETATM    8  C   UNL     1      65.477   7.092   6.623  1.00  0.00     0.123 C 
HETATM    9  S   UNL     1      63.928   6.485   6.407  1.00  0.00    -0.058 SA
BRANCH   8  10
HETATM   10  N   UNL     1      65.704   8.401   6.266  1.00  0.00    -0.388 N 
HETATM   11  H   UNL     1      65.237   9.128   6.739  1.00  0.00     0.157 HD
HETATM   12  H   UNL     1      66.332   8.612   5.539  1.00  0.00     0.157 HD
ENDBRANCH   8  10
ENDBRANCH   1   8
BRANCH   2  13
HETATM   13  N   UNL     1      66.837   4.826   5.186  1.00  0.00    -0.379 N 
HETATM   14  C   UNL     1      66.827   3.419   4.747  1.00  0.00     0.123 C 
HETATM   15  C   UNL     1      67.376   3.447   3.322  1.00  0.00     0.021 C 
HETATM   16  C   UNL     1      67.009   4.837   2.838  1.00  0.00     0.021 C 
HETATM   17  C   UNL     1      67.283   5.690   4.074  1.00  0.00     0.123 C 
ENDBRANCH   2  13
BRANCH   3  18
HETATM   18  C   UNL     1      69.651   4.162   9.251  1.00  0.00     0.418 C 
HETATM   19  F   UNL     1      69.398   4.114  10.588  1.00  0.00    -0.166 F 
HETATM   20  F   UNL     1      69.783   2.869   8.849  1.00  0.00    -0.166 F 
HETATM   21  F   UNL     1      70.885   4.723   9.127  1.00  0.00    -0.166 F 
ENDBRANCH   3  18
TORSDOF 4
ENDMDL
MODEL 2
REMARK VINA RESULT:      -5.0      5.492      6.652
REMARK  4 active torsions:
REMARK  status: ('A' for Active; 'I' for Inactive)
REMARK    1  A    between atoms: C_1  and  C_8 
REMARK    2  A    between atoms: C_2  and  N_9 
REMARK    3  A    between atoms: C_3  and  C_6 
REMARK    4  A    between atoms: C_8  and  N_15 
ROOT
HETATM    1  C   UNL     1      65.100   7.803   5.595  1.00  0.00     0.097 A 
HETATM    2  C   UNL     1      64.879   6.985   4.460  1.00  0.00     0.061 A 
HETATM    3  C   UNL     1      63.246   8.686   3.771  1.00  0.00     0.065 A 
HETATM    4  N   UNL     1      64.447   8.980   5.828  1.00  0.00    -0.361 N 
ATOM      5  HN  UNL     1      64.634   9.528   6.668  1.00  0.00     0.165 HD
HETATM    6  C   UNL     1      63.912   7.468   3.562  1.00  0.00     0.049 A 
HETATM    7  C   UNL     1      63.550   9.394   4.915  1.00  0.00     0.104 A 
ENDROOT
BRANCH   1   8
HETATM    8  C   UNL     1      66.171   7.508   6.612  1.00  0.00     0.123 C 
HETATM    9  S   UNL     1      66.006   6.454   7.906  1.00  0.00    -0.058 SA
BRANCH   8  10
HETATM   10  N   UNL     1      67.372   8.165   6.474  1.00  0.00    -0.388 N 
HETATM   11  H   UNL     1      67.396   9.150   6.466  1.00  0.00     0.157 HD
HETATM   12  H   UNL     1      68.207   7.652   6.385  1.00  0.00     0.157 HD
ENDBRANCH   8  10
ENDBRANCH   1   8
BRANCH   2  13
HETATM   13  N   UNL     1      65.552   5.784   4.225  1.00  0.00    -0.379 N 
HETATM   14  C   UNL     1      66.850   5.716   3.531  1.00  0.00     0.123 C 
HETATM   15  C   UNL     1      66.746   4.495   2.620  1.00  0.00     0.021 C 
HETATM   16  C   UNL     1      65.745   3.612   3.341  1.00  0.00     0.021 C 
HETATM   17  C   UNL     1      64.720   4.627   3.837  1.00  0.00     0.123 C 
ENDBRANCH   2  13
BRANCH   3  18
HETATM   18  C   UNL     1      62.243   9.235   2.804  1.00  0.00     0.418 C 
HETATM   19  F   UNL     1      61.008   8.674   2.927  1.00  0.00    -0.166 F 
HETATM   20  F   UNL     1      62.060  10.575   2.945  1.00  0.00    -0.166 F 
HETATM   21  F   UNL     1      62.611   9.039   1.508  1.00  0.00    -0.166 F 
ENDBRANCH   3  18
TORSDOF 4
ENDMDL
MODEL 3
REMARK VINA RESULT:      -5.0      1.621      1.820
REMARK  4 active torsions:
REMARK  status: ('A' for Active; 'I' for Inactive)
REMARK    1  A    between atoms: C_1  and  C_8 
REMARK    2  A    between atoms: C_2  and  N_9 
REMARK    3  A    between atoms: C_3  and  C_6 
REMARK    4  A    between atoms: C_8  and  N_15 
ROOT
HETATM    1  C   UNL     1      67.923   5.978   6.756  1.00  0.00     0.097 A 
HETATM    2  C   UNL     1      67.562   4.662   6.374  1.00  0.00     0.061 A 
HETATM    3  C   UNL     1      68.576   3.958   8.498  1.00  0.00     0.065 A 
HETATM    4  N   UNL     1      68.571   6.287   7.919  1.00  0.00    -0.361 N 
ATOM      5  HN  UNL     1      68.819   7.250   8.143  1.00  0.00     0.165 HD
HETATM    6  C   UNL     1      67.929   3.660   7.288  1.00  0.00     0.049 A 
HETATM    7  C   UNL     1      68.872   5.280   8.758  1.00  0.00     0.104 A 
ENDROOT
BRANCH   1   8
HETATM    8  C   UNL     1      67.520   7.193   5.962  1.00  0.00     0.123 C 
HETATM    9  S   UNL     1      65.977   7.849   5.921  1.00  0.00    -0.058 SA
BRANCH   8  10
HETATM   10  N   UNL     1      68.492   7.802   5.201  1.00  0.00    -0.388 N 
HETATM   11  H   UNL     1      69.118   7.255   4.673  1.00  0.00     0.157 HD
HETATM   12  H   UNL     1      68.563   8.783   5.185  1.00  0.00     0.157 HD
ENDBRANCH   8  10
ENDBRANCH   1   8
BRANCH   2  13
HETATM   13  N   UNL     1      66.896   4.353   5.186  1.00  0.00    -0.379 N 
HETATM   14  C   UNL     1      65.441   4.133   5.119  1.00  0.00     0.123 C 
HETATM   15  C   UNL     1      65.266   2.950   4.169  1.00  0.00     0.021 C 
HETATM   16  C   UNL     1      66.489   3.039   3.277  1.00  0.00     0.021 C 
HETATM   17  C   UNL     1      67.583   3.421   4.270  1.00  0.00     0.123 C 
ENDBRANCH   2  13
BRANCH   3  18
HETATM   18  C   UNL     1      68.938   2.906   9.502  1.00  0.00     0.418 C 
HETATM   19  F   UNL     1      67.857   2.354  10.120  1.00  0.00    -0.166 F 
HETATM   20  F   UNL     1      69.622   1.869   8.950  1.00  0.00    -0.166 F 
HETATM   21  F   UNL     1      69.727   3.391  10.499  1.00  0.00    -0.166 F 
ENDBRANCH   3  18
TORSDOF 4
ENDMDL
MODEL 4
REMARK VINA RESULT:      -4.9      4.371      5.742
REMARK  4 active torsions:
REMARK  status: ('A' for Active; 'I' for Inactive)
REMARK    1  A    between atoms: C_1  and  C_8 
REMARK    2  A    between atoms: C_2  and  N_9 
REMARK    3  A    between atoms: C_3  and  C_6 
REMARK    4  A    between atoms: C_8  and  N_15 
ROOT
HETATM    1  C   UNL     1      62.833   6.742   5.589  1.00  0.00     0.097 A 
HETATM    2  C   UNL     1      63.244   7.944   4.962  1.00  0.00     0.061 A 
HETATM    3  C   UNL     1      65.423   7.547   6.024  1.00  0.00     0.065 A 
HETATM    4  N   UNL     1      63.641   5.982   6.388  1.00  0.00    -0.361 N 
ATOM      5  HN  UNL     1      63.294   5.128   6.826  1.00  0.00     0.165 HD
HETATM    6  C   UNL     1      64.571   8.325   5.224  1.00  0.00     0.049 A 
HETATM    7  C   UNL     1      64.907   6.394   6.578  1.00  0.00     0.104 A 
ENDROOT
BRANCH   1   8
HETATM    8  C   UNL     1      61.486   6.116   5.342  1.00  0.00     0.123 C 
HETATM    9  S   UNL     1      61.072   5.228   3.981  1.00  0.00    -0.058 SA
BRANCH   8  10
HETATM   10  N   UNL     1      60.518   6.300   6.303  1.00  0.00    -0.388 N 
HETATM   11  H   UNL     1      59.885   5.573   6.508  1.00  0.00     0.157 HD
HETATM   12  H   UNL     1      60.457   7.155   6.785  1.00  0.00     0.157 HD
ENDBRANCH   8  10
ENDBRANCH   1   8
BRANCH   2  13
HETATM   13  N   UNL     1      62.415   8.715   4.144  1.00  0.00    -0.379 N 
HETATM   14  C   UNL     1      62.240   8.449   2.705  1.00  0.00     0.123 C 
HETATM   15  C   UNL     1      62.228   9.828   2.049  1.00  0.00     0.021 C 
HETATM   16  C   UNL     1      61.714  10.731   3.154  1.00  0.00     0.021 C 
HETATM   17  C   UNL     1      62.426  10.172   4.382  1.00  0.00     0.123 C 
ENDBRANCH   2  13
BRANCH   3  18
HETATM   18  C   UNL     1      66.852   7.917   6.280  1.00  0.00     0.418 C 
HETATM   19  F   UNL     1      66.994   8.970   7.132  1.00  0.00    -0.166 F 
HETATM   20  F   UNL     1      67.566   6.897   6.825  1.00  0.00    -0.166 F 
HETATM   21  F   UNL     1      67.508   8.270   5.141  1.00  0.00    -0.166 F 
ENDBRANCH   3  18
TORSDOF 4
ENDMDL
MODEL 5
REMARK VINA RESULT:      -4.9      5.663      7.302
REMARK  4 active torsions:
REMARK  status: ('A' for Active; 'I' for Inactive)
REMARK    1  A    between atoms: C_1  and  C_8 
REMARK    2  A    between atoms: C_2  and  N_9 
REMARK    3  A    between atoms: C_3  and  C_6 
REMARK    4  A    between atoms: C_8  and  N_15 
ROOT
HETATM    1  C   UNL     1      64.685   6.769   3.988  1.00  0.00     0.097 A 
HETATM    2  C   UNL     1      64.824   7.730   5.020  1.00  0.00     0.061 A 
HETATM    3  C   UNL     1      63.096   9.004   3.825  1.00  0.00     0.065 A 
HETATM    4  N   UNL     1      63.824   6.897   2.935  1.00  0.00    -0.361 N 
ATOM      5  HN  UNL     1      63.769   6.181   2.210  1.00  0.00     0.165 HD
HETATM    6  C   UNL     1      64.003   8.862   4.888  1.00  0.00     0.049 A 
HETATM    7  C   UNL     1      63.051   7.997   2.883  1.00  0.00     0.104 A 
ENDROOT
BRANCH   1   8
HETATM    8  C   UNL     1      65.399   5.443   4.012  1.00  0.00     0.123 C 
HETATM    9  S   UNL     1      66.874   5.131   3.275  1.00  0.00    -0.058 SA
BRANCH   8  10
HETATM   10  N   UNL     1      64.787   4.407   4.679  1.00  0.00    -0.388 N 
HETATM   11  H   UNL     1      65.278   3.913   5.376  1.00  0.00     0.157 HD
HETATM   12  H   UNL     1      63.860   4.159   4.461  1.00  0.00     0.157 HD
ENDBRANCH   8  10
ENDBRANCH   1   8
BRANCH   2  13
HETATM   13  N   UNL     1      65.703   7.592   6.096  1.00  0.00    -0.379 N 
HETATM   14  C   UNL     1      67.164   7.507   5.929  1.00  0.00     0.123 C 
HETATM   15  C   UNL     1      67.613   6.436   6.923  1.00  0.00     0.021 C 
HETATM   16  C   UNL     1      66.549   6.502   8.003  1.00  0.00     0.021 C 
HETATM   17  C   UNL     1      65.274   6.693   7.186  1.00  0.00     0.123 C 
ENDBRANCH   2  13
BRANCH   3  18
HETATM   18  C   UNL     1      62.184  10.184   3.692  1.00  0.00     0.418 C 
HETATM   19  F   UNL     1      62.442  11.172   4.593  1.00  0.00    -0.166 F 
HETATM   20  F   UNL     1      62.261  10.768   2.466  1.00  0.00    -0.166 F 
HETATM   21  F   UNL     1      60.876   9.852   3.870  1.00  0.00    -0.166 F 
ENDBRANCH   3  18
TORSDOF 4
ENDMDL
MODEL 6
REMARK VINA RESULT:      -4.9      2.015      3.669
REMARK  4 active torsions:
REMARK  status: ('A' for Active; 'I' for Inactive)
REMARK    1  A    between atoms: C_1  and  C_8 
REMARK    2  A    between atoms: C_2  and  N_9 
REMARK    3  A    between atoms: C_3  and  C_6 
REMARK    4  A    between atoms: C_8  and  N_15 
ROOT
HETATM    1  C   UNL     1      66.949   4.213   5.313  1.00  0.00     0.097 A 
HETATM    2  C   UNL     1      66.532   5.412   5.943  1.00  0.00     0.061 A 
HETATM    3  C   UNL     1      68.203   4.880   7.664  1.00  0.00     0.065 A 
HETATM    4  N   UNL     1      67.918   3.386   5.807  1.00  0.00    -0.361 N 
ATOM      5  HN  UNL     1      68.175   2.527   5.321  1.00  0.00     0.165 HD
HETATM    6  C   UNL     1      67.190   5.705   7.149  1.00  0.00     0.049 A 
HETATM    7  C   UNL     1      68.522   3.740   6.956  1.00  0.00     0.104 A 
ENDROOT
BRANCH   1   8
HETATM    8  C   UNL     1      66.439   3.786   3.961  1.00  0.00     0.123 C 
HETATM    9  S   UNL     1      67.072   4.289   2.491  1.00  0.00    -0.058 SA
BRANCH   8  10
HETATM   10  N   UNL     1      65.363   2.929   3.933  1.00  0.00    -0.388 N 
HETATM   11  H   UNL     1      65.165   2.415   3.116  1.00  0.00     0.157 HD
HETATM   12  H   UNL     1      64.792   2.828   4.728  1.00  0.00     0.157 HD
ENDBRANCH   8  10
ENDBRANCH   1   8
BRANCH   2  13
HETATM   13  N   UNL     1      65.544   6.255   5.431  1.00  0.00    -0.379 N 
HETATM   14  C   UNL     1      65.852   7.494   4.697  1.00  0.00     0.123 C 
HETATM   15  C   UNL     1      64.831   8.514   5.200  1.00  0.00     0.021 C 
HETATM   16  C   UNL     1      63.656   7.648   5.616  1.00  0.00     0.021 C 
HETATM   17  C   UNL     1      64.351   6.461   6.277  1.00  0.00     0.123 C 
ENDBRANCH   2  13
BRANCH   3  18
HETATM   18  C   UNL     1      68.943   5.199   8.926  1.00  0.00     0.418 C 
HETATM   19  F   UNL     1      69.120   4.120   9.738  1.00  0.00    -0.166 F 
HETATM   20  F   UNL     1      70.186   5.699   8.692  1.00  0.00    -0.166 F 
HETATM   21  F   UNL     1      68.299   6.130   9.683  1.00  0.00    -0.166 F 
ENDBRANCH   3  18
TORSDOF 4
ENDMDL
MODEL 7
REMARK VINA RESULT:      -4.8      3.061      4.179
REMARK  4 active torsions:
REMARK  status: ('A' for Active; 'I' for Inactive)
REMARK    1  A    between atoms: C_1  and  C_8 
REMARK    2  A    between atoms: C_2  and  N_9 
REMARK    3  A    between atoms: C_3  and  C_6 
REMARK    4  A    between atoms: C_8  and  N_15 
ROOT
HETATM    1  C   UNL     1      64.480   7.886   5.722  1.00  0.00     0.097 A 
HETATM    2  C   UNL     1      64.105   6.603   6.191  1.00  0.00     0.061 A 
HETATM    3  C   UNL     1      66.282   6.577   7.329  1.00  0.00     0.065 A 
HETATM    4  N   UNL     1      65.669   8.491   6.017  1.00  0.00    -0.361 N 
ATOM      5  HN  UNL     1      65.897   9.413   5.645  1.00  0.00     0.165 HD
HETATM    6  C   UNL     1      65.063   5.965   6.996  1.00  0.00     0.049 A 
HETATM    7  C   UNL     1      66.530   7.832   6.813  1.00  0.00     0.104 A 
ENDROOT
BRANCH   1   8
HETATM    8  C   UNL     1      63.545   8.769   4.936  1.00  0.00     0.123 C 
HETATM    9  S   UNL     1      63.017   8.461   3.374  1.00  0.00    -0.058 SA
BRANCH   8  10
HETATM   10  N   UNL     1      63.103   9.921   5.544  1.00  0.00    -0.388 N 
HETATM   11  H   UNL     1      62.137  10.100   5.613  1.00  0.00     0.157 HD
HETATM   12  H   UNL     1      63.750  10.565   5.911  1.00  0.00     0.157 HD
ENDBRANCH   8  10
ENDBRANCH   1   8
BRANCH   2  13
HETATM   13  N   UNL     1      62.886   5.991   5.888  1.00  0.00    -0.379 N 
HETATM   14  C   UNL     1      61.617   6.376   6.531  1.00  0.00     0.123 C 
HETATM   15  C   UNL     1      60.893   5.056   6.792  1.00  0.00     0.021 C 
HETATM   16  C   UNL     1      61.440   4.143   5.711  1.00  0.00     0.021 C 
HETATM   17  C   UNL     1      62.916   4.530   5.682  1.00  0.00     0.123 C 
ENDBRANCH   2  13
BRANCH   3  18
HETATM   18  C   UNL     1      67.295   5.928   8.221  1.00  0.00     0.418 C 
HETATM   19  F   UNL     1      67.547   6.634   9.358  1.00  0.00    -0.166 F 
HETATM   20  F   UNL     1      66.916   4.688   8.628  1.00  0.00    -0.166 F 
HETATM   21  F   UNL     1      68.501   5.772   7.607  1.00  0.00    -0.166 F 
ENDBRANCH   3  18
TORSDOF 4
ENDMDL
MODEL 8
REMARK VINA RESULT:      -4.7      4.554      6.084
REMARK  4 active torsions:
REMARK  status: ('A' for Active; 'I' for Inactive)
REMARK    1  A    between atoms: C_1  and  C_8 
REMARK    2  A    between atoms: C_2  and  N_9 
REMARK    3  A    between atoms: C_3  and  C_6 
REMARK    4  A    between atoms: C_8  and  N_15 
ROOT
HETATM    1  C   UNL     1      64.294   4.657   6.315  1.00  0.00     0.097 A 
HETATM    2  C   UNL     1      65.262   5.583   6.778  1.00  0.00     0.061 A 
HETATM    3  C   UNL     1      63.985   7.272   5.532  1.00  0.00     0.065 A 
HETATM    4  N   UNL     1      63.241   4.990   5.511  1.00  0.00    -0.361 N 
ATOM      5  HN  UNL     1      62.577   4.284   5.195  1.00  0.00     0.165 HD
HETATM    6  C   UNL     1      65.073   6.904   6.341  1.00  0.00     0.049 A 
HETATM    7  C   UNL     1      63.108   6.278   5.149  1.00  0.00     0.104 A 
ENDROOT
BRANCH   1   8
HETATM    8  C   UNL     1      64.267   3.219   6.763  1.00  0.00     0.123 C 
HETATM    9  S   UNL     1      65.202   1.989   6.109  1.00  0.00    -0.058 SA
BRANCH   8  10
HETATM   10  N   UNL     1      63.398   2.889   7.777  1.00  0.00    -0.388 N 
HETATM   11  H   UNL     1      62.973   3.599   8.312  1.00  0.00     0.157 HD
HETATM   12  H   UNL     1      63.200   1.944   7.969  1.00  0.00     0.157 HD
ENDBRANCH   8  10
ENDBRANCH   1   8
BRANCH   2  13
HETATM   13  N   UNL     1      66.335   5.237   7.603  1.00  0.00    -0.379 N 
HETATM   14  C   UNL     1      66.484   5.747   8.977  1.00  0.00     0.123 C 
HETATM   15  C   UNL     1      67.973   6.056   9.123  1.00  0.00     0.021 C 
HETATM   16  C   UNL     1      68.621   5.097   8.143  1.00  0.00     0.021 C 
HETATM   17  C   UNL     1      67.660   5.150   6.958  1.00  0.00     0.123 C 
ENDBRANCH   2  13
BRANCH   3  18
HETATM   18  C   UNL     1      63.746   8.683   5.091  1.00  0.00     0.418 C 
HETATM   19  F   UNL     1      64.782   9.521   5.372  1.00  0.00    -0.166 F 
HETATM   20  F   UNL     1      63.537   8.784   3.752  1.00  0.00    -0.166 F 
HETATM   21  F   UNL     1      62.652   9.234   5.686  1.00  0.00    -0.166 F 
ENDBRANCH   3  18
TORSDOF 4
ENDMDL
MODEL 9
REMARK VINA RESULT:      -4.6      7.834      9.274
REMARK  4 active torsions:
REMARK  status: ('A' for Active; 'I' for Inactive)
REMARK    1  A    between atoms: C_1  and  C_8 
REMARK    2  A    between atoms: C_2  and  N_9 
REMARK    3  A    between atoms: C_3  and  C_6 
REMARK    4  A    between atoms: C_8  and  N_15 
ROOT
HETATM    1  C   UNL     1      61.423   6.793   5.041  1.00  0.00     0.097 A 
HETATM    2  C   UNL     1      60.896   7.532   3.953  1.00  0.00     0.061 A 
HETATM    3  C   UNL     1      58.702   6.696   4.679  1.00  0.00     0.065 A 
HETATM    4  N   UNL     1      60.665   6.046   5.898  1.00  0.00    -0.361 N 
ATOM      5  HN  UNL     1      61.094   5.523   6.661  1.00  0.00     0.165 HD
HETATM    6  C   UNL     1      59.502   7.441   3.798  1.00  0.00     0.049 A 
HETATM    7  C   UNL     1      59.334   6.022   5.703  1.00  0.00     0.104 A 
ENDROOT
BRANCH   1   8
HETATM    8  C   UNL     1      62.876   6.853   5.434  1.00  0.00     0.123 C 
HETATM    9  S   UNL     1      64.066   5.809   4.878  1.00  0.00    -0.058 SA
BRANCH   8  10
HETATM   10  N   UNL     1      63.251   7.830   6.327  1.00  0.00    -0.388 N 
HETATM   11  H   UNL     1      62.575   8.251   6.907  1.00  0.00     0.157 HD
HETATM   12  H   UNL     1      64.193   8.109   6.386  1.00  0.00     0.157 HD
ENDBRANCH   8  10
ENDBRANCH   1   8
BRANCH   2  13
HETATM   13  N   UNL     1      61.675   8.297   3.083  1.00  0.00    -0.379 N 
HETATM   14  C   UNL     1      61.952   9.727   3.305  1.00  0.00     0.123 C 
HETATM   15  C   UNL     1      61.847  10.368   1.922  1.00  0.00     0.021 C 
HETATM   16  C   UNL     1      62.201   9.228   0.987  1.00  0.00     0.021 C 
HETATM   17  C   UNL     1      61.492   8.044   1.640  1.00  0.00     0.123 C 
ENDBRANCH   2  13
BRANCH   3  18
HETATM   18  C   UNL     1      57.212   6.622   4.552  1.00  0.00     0.418 C 
HETATM   19  F   UNL     1      56.734   7.220   3.425  1.00  0.00    -0.166 F 
HETATM   20  F   UNL     1      56.753   5.342   4.519  1.00  0.00    -0.166 F 
HETATM   21  F   UNL     1      56.572   7.225   5.591  1.00  0.00    -0.166 F 
ENDBRANCH   3  18
TORSDOF 4
ENDMDL
