MODEL 1
REMARK VINA RESULT:      -5.3      0.000      0.000
REMARK  2 active torsions:
REMARK  status: ('A' for Active; 'I' for Inactive)
REMARK    1  A    between atoms: C_1  and  C_4 
REMARK    2  A    between atoms: C_1  and  C_5 
ROOT
HETATM    1  N   UNL     1      76.946  -1.591  16.359  1.00  0.00    -0.075 N 
HETATM    2  C   UNL     1      74.571   0.127  16.531  1.00  0.00     0.064 C 
HETATM    3  C   UNL     1      76.042  -1.681  17.517  1.00  0.00     0.233 C 
HETATM    4  C   UNL     1      77.024  -0.211  15.861  1.00  0.00     0.233 C 
HETATM    5  C   UNL     1      74.610  -1.309  17.091  1.00  0.00     0.040 C 
HETATM    6  C   UNL     1      75.634   0.265  15.417  1.00  0.00     0.040 C 
HETATM    7  H   UNL     1      76.598  -2.196  15.615  1.00  0.00     0.277 HD
HETATM    8  H   UNL     1      77.878  -1.886  16.649  1.00  0.00     0.277 HD
ENDROOT
BRANCH   2   9
HETATM    9  C   UNL     1      74.665   1.148  17.667  1.00  0.00     0.163 C 
HETATM   10  O   UNL     1      74.348   0.814  18.802  1.00  0.00    -0.292 OA
BRANCH   9  11
HETATM   11  C   UNL     1      75.207   2.532  17.442  1.00  0.00     0.010 A 
HETATM   12  C   UNL     1      76.473   2.934  17.929  1.00  0.00     0.015 A 
HETATM   13  C   UNL     1      76.931   4.242  17.748  1.00  0.00     0.001 A 
HETATM   14  C   UNL     1      76.149   5.174  17.068  1.00  0.00     0.000 A 
HETATM   15  C   UNL     1      74.904   4.798  16.565  1.00  0.00     0.001 A 
HETATM   16  C   UNL     1      74.432   3.491  16.751  1.00  0.00     0.015 A 
ENDBRANCH   9  11
ENDBRANCH   2   9
TORSDOF 2
ENDMDL
MODEL 2
REMARK VINA RESULT:      -4.9     16.431     17.843
REMARK  2 active torsions:
REMARK  status: ('A' for Active; 'I' for Inactive)
REMARK    1  A    between atoms: C_1  and  C_4 
REMARK    2  A    between atoms: C_1  and  C_5 
ROOT
HETATM    1  N   UNL     1      67.201   5.596   5.442  1.00  0.00    -0.075 N 
HETATM    2  C   UNL     1      65.800   8.124   5.964  1.00  0.00     0.064 C 
HETATM    3  C   UNL     1      66.436   6.261   4.374  1.00  0.00     0.233 C 
HETATM    4  C   UNL     1      66.563   5.804   6.749  1.00  0.00     0.233 C 
HETATM    5  C   UNL     1      66.437   7.784   4.603  1.00  0.00     0.040 C 
HETATM    6  C   UNL     1      66.503   7.303   7.070  1.00  0.00     0.040 C 
HETATM    7  H   UNL     1      68.145   5.981   5.465  1.00  0.00     0.277 HD
HETATM    8  H   UNL     1      67.229   4.596   5.248  1.00  0.00     0.277 HD
ENDROOT
BRANCH   2   9
HETATM    9  C   UNL     1      64.278   7.978   5.896  1.00  0.00     0.163 C 
HETATM   10  O   UNL     1      63.709   7.249   6.699  1.00  0.00    -0.292 OA
BRANCH   9  11
HETATM   11  C   UNL     1      63.452   8.765   4.917  1.00  0.00     0.010 A 
HETATM   12  C   UNL     1      63.107   8.256   3.643  1.00  0.00     0.015 A 
HETATM   13  C   UNL     1      62.380   9.028   2.732  1.00  0.00     0.001 A 
HETATM   14  C   UNL     1      61.970  10.316   3.073  1.00  0.00     0.000 A 
HETATM   15  C   UNL     1      62.285  10.834   4.327  1.00  0.00     0.001 A 
HETATM   16  C   UNL     1      63.022  10.070   5.243  1.00  0.00     0.015 A 
ENDBRANCH   9  11
ENDBRANCH   2   9
TORSDOF 2
ENDMDL
MODEL 3
REMARK VINA RESULT:      -4.7     12.048     13.180
REMARK  2 active torsions:
REMARK  status: ('A' for Active; 'I' for Inactive)
REMARK    1  A    between atoms: C_1  and  C_4 
REMARK    2  A    between atoms: C_1  and  C_5 
ROOT
HETATM    1  N   UNL     1      68.853   2.283   9.455  1.00  0.00    -0.075 N 
HETATM    2  C   UNL     1      69.112   4.738   7.864  1.00  0.00     0.064 C 
HETATM    3  C   UNL     1      67.828   2.641   8.460  1.00  0.00     0.233 C 
HETATM    4  C   UNL     1      69.415   3.487  10.083  1.00  0.00     0.233 C 
HETATM    5  C   UNL     1      68.470   3.448   7.317  1.00  0.00     0.040 C 
HETATM    6  C   UNL     1      70.075   4.374   9.019  1.00  0.00     0.040 C 
HETATM    7  H   UNL     1      69.601   1.766   8.992  1.00  0.00     0.277 HD
HETATM    8  H   UNL     1      68.420   1.710  10.178  1.00  0.00     0.277 HD
ENDROOT
BRANCH   2   9
HETATM    9  C   UNL     1      68.036   5.773   8.200  1.00  0.00     0.163 C 
HETATM   10  O   UNL     1      67.888   6.129   9.362  1.00  0.00    -0.292 OA
BRANCH   9  11
HETATM   11  C   UNL     1      67.203   6.422   7.130  1.00  0.00     0.010 A 
HETATM   12  C   UNL     1      65.807   6.604   7.268  1.00  0.00     0.015 A 
HETATM   13  C   UNL     1      65.049   7.166   6.236  1.00  0.00     0.001 A 
HETATM   14  C   UNL     1      65.663   7.570   5.052  1.00  0.00     0.000 A 
HETATM   15  C   UNL     1      67.040   7.415   4.898  1.00  0.00     0.001 A 
HETATM   16  C   UNL     1      67.807   6.844   5.924  1.00  0.00     0.015 A 
ENDBRANCH   9  11
ENDBRANCH   2   9
TORSDOF 2
ENDMDL
MODEL 4
REMARK VINA RESULT:      -4.7     20.393     21.617
REMARK  2 active torsions:
REMARK  status: ('A' for Active; 'I' for Inactive)
REMARK    1  A    between atoms: C_1  and  C_4 
REMARK    2  A    between atoms: C_1  and  C_5 
ROOT
HETATM    1  N   UNL     1      59.914   5.477   1.480  1.00  0.00    -0.075 N 
HETATM    2  C   UNL     1      60.241   8.386   1.240  1.00  0.00     0.064 C 
HETATM    3  C   UNL     1      60.317   6.282   2.645  1.00  0.00     0.233 C 
HETATM    4  C   UNL     1      60.472   6.035   0.240  1.00  0.00     0.233 C 
HETATM    5  C   UNL     1      59.733   7.702   2.524  1.00  0.00     0.040 C 
HETATM    6  C   UNL     1      59.957   7.465   0.031  1.00  0.00     0.040 C 
HETATM    7  H   UNL     1      58.896   5.470   1.415  1.00  0.00     0.277 HD
HETATM    8  H   UNL     1      60.269   4.529   1.600  1.00  0.00     0.277 HD
ENDROOT
BRANCH   2   9
HETATM    9  C   UNL     1      61.696   8.830   1.408  1.00  0.00     0.163 C 
HETATM   10  O   UNL     1      62.442   8.819   0.438  1.00  0.00    -0.292 OA
BRANCH   9  11
HETATM   11  C   UNL     1      62.216   9.352   2.719  1.00  0.00     0.010 A 
HETATM   12  C   UNL     1      63.070   8.588   3.549  1.00  0.00     0.015 A 
HETATM   13  C   UNL     1      63.499   9.078   4.786  1.00  0.00     0.001 A 
HETATM   14  C   UNL     1      63.099  10.342   5.218  1.00  0.00     0.000 A 
HETATM   15  C   UNL     1      62.271  11.120   4.411  1.00  0.00     0.001 A 
HETATM   16  C   UNL     1      61.828  10.632   3.174  1.00  0.00     0.015 A 
ENDBRANCH   9  11
ENDBRANCH   2   9
TORSDOF 2
ENDMDL
MODEL 5
REMARK VINA RESULT:      -4.6     12.198     13.571
REMARK  2 active torsions:
REMARK  status: ('A' for Active; 'I' for Inactive)
REMARK    1  A    between atoms: C_1  and  C_4 
REMARK    2  A    between atoms: C_1  and  C_5 
ROOT
HETATM    1  N   UNL     1      65.185   7.363   6.525  1.00  0.00    -0.075 N 
HETATM    2  C   UNL     1      67.914   6.331   6.867  1.00  0.00     0.064 C 
HETATM    3  C   UNL     1      65.547   6.588   7.724  1.00  0.00     0.233 C 
HETATM    4  C   UNL     1      65.920   6.879   5.349  1.00  0.00     0.233 C 
HETATM    5  C   UNL     1      67.038   6.794   8.048  1.00  0.00     0.040 C 
HETATM    6  C   UNL     1      67.430   7.030   5.575  1.00  0.00     0.040 C 
HETATM    7  H   UNL     1      65.413   8.345   6.681  1.00  0.00     0.277 HD
HETATM    8  H   UNL     1      64.187   7.253   6.354  1.00  0.00     0.277 HD
ENDROOT
BRANCH   2   9
HETATM    9  C   UNL     1      67.976   4.803   6.811  1.00  0.00     0.163 C 
HETATM   10  O   UNL     1      67.767   4.233   5.749  1.00  0.00    -0.292 OA
BRANCH   9  11
HETATM   11  C   UNL     1      68.361   3.985   8.012  1.00  0.00     0.010 A 
HETATM   12  C   UNL     1      69.362   4.404   8.920  1.00  0.00     0.015 A 
HETATM   13  C   UNL     1      69.735   3.600  10.001  1.00  0.00     0.001 A 
HETATM   14  C   UNL     1      69.114   2.370  10.210  1.00  0.00     0.000 A 
HETATM   15  C   UNL     1      68.115   1.941   9.338  1.00  0.00     0.001 A 
HETATM   16  C   UNL     1      67.741   2.737   8.246  1.00  0.00     0.015 A 
ENDBRANCH   9  11
ENDBRANCH   2   9
TORSDOF 2
ENDMDL
MODEL 6
REMARK VINA RESULT:      -4.6     13.403     14.771
REMARK  2 active torsions:
REMARK  status: ('A' for Active; 'I' for Inactive)
REMARK    1  A    between atoms: C_1  and  C_4 
REMARK    2  A    between atoms: C_1  and  C_5 
ROOT
HETATM    1  N   UNL     1      63.995   6.408   4.924  1.00  0.00    -0.075 N 
HETATM    2  C   UNL     1      66.133   7.271   6.742  1.00  0.00     0.064 C 
HETATM    3  C   UNL     1      64.610   5.453   5.860  1.00  0.00     0.233 C 
HETATM    4  C   UNL     1      64.982   7.388   4.453  1.00  0.00     0.233 C 
HETATM    5  C   UNL     1      65.095   6.196   7.119  1.00  0.00     0.040 C 
HETATM    6  C   UNL     1      65.541   8.182   5.641  1.00  0.00     0.040 C 
HETATM    7  H   UNL     1      63.235   6.898   5.397  1.00  0.00     0.277 HD
HETATM    8  H   UNL     1      63.638   5.892   4.120  1.00  0.00     0.277 HD
ENDROOT
BRANCH   2   9
HETATM    9  C   UNL     1      67.481   6.624   6.414  1.00  0.00     0.163 C 
HETATM   10  O   UNL     1      68.158   7.080   5.502  1.00  0.00    -0.292 OA
BRANCH   9  11
HETATM   11  C   UNL     1      68.031   5.489   7.231  1.00  0.00     0.010 A 
HETATM   12  C   UNL     1      68.172   4.182   6.707  1.00  0.00     0.015 A 
HETATM   13  C   UNL     1      68.640   3.133   7.504  1.00  0.00     0.001 A 
HETATM   14  C   UNL     1      68.991   3.363   8.833  1.00  0.00     0.000 A 
HETATM   15  C   UNL     1      68.876   4.645   9.368  1.00  0.00     0.001 A 
HETATM   16  C   UNL     1      68.398   5.701   8.579  1.00  0.00     0.015 A 
ENDBRANCH   9  11
ENDBRANCH   2   9
TORSDOF 2
ENDMDL
MODEL 7
REMARK VINA RESULT:      -4.6     15.468     16.805
REMARK  2 active torsions:
REMARK  status: ('A' for Active; 'I' for Inactive)
REMARK    1  A    between atoms: C_1  and  C_4 
REMARK    2  A    between atoms: C_1  and  C_5 
ROOT
HETATM    1  N   UNL     1      66.208   4.318   6.802  1.00  0.00    -0.075 N 
HETATM    2  C   UNL     1      66.555   7.234   6.816  1.00  0.00     0.064 C 
HETATM    3  C   UNL     1      67.376   4.934   6.151  1.00  0.00     0.233 C 
HETATM    4  C   UNL     1      65.025   5.181   6.678  1.00  0.00     0.233 C 
HETATM    5  C   UNL     1      67.739   6.248   6.868  1.00  0.00     0.040 C 
HETATM    6  C   UNL     1      65.288   6.531   7.356  1.00  0.00     0.040 C 
HETATM    7  H   UNL     1      66.414   4.172   7.790  1.00  0.00     0.277 HD
HETATM    8  H   UNL     1      66.011   3.428   6.345  1.00  0.00     0.277 HD
ENDROOT
BRANCH   2   9
HETATM    9  C   UNL     1      66.429   7.848   5.420  1.00  0.00     0.163 C 
HETATM   10  O   UNL     1      67.441   8.186   4.820  1.00  0.00    -0.292 OA
BRANCH   9  11
HETATM   11  C   UNL     1      65.099   7.979   4.732  1.00  0.00     0.010 A 
HETATM   12  C   UNL     1      64.686   7.089   3.713  1.00  0.00     0.015 A 
HETATM   13  C   UNL     1      63.464   7.263   3.056  1.00  0.00     0.001 A 
HETATM   14  C   UNL     1      62.622   8.317   3.406  1.00  0.00     0.000 A 
HETATM   15  C   UNL     1      62.999   9.198   4.418  1.00  0.00     0.001 A 
HETATM   16  C   UNL     1      64.226   9.037   5.076  1.00  0.00     0.015 A 
ENDBRANCH   9  11
ENDBRANCH   2   9
TORSDOF 2
ENDMDL
MODEL 8
REMARK VINA RESULT:      -4.6     12.845     14.210
REMARK  2 active torsions:
REMARK  status: ('A' for Active; 'I' for Inactive)
REMARK    1  A    between atoms: C_1  and  C_4 
REMARK    2  A    between atoms: C_1  and  C_5 
ROOT
HETATM    1  N   UNL     1      65.192   6.335   4.398  1.00  0.00    -0.075 N 
HETATM    2  C   UNL     1      67.237   7.157   6.340  1.00  0.00     0.064 C 
HETATM    3  C   UNL     1      64.838   7.203   5.534  1.00  0.00     0.233 C 
HETATM    4  C   UNL     1      66.244   5.382   4.777  1.00  0.00     0.233 C 
HETATM    5  C   UNL     1      66.054   8.058   5.935  1.00  0.00     0.040 C 
HETATM    6  C   UNL     1      67.507   6.139   5.207  1.00  0.00     0.040 C 
HETATM    7  H   UNL     1      65.526   6.914   3.627  1.00  0.00     0.277 HD
HETATM    8  H   UNL     1      64.364   5.812   4.117  1.00  0.00     0.277 HD
ENDROOT
BRANCH   2   9
HETATM    9  C   UNL     1      67.003   6.557   7.729  1.00  0.00     0.163 C 
HETATM   10  O   UNL     1      66.086   6.982   8.419  1.00  0.00    -0.292 OA
BRANCH   9  11
HETATM   11  C   UNL     1      67.826   5.408   8.241  1.00  0.00     0.010 A 
HETATM   12  C   UNL     1      69.198   5.545   8.556  1.00  0.00     0.015 A 
HETATM   13  C   UNL     1      69.951   4.447   8.984  1.00  0.00     0.001 A 
HETATM   14  C   UNL     1      69.355   3.195   9.119  1.00  0.00     0.000 A 
HETATM   15  C   UNL     1      68.001   3.038   8.828  1.00  0.00     0.001 A 
HETATM   16  C   UNL     1      67.240   4.130   8.390  1.00  0.00     0.015 A 
ENDBRANCH   9  11
ENDBRANCH   2   9
TORSDOF 2
ENDMDL
MODEL 9
REMARK VINA RESULT:      -4.4     18.417     19.665
REMARK  2 active torsions:
REMARK  status: ('A' for Active; 'I' for Inactive)
REMARK    1  A    between atoms: C_1  and  C_4 
REMARK    2  A    between atoms: C_1  and  C_5 
ROOT
HETATM    1  N   UNL     1      62.037   4.387   4.414  1.00  0.00    -0.075 N 
HETATM    2  C   UNL     1      62.462   7.074   5.521  1.00  0.00     0.064 C 
HETATM    3  C   UNL     1      63.367   4.794   4.897  1.00  0.00     0.233 C 
HETATM    4  C   UNL     1      61.324   5.527   3.821  1.00  0.00     0.233 C 
HETATM    5  C   UNL     1      63.217   5.829   6.027  1.00  0.00     0.040 C 
HETATM    6  C   UNL     1      61.131   6.628   4.871  1.00  0.00     0.040 C 
HETATM    7  H   UNL     1      61.494   4.024   5.198  1.00  0.00     0.277 HD
HETATM    8  H   UNL     1      62.155   3.669   3.701  1.00  0.00     0.277 HD
ENDROOT
BRANCH   2   9
HETATM    9  C   UNL     1      63.374   7.934   4.643  1.00  0.00     0.163 C 
HETATM   10  O   UNL     1      64.576   7.704   4.621  1.00  0.00    -0.292 OA
BRANCH   9  11
HETATM   11  C   UNL     1      62.823   9.008   3.748  1.00  0.00     0.010 A 
HETATM   12  C   UNL     1      62.459  10.285   4.238  1.00  0.00     0.015 A 
HETATM   13  C   UNL     1      61.903  11.249   3.392  1.00  0.00     0.001 A 
HETATM   14  C   UNL     1      61.709  10.970   2.040  1.00  0.00     0.000 A 
HETATM   15  C   UNL     1      62.072   9.725   1.531  1.00  0.00     0.001 A 
HETATM   16  C   UNL     1      62.622   8.749   2.373  1.00  0.00     0.015 A 
ENDBRANCH   9  11
ENDBRANCH   2   9
TORSDOF 2
ENDMDL
