MODEL 1
REMARK VINA RESULT:      -5.8      0.000      0.000
REMARK  3 active torsions:
REMARK  status: ('A' for Active; 'I' for Inactive)
REMARK    1  A    between atoms: N_1  and  C_7 
REMARK    2  A    between atoms: C_6  and  C_7 
REMARK    3  A    between atoms: C_6  and  C_8 
ROOT
HETATM    1  N   UNL     1      63.128   7.613   3.476  1.00  0.00    -0.355 N 
HETATM    2  C   UNL     1      62.976   7.039   2.239  1.00  0.00     0.099 A 
HETATM    3  C   UNL     1      62.499   7.996   1.367  1.00  0.00    -0.034 A 
HETATM    4  C   UNL     1      62.678   8.917   3.452  1.00  0.00     0.045 A 
HETATM    5  C   UNL     1      62.335   9.199   2.124  1.00  0.00    -0.002 A 
HETATM    6  C   UNL     1      62.201   7.789  -0.075  1.00  0.00     0.050 C 
HETATM    7  C   UNL     1      62.547   9.877   4.469  1.00  0.00     0.030 A 
HETATM    8  C   UNL     1      61.905  10.504   1.799  1.00  0.00     0.014 A 
HETATM    9  C   UNL     1      62.103  11.156   4.120  1.00  0.00     0.002 A 
HETATM   10  C   UNL     1      61.800  11.473   2.802  1.00  0.00     0.001 A 
ENDROOT
BRANCH   1  11
HETATM   11  C   UNL     1      63.702   6.922   4.621  1.00  0.00     0.139 C 
BRANCH  11  12
HETATM   12  C   UNL     1      65.194   7.198   4.771  1.00  0.00     0.133 C 
BRANCH  12  13
HETATM   13  C   UNL     1      65.467   7.884   6.074  1.00  0.00     0.174 C 
HETATM   14  O   UNL     1      66.033   8.953   6.237  1.00  0.00    -0.648 OA
HETATM   15  O   UNL     1      64.997   7.186   7.124  1.00  0.00    -0.648 OA
ENDBRANCH  12  13
ENDBRANCH  11  12
ENDBRANCH   1  11
TORSDOF 3
ENDMDL
MODEL 2
REMARK VINA RESULT:      -5.4      0.901      2.790
REMARK  3 active torsions:
REMARK  status: ('A' for Active; 'I' for Inactive)
REMARK    1  A    between atoms: N_1  and  C_7 
REMARK    2  A    between atoms: C_6  and  C_7 
REMARK    3  A    between atoms: C_6  and  C_8 
ROOT
HETATM    1  N   UNL     1      63.305   8.310   4.543  1.00  0.00    -0.355 N 
HETATM    2  C   UNL     1      63.052   9.552   5.070  1.00  0.00     0.099 A 
HETATM    3  C   UNL     1      62.416  10.314   4.110  1.00  0.00    -0.034 A 
HETATM    4  C   UNL     1      62.918   8.269   3.218  1.00  0.00     0.045 A 
HETATM    5  C   UNL     1      62.302   9.496   2.942  1.00  0.00    -0.002 A 
HETATM    6  C   UNL     1      61.963  11.720   4.276  1.00  0.00     0.050 C 
HETATM    7  C   UNL     1      63.046   7.269   2.241  1.00  0.00     0.030 A 
HETATM    8  C   UNL     1      61.743   9.698   1.662  1.00  0.00     0.014 A 
HETATM    9  C   UNL     1      62.498   7.504   0.977  1.00  0.00     0.002 A 
HETATM   10  C   UNL     1      61.841   8.695   0.692  1.00  0.00     0.001 A 
ENDROOT
BRANCH   1  11
HETATM   11  C   UNL     1      63.881   7.213   5.305  1.00  0.00     0.139 C 
BRANCH  11  12
HETATM   12  C   UNL     1      65.393   7.126   5.137  1.00  0.00     0.133 C 
BRANCH  12  13
HETATM   13  C   UNL     1      66.084   7.767   6.301  1.00  0.00     0.174 C 
HETATM   14  O   UNL     1      66.233   8.961   6.501  1.00  0.00    -0.648 OA
HETATM   15  O   UNL     1      66.551   6.858   7.177  1.00  0.00    -0.648 OA
ENDBRANCH  12  13
ENDBRANCH  11  12
ENDBRANCH   1  11
TORSDOF 3
ENDMDL
MODEL 3
REMARK VINA RESULT:      -5.2      2.606      4.856
REMARK  3 active torsions:
REMARK  status: ('A' for Active; 'I' for Inactive)
REMARK    1  A    between atoms: N_1  and  C_7 
REMARK    2  A    between atoms: C_6  and  C_7 
REMARK    3  A    between atoms: C_6  and  C_8 
ROOT
HETATM    1  N   UNL     1      63.780   8.259   4.171  1.00  0.00    -0.355 N 
HETATM    2  C   UNL     1      63.401   7.449   3.130  1.00  0.00     0.099 A 
HETATM    3  C   UNL     1      64.352   6.461   2.975  1.00  0.00    -0.034 A 
HETATM    4  C   UNL     1      65.013   7.867   4.653  1.00  0.00     0.045 A 
HETATM    5  C   UNL     1      65.364   6.703   3.958  1.00  0.00    -0.002 A 
HETATM    6  C   UNL     1      64.320   5.374   1.962  1.00  0.00     0.050 C 
HETATM    7  C   UNL     1      65.848   8.421   5.637  1.00  0.00     0.030 A 
HETATM    8  C   UNL     1      66.561   6.042   4.307  1.00  0.00     0.014 A 
HETATM    9  C   UNL     1      67.036   7.754   5.950  1.00  0.00     0.002 A 
HETATM   10  C   UNL     1      67.384   6.572   5.307  1.00  0.00     0.001 A 
ENDROOT
BRANCH   1  11
HETATM   11  C   UNL     1      62.966   9.353   4.679  1.00  0.00     0.139 C 
BRANCH  11  12
HETATM   12  C   UNL     1      61.957   9.847   3.649  1.00  0.00     0.133 C 
BRANCH  12  13
HETATM   13  C   UNL     1      61.950  11.343   3.602  1.00  0.00     0.174 C 
HETATM   14  O   UNL     1      61.924  12.109   4.552  1.00  0.00    -0.648 OA
HETATM   15  O   UNL     1      61.989  11.812   2.341  1.00  0.00    -0.648 OA
ENDBRANCH  12  13
ENDBRANCH  11  12
ENDBRANCH   1  11
TORSDOF 3
ENDMDL
MODEL 4
REMARK VINA RESULT:      -5.1      4.778      8.149
REMARK  3 active torsions:
REMARK  status: ('A' for Active; 'I' for Inactive)
REMARK    1  A    between atoms: N_1  and  C_7 
REMARK    2  A    between atoms: C_6  and  C_7 
REMARK    3  A    between atoms: C_6  and  C_8 
ROOT
HETATM    1  N   UNL     1      67.589   5.454   7.032  1.00  0.00    -0.355 N 
HETATM    2  C   UNL     1      67.416   4.776   5.852  1.00  0.00     0.099 A 
HETATM    3  C   UNL     1      67.920   3.500   6.003  1.00  0.00    -0.034 A 
HETATM    4  C   UNL     1      68.276   4.669   7.935  1.00  0.00     0.045 A 
HETATM    5  C   UNL     1      68.442   3.416   7.333  1.00  0.00    -0.002 A 
HETATM    6  C   UNL     1      67.927   2.439   4.962  1.00  0.00     0.050 C 
HETATM    7  C   UNL     1      68.761   4.939   9.226  1.00  0.00     0.030 A 
HETATM    8  C   UNL     1      69.059   2.385   8.074  1.00  0.00     0.014 A 
HETATM    9  C   UNL     1      69.384   3.903   9.929  1.00  0.00     0.002 A 
HETATM   10  C   UNL     1      69.519   2.638   9.371  1.00  0.00     0.001 A 
ENDROOT
BRANCH   1  11
HETATM   11  C   UNL     1      67.089   6.800   7.269  1.00  0.00     0.139 C 
BRANCH  11  12
HETATM   12  C   UNL     1      65.762   7.054   6.564  1.00  0.00     0.133 C 
BRANCH  12  13
HETATM   13  C   UNL     1      65.842   8.299   5.736  1.00  0.00     0.174 C 
HETATM   14  O   UNL     1      65.045   9.223   5.718  1.00  0.00    -0.648 OA
HETATM   15  O   UNL     1      66.945   8.327   4.965  1.00  0.00    -0.648 OA
ENDBRANCH  12  13
ENDBRANCH  11  12
ENDBRANCH   1  11
TORSDOF 3
ENDMDL
MODEL 5
REMARK VINA RESULT:      -4.9     19.392     21.399
REMARK  3 active torsions:
REMARK  status: ('A' for Active; 'I' for Inactive)
REMARK    1  A    between atoms: N_1  and  C_7 
REMARK    2  A    between atoms: C_6  and  C_7 
REMARK    3  A    between atoms: C_6  and  C_8 
ROOT
HETATM    1  N   UNL     1      77.177   1.367  18.474  1.00  0.00    -0.355 N 
HETATM    2  C   UNL     1      76.299   0.323  18.324  1.00  0.00     0.099 A 
HETATM    3  C   UNL     1      75.188   0.779  17.646  1.00  0.00    -0.034 A 
HETATM    4  C   UNL     1      76.623   2.528  17.976  1.00  0.00     0.045 A 
HETATM    5  C   UNL     1      75.399   2.172  17.395  1.00  0.00    -0.002 A 
HETATM    6  C   UNL     1      74.000  -0.034  17.274  1.00  0.00     0.050 C 
HETATM    7  C   UNL     1      77.085   3.855  17.973  1.00  0.00     0.030 A 
HETATM    8  C   UNL     1      74.646   3.170  16.740  1.00  0.00     0.014 A 
HETATM    9  C   UNL     1      76.309   4.825  17.332  1.00  0.00     0.002 A 
HETATM   10  C   UNL     1      75.113   4.488  16.709  1.00  0.00     0.001 A 
ENDROOT
BRANCH   1  11
HETATM   11  C   UNL     1      78.502   1.228  19.061  1.00  0.00     0.139 C 
BRANCH  11  12
HETATM   12  C   UNL     1      78.475   1.354  20.580  1.00  0.00     0.133 C 
BRANCH  12  13
HETATM   13  C   UNL     1      78.706   0.019  21.217  1.00  0.00     0.174 C 
HETATM   14  O   UNL     1      77.957  -0.945  21.197  1.00  0.00    -0.648 OA
HETATM   15  O   UNL     1      79.892  -0.043  21.849  1.00  0.00    -0.648 OA
ENDBRANCH  12  13
ENDBRANCH  11  12
ENDBRANCH   1  11
TORSDOF 3
ENDMDL
MODEL 6
REMARK VINA RESULT:      -4.8      2.252      2.642
REMARK  3 active torsions:
REMARK  status: ('A' for Active; 'I' for Inactive)
REMARK    1  A    between atoms: N_1  and  C_7 
REMARK    2  A    between atoms: C_6  and  C_7 
REMARK    3  A    between atoms: C_6  and  C_8 
ROOT
HETATM    1  N   UNL     1      62.773   7.726   4.116  1.00  0.00    -0.355 N 
HETATM    2  C   UNL     1      62.884   6.784   3.124  1.00  0.00     0.099 A 
HETATM    3  C   UNL     1      62.687   7.404   1.907  1.00  0.00    -0.034 A 
HETATM    4  C   UNL     1      62.423   8.946   3.574  1.00  0.00     0.045 A 
HETATM    5  C   UNL     1      62.423   8.783   2.183  1.00  0.00    -0.002 A 
HETATM    6  C   UNL     1      62.728   6.741   0.577  1.00  0.00     0.050 C 
HETATM    7  C   UNL     1      62.114  10.178   4.174  1.00  0.00     0.030 A 
HETATM    8  C   UNL     1      62.164   9.907   1.371  1.00  0.00     0.014 A 
HETATM    9  C   UNL     1      61.845  11.270   3.344  1.00  0.00     0.002 A 
HETATM   10  C   UNL     1      61.884  11.144   1.961  1.00  0.00     0.001 A 
ENDROOT
BRANCH   1  11
HETATM   11  C   UNL     1      63.016   7.447   5.523  1.00  0.00     0.139 C 
BRANCH  11  12
HETATM   12  C   UNL     1      62.441   6.102   5.951  1.00  0.00     0.133 C 
BRANCH  12  13
HETATM   13  C   UNL     1      60.966   6.215   6.183  1.00  0.00     0.174 C 
HETATM   14  O   UNL     1      60.088   6.230   5.335  1.00  0.00    -0.648 OA
HETATM   15  O   UNL     1      60.662   6.293   7.491  1.00  0.00    -0.648 OA
ENDBRANCH  12  13
ENDBRANCH  11  12
ENDBRANCH   1  11
TORSDOF 3
ENDMDL
MODEL 7
REMARK VINA RESULT:      -4.8     18.453     20.078
REMARK  3 active torsions:
REMARK  status: ('A' for Active; 'I' for Inactive)
REMARK    1  A    between atoms: N_1  and  C_7 
REMARK    2  A    between atoms: C_6  and  C_7 
REMARK    3  A    between atoms: C_6  and  C_8 
ROOT
HETATM    1  N   UNL     1      75.355   1.164  17.476  1.00  0.00    -0.355 N 
HETATM    2  C   UNL     1      76.395   0.609  18.178  1.00  0.00     0.099 A 
HETATM    3  C   UNL     1      77.252   1.619  18.565  1.00  0.00    -0.034 A 
HETATM    4  C   UNL     1      75.557   2.521  17.323  1.00  0.00     0.045 A 
HETATM    5  C   UNL     1      76.711   2.840  18.049  1.00  0.00    -0.002 A 
HETATM    6  C   UNL     1      78.503   1.446  19.349  1.00  0.00     0.050 C 
HETATM    7  C   UNL     1      74.832   3.498  16.621  1.00  0.00     0.030 A 
HETATM    8  C   UNL     1      77.113   4.190  18.122  1.00  0.00     0.014 A 
HETATM    9  C   UNL     1      75.264   4.825  16.697  1.00  0.00     0.002 A 
HETATM   10  C   UNL     1      76.379   5.173  17.449  1.00  0.00     0.001 A 
ENDROOT
BRANCH   1  11
HETATM   11  C   UNL     1      74.210   0.405  16.996  1.00  0.00     0.139 C 
BRANCH  11  12
HETATM   12  C   UNL     1      74.324   0.067  15.514  1.00  0.00     0.133 C 
BRANCH  12  13
HETATM   13  C   UNL     1      74.646  -1.384  15.334  1.00  0.00     0.174 C 
HETATM   14  O   UNL     1      75.248  -2.106  16.113  1.00  0.00    -0.648 OA
HETATM   15  O   UNL     1      74.178  -1.867  14.168  1.00  0.00    -0.648 OA
ENDBRANCH  12  13
ENDBRANCH  11  12
ENDBRANCH   1  11
TORSDOF 3
ENDMDL
MODEL 8
REMARK VINA RESULT:      -4.7      4.891      8.389
REMARK  3 active torsions:
REMARK  status: ('A' for Active; 'I' for Inactive)
REMARK    1  A    between atoms: N_1  and  C_7 
REMARK    2  A    between atoms: C_6  and  C_7 
REMARK    3  A    between atoms: C_6  and  C_8 
ROOT
HETATM    1  N   UNL     1      68.020   5.538   7.009  1.00  0.00    -0.355 N 
HETATM    2  C   UNL     1      68.546   5.525   8.277  1.00  0.00     0.099 A 
HETATM    3  C   UNL     1      68.971   4.243   8.561  1.00  0.00    -0.034 A 
HETATM    4  C   UNL     1      68.017   4.262   6.484  1.00  0.00     0.045 A 
HETATM    5  C   UNL     1      68.665   3.442   7.416  1.00  0.00    -0.002 A 
HETATM    6  C   UNL     1      69.606   3.798   9.830  1.00  0.00     0.050 C 
HETATM    7  C   UNL     1      67.514   3.753   5.275  1.00  0.00     0.030 A 
HETATM    8  C   UNL     1      68.866   2.082   7.095  1.00  0.00     0.014 A 
HETATM    9  C   UNL     1      67.712   2.398   4.993  1.00  0.00     0.002 A 
HETATM   10  C   UNL     1      68.393   1.574   5.881  1.00  0.00     0.001 A 
ENDROOT
BRANCH   1  11
HETATM   11  C   UNL     1      67.560   6.745   6.340  1.00  0.00     0.139 C 
BRANCH  11  12
HETATM   12  C   UNL     1      66.424   7.425   7.096  1.00  0.00     0.133 C 
BRANCH  12  13
HETATM   13  C   UNL     1      65.101   7.025   6.518  1.00  0.00     0.174 C 
HETATM   14  O   UNL     1      64.006   7.137   7.044  1.00  0.00    -0.648 OA
HETATM   15  O   UNL     1      65.223   6.506   5.283  1.00  0.00    -0.648 OA
ENDBRANCH  12  13
ENDBRANCH  11  12
ENDBRANCH   1  11
TORSDOF 3
ENDMDL
MODEL 9
REMARK VINA RESULT:      -4.6      3.231      6.460
REMARK  3 active torsions:
REMARK  status: ('A' for Active; 'I' for Inactive)
REMARK    1  A    between atoms: N_1  and  C_7 
REMARK    2  A    between atoms: C_6  and  C_7 
REMARK    3  A    between atoms: C_6  and  C_8 
ROOT
HETATM    1  N   UNL     1      66.206   6.974   5.713  1.00  0.00    -0.355 N 
HETATM    2  C   UNL     1      66.375   6.205   4.590  1.00  0.00     0.099 A 
HETATM    3  C   UNL     1      67.111   5.088   4.929  1.00  0.00    -0.034 A 
HETATM    4  C   UNL     1      66.893   6.420   6.774  1.00  0.00     0.045 A 
HETATM    5  C   UNL     1      67.419   5.204   6.322  1.00  0.00    -0.002 A 
HETATM    6  C   UNL     1      67.513   3.996   4.004  1.00  0.00     0.050 C 
HETATM    7  C   UNL     1      67.095   6.869   8.090  1.00  0.00     0.030 A 
HETATM    8  C   UNL     1      68.117   4.387   7.237  1.00  0.00     0.014 A 
HETATM    9  C   UNL     1      67.806   6.047   8.969  1.00  0.00     0.002 A 
HETATM   10  C   UNL     1      68.298   4.814   8.556  1.00  0.00     0.001 A 
ENDROOT
BRANCH   1  11
HETATM   11  C   UNL     1      65.397   8.183   5.749  1.00  0.00     0.139 C 
BRANCH  11  12
HETATM   12  C   UNL     1      64.357   8.213   4.635  1.00  0.00     0.133 C 
BRANCH  12  13
HETATM   13  C   UNL     1      63.402   9.348   4.844  1.00  0.00     0.174 C 
HETATM   14  O   UNL     1      63.261  10.013   5.858  1.00  0.00    -0.648 OA
HETATM   15  O   UNL     1      62.667   9.602   3.746  1.00  0.00    -0.648 OA
ENDBRANCH  12  13
ENDBRANCH  11  12
ENDBRANCH   1  11
TORSDOF 3
ENDMDL
