MODEL 1
REMARK VINA RESULT:      -4.6      0.000      0.000
REMARK  3 active torsions:
REMARK  status: ('A' for Active; 'I' for Inactive)
REMARK    1  A    between atoms: C_1  and  N_2 
REMARK    2  A    between atoms: C_1  and  N_6 
REMARK    3  A    between atoms: N_2  and  C_7 
ROOT
HETATM    1  N   UNL     1      76.095  12.715  18.857  1.00  0.00    -0.375 N 
ATOM      2  HN  UNL     1      75.281  12.957  18.293  1.00  0.00     0.164 HD
HETATM    3  C   UNL     1      78.309  12.035  20.447  1.00  0.00     0.036 A 
HETATM    4  C   UNL     1      77.686  13.269  20.588  1.00  0.00     0.046 A 
HETATM    5  C   UNL     1      77.839  11.163  19.462  1.00  0.00     0.046 A 
HETATM    6  C   UNL     1      76.733  11.538  18.712  1.00  0.00     0.090 A 
HETATM    7  C   UNL     1      76.590  13.557  19.788  1.00  0.00     0.090 A 
ENDROOT
BRANCH   3   8
HETATM    8  N   UNL     1      79.414  11.600  21.214  1.00  0.00    -0.333 N 
HETATM    9  H   UNL     1      79.893  10.824  20.840  1.00  0.00     0.168 HD
BRANCH   8  10
HETATM   10  C   UNL     1      79.934  12.078  22.394  1.00  0.00     0.169 C 
HETATM   11  S   UNL     1      81.282  13.003  22.694  1.00  0.00    -0.041 SA
BRANCH  10  12
HETATM   12  N   UNL     1      79.129  11.774  23.458  1.00  0.00    -0.376 N 
HETATM   13  H   UNL     1      78.972  12.442  24.163  1.00  0.00     0.158 HD
HETATM   14  H   UNL     1      78.708  10.886  23.519  1.00  0.00     0.158 HD
ENDBRANCH  10  12
ENDBRANCH   8  10
ENDBRANCH   3   8
TORSDOF 3
ENDMDL
MODEL 2
REMARK VINA RESULT:      -4.4      4.037      4.898
REMARK  3 active torsions:
REMARK  status: ('A' for Active; 'I' for Inactive)
REMARK    1  A    between atoms: C_1  and  N_2 
REMARK    2  A    between atoms: C_1  and  N_6 
REMARK    3  A    between atoms: N_2  and  C_7 
ROOT
HETATM    1  N   UNL     1      77.240   7.647  15.331  1.00  0.00    -0.375 N 
ATOM      2  HN  UNL     1      77.120   7.167  14.439  1.00  0.00     0.164 HD
HETATM    3  C   UNL     1      77.529   8.991  17.781  1.00  0.00     0.036 A 
HETATM    4  C   UNL     1      77.869   9.613  16.585  1.00  0.00     0.046 A 
HETATM    5  C   UNL     1      77.089   7.666  17.737  1.00  0.00     0.046 A 
HETATM    6  C   UNL     1      76.948   7.050  16.502  1.00  0.00     0.090 A 
HETATM    7  C   UNL     1      77.700   8.914  15.399  1.00  0.00     0.090 A 
ENDROOT
BRANCH   3   8
HETATM    8  N   UNL     1      77.624   9.594  19.056  1.00  0.00    -0.333 N 
HETATM    9  H   UNL     1      77.571   8.964  19.812  1.00  0.00     0.168 HD
BRANCH   8  10
HETATM   10  C   UNL     1      77.777  10.911  19.419  1.00  0.00     0.169 C 
HETATM   11  S   UNL     1      76.799  12.230  19.164  1.00  0.00    -0.041 SA
BRANCH  10  12
HETATM   12  N   UNL     1      78.902  11.098  20.174  1.00  0.00    -0.376 N 
HETATM   13  H   UNL     1      78.846  11.579  21.031  1.00  0.00     0.158 HD
HETATM   14  H   UNL     1      79.769  10.752  19.861  1.00  0.00     0.158 HD
ENDBRANCH  10  12
ENDBRANCH   8  10
ENDBRANCH   3   8
TORSDOF 3
ENDMDL
MODEL 3
REMARK VINA RESULT:      -4.2      7.369      8.236
REMARK  3 active torsions:
REMARK  status: ('A' for Active; 'I' for Inactive)
REMARK    1  A    between atoms: C_1  and  N_2 
REMARK    2  A    between atoms: C_1  and  N_6 
REMARK    3  A    between atoms: N_2  and  C_7 
ROOT
HETATM    1  N   UNL     1      77.352   8.361  15.572  1.00  0.00    -0.375 N 
ATOM      2  HN  UNL     1      77.602   9.143  14.968  1.00  0.00     0.164 HD
HETATM    3  C   UNL     1      76.619   6.223  17.241  1.00  0.00     0.036 A 
HETATM    4  C   UNL     1      76.997   7.448  17.780  1.00  0.00     0.046 A 
HETATM    5  C   UNL     1      76.661   6.068  15.854  1.00  0.00     0.046 A 
HETATM    6  C   UNL     1      77.015   7.157  15.071  1.00  0.00     0.090 A 
HETATM    7  C   UNL     1      77.341   8.477  16.916  1.00  0.00     0.090 A 
ENDROOT
BRANCH   3   8
HETATM    8  N   UNL     1      76.217   5.100  18.001  1.00  0.00    -0.333 N 
HETATM    9  H   UNL     1      75.888   5.313  18.904  1.00  0.00     0.168 HD
BRANCH   8  10
HETATM   10  C   UNL     1      76.209   3.761  17.689  1.00  0.00     0.169 C 
HETATM   11  S   UNL     1      75.057   2.825  16.940  1.00  0.00    -0.041 SA
BRANCH  10  12
HETATM   12  N   UNL     1      77.399   3.163  18.004  1.00  0.00    -0.376 N 
HETATM   13  H   UNL     1      78.016   3.599  18.636  1.00  0.00     0.158 HD
HETATM   14  H   UNL     1      77.639   2.300  17.598  1.00  0.00     0.158 HD
ENDBRANCH  10  12
ENDBRANCH   8  10
ENDBRANCH   3   8
TORSDOF 3
ENDMDL
MODEL 4
REMARK VINA RESULT:      -4.0     10.825     11.696
REMARK  3 active torsions:
REMARK  status: ('A' for Active; 'I' for Inactive)
REMARK    1  A    between atoms: C_1  and  N_2 
REMARK    2  A    between atoms: C_1  and  N_6 
REMARK    3  A    between atoms: N_2  and  C_7 
ROOT
HETATM    1  N   UNL     1      75.588  -0.882  15.929  1.00  0.00    -0.375 N 
ATOM      2  HN  UNL     1      75.530  -1.706  15.330  1.00  0.00     0.164 HD
HETATM    3  C   UNL     1      75.760   1.412  17.540  1.00  0.00     0.036 A 
HETATM    4  C   UNL     1      76.904   0.710  17.181  1.00  0.00     0.046 A 
HETATM    5  C   UNL     1      74.521   0.921  17.122  1.00  0.00     0.046 A 
HETATM    6  C   UNL     1      74.489  -0.207  16.315  1.00  0.00     0.090 A 
HETATM    7  C   UNL     1      76.771  -0.412  16.377  1.00  0.00     0.090 A 
ENDROOT
BRANCH   3   8
HETATM    8  N   UNL     1      75.751   2.585  18.330  1.00  0.00    -0.333 N 
HETATM    9  H   UNL     1      74.962   2.683  18.910  1.00  0.00     0.168 HD
BRANCH   8  10
HETATM   10  C   UNL     1      76.661   3.613  18.424  1.00  0.00     0.169 C 
HETATM   11  S   UNL     1      76.793   5.030  17.566  1.00  0.00    -0.041 SA
BRANCH  10  12
HETATM   12  N   UNL     1      77.534   3.419  19.459  1.00  0.00    -0.376 N 
HETATM   13  H   UNL     1      77.999   2.556  19.555  1.00  0.00     0.158 HD
HETATM   14  H   UNL     1      77.696   4.140  20.108  1.00  0.00     0.158 HD
ENDBRANCH  10  12
ENDBRANCH   8  10
ENDBRANCH   3   8
TORSDOF 3
ENDMDL
MODEL 5
REMARK VINA RESULT:      -3.9     17.502     18.475
REMARK  3 active torsions:
REMARK  status: ('A' for Active; 'I' for Inactive)
REMARK    1  A    between atoms: C_1  and  N_2 
REMARK    2  A    between atoms: C_1  and  N_6 
REMARK    3  A    between atoms: N_2  and  C_7 
ROOT
HETATM    1  N   UNL     1      69.086   2.862   8.922  1.00  0.00    -0.375 N 
ATOM      2  HN  UNL     1      69.330   1.979   9.369  1.00  0.00     0.164 HD
HETATM    3  C   UNL     1      68.368   5.286   7.697  1.00  0.00     0.036 A 
HETATM    4  C   UNL     1      68.321   4.091   6.988  1.00  0.00     0.046 A 
HETATM    5  C   UNL     1      68.829   5.257   9.015  1.00  0.00     0.046 A 
HETATM    6  C   UNL     1      69.157   4.034   9.581  1.00  0.00     0.090 A 
HETATM    7  C   UNL     1      68.675   2.918   7.637  1.00  0.00     0.090 A 
ENDROOT
BRANCH   3   8
HETATM    8  N   UNL     1      68.009   6.548   7.170  1.00  0.00    -0.333 N 
HETATM    9  H   UNL     1      68.764   7.077   6.823  1.00  0.00     0.168 HD
BRANCH   8  10
HETATM   10  C   UNL     1      66.782   7.160   7.060  1.00  0.00     0.169 C 
HETATM   11  S   UNL     1      65.249   6.522   7.010  1.00  0.00    -0.041 SA
BRANCH  10  12
HETATM   12  N   UNL     1      66.897   8.524   7.072  1.00  0.00    -0.376 N 
HETATM   13  H   UNL     1      67.737   8.949   6.784  1.00  0.00     0.158 HD
HETATM   14  H   UNL     1      66.142   9.079   7.371  1.00  0.00     0.158 HD
ENDBRANCH  10  12
ENDBRANCH   8  10
ENDBRANCH   3   8
TORSDOF 3
ENDMDL
MODEL 6
REMARK VINA RESULT:      -3.9     22.281     24.327
REMARK  3 active torsions:
REMARK  status: ('A' for Active; 'I' for Inactive)
REMARK    1  A    between atoms: C_1  and  N_2 
REMARK    2  A    between atoms: C_1  and  N_6 
REMARK    3  A    between atoms: N_2  and  C_7 
ROOT
HETATM    1  N   UNL     1      63.695   9.891   5.694  1.00  0.00    -0.375 N 
ATOM      2  HN  UNL     1      64.257   9.861   6.544  1.00  0.00     0.164 HD
HETATM    3  C   UNL     1      62.180   9.998   3.331  1.00  0.00     0.036 A 
HETATM    4  C   UNL     1      62.153  11.049   4.240  1.00  0.00     0.046 A 
HETATM    5  C   UNL     1      62.939   8.868   3.646  1.00  0.00     0.046 A 
HETATM    6  C   UNL     1      63.682   8.869   4.817  1.00  0.00     0.090 A 
HETATM    7  C   UNL     1      62.924  10.956   5.388  1.00  0.00     0.090 A 
ENDROOT
BRANCH   3   8
HETATM    8  N   UNL     1      61.467   9.972   2.109  1.00  0.00    -0.333 N 
HETATM    9  H   UNL     1      61.135  10.850   1.811  1.00  0.00     0.168 HD
BRANCH   8  10
HETATM   10  C   UNL     1      61.161   8.927   1.269  1.00  0.00     0.169 C 
HETATM   11  S   UNL     1      62.133   7.987   0.304  1.00  0.00    -0.041 SA
BRANCH  10  12
HETATM   12  N   UNL     1      59.833   8.603   1.332  1.00  0.00    -0.376 N 
HETATM   13  H   UNL     1      59.549   7.779   1.789  1.00  0.00     0.158 HD
HETATM   14  H   UNL     1      59.162   9.194   0.920  1.00  0.00     0.158 HD
ENDBRANCH  10  12
ENDBRANCH   8  10
ENDBRANCH   3   8
TORSDOF 3
ENDMDL
MODEL 7
REMARK VINA RESULT:      -3.9     20.966     22.836
REMARK  3 active torsions:
REMARK  status: ('A' for Active; 'I' for Inactive)
REMARK    1  A    between atoms: C_1  and  N_2 
REMARK    2  A    between atoms: C_1  and  N_6 
REMARK    3  A    between atoms: N_2  and  C_7 
ROOT
HETATM    1  N   UNL     1      61.695  10.793   2.113  1.00  0.00    -0.375 N 
ATOM      2  HN  UNL     1      61.340  11.265   1.282  1.00  0.00     0.164 HD
HETATM    3  C   UNL     1      62.715   9.496   4.386  1.00  0.00     0.036 A 
HETATM    4  C   UNL     1      62.542   8.805   3.193  1.00  0.00     0.046 A 
HETATM    5  C   UNL     1      62.323  10.835   4.440  1.00  0.00     0.046 A 
HETATM    6  C   UNL     1      61.839  11.436   3.287  1.00  0.00     0.090 A 
HETATM    7  C   UNL     1      62.044   9.489   2.094  1.00  0.00     0.090 A 
ENDROOT
BRANCH   3   8
HETATM    8  N   UNL     1      63.239   8.932   5.573  1.00  0.00    -0.333 N 
HETATM    9  H   UNL     1      62.892   9.332   6.403  1.00  0.00     0.168 HD
BRANCH   8  10
HETATM   10  C   UNL     1      64.149   7.919   5.762  1.00  0.00     0.169 C 
HETATM   11  S   UNL     1      63.961   6.268   5.732  1.00  0.00    -0.041 SA
BRANCH  10  12
HETATM   12  N   UNL     1      65.417   8.406   5.924  1.00  0.00    -0.376 N 
HETATM   13  H   UNL     1      66.191   7.871   5.634  1.00  0.00     0.158 HD
HETATM   14  H   UNL     1      65.556   9.290   6.333  1.00  0.00     0.158 HD
ENDBRANCH  10  12
ENDBRANCH   8  10
ENDBRANCH   3   8
TORSDOF 3
ENDMDL
MODEL 8
REMARK VINA RESULT:      -3.8     10.635     11.441
REMARK  3 active torsions:
REMARK  status: ('A' for Active; 'I' for Inactive)
REMARK    1  A    between atoms: C_1  and  N_2 
REMARK    2  A    between atoms: C_1  and  N_6 
REMARK    3  A    between atoms: N_2  and  C_7 
ROOT
HETATM    1  N   UNL     1      74.546   0.762  15.911  1.00  0.00    -0.375 N 
ATOM      2  HN  UNL     1      73.763   0.438  15.344  1.00  0.00     0.164 HD
HETATM    3  C   UNL     1      76.723   1.674  17.434  1.00  0.00     0.036 A 
HETATM    4  C   UNL     1      76.820   0.508  16.684  1.00  0.00     0.046 A 
HETATM    5  C   UNL     1      75.502   2.352  17.451  1.00  0.00     0.046 A 
HETATM    6  C   UNL     1      74.461   1.871  16.670  1.00  0.00     0.090 A 
HETATM    7  C   UNL     1      75.722   0.102  15.941  1.00  0.00     0.090 A 
ENDROOT
BRANCH   3   8
HETATM    8  N   UNL     1      77.769   2.219  18.214  1.00  0.00    -0.333 N 
HETATM    9  H   UNL     1      78.278   2.937  17.773  1.00  0.00     0.168 HD
BRANCH   8  10
HETATM   10  C   UNL     1      78.196   1.913  19.485  1.00  0.00     0.169 C 
HETATM   11  S   UNL     1      78.883   0.530  20.099  1.00  0.00    -0.041 SA
BRANCH  10  12
HETATM   12  N   UNL     1      78.079   2.985  20.327  1.00  0.00    -0.376 N 
HETATM   13  H   UNL     1      78.167   2.859  21.299  1.00  0.00     0.158 HD
HETATM   14  H   UNL     1      77.905   3.882  19.961  1.00  0.00     0.158 HD
ENDBRANCH  10  12
ENDBRANCH   8  10
ENDBRANCH   3   8
TORSDOF 3
ENDMDL
MODEL 9
REMARK VINA RESULT:      -3.7     17.713     18.662
REMARK  3 active torsions:
REMARK  status: ('A' for Active; 'I' for Inactive)
REMARK    1  A    between atoms: C_1  and  N_2 
REMARK    2  A    between atoms: C_1  and  N_6 
REMARK    3  A    between atoms: N_2  and  C_7 
ROOT
HETATM    1  N   UNL     1      68.036   3.318   9.127  1.00  0.00    -0.375 N 
ATOM      2  HN  UNL     1      68.017   2.478   9.705  1.00  0.00     0.164 HD
HETATM    3  C   UNL     1      68.127   5.616   7.514  1.00  0.00     0.036 A 
HETATM    4  C   UNL     1      68.940   5.503   8.636  1.00  0.00     0.046 A 
HETATM    5  C   UNL     1      67.229   4.581   7.239  1.00  0.00     0.046 A 
HETATM    6  C   UNL     1      67.233   3.460   8.056  1.00  0.00     0.090 A 
HETATM    7  C   UNL     1      68.867   4.346   9.397  1.00  0.00     0.090 A 
ENDROOT
BRANCH   3   8
HETATM    8  N   UNL     1      68.117   6.723   6.635  1.00  0.00    -0.333 N 
HETATM    9  H   UNL     1      68.994   6.944   6.245  1.00  0.00     0.168 HD
BRANCH   8  10
HETATM   10  C   UNL     1      67.089   7.544   6.234  1.00  0.00     0.169 C 
HETATM   11  S   UNL     1      66.042   7.426   4.948  1.00  0.00    -0.041 SA
BRANCH  10  12
HETATM   12  N   UNL     1      66.892   8.572   7.115  1.00  0.00    -0.376 N 
HETATM   13  H   UNL     1      67.337   8.559   7.993  1.00  0.00     0.158 HD
HETATM   14  H   UNL     1      66.305   9.323   6.872  1.00  0.00     0.158 HD
ENDBRANCH  10  12
ENDBRANCH   8  10
ENDBRANCH   3   8
TORSDOF 3
ENDMDL
