MODEL 1
REMARK VINA RESULT:      -5.2      0.000      0.000
REMARK  2 active torsions:
REMARK  status: ('A' for Active; 'I' for Inactive)
REMARK    1  A    between atoms: C_1  and  C_5 
REMARK    2  A    between atoms: C_5  and  O_8 
ROOT
HETATM    1  C   UNL     1      77.205   8.139  17.214  1.00  0.00     0.063 A 
HETATM    2  C   UNL     1      77.558   9.153  16.328  1.00  0.00     0.021 A 
HETATM    3  N   UNL     1      77.712  10.314  17.052  1.00  0.00    -0.363 N 
HETATM    4  C   UNL     1      77.154   8.748  18.508  1.00  0.00     0.044 A 
HETATM    5  C   UNL     1      77.471  10.082  18.380  1.00  0.00     0.006 A 
HETATM    6  C   UNL     1      77.775   9.173  14.855  1.00  0.00     0.069 C 
HETATM    7  C   UNL     1      77.569  11.158  19.394  1.00  0.00     0.068 C 
HETATM    8  H   UNL     1      77.960  11.186  16.669  1.00  0.00     0.165 HD
ENDROOT
BRANCH   1   9
HETATM    9  C   UNL     1      76.938   6.733  16.904  1.00  0.00     0.294 C 
HETATM   10  O   UNL     1      76.711   6.304  15.779  1.00  0.00    -0.259 OA
BRANCH   9  11
HETATM   11  O   UNL     1      76.976   5.952  18.027  1.00  0.00    -0.322 OA
HETATM   12  C   UNL     1      76.810   4.556  17.784  1.00  0.00     0.213 C 
ENDBRANCH   9  11
ENDBRANCH   1   9
TORSDOF 2
ENDMDL
MODEL 2
REMARK VINA RESULT:      -5.2      2.553      4.273
REMARK  2 active torsions:
REMARK  status: ('A' for Active; 'I' for Inactive)
REMARK    1  A    between atoms: C_1  and  C_5 
REMARK    2  A    between atoms: C_5  and  O_8 
ROOT
HETATM    1  C   UNL     1      77.481   9.201  17.429  1.00  0.00     0.063 A 
HETATM    2  C   UNL     1      77.623   8.950  16.066  1.00  0.00     0.021 A 
HETATM    3  N   UNL     1      77.263   7.640  15.838  1.00  0.00    -0.363 N 
HETATM    4  C   UNL     1      77.018   7.978  18.008  1.00  0.00     0.044 A 
HETATM    5  C   UNL     1      76.892   7.038  17.010  1.00  0.00     0.006 A 
HETATM    6  C   UNL     1      78.062   9.800  14.926  1.00  0.00     0.069 C 
HETATM    7  C   UNL     1      76.451   5.623  17.059  1.00  0.00     0.068 C 
HETATM    8  H   UNL     1      77.272   7.201  14.957  1.00  0.00     0.165 HD
ENDROOT
BRANCH   1   9
HETATM    9  C   UNL     1      77.745  10.454  18.139  1.00  0.00     0.294 C 
HETATM   10  O   UNL     1      78.613  10.597  18.992  1.00  0.00    -0.259 OA
BRANCH   9  11
HETATM   11  O   UNL     1      76.903  11.453  17.732  1.00  0.00    -0.322 OA
HETATM   12  C   UNL     1      76.500  12.348  18.767  1.00  0.00     0.213 C 
ENDBRANCH   9  11
ENDBRANCH   1   9
TORSDOF 2
ENDMDL
MODEL 3
REMARK VINA RESULT:      -4.6     18.716     19.906
REMARK  2 active torsions:
REMARK  status: ('A' for Active; 'I' for Inactive)
REMARK    1  A    between atoms: C_1  and  C_5 
REMARK    2  A    between atoms: C_5  and  O_8 
ROOT
HETATM    1  C   UNL     1      63.095   9.072   4.040  1.00  0.00     0.063 A 
HETATM    2  C   UNL     1      62.353  10.240   3.888  1.00  0.00     0.021 A 
HETATM    3  N   UNL     1      61.627  10.132   2.722  1.00  0.00    -0.363 N 
HETATM    4  C   UNL     1      62.779   8.255   2.909  1.00  0.00     0.044 A 
HETATM    5  C   UNL     1      61.876   8.928   2.118  1.00  0.00     0.006 A 
HETATM    6  C   UNL     1      62.234  11.473   4.713  1.00  0.00     0.069 C 
HETATM    7  C   UNL     1      61.223   8.541   0.844  1.00  0.00     0.068 C 
HETATM    8  H   UNL     1      61.017  10.821   2.375  1.00  0.00     0.165 HD
ENDROOT
BRANCH   1   9
HETATM    9  C   UNL     1      64.013   8.732   5.129  1.00  0.00     0.294 C 
HETATM   10  O   UNL     1      65.225   8.913   5.095  1.00  0.00    -0.259 OA
BRANCH   9  11
HETATM   11  O   UNL     1      63.352   8.186   6.195  1.00  0.00    -0.322 OA
HETATM   12  C   UNL     1      63.487   6.770   6.316  1.00  0.00     0.213 C 
ENDBRANCH   9  11
ENDBRANCH   1   9
TORSDOF 2
ENDMDL
MODEL 4
REMARK VINA RESULT:      -4.5     13.548     14.630
REMARK  2 active torsions:
REMARK  status: ('A' for Active; 'I' for Inactive)
REMARK    1  A    between atoms: C_1  and  C_5 
REMARK    2  A    between atoms: C_5  and  O_8 
ROOT
HETATM    1  C   UNL     1      67.248   6.167   7.638  1.00  0.00     0.063 A 
HETATM    2  C   UNL     1      67.685   5.181   6.756  1.00  0.00     0.021 A 
HETATM    3  N   UNL     1      68.543   4.351   7.441  1.00  0.00    -0.363 N 
HETATM    4  C   UNL     1      67.886   5.888   8.887  1.00  0.00     0.044 A 
HETATM    5  C   UNL     1      68.674   4.768   8.739  1.00  0.00     0.006 A 
HETATM    6  C   UNL     1      67.393   4.912   5.321  1.00  0.00     0.069 C 
HETATM    7  C   UNL     1      69.537   4.053   9.709  1.00  0.00     0.068 C 
HETATM    8  H   UNL     1      68.998   3.569   7.053  1.00  0.00     0.165 HD
ENDROOT
BRANCH   1   9
HETATM    9  C   UNL     1      66.324   7.268   7.360  1.00  0.00     0.294 C 
HETATM   10  O   UNL     1      66.666   8.373   6.954  1.00  0.00    -0.259 OA
BRANCH   9  11
HETATM   11  O   UNL     1      65.026   6.914   7.609  1.00  0.00    -0.322 OA
HETATM   12  C   UNL     1      64.200   6.833   6.448  1.00  0.00     0.213 C 
ENDBRANCH   9  11
ENDBRANCH   1   9
TORSDOF 2
ENDMDL
MODEL 5
REMARK VINA RESULT:      -4.2     18.381     19.665
REMARK  2 active torsions:
REMARK  status: ('A' for Active; 'I' for Inactive)
REMARK    1  A    between atoms: C_1  and  C_5 
REMARK    2  A    between atoms: C_5  and  O_8 
ROOT
HETATM    1  C   UNL     1      62.986   8.931   3.985  1.00  0.00     0.063 A 
HETATM    2  C   UNL     1      63.419   9.742   5.032  1.00  0.00     0.021 A 
HETATM    3  N   UNL     1      64.551   9.170   5.569  1.00  0.00    -0.363 N 
HETATM    4  C   UNL     1      63.914   7.845   3.919  1.00  0.00     0.044 A 
HETATM    5  C   UNL     1      64.865   8.017   4.901  1.00  0.00     0.006 A 
HETATM    6  C   UNL     1      62.896  11.011   5.606  1.00  0.00     0.069 C 
HETATM    7  C   UNL     1      66.043   7.195   5.266  1.00  0.00     0.068 C 
HETATM    8  H   UNL     1      65.062   9.539   6.325  1.00  0.00     0.165 HD
ENDROOT
BRANCH   1   9
HETATM    9  C   UNL     1      61.824   9.136   3.119  1.00  0.00     0.294 C 
HETATM   10  O   UNL     1      60.698   8.715   3.360  1.00  0.00    -0.259 OA
BRANCH   9  11
HETATM   11  O   UNL     1      62.146   9.858   2.003  1.00  0.00    -0.322 OA
HETATM   12  C   UNL     1      61.800  11.240   2.069  1.00  0.00     0.213 C 
ENDBRANCH   9  11
ENDBRANCH   1   9
TORSDOF 2
ENDMDL
MODEL 6
REMARK VINA RESULT:      -4.2     17.943     19.179
REMARK  2 active torsions:
REMARK  status: ('A' for Active; 'I' for Inactive)
REMARK    1  A    between atoms: C_1  and  C_5 
REMARK    2  A    between atoms: C_5  and  O_8 
ROOT
HETATM    1  C   UNL     1      63.610   8.170   4.349  1.00  0.00     0.063 A 
HETATM    2  C   UNL     1      63.847   7.210   3.369  1.00  0.00     0.021 A 
HETATM    3  N   UNL     1      63.158   7.581   2.236  1.00  0.00    -0.363 N 
HETATM    4  C   UNL     1      62.745   9.138   3.749  1.00  0.00     0.044 A 
HETATM    5  C   UNL     1      62.485   8.754   2.453  1.00  0.00     0.006 A 
HETATM    6  C   UNL     1      64.655   5.959   3.359  1.00  0.00     0.069 C 
HETATM    7  C   UNL     1      61.660   9.391   1.398  1.00  0.00     0.068 C 
HETATM    8  H   UNL     1      63.151   7.076   1.392  1.00  0.00     0.165 HD
ENDROOT
BRANCH   1   9
HETATM    9  C   UNL     1      64.133   8.200   5.716  1.00  0.00     0.294 C 
HETATM   10  O   UNL     1      63.593   7.663   6.676  1.00  0.00    -0.259 OA
BRANCH   9  11
HETATM   11  O   UNL     1      65.305   8.903   5.794  1.00  0.00    -0.322 OA
HETATM   12  C   UNL     1      66.431   8.135   6.214  1.00  0.00     0.213 C 
ENDBRANCH   9  11
ENDBRANCH   1   9
TORSDOF 2
ENDMDL
MODEL 7
REMARK VINA RESULT:      -4.1     14.844     15.900
REMARK  2 active torsions:
REMARK  status: ('A' for Active; 'I' for Inactive)
REMARK    1  A    between atoms: C_1  and  C_5 
REMARK    2  A    between atoms: C_5  and  O_8 
ROOT
HETATM    1  C   UNL     1      65.700   6.698   6.868  1.00  0.00     0.063 A 
HETATM    2  C   UNL     1      66.883   7.076   6.238  1.00  0.00     0.021 A 
HETATM    3  N   UNL     1      67.932   6.703   7.048  1.00  0.00    -0.363 N 
HETATM    4  C   UNL     1      66.090   6.079   8.097  1.00  0.00     0.044 A 
HETATM    5  C   UNL     1      67.464   6.094   8.182  1.00  0.00     0.006 A 
HETATM    6  C   UNL     1      67.161   7.757   4.944  1.00  0.00     0.069 C 
HETATM    7  C   UNL     1      68.378   5.586   9.232  1.00  0.00     0.068 C 
HETATM    8  H   UNL     1      68.882   6.853   6.841  1.00  0.00     0.165 HD
ENDROOT
BRANCH   1   9
HETATM    9  C   UNL     1      64.330   6.886   6.385  1.00  0.00     0.294 C 
HETATM   10  O   UNL     1      63.486   7.572   6.948  1.00  0.00    -0.259 OA
BRANCH   9  11
HETATM   11  O   UNL     1      64.106   6.200   5.223  1.00  0.00    -0.322 OA
HETATM   12  C   UNL     1      63.539   6.981   4.172  1.00  0.00     0.213 C 
ENDBRANCH   9  11
ENDBRANCH   1   9
TORSDOF 2
ENDMDL
MODEL 8
REMARK VINA RESULT:      -4.1     18.368     19.425
REMARK  2 active torsions:
REMARK  status: ('A' for Active; 'I' for Inactive)
REMARK    1  A    between atoms: C_1  and  C_5 
REMARK    2  A    between atoms: C_5  and  O_8 
ROOT
HETATM    1  C   UNL     1      63.142   8.346   4.707  1.00  0.00     0.063 A 
HETATM    2  C   UNL     1      63.280   7.791   3.437  1.00  0.00     0.021 A 
HETATM    3  N   UNL     1      62.796   8.700   2.523  1.00  0.00    -0.363 N 
HETATM    4  C   UNL     1      62.552   9.634   4.510  1.00  0.00     0.044 A 
HETATM    5  C   UNL     1      62.352   9.827   3.162  1.00  0.00     0.006 A 
HETATM    6  C   UNL     1      63.819   6.488   2.961  1.00  0.00     0.069 C 
HETATM    7  C   UNL     1      61.782  10.976   2.419  1.00  0.00     0.068 C 
HETATM    8  H   UNL     1      62.774   8.560   1.549  1.00  0.00     0.165 HD
ENDROOT
BRANCH   1   9
HETATM    9  C   UNL     1      63.519   7.749   5.989  1.00  0.00     0.294 C 
HETATM   10  O   UNL     1      64.673   7.522   6.334  1.00  0.00    -0.259 OA
BRANCH   9  11
HETATM   11  O   UNL     1      62.423   7.473   6.760  1.00  0.00    -0.322 OA
HETATM   12  C   UNL     1      61.723   6.285   6.394  1.00  0.00     0.213 C 
ENDBRANCH   9  11
ENDBRANCH   1   9
TORSDOF 2
ENDMDL
MODEL 9
REMARK VINA RESULT:      -4.0      2.377      4.347
REMARK  2 active torsions:
REMARK  status: ('A' for Active; 'I' for Inactive)
REMARK    1  A    between atoms: C_1  and  C_5 
REMARK    2  A    between atoms: C_5  and  O_8 
ROOT
HETATM    1  C   UNL     1      76.851   7.259  17.112  1.00  0.00     0.063 A 
HETATM    2  C   UNL     1      76.809   7.007  15.743  1.00  0.00     0.021 A 
HETATM    3  N   UNL     1      76.258   5.758  15.559  1.00  0.00    -0.363 N 
HETATM    4  C   UNL     1      76.297   6.100  17.742  1.00  0.00     0.044 A 
HETATM    5  C   UNL     1      75.940   5.196  16.766  1.00  0.00     0.006 A 
HETATM    6  C   UNL     1      77.230   7.804  14.558  1.00  0.00     0.069 C 
HETATM    7  C   UNL     1      75.325   3.851  16.867  1.00  0.00     0.068 C 
HETATM    8  H   UNL     1      76.113   5.332  14.684  1.00  0.00     0.165 HD
ENDROOT
BRANCH   1   9
HETATM    9  C   UNL     1      77.353   8.458  17.785  1.00  0.00     0.294 C 
HETATM   10  O   UNL     1      77.314   8.641  18.995  1.00  0.00    -0.259 OA
BRANCH   9  11
HETATM   11  O   UNL     1      77.876   9.356  16.894  1.00  0.00    -0.322 OA
HETATM   12  C   UNL     1      77.344  10.675  16.999  1.00  0.00     0.213 C 
ENDBRANCH   9  11
ENDBRANCH   1   9
TORSDOF 2
ENDMDL
