MODEL 1
REMARK VINA RESULT:      -5.2      0.000      0.000
REMARK  3 active torsions:
REMARK  status: ('A' for Active; 'I' for Inactive)
REMARK    1  A    between atoms: C_1  and  C_6 
REMARK    2  A    between atoms: N_2  and  C_7 
REMARK    3  A    between atoms: C_7  and  C_8 
ROOT
HETATM    1  C   UNL     1      76.757   2.509  18.131  1.00  0.00     0.065 A 
HETATM    2  N   UNL     1      75.923   0.854  16.844  1.00  0.00    -0.349 N 
HETATM    3  C   UNL     1      75.720   2.167  17.266  1.00  0.00     0.025 A 
HETATM    4  C   UNL     1      77.586   1.359  18.234  1.00  0.00     0.045 A 
HETATM    5  C   UNL     1      77.052   0.350  17.465  1.00  0.00     0.009 A 
HETATM    6  C   UNL     1      74.552   2.981  16.812  1.00  0.00     0.069 C 
HETATM    7  C   UNL     1      77.584  -1.032  17.323  1.00  0.00     0.068 C 
ENDROOT
BRANCH   2   8
HETATM    8  C   UNL     1      75.015   0.108  15.960  1.00  0.00     0.174 C 
BRANCH   8   9
HETATM    9  C   UNL     1      74.115  -0.859  16.682  1.00  0.00     0.001 A 
HETATM   10  S   UNL     1      73.846  -2.413  15.988  1.00  0.00    -0.105 SA
HETATM   11  C   UNL     1      72.665  -2.809  17.159  1.00  0.00     0.050 A 
HETATM   12  C   UNL     1      72.579  -1.847  18.140  1.00  0.00     0.008 A 
HETATM   13  C   UNL     1      73.429  -0.737  17.879  1.00  0.00     0.017 A 
ENDBRANCH   8   9
ENDBRANCH   2   8
BRANCH   1  14
HETATM   14  C   UNL     1      76.973   3.770  18.824  1.00  0.00     0.211 C 
HETATM   15  O   UNL     1      76.951   4.887  18.320  1.00  0.00    -0.644 OA
HETATM   16  O   UNL     1      77.209   3.642  20.147  1.00  0.00    -0.644 OA
ENDBRANCH   1  14
TORSDOF 3
ENDMDL
MODEL 2
REMARK VINA RESULT:      -5.0     14.239     15.772
REMARK  3 active torsions:
REMARK  status: ('A' for Active; 'I' for Inactive)
REMARK    1  A    between atoms: C_1  and  C_6 
REMARK    2  A    between atoms: N_2  and  C_7 
REMARK    3  A    between atoms: C_7  and  C_8 
ROOT
HETATM    1  C   UNL     1      65.072   7.453   5.569  1.00  0.00     0.065 A 
HETATM    2  N   UNL     1      66.388   5.647   5.879  1.00  0.00    -0.349 N 
HETATM    3  C   UNL     1      66.364   6.960   5.412  1.00  0.00     0.025 A 
HETATM    4  C   UNL     1      64.307   6.396   6.131  1.00  0.00     0.045 A 
HETATM    5  C   UNL     1      65.115   5.293   6.291  1.00  0.00     0.009 A 
HETATM    6  C   UNL     1      67.577   7.630   4.850  1.00  0.00     0.069 C 
HETATM    7  C   UNL     1      64.703   3.961   6.810  1.00  0.00     0.068 C 
ENDROOT
BRANCH   2   8
HETATM    8  C   UNL     1      67.562   4.763   5.839  1.00  0.00     0.174 C 
BRANCH   8   9
HETATM    9  C   UNL     1      68.221   4.559   7.177  1.00  0.00     0.001 A 
HETATM   10  S   UNL     1      68.726   2.971   7.615  1.00  0.00    -0.105 SA
HETATM   11  C   UNL     1      69.141   3.465   9.199  1.00  0.00     0.050 A 
HETATM   12  C   UNL     1      69.037   4.828   9.349  1.00  0.00     0.008 A 
HETATM   13  C   UNL     1      68.531   5.462   8.181  1.00  0.00     0.017 A 
ENDBRANCH   8   9
ENDBRANCH   2   8
BRANCH   1  14
HETATM   14  C   UNL     1      64.562   8.772   5.222  1.00  0.00     0.211 C 
HETATM   15  O   UNL     1      64.790   9.817   5.820  1.00  0.00    -0.644 OA
HETATM   16  O   UNL     1      63.774   8.791   4.127  1.00  0.00    -0.644 OA
ENDBRANCH   1  14
TORSDOF 3
ENDMDL
MODEL 3
REMARK VINA RESULT:      -5.0     19.322     20.779
REMARK  3 active torsions:
REMARK  status: ('A' for Active; 'I' for Inactive)
REMARK    1  A    between atoms: C_1  and  C_6 
REMARK    2  A    between atoms: N_2  and  C_7 
REMARK    3  A    between atoms: C_7  and  C_8 
ROOT
HETATM    1  C   UNL     1      64.206   8.543   4.907  1.00  0.00     0.065 A 
HETATM    2  N   UNL     1      62.782   8.809   3.178  1.00  0.00    -0.349 N 
HETATM    3  C   UNL     1      63.732   7.956   3.737  1.00  0.00     0.025 A 
HETATM    4  C   UNL     1      63.528   9.785   5.034  1.00  0.00     0.045 A 
HETATM    5  C   UNL     1      62.683   9.946   3.960  1.00  0.00     0.009 A 
HETATM    6  C   UNL     1      64.110   6.656   3.103  1.00  0.00     0.069 C 
HETATM    7  C   UNL     1      61.817  11.124   3.682  1.00  0.00     0.068 C 
ENDROOT
BRANCH   2   8
HETATM    8  C   UNL     1      62.084   8.569   1.906  1.00  0.00     0.174 C 
BRANCH   8   9
HETATM    9  C   UNL     1      60.681   8.047   2.067  1.00  0.00     0.001 A 
HETATM   10  S   UNL     1      59.687   7.903   0.667  1.00  0.00    -0.105 SA
HETATM   11  C   UNL     1      58.313   7.494   1.599  1.00  0.00     0.050 A 
HETATM   12  C   UNL     1      58.632   7.326   2.927  1.00  0.00     0.008 A 
HETATM   13  C   UNL     1      59.997   7.621   3.194  1.00  0.00     0.017 A 
ENDBRANCH   8   9
ENDBRANCH   2   8
BRANCH   1  14
HETATM   14  C   UNL     1      65.207   8.030   5.831  1.00  0.00     0.211 C 
HETATM   15  O   UNL     1      64.991   7.360   6.834  1.00  0.00    -0.644 OA
HETATM   16  O   UNL     1      66.478   8.344   5.502  1.00  0.00    -0.644 OA
ENDBRANCH   1  14
TORSDOF 3
ENDMDL
MODEL 4
REMARK VINA RESULT:      -5.0     13.850     15.305
REMARK  3 active torsions:
REMARK  status: ('A' for Active; 'I' for Inactive)
REMARK    1  A    between atoms: C_1  and  C_6 
REMARK    2  A    between atoms: N_2  and  C_7 
REMARK    3  A    between atoms: C_7  and  C_8 
ROOT
HETATM    1  C   UNL     1      67.801   4.422   8.034  1.00  0.00     0.065 A 
HETATM    2  N   UNL     1      67.137   6.157   6.753  1.00  0.00    -0.349 N 
HETATM    3  C   UNL     1      67.330   5.732   8.067  1.00  0.00     0.025 A 
HETATM    4  C   UNL     1      67.873   4.058   6.663  1.00  0.00     0.045 A 
HETATM    5  C   UNL     1      67.441   5.115   5.894  1.00  0.00     0.009 A 
HETATM    6  C   UNL     1      67.044   6.611   9.241  1.00  0.00     0.069 C 
HETATM    7  C   UNL     1      67.319   5.142   4.412  1.00  0.00     0.068 C 
ENDROOT
BRANCH   2   8
HETATM    8  C   UNL     1      66.598   7.469   6.367  1.00  0.00     0.174 C 
BRANCH   8   9
HETATM    9  C   UNL     1      65.117   7.469   6.101  1.00  0.00     0.001 A 
HETATM   10  S   UNL     1      64.471   8.649   5.024  1.00  0.00    -0.105 SA
HETATM   11  C   UNL     1      62.862   8.188   5.374  1.00  0.00     0.050 A 
HETATM   12  C   UNL     1      62.816   7.071   6.176  1.00  0.00     0.008 A 
HETATM   13  C   UNL     1      64.112   6.642   6.576  1.00  0.00     0.017 A 
ENDBRANCH   8   9
ENDBRANCH   2   8
BRANCH   1  14
HETATM   14  C   UNL     1      68.144   3.559   9.156  1.00  0.00     0.211 C 
HETATM   15  O   UNL     1      67.498   2.596   9.552  1.00  0.00    -0.644 OA
HETATM   16  O   UNL     1      69.294   3.892   9.779  1.00  0.00    -0.644 OA
ENDBRANCH   1  14
TORSDOF 3
ENDMDL
MODEL 5
REMARK VINA RESULT:      -4.9     18.158     19.829
REMARK  3 active torsions:
REMARK  status: ('A' for Active; 'I' for Inactive)
REMARK    1  A    between atoms: C_1  and  C_6 
REMARK    2  A    between atoms: N_2  and  C_7 
REMARK    3  A    between atoms: C_7  and  C_8 
ROOT
HETATM    1  C   UNL     1      62.074   9.955   3.725  1.00  0.00     0.065 A 
HETATM    2  N   UNL     1      62.704   8.197   4.992  1.00  0.00    -0.349 N 
HETATM    3  C   UNL     1      62.809   9.580   4.847  1.00  0.00     0.025 A 
HETATM    4  C   UNL     1      61.534   8.758   3.184  1.00  0.00     0.045 A 
HETATM    5  C   UNL     1      61.947   7.692   3.951  1.00  0.00     0.009 A 
HETATM    6  C   UNL     1      63.604  10.424   5.790  1.00  0.00     0.069 C 
HETATM    7  C   UNL     1      61.641   6.256   3.710  1.00  0.00     0.068 C 
ENDROOT
BRANCH   2   8
HETATM    8  C   UNL     1      63.381   7.409   6.033  1.00  0.00     0.174 C 
BRANCH   8   9
HETATM    9  C   UNL     1      64.835   7.144   5.751  1.00  0.00     0.001 A 
HETATM   10  S   UNL     1      65.865   6.709   7.063  1.00  0.00    -0.105 SA
HETATM   11  C   UNL     1      67.262   6.779   6.080  1.00  0.00     0.050 A 
HETATM   12  C   UNL     1      66.943   6.983   4.757  1.00  0.00     0.008 A 
HETATM   13  C   UNL     1      65.547   7.169   4.563  1.00  0.00     0.017 A 
ENDBRANCH   8   9
ENDBRANCH   2   8
BRANCH   1  14
HETATM   14  C   UNL     1      61.889  11.290   3.174  1.00  0.00     0.211 C 
HETATM   15  O   UNL     1      61.848  12.336   3.810  1.00  0.00    -0.644 OA
HETATM   16  O   UNL     1      61.762  11.321   1.831  1.00  0.00    -0.644 OA
ENDBRANCH   1  14
TORSDOF 3
ENDMDL
MODEL 6
REMARK VINA RESULT:      -4.9     18.604     20.347
REMARK  3 active torsions:
REMARK  status: ('A' for Active; 'I' for Inactive)
REMARK    1  A    between atoms: C_1  and  C_6 
REMARK    2  A    between atoms: N_2  and  C_7 
REMARK    3  A    between atoms: C_7  and  C_8 
ROOT
HETATM    1  C   UNL     1      61.940   8.869   2.453  1.00  0.00     0.065 A 
HETATM    2  N   UNL     1      62.743   8.527   4.533  1.00  0.00    -0.349 N 
HETATM    3  C   UNL     1      62.338   7.891   3.361  1.00  0.00     0.025 A 
HETATM    4  C   UNL     1      62.099  10.116   3.114  1.00  0.00     0.045 A 
HETATM    5  C   UNL     1      62.565   9.891   4.390  1.00  0.00     0.009 A 
HETATM    6  C   UNL     1      62.361   6.404   3.209  1.00  0.00     0.069 C 
HETATM    7  C   UNL     1      62.831  10.921   5.431  1.00  0.00     0.068 C 
ENDROOT
BRANCH   2   8
HETATM    8  C   UNL     1      63.189   7.835   5.752  1.00  0.00     0.174 C 
BRANCH   8   9
HETATM    9  C   UNL     1      64.673   7.597   5.813  1.00  0.00     0.001 A 
HETATM   10  S   UNL     1      65.291   6.530   7.018  1.00  0.00    -0.105 SA
HETATM   11  C   UNL     1      66.910   6.911   6.624  1.00  0.00     0.050 A 
HETATM   12  C   UNL     1      66.987   7.715   5.510  1.00  0.00     0.008 A 
HETATM   13  C   UNL     1      65.703   8.091   5.029  1.00  0.00     0.017 A 
ENDBRANCH   8   9
ENDBRANCH   2   8
BRANCH   1  14
HETATM   14  C   UNL     1      61.437   8.690   1.099  1.00  0.00     0.211 C 
HETATM   15  O   UNL     1      60.266   8.529   0.777  1.00  0.00    -0.644 OA
HETATM   16  O   UNL     1      62.392   8.719   0.145  1.00  0.00    -0.644 OA
ENDBRANCH   1  14
TORSDOF 3
ENDMDL
MODEL 7
REMARK VINA RESULT:      -4.9     11.943     13.383
REMARK  3 active torsions:
REMARK  status: ('A' for Active; 'I' for Inactive)
REMARK    1  A    between atoms: C_1  and  C_6 
REMARK    2  A    between atoms: N_2  and  C_7 
REMARK    3  A    between atoms: C_7  and  C_8 
ROOT
HETATM    1  C   UNL     1      68.177   2.212   9.625  1.00  0.00     0.065 A 
HETATM    2  N   UNL     1      68.292   3.646   7.886  1.00  0.00    -0.349 N 
HETATM    3  C   UNL     1      67.665   2.495   8.361  1.00  0.00     0.025 A 
HETATM    4  C   UNL     1      69.146   3.215   9.896  1.00  0.00     0.045 A 
HETATM    5  C   UNL     1      69.224   4.067   8.817  1.00  0.00     0.009 A 
HETATM    6  C   UNL     1      66.632   1.761   7.567  1.00  0.00     0.069 C 
HETATM    7  C   UNL     1      70.141   5.230   8.671  1.00  0.00     0.068 C 
ENDROOT
BRANCH   2   8
HETATM    8  C   UNL     1      68.060   4.241   6.562  1.00  0.00     0.174 C 
BRANCH   8   9
HETATM    9  C   UNL     1      67.095   5.396   6.570  1.00  0.00     0.001 A 
HETATM   10  S   UNL     1      67.539   6.850   5.758  1.00  0.00    -0.105 SA
HETATM   11  C   UNL     1      66.163   7.679   6.344  1.00  0.00     0.050 A 
HETATM   12  C   UNL     1      65.311   6.837   7.019  1.00  0.00     0.008 A 
HETATM   13  C   UNL     1      65.833   5.519   7.130  1.00  0.00     0.017 A 
ENDBRANCH   8   9
ENDBRANCH   2   8
BRANCH   1  14
HETATM   14  C   UNL     1      67.832   1.111  10.512  1.00  0.00     0.211 C 
HETATM   15  O   UNL     1      67.035   1.153  11.442  1.00  0.00    -0.644 OA
HETATM   16  O   UNL     1      68.473  -0.044  10.236  1.00  0.00    -0.644 OA
ENDBRANCH   1  14
TORSDOF 3
ENDMDL
MODEL 8
REMARK VINA RESULT:      -4.8     13.053     14.557
REMARK  3 active torsions:
REMARK  status: ('A' for Active; 'I' for Inactive)
REMARK    1  A    between atoms: C_1  and  C_6 
REMARK    2  A    between atoms: N_2  and  C_7 
REMARK    3  A    between atoms: C_7  and  C_8 
ROOT
HETATM    1  C   UNL     1      68.891   4.393   8.221  1.00  0.00     0.065 A 
HETATM    2  N   UNL     1      66.798   4.718   7.442  1.00  0.00    -0.349 N 
HETATM    3  C   UNL     1      67.713   5.109   8.419  1.00  0.00     0.025 A 
HETATM    4  C   UNL     1      68.659   3.543   7.106  1.00  0.00     0.045 A 
HETATM    5  C   UNL     1      67.371   3.733   6.658  1.00  0.00     0.009 A 
HETATM    6  C   UNL     1      67.384   6.130   9.460  1.00  0.00     0.069 C 
HETATM    7  C   UNL     1      66.708   3.015   5.536  1.00  0.00     0.068 C 
ENDROOT
BRANCH   2   8
HETATM    8  C   UNL     1      65.417   5.211   7.342  1.00  0.00     0.174 C 
BRANCH   8   9
HETATM    9  C   UNL     1      65.264   6.434   6.479  1.00  0.00     0.001 A 
HETATM   10  S   UNL     1      63.676   6.958   6.060  1.00  0.00    -0.105 SA
HETATM   11  C   UNL     1      64.276   8.153   4.994  1.00  0.00     0.050 A 
HETATM   12  C   UNL     1      65.646   8.253   5.062  1.00  0.00     0.008 A 
HETATM   13  C   UNL     1      66.214   7.283   5.933  1.00  0.00     0.017 A 
ENDBRANCH   8   9
ENDBRANCH   2   8
BRANCH   1  14
HETATM   14  C   UNL     1      70.125   4.457   8.990  1.00  0.00     0.211 C 
HETATM   15  O   UNL     1      70.482   3.665   9.854  1.00  0.00    -0.644 OA
HETATM   16  O   UNL     1      70.917   5.505   8.679  1.00  0.00    -0.644 OA
ENDBRANCH   1  14
TORSDOF 3
ENDMDL
MODEL 9
REMARK VINA RESULT:      -4.7     19.717     21.082
REMARK  3 active torsions:
REMARK  status: ('A' for Active; 'I' for Inactive)
REMARK    1  A    between atoms: C_1  and  C_6 
REMARK    2  A    between atoms: N_2  and  C_7 
REMARK    3  A    between atoms: C_7  and  C_8 
ROOT
HETATM    1  C   UNL     1      62.821   9.064   4.444  1.00  0.00     0.065 A 
HETATM    2  N   UNL     1      61.376   7.600   3.516  1.00  0.00    -0.349 N 
HETATM    3  C   UNL     1      62.160   7.854   4.640  1.00  0.00     0.025 A 
HETATM    4  C   UNL     1      62.428   9.529   3.160  1.00  0.00     0.045 A 
HETATM    5  C   UNL     1      61.568   8.615   2.595  1.00  0.00     0.009 A 
HETATM    6  C   UNL     1      62.215   6.917   5.804  1.00  0.00     0.069 C 
HETATM    7  C   UNL     1      60.952   8.696   1.243  1.00  0.00     0.068 C 
ENDROOT
BRANCH   2   8
HETATM    8  C   UNL     1      60.562   6.392   3.316  1.00  0.00     0.174 C 
BRANCH   8   9
HETATM    9  C   UNL     1      59.181   6.480   3.908  1.00  0.00     0.001 A 
HETATM   10  S   UNL     1      58.630   5.193   4.913  1.00  0.00    -0.105 SA
HETATM   11  C   UNL     1      57.055   5.852   5.011  1.00  0.00     0.050 A 
HETATM   12  C   UNL     1      56.984   7.091   4.418  1.00  0.00     0.008 A 
HETATM   13  C   UNL     1      58.212   7.464   3.804  1.00  0.00     0.017 A 
ENDBRANCH   8   9
ENDBRANCH   2   8
BRANCH   1  14
HETATM   14  C   UNL     1      63.750   9.739   5.339  1.00  0.00     0.211 C 
HETATM   15  O   UNL     1      64.893   9.383   5.598  1.00  0.00    -0.644 OA
HETATM   16  O   UNL     1      63.257  10.860   5.905  1.00  0.00    -0.644 OA
ENDBRANCH   1  14
TORSDOF 3
ENDMDL
