MODEL 1
REMARK VINA RESULT:      -3.8      0.000      0.000
REMARK  2 active torsions:
REMARK  status: ('A' for Active; 'I' for Inactive)
REMARK    1  A    between atoms: C_1  and  C_7 
REMARK    2  A    between atoms: N_6  and  C_7 
ROOT
HETATM    1  C   UNL     1      77.910  12.306  20.446  1.00  0.00     0.013 A 
HETATM    2  C   UNL     1      77.796  11.383  19.414  1.00  0.00    -0.047 A 
HETATM    3  S   UNL     1      76.671  13.495  20.375  1.00  0.00    -0.104 SA
HETATM    4  C   UNL     1      75.981  12.797  18.984  1.00  0.00     0.051 A 
HETATM    5  C   UNL     1      76.671  11.681  18.575  1.00  0.00     0.015 A 
HETATM    6  C   UNL     1      78.696  10.213  19.172  1.00  0.00     0.049 C 
ENDROOT
BRANCH   1   7
HETATM    7  C   UNL     1      78.934  12.394  21.543  1.00  0.00     0.276 C 
BRANCH   7   8
HETATM    8  N   UNL     1      78.475  11.702  22.744  1.00  0.00    -0.075 N 
HETATM    9  H   UNL     1      79.218  11.097  23.092  1.00  0.00     0.274 HD
HETATM   10  H   UNL     1      77.654  11.139  22.520  1.00  0.00     0.274 HD
HETATM   11  H   UNL     1      78.233  12.389  23.459  1.00  0.00     0.274 HD
ENDBRANCH   7   8
ENDBRANCH   1   7
TORSDOF 2
ENDMDL
MODEL 2
REMARK VINA RESULT:      -3.7     21.705     22.903
REMARK  2 active torsions:
REMARK  status: ('A' for Active; 'I' for Inactive)
REMARK    1  A    between atoms: C_1  and  C_7 
REMARK    2  A    between atoms: N_6  and  C_7 
ROOT
HETATM    1  C   UNL     1      62.354  10.271   3.761  1.00  0.00     0.013 A 
HETATM    2  C   UNL     1      61.965  10.601   2.468  1.00  0.00    -0.047 A 
HETATM    3  S   UNL     1      62.662   8.588   3.923  1.00  0.00    -0.104 SA
HETATM    4  C   UNL     1      62.282   8.289   2.291  1.00  0.00     0.051 A 
HETATM    5  C   UNL     1      61.929   9.439   1.627  1.00  0.00     0.015 A 
HETATM    6  C   UNL     1      61.625  11.970   1.970  1.00  0.00     0.049 C 
ENDROOT
BRANCH   1   7
HETATM    7  C   UNL     1      62.514  11.155   4.966  1.00  0.00     0.276 C 
BRANCH   7   8
HETATM    8  N   UNL     1      63.460  10.579   5.917  1.00  0.00    -0.075 N 
HETATM    9  H   UNL     1      63.296  10.973   6.842  1.00  0.00     0.274 HD
HETATM   10  H   UNL     1      64.413  10.792   5.620  1.00  0.00     0.274 HD
HETATM   11  H   UNL     1      63.334   9.567   5.951  1.00  0.00     0.274 HD
ENDBRANCH   7   8
ENDBRANCH   1   7
TORSDOF 2
ENDMDL
MODEL 3
REMARK VINA RESULT:      -3.7      8.536      9.430
REMARK  2 active torsions:
REMARK  status: ('A' for Active; 'I' for Inactive)
REMARK    1  A    between atoms: C_1  and  C_7 
REMARK    2  A    between atoms: N_6  and  C_7 
ROOT
HETATM    1  C   UNL     1      76.457   3.001  17.866  1.00  0.00     0.013 A 
HETATM    2  C   UNL     1      75.238   2.585  17.343  1.00  0.00    -0.047 A 
HETATM    3  S   UNL     1      76.759   4.660  17.532  1.00  0.00    -0.104 SA
HETATM    4  C   UNL     1      75.285   4.835  16.697  1.00  0.00     0.051 A 
HETATM    5  C   UNL     1      74.570   3.661  16.669  1.00  0.00     0.015 A 
HETATM    6  C   UNL     1      74.654   1.212  17.450  1.00  0.00     0.049 C 
ENDROOT
BRANCH   1   7
HETATM    7  C   UNL     1      77.487   2.218  18.629  1.00  0.00     0.276 C 
BRANCH   7   8
HETATM    8  N   UNL     1      77.911   2.937  19.827  1.00  0.00    -0.075 N 
HETATM    9  H   UNL     1      78.246   3.864  19.566  1.00  0.00     0.274 HD
HETATM   10  H   UNL     1      78.663   2.421  20.285  1.00  0.00     0.274 HD
HETATM   11  H   UNL     1      77.121   3.028  20.466  1.00  0.00     0.274 HD
ENDBRANCH   7   8
ENDBRANCH   1   7
TORSDOF 2
ENDMDL
MODEL 4
REMARK VINA RESULT:      -3.4     21.658     22.824
REMARK  2 active torsions:
REMARK  status: ('A' for Active; 'I' for Inactive)
REMARK    1  A    between atoms: C_1  and  C_7 
REMARK    2  A    between atoms: N_6  and  C_7 
ROOT
HETATM    1  C   UNL     1      62.609   9.026   3.681  1.00  0.00     0.013 A 
HETATM    2  C   UNL     1      62.142  10.235   3.179  1.00  0.00    -0.047 A 
HETATM    3  S   UNL     1      62.730   7.831   2.451  1.00  0.00    -0.104 SA
HETATM    4  C   UNL     1      62.165   8.903   1.254  1.00  0.00     0.051 A 
HETATM    5  C   UNL     1      61.890  10.147   1.769  1.00  0.00     0.015 A 
HETATM    6  C   UNL     1      61.922  11.490   3.963  1.00  0.00     0.049 C 
ENDROOT
BRANCH   1   7
HETATM    7  C   UNL     1      62.986   8.655   5.088  1.00  0.00     0.276 C 
BRANCH   7   8
HETATM    8  N   UNL     1      64.317   9.151   5.422  1.00  0.00    -0.075 N 
HETATM    9  H   UNL     1      64.736   8.551   6.131  1.00  0.00     0.274 HD
HETATM   10  H   UNL     1      64.245  10.104   5.781  1.00  0.00     0.274 HD
HETATM   11  H   UNL     1      64.901   9.147   4.585  1.00  0.00     0.274 HD
ENDBRANCH   7   8
ENDBRANCH   1   7
TORSDOF 2
ENDMDL
MODEL 5
REMARK VINA RESULT:      -3.3     21.827     22.949
REMARK  2 active torsions:
REMARK  status: ('A' for Active; 'I' for Inactive)
REMARK    1  A    between atoms: C_1  and  C_7 
REMARK    2  A    between atoms: N_6  and  C_7 
ROOT
HETATM    1  C   UNL     1      62.425   9.236   3.590  1.00  0.00     0.013 A 
HETATM    2  C   UNL     1      62.234   9.213   2.214  1.00  0.00    -0.047 A 
HETATM    3  S   UNL     1      62.190  10.810   4.239  1.00  0.00    -0.104 SA
HETATM    4  C   UNL     1      61.838  11.467   2.707  1.00  0.00     0.051 A 
HETATM    5  C   UNL     1      61.893  10.515   1.717  1.00  0.00     0.015 A 
HETATM    6  C   UNL     1      62.350   8.015   1.326  1.00  0.00     0.049 C 
ENDROOT
BRANCH   1   7
HETATM    7  C   UNL     1      62.804   8.119   4.522  1.00  0.00     0.276 C 
BRANCH   7   8
HETATM    8  N   UNL     1      63.118   8.631   5.852  1.00  0.00    -0.075 N 
HETATM    9  H   UNL     1      62.671   8.045   6.557  1.00  0.00     0.274 HD
HETATM   10  H   UNL     1      62.776   9.589   5.938  1.00  0.00     0.274 HD
HETATM   11  H   UNL     1      64.129   8.618   5.991  1.00  0.00     0.274 HD
ENDBRANCH   7   8
ENDBRANCH   1   7
TORSDOF 2
ENDMDL
MODEL 6
REMARK VINA RESULT:      -3.3      3.410      5.414
REMARK  2 active torsions:
REMARK  status: ('A' for Active; 'I' for Inactive)
REMARK    1  A    between atoms: C_1  and  C_7 
REMARK    2  A    between atoms: N_6  and  C_7 
ROOT
HETATM    1  C   UNL     1      79.939  12.340  23.112  1.00  0.00     0.013 A 
HETATM    2  C   UNL     1      81.054  12.986  23.632  1.00  0.00    -0.047 A 
HETATM    3  S   UNL     1      78.990  11.616  24.349  1.00  0.00    -0.104 SA
HETATM    4  C   UNL     1      80.046  12.152  25.572  1.00  0.00     0.051 A 
HETATM    5  C   UNL     1      81.101  12.869  25.061  1.00  0.00     0.015 A 
HETATM    6  C   UNL     1      82.092  13.726  22.848  1.00  0.00     0.049 C 
ENDROOT
BRANCH   1   7
HETATM    7  C   UNL     1      79.498  12.193  21.683  1.00  0.00     0.276 C 
BRANCH   7   8
HETATM    8  N   UNL     1      80.222  11.113  21.019  1.00  0.00    -0.075 N 
HETATM    9  H   UNL     1      81.221  11.211  21.201  1.00  0.00     0.274 HD
HETATM   10  H   UNL     1      80.053  11.157  20.014  1.00  0.00     0.274 HD
HETATM   11  H   UNL     1      79.898  10.215  21.380  1.00  0.00     0.274 HD
ENDBRANCH   7   8
ENDBRANCH   1   7
TORSDOF 2
ENDMDL
MODEL 7
REMARK VINA RESULT:      -3.2     10.185     11.183
REMARK  2 active torsions:
REMARK  status: ('A' for Active; 'I' for Inactive)
REMARK    1  A    between atoms: C_1  and  C_7 
REMARK    2  A    between atoms: N_6  and  C_7 
ROOT
HETATM    1  C   UNL     1      76.164   1.586  17.887  1.00  0.00     0.013 A 
HETATM    2  C   UNL     1      74.931   1.743  17.265  1.00  0.00    -0.047 A 
HETATM    3  S   UNL     1      76.438  -0.046  18.355  1.00  0.00    -0.104 SA
HETATM    4  C   UNL     1      74.931  -0.549  17.741  1.00  0.00     0.051 A 
HETATM    5  C   UNL     1      74.228   0.494  17.188  1.00  0.00     0.015 A 
HETATM    6  C   UNL     1      74.371   3.021  16.726  1.00  0.00     0.049 C 
ENDROOT
BRANCH   1   7
HETATM    7  C   UNL     1      77.218   2.612  18.194  1.00  0.00     0.276 C 
BRANCH   7   8
HETATM    8  N   UNL     1      76.828   3.441  19.330  1.00  0.00    -0.075 N 
HETATM    9  H   UNL     1      76.995   4.422  19.109  1.00  0.00     0.274 HD
HETATM   10  H   UNL     1      77.378   3.178  20.148  1.00  0.00     0.274 HD
HETATM   11  H   UNL     1      75.837   3.301  19.528  1.00  0.00     0.274 HD
ENDBRANCH   7   8
ENDBRANCH   1   7
TORSDOF 2
ENDMDL
MODEL 8
REMARK VINA RESULT:      -3.2     10.159     11.419
REMARK  2 active torsions:
REMARK  status: ('A' for Active; 'I' for Inactive)
REMARK    1  A    between atoms: C_1  and  C_7 
REMARK    2  A    between atoms: N_6  and  C_7 
ROOT
HETATM    1  C   UNL     1      77.396   1.507  18.187  1.00  0.00     0.013 A 
HETATM    2  C   UNL     1      77.108   0.360  17.456  1.00  0.00    -0.047 A 
HETATM    3  S   UNL     1      78.429   1.169  19.519  1.00  0.00    -0.104 SA
HETATM    4  C   UNL     1      78.498  -0.489  19.137  1.00  0.00     0.051 A 
HETATM    5  C   UNL     1      77.756  -0.789  18.020  1.00  0.00     0.015 A 
HETATM    6  C   UNL     1      76.249   0.285  16.234  1.00  0.00     0.049 C 
ENDROOT
BRANCH   1   7
HETATM    7  C   UNL     1      76.929   2.919  17.974  1.00  0.00     0.276 C 
BRANCH   7   8
HETATM    8  N   UNL     1      76.833   3.636  19.242  1.00  0.00    -0.075 N 
HETATM    9  H   UNL     1      77.052   4.620  19.094  1.00  0.00     0.274 HD
HETATM   10  H   UNL     1      77.494   3.237  19.909  1.00  0.00     0.274 HD
HETATM   11  H   UNL     1      75.885   3.550  19.609  1.00  0.00     0.274 HD
ENDBRANCH   7   8
ENDBRANCH   1   7
TORSDOF 2
ENDMDL
MODEL 9
REMARK VINA RESULT:      -3.2      9.850     10.857
REMARK  2 active torsions:
REMARK  status: ('A' for Active; 'I' for Inactive)
REMARK    1  A    between atoms: C_1  and  C_7 
REMARK    2  A    between atoms: N_6  and  C_7 
ROOT
HETATM    1  C   UNL     1      76.098   2.178  17.566  1.00  0.00     0.013 A 
HETATM    2  C   UNL     1      76.415   0.829  17.675  1.00  0.00    -0.047 A 
HETATM    3  S   UNL     1      74.563   2.412  16.830  1.00  0.00    -0.104 SA
HETATM    4  C   UNL     1      74.312   0.738  16.651  1.00  0.00     0.051 A 
HETATM    5  C   UNL     1      75.368   0.006  17.140  1.00  0.00     0.015 A 
HETATM    6  C   UNL     1      77.665   0.261  18.269  1.00  0.00     0.049 C 
ENDROOT
BRANCH   1   7
HETATM    7  C   UNL     1      76.895   3.384  17.977  1.00  0.00     0.276 C 
BRANCH   7   8
HETATM    8  N   UNL     1      76.873   3.557  19.427  1.00  0.00    -0.075 N 
HETATM    9  H   UNL     1      76.087   3.039  19.819  1.00  0.00     0.274 HD
HETATM   10  H   UNL     1      76.772   4.548  19.649  1.00  0.00     0.274 HD
HETATM   11  H   UNL     1      77.744   3.206  19.824  1.00  0.00     0.274 HD
ENDBRANCH   7   8
ENDBRANCH   1   7
TORSDOF 2
ENDMDL
