MODEL 1
REMARK VINA RESULT:      -5.4      0.000      0.000
REMARK  0 active torsions:
REMARK  status: ('A' for Active; 'I' for Inactive)
ROOT
HETATM    1  C   UNL     1      77.025   6.875  16.819  1.00  0.00     0.112 A 
HETATM    2  C   UNL     1      77.317   8.218  17.396  1.00  0.00     0.266 A 
HETATM    3  N   UNL     1      77.512   9.237  16.490  1.00  0.00    -0.326 N 
HETATM    4  C   UNL     1      77.001   6.740  15.480  1.00  0.00     0.030 A 
HETATM    5  C   UNL     1      76.769   5.782  17.684  1.00  0.00     0.105 C 
HETATM    6  N   UNL     1      76.542   4.851  18.342  1.00  0.00    -0.191 NA
HETATM    7  C   UNL     1      77.473   9.085  15.123  1.00  0.00     0.008 A 
HETATM    8  C   UNL     1      77.236   7.869  14.607  1.00  0.00     0.026 A 
HETATM    9  O   UNL     1      77.381   8.421  18.605  1.00  0.00    -0.267 OA
HETATM   10  C   UNL     1      77.698  10.313  14.296  1.00  0.00     0.068 C 
HETATM   11  H   UNL     1      77.691  10.138  16.845  1.00  0.00     0.169 HD
ENDROOT
TORSDOF 0
ENDMDL
MODEL 2
REMARK VINA RESULT:      -5.3      5.676      7.245
REMARK  0 active torsions:
REMARK  status: ('A' for Active; 'I' for Inactive)
ROOT
HETATM    1  C   UNL     1      78.054  12.134  20.223  1.00  0.00     0.112 A 
HETATM    2  C   UNL     1      79.284  11.291  20.210  1.00  0.00     0.266 A 
HETATM    3  N   UNL     1      80.146  11.463  21.270  1.00  0.00    -0.326 N 
HETATM    4  C   UNL     1      77.885  13.011  21.230  1.00  0.00     0.030 A 
HETATM    5  C   UNL     1      77.093  11.987  19.192  1.00  0.00     0.105 C 
HETATM    6  N   UNL     1      76.266  11.904  18.380  1.00  0.00    -0.191 NA
HETATM    7  C   UNL     1      79.954  12.357  22.298  1.00  0.00     0.008 A 
HETATM    8  C   UNL     1      78.859  13.133  22.292  1.00  0.00     0.026 A 
HETATM    9  O   UNL     1      79.525  10.485  19.317  1.00  0.00    -0.267 OA
HETATM   10  C   UNL     1      80.998  12.395  23.371  1.00  0.00     0.068 C 
HETATM   11  H   UNL     1      80.959  10.907  21.294  1.00  0.00     0.169 HD
ENDROOT
TORSDOF 0
ENDMDL
MODEL 3
REMARK VINA RESULT:      -5.1      3.570      4.996
REMARK  0 active torsions:
REMARK  status: ('A' for Active; 'I' for Inactive)
ROOT
HETATM    1  C   UNL     1      75.409   2.548  17.533  1.00  0.00     0.112 A 
HETATM    2  C   UNL     1      76.660   2.908  18.259  1.00  0.00     0.266 A 
HETATM    3  N   UNL     1      77.092   4.207  18.113  1.00  0.00    -0.326 N 
HETATM    4  C   UNL     1      74.812   3.486  16.774  1.00  0.00     0.030 A 
HETATM    5  C   UNL     1      74.872   1.243  17.667  1.00  0.00     0.105 C 
HETATM    6  N   UNL     1      74.380   0.194  17.745  1.00  0.00    -0.191 NA
HETATM    7  C   UNL     1      76.465   5.158  17.341  1.00  0.00     0.008 A 
HETATM    8  C   UNL     1      75.353   4.823  16.668  1.00  0.00     0.026 A 
HETATM    9  O   UNL     1      77.278   2.106  18.952  1.00  0.00    -0.267 OA
HETATM   10  C   UNL     1      77.078   6.524  17.313  1.00  0.00     0.068 C 
HETATM   11  H   UNL     1      77.908   4.475  18.594  1.00  0.00     0.169 HD
ENDROOT
TORSDOF 0
ENDMDL
MODEL 4
REMARK VINA RESULT:      -5.0      5.705      6.971
REMARK  0 active torsions:
REMARK  status: ('A' for Active; 'I' for Inactive)
ROOT
HETATM    1  C   UNL     1      79.125  12.322  21.418  1.00  0.00     0.112 A 
HETATM    2  C   UNL     1      79.034  11.448  20.214  1.00  0.00     0.266 A 
HETATM    3  N   UNL     1      77.915  11.617  19.427  1.00  0.00    -0.326 N 
HETATM    4  C   UNL     1      78.118  13.179  21.671  1.00  0.00     0.030 A 
HETATM    5  C   UNL     1      80.266  12.243  22.256  1.00  0.00     0.105 C 
HETATM    6  N   UNL     1      81.179  12.229  22.974  1.00  0.00    -0.191 NA
HETATM    7  C   UNL     1      76.899  12.505  19.693  1.00  0.00     0.008 A 
HETATM    8  C   UNL     1      76.972  13.271  20.793  1.00  0.00     0.026 A 
HETATM    9  O   UNL     1      79.896  10.625  19.925  1.00  0.00    -0.267 OA
HETATM   10  C   UNL     1      75.766  12.556  18.715  1.00  0.00     0.068 C 
HETATM   11  H   UNL     1      77.838  11.063  18.617  1.00  0.00     0.169 HD
ENDROOT
TORSDOF 0
ENDMDL
MODEL 5
REMARK VINA RESULT:      -5.0     19.505     20.240
REMARK  0 active torsions:
REMARK  status: ('A' for Active; 'I' for Inactive)
ROOT
HETATM    1  C   UNL     1      62.582  10.137   4.210  1.00  0.00     0.112 A 
HETATM    2  C   UNL     1      61.936  10.907   3.108  1.00  0.00     0.266 A 
HETATM    3  N   UNL     1      61.568  10.181   1.997  1.00  0.00    -0.326 N 
HETATM    4  C   UNL     1      62.787   8.817   4.039  1.00  0.00     0.030 A 
HETATM    5  C   UNL     1      62.950  10.801   5.407  1.00  0.00     0.105 C 
HETATM    6  N   UNL     1      63.265  11.288   6.413  1.00  0.00    -0.191 NA
HETATM    7  C   UNL     1      61.775   8.829   1.842  1.00  0.00     0.008 A 
HETATM    8  C   UNL     1      62.381   8.145   2.825  1.00  0.00     0.026 A 
HETATM    9  O   UNL     1      61.735  12.115   3.174  1.00  0.00    -0.267 OA
HETATM   10  C   UNL     1      61.296   8.210   0.566  1.00  0.00     0.068 C 
HETATM   11  H   UNL     1      61.126  10.663   1.262  1.00  0.00     0.169 HD
ENDROOT
TORSDOF 0
ENDMDL
MODEL 6
REMARK VINA RESULT:      -4.9      2.228      3.878
REMARK  0 active torsions:
REMARK  status: ('A' for Active; 'I' for Inactive)
ROOT
HETATM    1  C   UNL     1      77.405   9.642  17.835  1.00  0.00     0.112 A 
HETATM    2  C   UNL     1      77.630   9.647  16.361  1.00  0.00     0.266 A 
HETATM    3  N   UNL     1      77.396   8.457  15.709  1.00  0.00    -0.326 N 
HETATM    4  C   UNL     1      77.026   8.493  18.424  1.00  0.00     0.030 A 
HETATM    5  C   UNL     1      77.580  10.838  18.575  1.00  0.00     0.105 C 
HETATM    6  N   UNL     1      77.699  11.788  19.232  1.00  0.00    -0.191 NA
HETATM    7  C   UNL     1      76.998   7.293  16.324  1.00  0.00     0.008 A 
HETATM    8  C   UNL     1      76.822   7.285  17.655  1.00  0.00     0.026 A 
HETATM    9  O   UNL     1      77.999  10.646  15.751  1.00  0.00    -0.267 OA
HETATM   10  C   UNL     1      76.782   6.098  15.447  1.00  0.00     0.068 C 
HETATM   11  H   UNL     1      77.522   8.438  14.732  1.00  0.00     0.169 HD
ENDROOT
TORSDOF 0
ENDMDL
MODEL 7
REMARK VINA RESULT:      -4.9      1.293      3.820
REMARK  0 active torsions:
REMARK  status: ('A' for Active; 'I' for Inactive)
ROOT
HETATM    1  C   UNL     1      77.351   8.676  15.828  1.00  0.00     0.112 A 
HETATM    2  C   UNL     1      77.299   8.434  17.298  1.00  0.00     0.266 A 
HETATM    3  N   UNL     1      77.035   7.140  17.688  1.00  0.00    -0.326 N 
HETATM    4  C   UNL     1      77.113   7.646  14.996  1.00  0.00     0.030 A 
HETATM    5  C   UNL     1      77.660   9.972  15.342  1.00  0.00     0.105 C 
HETATM    6  N   UNL     1      77.917  11.008  14.885  1.00  0.00    -0.191 NA
HETATM    7  C   UNL     1      76.805   6.093  16.825  1.00  0.00     0.008 A 
HETATM    8  C   UNL     1      76.826   6.322  15.502  1.00  0.00     0.026 A 
HETATM    9  O   UNL     1      77.480   9.323  18.123  1.00  0.00    -0.267 OA
HETATM   10  C   UNL     1      76.546   4.751  17.436  1.00  0.00     0.068 C 
HETATM   11  H   UNL     1      77.011   6.949  18.654  1.00  0.00     0.169 HD
ENDROOT
TORSDOF 0
ENDMDL
MODEL 8
REMARK VINA RESULT:      -4.5     11.620     12.183
REMARK  0 active torsions:
REMARK  status: ('A' for Active; 'I' for Inactive)
ROOT
HETATM    1  C   UNL     1      69.293   2.954   9.531  1.00  0.00     0.112 A 
HETATM    2  C   UNL     1      67.821   2.911   9.295  1.00  0.00     0.266 A 
HETATM    3  N   UNL     1      67.254   4.065   8.802  1.00  0.00    -0.326 N 
HETATM    4  C   UNL     1      69.952   4.100   9.282  1.00  0.00     0.030 A 
HETATM    5  C   UNL     1      69.962   1.793   9.994  1.00  0.00     0.105 C 
HETATM    6  N   UNL     1      70.566   0.873  10.365  1.00  0.00    -0.191 NA
HETATM    7  C   UNL     1      67.943   5.227   8.542  1.00  0.00     0.008 A 
HETATM    8  C   UNL     1      69.264   5.269   8.781  1.00  0.00     0.026 A 
HETATM    9  O   UNL     1      67.143   1.913   9.518  1.00  0.00    -0.267 OA
HETATM   10  C   UNL     1      67.156   6.378   7.998  1.00  0.00     0.068 C 
HETATM   11  H   UNL     1      66.286   4.058   8.622  1.00  0.00     0.169 HD
ENDROOT
TORSDOF 0
ENDMDL
MODEL 9
REMARK VINA RESULT:      -4.5     13.088     13.956
REMARK  0 active torsions:
REMARK  status: ('A' for Active; 'I' for Inactive)
ROOT
HETATM    1  C   UNL     1      67.010   6.950   7.233  1.00  0.00     0.112 A 
HETATM    2  C   UNL     1      67.702   5.842   6.517  1.00  0.00     0.266 A 
HETATM    3  N   UNL     1      68.339   4.913   7.310  1.00  0.00    -0.326 N 
HETATM    4  C   UNL     1      67.075   6.989   8.577  1.00  0.00     0.030 A 
HETATM    5  C   UNL     1      66.292   7.923   6.493  1.00  0.00     0.105 C 
HETATM    6  N   UNL     1      65.682   8.743   5.941  1.00  0.00    -0.191 NA
HETATM    7  C   UNL     1      68.388   4.960   8.684  1.00  0.00     0.008 A 
HETATM    8  C   UNL     1      67.786   5.975   9.324  1.00  0.00     0.026 A 
HETATM    9  O   UNL     1      67.711   5.747   5.293  1.00  0.00    -0.267 OA
HETATM   10  C   UNL     1      69.120   3.853   9.377  1.00  0.00     0.068 C 
HETATM   11  H   UNL     1      68.791   4.162   6.862  1.00  0.00     0.169 HD
ENDROOT
TORSDOF 0
ENDMDL
