MODEL 1
REMARK VINA RESULT:      -4.5      0.000      0.000
REMARK  2 active torsions:
REMARK  status: ('A' for Active; 'I' for Inactive)
REMARK    1  A    between atoms: C_1  and  C_5 
REMARK    2  A    between atoms: C_5  and  N_9 
ROOT
HETATM    1  C   UNL     1      71.611  23.041  13.365  1.00  0.00     0.094 A 
HETATM    2  N   UNL     1      72.860  22.864  12.890  1.00  0.00    -0.258 N 
ATOM      3  HN  UNL     1      73.715  23.292  13.245  1.00  0.00     0.195 HD
HETATM    4  C   UNL     1      70.690  22.273  12.601  1.00  0.00     0.069 A 
HETATM    5  O   UNL     1      72.752  21.989  11.825  1.00  0.00    -0.242 OA
HETATM    6  C   UNL     1      71.454  21.637  11.655  1.00  0.00     0.074 A 
HETATM    7  C   UNL     1      71.155  20.701  10.558  1.00  0.00     0.079 C 
ENDROOT
BRANCH   1   8
HETATM    8  C   UNL     1      71.383  23.921  14.508  1.00  0.00     0.123 C 
HETATM    9  S   UNL     1      69.876  24.549  14.820  1.00  0.00    -0.058 SA
BRANCH   8  10
HETATM   10  N   UNL     1      72.452  24.208  15.311  1.00  0.00    -0.388 N 
HETATM   11  H   UNL     1      72.826  23.514  15.899  1.00  0.00     0.157 HD
HETATM   12  H   UNL     1      72.847  25.110  15.299  1.00  0.00     0.157 HD
ENDBRANCH   8  10
ENDBRANCH   1   8
TORSDOF 2
ENDMDL
MODEL 2
REMARK VINA RESULT:      -4.4     20.169     20.801
REMARK  2 active torsions:
REMARK  status: ('A' for Active; 'I' for Inactive)
REMARK    1  A    between atoms: C_1  and  C_5 
REMARK    2  A    between atoms: C_5  and  N_9 
ROOT
HETATM    1  C   UNL     1      75.881   2.989  17.807  1.00  0.00     0.094 A 
HETATM    2  N   UNL     1      76.612   3.229  18.915  1.00  0.00    -0.258 N 
ATOM      3  HN  UNL     1      76.808   2.573  19.671  1.00  0.00     0.195 HD
HETATM    4  C   UNL     1      75.840   4.156  16.995  1.00  0.00     0.069 A 
HETATM    5  O   UNL     1      77.042   4.539  18.823  1.00  0.00    -0.242 OA
HETATM    6  C   UNL     1      76.579   5.092  17.674  1.00  0.00     0.074 A 
HETATM    7  C   UNL     1      76.947   6.493  17.412  1.00  0.00     0.079 C 
ENDROOT
BRANCH   1   8
HETATM    8  C   UNL     1      75.279   1.676  17.600  1.00  0.00     0.123 C 
HETATM    9  S   UNL     1      74.675   1.232  16.116  1.00  0.00    -0.058 SA
BRANCH   8  10
HETATM   10  N   UNL     1      75.230   0.825  18.669  1.00  0.00    -0.388 N 
HETATM   11  H   UNL     1      74.996  -0.122  18.533  1.00  0.00     0.157 HD
HETATM   12  H   UNL     1      75.430   1.159  19.573  1.00  0.00     0.157 HD
ENDBRANCH   8  10
ENDBRANCH   1   8
TORSDOF 2
ENDMDL
MODEL 3
REMARK VINA RESULT:      -4.3     21.254     21.819
REMARK  2 active torsions:
REMARK  status: ('A' for Active; 'I' for Inactive)
REMARK    1  A    between atoms: C_1  and  C_5 
REMARK    2  A    between atoms: C_5  and  N_9 
ROOT
HETATM    1  C   UNL     1      77.125   3.001  18.503  1.00  0.00     0.094 A 
HETATM    2  N   UNL     1      77.534   3.379  19.730  1.00  0.00    -0.258 N 
ATOM      3  HN  UNL     1      77.354   4.272  20.187  1.00  0.00     0.195 HD
HETATM    4  C   UNL     1      77.579   1.682  18.227  1.00  0.00     0.069 A 
HETATM    5  O   UNL     1      78.248   2.314  20.249  1.00  0.00    -0.242 OA
HETATM    6  C   UNL     1      78.273   1.300  19.347  1.00  0.00     0.074 A 
HETATM    7  C   UNL     1      78.994   0.078  19.739  1.00  0.00     0.079 C 
ENDROOT
BRANCH   1   8
HETATM    8  C   UNL     1      76.335   3.915  17.684  1.00  0.00     0.123 C 
HETATM    9  S   UNL     1      76.883   5.444  17.330  1.00  0.00    -0.058 SA
BRANCH   8  10
HETATM   10  N   UNL     1      75.130   3.468  17.217  1.00  0.00    -0.388 N 
HETATM   11  H   UNL     1      74.829   2.555  17.428  1.00  0.00     0.157 HD
HETATM   12  H   UNL     1      74.562   4.061  16.673  1.00  0.00     0.157 HD
ENDBRANCH   8  10
ENDBRANCH   1   8
TORSDOF 2
ENDMDL
MODEL 4
REMARK VINA RESULT:      -4.1     21.485     22.071
REMARK  2 active torsions:
REMARK  status: ('A' for Active; 'I' for Inactive)
REMARK    1  A    between atoms: C_1  and  C_5 
REMARK    2  A    between atoms: C_5  and  N_9 
ROOT
HETATM    1  C   UNL     1      77.448   2.141  18.698  1.00  0.00     0.094 A 
HETATM    2  N   UNL     1      77.639   3.043  19.682  1.00  0.00    -0.258 N 
ATOM      3  HN  UNL     1      78.034   2.866  20.605  1.00  0.00     0.195 HD
HETATM    4  C   UNL     1      76.873   2.779  17.564  1.00  0.00     0.069 A 
HETATM    5  O   UNL     1      77.193   4.257  19.192  1.00  0.00    -0.242 OA
HETATM    6  C   UNL     1      76.735   4.096  17.925  1.00  0.00     0.074 A 
HETATM    7  C   UNL     1      76.221   5.296  17.244  1.00  0.00     0.079 C 
ENDROOT
BRANCH   1   8
HETATM    8  C   UNL     1      77.824   0.746  18.904  1.00  0.00     0.123 C 
HETATM    9  S   UNL     1      76.755  -0.487  18.587  1.00  0.00    -0.058 SA
BRANCH   8  10
HETATM   10  N   UNL     1      79.085   0.490  19.365  1.00  0.00    -0.388 N 
HETATM   11  H   UNL     1      79.416  -0.436  19.404  1.00  0.00     0.157 HD
HETATM   12  H   UNL     1      79.663   1.233  19.655  1.00  0.00     0.157 HD
ENDBRANCH   8  10
ENDBRANCH   1   8
TORSDOF 2
ENDMDL
MODEL 5
REMARK VINA RESULT:      -4.0     17.559     17.822
REMARK  2 active torsions:
REMARK  status: ('A' for Active; 'I' for Inactive)
REMARK    1  A    between atoms: C_1  and  C_5 
REMARK    2  A    between atoms: C_5  and  N_9 
ROOT
HETATM    1  C   UNL     1      66.720   7.079   6.843  1.00  0.00     0.094 A 
HETATM    2  N   UNL     1      66.878   8.393   7.098  1.00  0.00    -0.258 N 
ATOM      3  HN  UNL     1      67.554   8.815   7.735  1.00  0.00     0.195 HD
HETATM    4  C   UNL     1      65.673   6.893   5.899  1.00  0.00     0.069 A 
HETATM    5  O   UNL     1      65.943   9.056   6.326  1.00  0.00    -0.242 OA
HETATM    6  C   UNL     1      65.224   8.156   5.609  1.00  0.00     0.074 A 
HETATM    7  C   UNL     1      64.177   8.693   4.724  1.00  0.00     0.079 C 
ENDROOT
BRANCH   1   8
HETATM    8  C   UNL     1      67.571   6.098   7.511  1.00  0.00     0.123 C 
HETATM    9  S   UNL     1      67.823   4.592   6.855  1.00  0.00    -0.058 SA
BRANCH   8  10
HETATM   10  N   UNL     1      68.154   6.464   8.692  1.00  0.00    -0.388 N 
HETATM   11  H   UNL     1      68.848   5.894   9.096  1.00  0.00     0.157 HD
HETATM   12  H   UNL     1      67.881   7.298   9.138  1.00  0.00     0.157 HD
ENDBRANCH   8  10
ENDBRANCH   1   8
TORSDOF 2
ENDMDL
MODEL 6
REMARK VINA RESULT:      -4.0     18.160     18.453
REMARK  2 active torsions:
REMARK  status: ('A' for Active; 'I' for Inactive)
REMARK    1  A    between atoms: C_1  and  C_5 
REMARK    2  A    between atoms: C_5  and  N_9 
ROOT
HETATM    1  C   UNL     1      62.626   9.480   4.447  1.00  0.00     0.094 A 
HETATM    2  N   UNL     1      62.618  10.640   5.133  1.00  0.00    -0.258 N 
ATOM      3  HN  UNL     1      62.858  10.771   6.116  1.00  0.00     0.195 HD
HETATM    4  C   UNL     1      62.229   9.712   3.101  1.00  0.00     0.069 A 
HETATM    5  O   UNL     1      62.221  11.619   4.241  1.00  0.00    -0.242 OA
HETATM    6  C   UNL     1      61.988  11.061   3.027  1.00  0.00     0.074 A 
HETATM    7  C   UNL     1      61.556  11.966   1.949  1.00  0.00     0.079 C 
ENDROOT
BRANCH   1   8
HETATM    8  C   UNL     1      63.009   8.240   5.115  1.00  0.00     0.123 C 
HETATM    9  S   UNL     1      63.556   6.931   4.248  1.00  0.00    -0.058 SA
BRANCH   8  10
HETATM   10  N   UNL     1      62.902   8.193   6.477  1.00  0.00    -0.388 N 
HETATM   11  H   UNL     1      62.022   8.304   6.905  1.00  0.00     0.157 HD
HETATM   12  H   UNL     1      63.704   8.048   7.029  1.00  0.00     0.157 HD
ENDBRANCH   8  10
ENDBRANCH   1   8
TORSDOF 2
ENDMDL
MODEL 7
REMARK VINA RESULT:      -3.9     17.885     18.667
REMARK  2 active torsions:
REMARK  status: ('A' for Active; 'I' for Inactive)
REMARK    1  A    between atoms: C_1  and  C_5 
REMARK    2  A    between atoms: C_5  and  N_9 
ROOT
HETATM    1  C   UNL     1      66.997   5.787   8.149  1.00  0.00     0.094 A 
HETATM    2  N   UNL     1      66.351   4.633   8.414  1.00  0.00    -0.258 N 
ATOM      3  HN  UNL     1      65.387   4.404   8.174  1.00  0.00     0.195 HD
HETATM    4  C   UNL     1      68.328   5.720   8.645  1.00  0.00     0.069 A 
HETATM    5  O   UNL     1      67.255   3.823   9.075  1.00  0.00    -0.242 OA
HETATM    6  C   UNL     1      68.436   4.475   9.213  1.00  0.00     0.074 A 
HETATM    7  C   UNL     1      69.521   3.753   9.897  1.00  0.00     0.079 C 
ENDROOT
BRANCH   1   8
HETATM    8  C   UNL     1      66.307   6.865   7.447  1.00  0.00     0.123 C 
HETATM    9  S   UNL     1      64.837   6.611   6.715  1.00  0.00    -0.058 SA
BRANCH   8  10
HETATM   10  N   UNL     1      66.913   8.090   7.414  1.00  0.00    -0.388 N 
HETATM   11  H   UNL     1      67.753   8.237   7.907  1.00  0.00     0.157 HD
HETATM   12  H   UNL     1      66.511   8.824   6.896  1.00  0.00     0.157 HD
ENDBRANCH   8  10
ENDBRANCH   1   8
TORSDOF 2
ENDMDL
MODEL 8
REMARK VINA RESULT:      -3.9     21.283     21.867
REMARK  2 active torsions:
REMARK  status: ('A' for Active; 'I' for Inactive)
REMARK    1  A    between atoms: C_1  and  C_5 
REMARK    2  A    between atoms: C_5  and  N_9 
ROOT
HETATM    1  C   UNL     1      76.174   2.320  17.945  1.00  0.00     0.094 A 
HETATM    2  N   UNL     1      74.847   2.197  18.150  1.00  0.00    -0.258 N 
ATOM      3  HN  UNL     1      74.242   2.853  18.643  1.00  0.00     0.195 HD
HETATM    4  C   UNL     1      76.656   1.198  17.217  1.00  0.00     0.069 A 
HETATM    5  O   UNL     1      74.470   1.006  17.559  1.00  0.00    -0.242 OA
HETATM    6  C   UNL     1      75.554   0.410  17.002  1.00  0.00     0.074 A 
HETATM    7  C   UNL     1      75.332  -0.877  16.323  1.00  0.00     0.079 C 
ENDROOT
BRANCH   1   8
HETATM    8  C   UNL     1      76.886   3.490  18.452  1.00  0.00     0.123 C 
HETATM    9  S   UNL     1      76.816   4.949  17.659  1.00  0.00    -0.058 SA
BRANCH   8  10
HETATM   10  N   UNL     1      77.610   3.342  19.603  1.00  0.00    -0.388 N 
HETATM   11  H   UNL     1      78.539   3.664  19.644  1.00  0.00     0.157 HD
HETATM   12  H   UNL     1      77.200   2.915  20.390  1.00  0.00     0.157 HD
ENDBRANCH   8  10
ENDBRANCH   1   8
TORSDOF 2
ENDMDL
MODEL 9
REMARK VINA RESULT:      -3.8     17.353     18.005
REMARK  2 active torsions:
REMARK  status: ('A' for Active; 'I' for Inactive)
REMARK    1  A    between atoms: C_1  and  C_5 
REMARK    2  A    between atoms: C_5  and  N_9 
ROOT
HETATM    1  C   UNL     1      63.540   8.953   5.587  1.00  0.00     0.094 A 
HETATM    2  N   UNL     1      62.913   8.211   6.522  1.00  0.00    -0.258 N 
ATOM      3  HN  UNL     1      62.019   8.417   6.967  1.00  0.00     0.195 HD
HETATM    4  C   UNL     1      64.764   8.331   5.218  1.00  0.00     0.069 A 
HETATM    5  O   UNL     1      63.723   7.116   6.759  1.00  0.00    -0.242 OA
HETATM    6  C   UNL     1      64.829   7.190   5.977  1.00  0.00     0.074 A 
HETATM    7  C   UNL     1      65.806   6.095   6.099  1.00  0.00     0.079 C 
ENDROOT
BRANCH   1   8
HETATM    8  C   UNL     1      62.933  10.193   5.112  1.00  0.00     0.123 C 
HETATM    9  S   UNL     1      61.994  10.220   3.741  1.00  0.00    -0.058 SA
BRANCH   8  10
HETATM   10  N   UNL     1      63.165  11.330   5.835  1.00  0.00    -0.388 N 
HETATM   11  H   UNL     1      64.088  11.636   5.989  1.00  0.00     0.157 HD
HETATM   12  H   UNL     1      62.408  11.843   6.201  1.00  0.00     0.157 HD
ENDBRANCH   8  10
ENDBRANCH   1   8
TORSDOF 2
ENDMDL
