MODEL 1
REMARK VINA RESULT:      -4.7      0.000      0.000
REMARK  1 active torsions:
REMARK  status: ('A' for Active; 'I' for Inactive)
REMARK    1  A    between atoms: C_5  and  O_10 
ROOT
HETATM    1  N   UNL     1      68.497  24.695  14.370  1.00  0.00    -0.191 NA
HETATM    2  N   UNL     1      72.467  22.105  13.558  1.00  0.00    -0.345 N 
ATOM      3  HN  UNL     1      72.659  21.269  13.007  1.00  0.00     0.167 HD
HETATM    4  C   UNL     1      69.584  24.289  14.364  1.00  0.00     0.101 C 
HETATM    5  C   UNL     1      73.438  22.723  14.266  1.00  0.00     0.141 A 
HETATM    6  C   UNL     1      70.917  23.781  14.352  1.00  0.00     0.060 A 
HETATM    7  C   UNL     1      71.229  22.648  13.616  1.00  0.00     0.112 A 
HETATM    8  C   UNL     1      73.225  23.861  15.029  1.00  0.00     0.057 A 
HETATM    9  C   UNL     1      71.940  24.399  15.072  1.00  0.00     0.028 A 
ENDROOT
BRANCH   5  10
HETATM   10  O   UNL     1      74.723  22.221  14.249  1.00  0.00    -0.341 OA
HETATM   11  C   UNL     1      75.092  21.613  15.485  1.00  0.00     0.211 C 
ENDBRANCH   5  10
TORSDOF 1
ENDMDL
MODEL 2
REMARK VINA RESULT:      -4.5     18.662     19.687
REMARK  1 active torsions:
REMARK  status: ('A' for Active; 'I' for Inactive)
REMARK    1  A    between atoms: C_5  and  O_10 
ROOT
HETATM    1  N   UNL     1      61.719  11.961   1.955  1.00  0.00    -0.191 NA
HETATM    2  N   UNL     1      63.064   9.673   5.966  1.00  0.00    -0.345 N 
ATOM      3  HN  UNL     1      63.485   9.981   6.842  1.00  0.00     0.167 HD
HETATM    4  C   UNL     1      61.934  11.158   2.764  1.00  0.00     0.101 C 
HETATM    5  C   UNL     1      62.767   8.374   5.743  1.00  0.00     0.141 A 
HETATM    6  C   UNL     1      62.205  10.176   3.764  1.00  0.00     0.060 A 
HETATM    7  C   UNL     1      62.775  10.545   4.972  1.00  0.00     0.112 A 
HETATM    8  C   UNL     1      62.193   7.908   4.570  1.00  0.00     0.057 A 
HETATM    9  C   UNL     1      61.907   8.828   3.562  1.00  0.00     0.028 A 
ENDROOT
BRANCH   5  10
HETATM   10  O   UNL     1      63.035   7.433   6.716  1.00  0.00    -0.341 OA
HETATM   11  C   UNL     1      64.301   6.802   6.536  1.00  0.00     0.211 C 
ENDBRANCH   5  10
TORSDOF 1
ENDMDL
MODEL 3
REMARK VINA RESULT:      -4.4      2.643      3.952
REMARK  1 active torsions:
REMARK  status: ('A' for Active; 'I' for Inactive)
REMARK    1  A    between atoms: C_5  and  O_10 
ROOT
HETATM    1  N   UNL     1      71.229  20.399  10.094  1.00  0.00    -0.191 NA
HETATM    2  N   UNL     1      72.971  23.663  13.167  1.00  0.00    -0.345 N 
ATOM      3  HN  UNL     1      73.894  24.075  13.304  1.00  0.00     0.167 HD
HETATM    4  C   UNL     1      71.350  21.185  10.938  1.00  0.00     0.101 C 
HETATM    5  C   UNL     1      71.920  24.010  13.940  1.00  0.00     0.141 A 
HETATM    6  C   UNL     1      71.508  22.152  11.976  1.00  0.00     0.060 A 
HETATM    7  C   UNL     1      72.742  22.742  12.201  1.00  0.00     0.112 A 
HETATM    8  C   UNL     1      70.648  23.478  13.791  1.00  0.00     0.057 A 
HETATM    9  C   UNL     1      70.440  22.531  12.789  1.00  0.00     0.028 A 
ENDROOT
BRANCH   5  10
HETATM   10  O   UNL     1      72.085  24.944  14.943  1.00  0.00    -0.341 OA
HETATM   11  C   UNL     1      70.859  25.562  15.326  1.00  0.00     0.211 C 
ENDBRANCH   5  10
TORSDOF 1
ENDMDL
MODEL 4
REMARK VINA RESULT:      -4.3     19.558     20.746
REMARK  1 active torsions:
REMARK  status: ('A' for Active; 'I' for Inactive)
REMARK    1  A    between atoms: C_5  and  O_10 
ROOT
HETATM    1  N   UNL     1      62.200   7.264  -0.339  1.00  0.00    -0.191 NA
HETATM    2  N   UNL     1      61.653  11.120   2.483  1.00  0.00    -0.345 N 
ATOM      3  HN  UNL     1      61.292  12.061   2.323  1.00  0.00     0.167 HD
HETATM    4  C   UNL     1      62.190   7.999   0.558  1.00  0.00     0.101 C 
HETATM    5  C   UNL     1      62.112  10.735   3.694  1.00  0.00     0.141 A 
HETATM    6  C   UNL     1      62.177   8.910   1.656  1.00  0.00     0.060 A 
HETATM    7  C   UNL     1      61.694  10.200   1.492  1.00  0.00     0.112 A 
HETATM    8  C   UNL     1      62.611   9.468   3.957  1.00  0.00     0.057 A 
HETATM    9  C   UNL     1      62.643   8.539   2.918  1.00  0.00     0.028 A 
ENDROOT
BRANCH   5  10
HETATM   10  O   UNL     1      62.097  11.625   4.747  1.00  0.00    -0.341 OA
HETATM   11  C   UNL     1      62.993  11.255   5.792  1.00  0.00     0.211 C 
ENDBRANCH   5  10
TORSDOF 1
ENDMDL
MODEL 5
REMARK VINA RESULT:      -4.1     19.129     20.357
REMARK  1 active torsions:
REMARK  status: ('A' for Active; 'I' for Inactive)
REMARK    1  A    between atoms: C_5  and  O_10 
ROOT
HETATM    1  N   UNL     1      69.764   1.829  10.884  1.00  0.00    -0.191 NA
HETATM    2  N   UNL     1      68.559   5.939   8.696  1.00  0.00    -0.345 N 
ATOM      3  HN  UNL     1      68.527   6.912   9.000  1.00  0.00     0.167 HD
HETATM    4  C   UNL     1      69.424   2.625  10.111  1.00  0.00     0.101 C 
HETATM    5  C   UNL     1      68.214   5.578   7.441  1.00  0.00     0.141 A 
HETATM    6  C   UNL     1      69.006   3.611   9.169  1.00  0.00     0.060 A 
HETATM    7  C   UNL     1      68.948   4.948   9.532  1.00  0.00     0.112 A 
HETATM    8  C   UNL     1      68.242   4.270   6.983  1.00  0.00     0.057 A 
HETATM    9  C   UNL     1      68.646   3.268   7.865  1.00  0.00     0.028 A 
ENDROOT
BRANCH   5  10
HETATM   10  O   UNL     1      67.808   6.540   6.539  1.00  0.00    -0.341 OA
HETATM   11  C   UNL     1      66.764   7.365   7.048  1.00  0.00     0.211 C 
ENDBRANCH   5  10
TORSDOF 1
ENDMDL
MODEL 6
REMARK VINA RESULT:      -4.1      2.333      2.965
REMARK  1 active torsions:
REMARK  status: ('A' for Active; 'I' for Inactive)
REMARK    1  A    between atoms: C_5  and  O_10 
ROOT
HETATM    1  N   UNL     1      70.417  25.800  15.727  1.00  0.00    -0.191 NA
HETATM    2  N   UNL     1      70.434  22.277  12.452  1.00  0.00    -0.345 N 
ATOM      3  HN  UNL     1      69.697  21.728  12.009  1.00  0.00     0.167 HD
HETATM    4  C   UNL     1      70.734  24.998  14.951  1.00  0.00     0.101 C 
HETATM    5  C   UNL     1      71.737  22.081  12.156  1.00  0.00     0.141 A 
HETATM    6  C   UNL     1      71.114  24.008  13.996  1.00  0.00     0.060 A 
HETATM    7  C   UNL     1      70.151  23.236  13.364  1.00  0.00     0.112 A 
HETATM    8  C   UNL     1      72.771  22.803  12.733  1.00  0.00     0.057 A 
HETATM    9  C   UNL     1      72.452  23.785  13.670  1.00  0.00     0.028 A 
ENDROOT
BRANCH   5  10
HETATM   10  O   UNL     1      72.094  21.119  11.234  1.00  0.00    -0.341 OA
HETATM   11  C   UNL     1      71.098  20.111  11.079  1.00  0.00     0.211 C 
ENDBRANCH   5  10
TORSDOF 1
ENDMDL
MODEL 7
REMARK VINA RESULT:      -4.0     19.130     20.360
REMARK  1 active torsions:
REMARK  status: ('A' for Active; 'I' for Inactive)
REMARK    1  A    between atoms: C_5  and  O_10 
ROOT
HETATM    1  N   UNL     1      62.607   5.544   5.842  1.00  0.00    -0.191 NA
HETATM    2  N   UNL     1      61.226   9.487   3.461  1.00  0.00    -0.345 N 
ATOM      3  HN  UNL     1      60.517   9.665   2.749  1.00  0.00     0.167 HD
HETATM    4  C   UNL     1      62.500   6.628   5.445  1.00  0.00     0.101 C 
HETATM    5  C   UNL     1      62.021  10.474   3.928  1.00  0.00     0.141 A 
HETATM    6  C   UNL     1      62.363   7.959   4.949  1.00  0.00     0.060 A 
HETATM    7  C   UNL     1      61.413   8.252   3.982  1.00  0.00     0.112 A 
HETATM    8  C   UNL     1      62.997  10.280   4.895  1.00  0.00     0.057 A 
HETATM    9  C   UNL     1      63.169   8.998   5.414  1.00  0.00     0.028 A 
ENDROOT
BRANCH   5  10
HETATM   10  O   UNL     1      61.882  11.756   3.439  1.00  0.00    -0.341 OA
HETATM   11  C   UNL     1      61.751  11.792   2.020  1.00  0.00     0.211 C 
ENDBRANCH   5  10
TORSDOF 1
ENDMDL
MODEL 8
REMARK VINA RESULT:      -4.0     19.895     21.089
REMARK  1 active torsions:
REMARK  status: ('A' for Active; 'I' for Inactive)
REMARK    1  A    between atoms: C_5  and  O_10 
ROOT
HETATM    1  N   UNL     1      70.543   0.954  10.396  1.00  0.00    -0.191 NA
HETATM    2  N   UNL     1      66.884   3.491   8.577  1.00  0.00    -0.345 N 
ATOM      3  HN  UNL     1      65.980   3.234   8.181  1.00  0.00     0.167 HD
HETATM    4  C   UNL     1      69.850   1.809  10.030  1.00  0.00     0.101 C 
HETATM    5  C   UNL     1      67.273   4.781   8.671  1.00  0.00     0.141 A 
HETATM    6  C   UNL     1      68.991   2.854   9.575  1.00  0.00     0.060 A 
HETATM    7  C   UNL     1      67.751   2.556   9.032  1.00  0.00     0.112 A 
HETATM    8  C   UNL     1      68.491   5.179   9.201  1.00  0.00     0.057 A 
HETATM    9  C   UNL     1      69.366   4.195   9.662  1.00  0.00     0.028 A 
ENDROOT
BRANCH   5  10
HETATM   10  O   UNL     1      66.436   5.784   8.226  1.00  0.00    -0.341 OA
HETATM   11  C   UNL     1      65.771   5.446   7.011  1.00  0.00     0.211 C 
ENDBRANCH   5  10
TORSDOF 1
ENDMDL
MODEL 9
REMARK VINA RESULT:      -3.9     18.307     19.055
REMARK  1 active torsions:
REMARK  status: ('A' for Active; 'I' for Inactive)
REMARK    1  A    between atoms: C_5  and  O_10 
ROOT
HETATM    1  N   UNL     1      65.791   8.580   5.567  1.00  0.00    -0.191 NA
HETATM    2  N   UNL     1      68.469   5.088   7.507  1.00  0.00    -0.345 N 
ATOM      3  HN  UNL     1      69.079   4.371   7.114  1.00  0.00     0.167 HD
HETATM    4  C   UNL     1      66.321   7.858   6.304  1.00  0.00     0.101 C 
HETATM    5  C   UNL     1      68.276   5.199   8.839  1.00  0.00     0.141 A 
HETATM    6  C   UNL     1      66.977   6.964   7.203  1.00  0.00     0.060 A 
HETATM    7  C   UNL     1      67.817   5.974   6.718  1.00  0.00     0.112 A 
HETATM    8  C   UNL     1      67.458   6.157   9.419  1.00  0.00     0.057 A 
HETATM    9  C   UNL     1      66.797   7.057   8.583  1.00  0.00     0.028 A 
ENDROOT
BRANCH   5  10
HETATM   10  O   UNL     1      68.912   4.328   9.699  1.00  0.00    -0.341 OA
HETATM   11  C   UNL     1      68.551   2.968   9.471  1.00  0.00     0.211 C 
ENDBRANCH   5  10
TORSDOF 1
ENDMDL
