MODEL 1
REMARK VINA RESULT:      -5.6      0.000      0.000
REMARK  3 active torsions:
REMARK  status: ('A' for Active; 'I' for Inactive)
REMARK    1  A    between atoms: N_1  and  C_3 
REMARK    2  A    between atoms: C_2  and  C_4 
REMARK    3  A    between atoms: C_2  and  N_11 
ROOT
HETATM    1  C   UNL     1      76.203   5.120  17.078  1.00  0.00     0.039 A 
HETATM    2  C   UNL     1      76.597   2.853  17.911  1.00  0.00     0.004 A 
HETATM    3  C   UNL     1      77.027   4.178  17.717  1.00  0.00     0.044 A 
HETATM    4  C   UNL     1      74.955   4.706  16.592  1.00  0.00     0.030 A 
HETATM    5  C   UNL     1      75.344   2.464  17.424  1.00  0.00     0.014 A 
HETATM    6  C   UNL     1      74.533   3.385  16.760  1.00  0.00     0.003 A 
ENDROOT
BRANCH   1   7
HETATM    7  N   UNL     1      76.616   6.485  16.960  1.00  0.00    -0.333 N 
HETATM    8  C   UNL     1      77.028   7.131  15.806  1.00  0.00     0.096 A 
HETATM    9  C   UNL     1      77.398   8.425  16.109  1.00  0.00     0.019 A 
HETATM   10  C   UNL     1      77.200   8.600  17.490  1.00  0.00     0.019 A 
HETATM   11  C   UNL     1      76.713   7.412  17.987  1.00  0.00     0.096 A 
ENDBRANCH   1   7
BRANCH   2  12
HETATM   12  C   UNL     1      77.439   1.882  18.672  1.00  0.00     0.104 C 
HETATM   13  S   UNL     1      77.563   0.244  18.352  1.00  0.00    -0.060 SA
BRANCH  12  14
HETATM   14  N   UNL     1      78.181   2.378  19.712  1.00  0.00    -0.390 N 
HETATM   15  H   UNL     1      77.732   2.716  20.521  1.00  0.00     0.157 HD
HETATM   16  H   UNL     1      79.164   2.398  19.651  1.00  0.00     0.157 HD
ENDBRANCH  12  14
ENDBRANCH   2  12
TORSDOF 3
ENDMDL
MODEL 2
REMARK VINA RESULT:      -5.5      2.361      5.375
REMARK  3 active torsions:
REMARK  status: ('A' for Active; 'I' for Inactive)
REMARK    1  A    between atoms: N_1  and  C_3 
REMARK    2  A    between atoms: C_2  and  C_4 
REMARK    3  A    between atoms: C_2  and  N_11 
ROOT
HETATM    1  C   UNL     1      76.498   2.736  17.848  1.00  0.00     0.039 A 
HETATM    2  C   UNL     1      76.162   4.965  16.896  1.00  0.00     0.004 A 
HETATM    3  C   UNL     1      76.965   4.034  17.578  1.00  0.00     0.044 A 
HETATM    4  C   UNL     1      75.193   2.394  17.466  1.00  0.00     0.030 A 
HETATM    5  C   UNL     1      74.865   4.599  16.518  1.00  0.00     0.014 A 
HETATM    6  C   UNL     1      74.382   3.323  16.811  1.00  0.00     0.003 A 
ENDROOT
BRANCH   1   7
HETATM    7  N   UNL     1      77.354   1.770  18.468  1.00  0.00    -0.333 N 
HETATM    8  C   UNL     1      77.407   0.413  18.198  1.00  0.00     0.096 A 
HETATM    9  C   UNL     1      78.317  -0.190  19.040  1.00  0.00     0.019 A 
HETATM   10  C   UNL     1      78.861   0.820  19.854  1.00  0.00     0.019 A 
HETATM   11  C   UNL     1      78.270   2.007  19.482  1.00  0.00     0.096 A 
ENDBRANCH   1   7
BRANCH   2  12
HETATM   12  C   UNL     1      76.697   6.311  16.531  1.00  0.00     0.104 C 
HETATM   13  S   UNL     1      76.989   7.563  17.601  1.00  0.00    -0.060 SA
BRANCH  12  14
HETATM   14  N   UNL     1      76.984   6.532  15.208  1.00  0.00    -0.390 N 
HETATM   15  H   UNL     1      77.690   6.008  14.764  1.00  0.00     0.157 HD
HETATM   16  H   UNL     1      76.485   7.213  14.703  1.00  0.00     0.157 HD
ENDBRANCH  12  14
ENDBRANCH   2  12
TORSDOF 3
ENDMDL
MODEL 3
REMARK VINA RESULT:      -5.2     17.251     18.544
REMARK  3 active torsions:
REMARK  status: ('A' for Active; 'I' for Inactive)
REMARK    1  A    between atoms: N_1  and  C_3 
REMARK    2  A    between atoms: C_2  and  C_4 
REMARK    3  A    between atoms: C_2  and  N_11 
ROOT
HETATM    1  C   UNL     1      63.127   8.383   4.650  1.00  0.00     0.039 A 
HETATM    2  C   UNL     1      65.028   7.499   5.914  1.00  0.00     0.004 A 
HETATM    3  C   UNL     1      64.500   8.379   4.952  1.00  0.00     0.044 A 
HETATM    4  C   UNL     1      62.292   7.459   5.294  1.00  0.00     0.030 A 
HETATM    5  C   UNL     1      64.172   6.591   6.549  1.00  0.00     0.014 A 
HETATM    6  C   UNL     1      62.814   6.567   6.232  1.00  0.00     0.003 A 
ENDROOT
BRANCH   1   7
HETATM    7  N   UNL     1      62.588   9.339   3.731  1.00  0.00    -0.333 N 
HETATM    8  C   UNL     1      62.385   9.161   2.372  1.00  0.00     0.096 A 
HETATM    9  C   UNL     1      61.901  10.328   1.821  1.00  0.00     0.019 A 
HETATM   10  C   UNL     1      61.786  11.263   2.866  1.00  0.00     0.019 A 
HETATM   11  C   UNL     1      62.197  10.637   4.021  1.00  0.00     0.096 A 
ENDBRANCH   1   7
BRANCH   2  12
HETATM   12  C   UNL     1      66.470   7.563   6.296  1.00  0.00     0.104 C 
HETATM   13  S   UNL     1      67.633   6.430   5.891  1.00  0.00    -0.060 SA
BRANCH  12  14
HETATM   14  N   UNL     1      66.875   8.648   7.029  1.00  0.00    -0.390 N 
HETATM   15  H   UNL     1      67.558   8.541   7.731  1.00  0.00     0.157 HD
HETATM   16  H   UNL     1      66.484   9.535   6.855  1.00  0.00     0.157 HD
ENDBRANCH  12  14
ENDBRANCH   2  12
TORSDOF 3
ENDMDL
MODEL 4
REMARK VINA RESULT:      -5.0     18.312     19.905
REMARK  3 active torsions:
REMARK  status: ('A' for Active; 'I' for Inactive)
REMARK    1  A    between atoms: N_1  and  C_3 
REMARK    2  A    between atoms: C_2  and  C_4 
REMARK    3  A    between atoms: C_2  and  N_11 
ROOT
HETATM    1  C   UNL     1      63.533   8.917   4.744  1.00  0.00     0.039 A 
HETATM    2  C   UNL     1      62.124   9.260   2.772  1.00  0.00     0.004 A 
HETATM    3  C   UNL     1      63.008   8.463   3.521  1.00  0.00     0.044 A 
HETATM    4  C   UNL     1      63.196  10.204   5.187  1.00  0.00     0.030 A 
HETATM    5  C   UNL     1      61.798  10.539   3.238  1.00  0.00     0.014 A 
HETATM    6  C   UNL     1      62.340  11.010   4.434  1.00  0.00     0.003 A 
ENDROOT
BRANCH   1   7
HETATM    7  N   UNL     1      64.364   8.065   5.539  1.00  0.00    -0.333 N 
HETATM    8  C   UNL     1      63.956   6.981   6.298  1.00  0.00     0.096 A 
HETATM    9  C   UNL     1      65.041   6.450   6.963  1.00  0.00     0.019 A 
HETATM   10  C   UNL     1      66.164   7.215   6.602  1.00  0.00     0.019 A 
HETATM   11  C   UNL     1      65.733   8.185   5.726  1.00  0.00     0.096 A 
ENDBRANCH   1   7
BRANCH   2  12
HETATM   12  C   UNL     1      61.499   8.736   1.521  1.00  0.00     0.104 C 
HETATM   13  S   UNL     1      62.317   8.004   0.258  1.00  0.00    -0.060 SA
BRANCH  12  14
HETATM   14  N   UNL     1      60.138   8.854   1.406  1.00  0.00    -0.390 N 
HETATM   15  H   UNL     1      59.550   8.484   2.105  1.00  0.00     0.157 HD
HETATM   16  H   UNL     1      59.747   9.309   0.625  1.00  0.00     0.157 HD
ENDBRANCH  12  14
ENDBRANCH   2  12
TORSDOF 3
ENDMDL
MODEL 5
REMARK VINA RESULT:      -4.7     13.892     15.581
REMARK  3 active torsions:
REMARK  status: ('A' for Active; 'I' for Inactive)
REMARK    1  A    between atoms: N_1  and  C_3 
REMARK    2  A    between atoms: C_2  and  C_4 
REMARK    3  A    between atoms: C_2  and  N_11 
ROOT
HETATM    1  C   UNL     1      67.221   6.124   6.670  1.00  0.00     0.039 A 
HETATM    2  C   UNL     1      65.044   6.988   5.958  1.00  0.00     0.004 A 
HETATM    3  C   UNL     1      65.818   6.134   6.764  1.00  0.00     0.044 A 
HETATM    4  C   UNL     1      67.840   6.951   5.721  1.00  0.00     0.030 A 
HETATM    5  C   UNL     1      65.685   7.809   5.023  1.00  0.00     0.014 A 
HETATM    6  C   UNL     1      67.075   7.782   4.900  1.00  0.00     0.003 A 
ENDROOT
BRANCH   1   7
HETATM    7  N   UNL     1      68.003   5.314   7.553  1.00  0.00    -0.333 N 
HETATM    8  C   UNL     1      68.525   4.059   7.285  1.00  0.00     0.096 A 
HETATM    9  C   UNL     1      69.171   3.580   8.404  1.00  0.00     0.019 A 
HETATM   10  C   UNL     1      69.063   4.567   9.401  1.00  0.00     0.019 A 
HETATM   11  C   UNL     1      68.359   5.619   8.858  1.00  0.00     0.096 A 
ENDBRANCH   1   7
BRANCH   2  12
HETATM   12  C   UNL     1      63.562   7.060   6.127  1.00  0.00     0.104 C 
HETATM   13  S   UNL     1      62.515   5.755   6.085  1.00  0.00    -0.060 SA
BRANCH  12  14
HETATM   14  N   UNL     1      63.018   8.298   6.349  1.00  0.00    -0.390 N 
HETATM   15  H   UNL     1      62.860   8.909   5.592  1.00  0.00     0.157 HD
HETATM   16  H   UNL     1      62.785   8.578   7.263  1.00  0.00     0.157 HD
ENDBRANCH  12  14
ENDBRANCH   2  12
TORSDOF 3
ENDMDL
MODEL 6
REMARK VINA RESULT:      -4.6     19.214     20.680
REMARK  3 active torsions:
REMARK  status: ('A' for Active; 'I' for Inactive)
REMARK    1  A    between atoms: N_1  and  C_3 
REMARK    2  A    between atoms: C_2  and  C_4 
REMARK    3  A    between atoms: C_2  and  N_11 
ROOT
HETATM    1  C   UNL     1      62.140   8.828   2.853  1.00  0.00     0.039 A 
HETATM    2  C   UNL     1      63.650   8.677   4.773  1.00  0.00     0.004 A 
HETATM    3  C   UNL     1      63.059   8.104   3.634  1.00  0.00     0.044 A 
HETATM    4  C   UNL     1      61.786  10.124   3.256  1.00  0.00     0.030 A 
HETATM    5  C   UNL     1      63.286   9.975   5.151  1.00  0.00     0.014 A 
HETATM    6  C   UNL     1      62.351  10.689   4.400  1.00  0.00     0.003 A 
ENDROOT
BRANCH   1   7
HETATM    7  N   UNL     1      61.608   8.266   1.649  1.00  0.00    -0.333 N 
HETATM    8  C   UNL     1      60.271   8.141   1.312  1.00  0.00     0.096 A 
HETATM    9  C   UNL     1      60.159   7.499   0.097  1.00  0.00     0.019 A 
HETATM   10  C   UNL     1      61.465   7.224  -0.348  1.00  0.00     0.019 A 
HETATM   11  C   UNL     1      62.332   7.710   0.605  1.00  0.00     0.096 A 
ENDBRANCH   1   7
BRANCH   2  12
HETATM   12  C   UNL     1      64.693   7.937   5.545  1.00  0.00     0.104 C 
HETATM   13  S   UNL     1      66.290   7.746   5.083  1.00  0.00    -0.060 SA
BRANCH  12  14
HETATM   14  N   UNL     1      64.311   7.380   6.737  1.00  0.00    -0.390 N 
HETATM   15  H   UNL     1      63.989   6.448   6.765  1.00  0.00     0.157 HD
HETATM   16  H   UNL     1      64.357   7.908   7.566  1.00  0.00     0.157 HD
ENDBRANCH  12  14
ENDBRANCH   2  12
TORSDOF 3
ENDMDL
MODEL 7
REMARK VINA RESULT:      -4.5     12.248     13.637
REMARK  3 active torsions:
REMARK  status: ('A' for Active; 'I' for Inactive)
REMARK    1  A    between atoms: N_1  and  C_3 
REMARK    2  A    between atoms: C_2  and  C_4 
REMARK    3  A    between atoms: C_2  and  N_11 
ROOT
HETATM    1  C   UNL     1      67.921   4.661   6.922  1.00  0.00     0.039 A 
HETATM    2  C   UNL     1      68.783   3.495   8.894  1.00  0.00     0.004 A 
HETATM    3  C   UNL     1      68.348   3.481   7.557  1.00  0.00     0.044 A 
HETATM    4  C   UNL     1      67.893   5.853   7.661  1.00  0.00     0.030 A 
HETATM    5  C   UNL     1      68.752   4.698   9.609  1.00  0.00     0.014 A 
HETATM    6  C   UNL     1      68.300   5.868   8.997  1.00  0.00     0.003 A 
ENDROOT
BRANCH   1   7
HETATM    7  N   UNL     1      67.560   4.652   5.538  1.00  0.00    -0.333 N 
HETATM    8  C   UNL     1      67.519   3.551   4.698  1.00  0.00     0.096 A 
HETATM    9  C   UNL     1      67.179   3.955   3.424  1.00  0.00     0.019 A 
HETATM   10  C   UNL     1      66.987   5.348   3.468  1.00  0.00     0.019 A 
HETATM   11  C   UNL     1      67.212   5.750   4.766  1.00  0.00     0.096 A 
ENDBRANCH   1   7
BRANCH   2  12
HETATM   12  C   UNL     1      69.321   2.257   9.534  1.00  0.00     0.104 C 
HETATM   13  S   UNL     1      69.409   0.750   8.811  1.00  0.00    -0.060 SA
BRANCH  12  14
HETATM   14  N   UNL     1      69.794   2.370  10.815  1.00  0.00    -0.390 N 
HETATM   15  H   UNL     1      70.219   3.209  11.111  1.00  0.00     0.157 HD
HETATM   16  H   UNL     1      69.709   1.615  11.441  1.00  0.00     0.157 HD
ENDBRANCH  12  14
ENDBRANCH   2  12
TORSDOF 3
ENDMDL
MODEL 8
REMARK VINA RESULT:      -4.5     16.704     18.291
REMARK  3 active torsions:
REMARK  status: ('A' for Active; 'I' for Inactive)
REMARK    1  A    between atoms: N_1  and  C_3 
REMARK    2  A    between atoms: C_2  and  C_4 
REMARK    3  A    between atoms: C_2  and  N_11 
ROOT
HETATM    1  C   UNL     1      64.972   7.211   4.863  1.00  0.00     0.039 A 
HETATM    2  C   UNL     1      63.243   8.767   4.101  1.00  0.00     0.004 A 
HETATM    3  C   UNL     1      64.193   8.366   5.057  1.00  0.00     0.044 A 
HETATM    4  C   UNL     1      64.753   6.434   3.715  1.00  0.00     0.030 A 
HETATM    5  C   UNL     1      63.048   7.980   2.960  1.00  0.00     0.014 A 
HETATM    6  C   UNL     1      63.793   6.815   2.776  1.00  0.00     0.003 A 
ENDROOT
BRANCH   1   7
HETATM    7  N   UNL     1      65.993   6.857   5.800  1.00  0.00    -0.333 N 
HETATM    8  C   UNL     1      67.180   6.198   5.526  1.00  0.00     0.096 A 
HETATM    9  C   UNL     1      67.874   5.991   6.698  1.00  0.00     0.019 A 
HETATM   10  C   UNL     1      67.108   6.547   7.738  1.00  0.00     0.019 A 
HETATM   11  C   UNL     1      65.973   7.080   7.169  1.00  0.00     0.096 A 
ENDBRANCH   1   7
BRANCH   2  12
HETATM   12  C   UNL     1      62.485  10.043   4.269  1.00  0.00     0.104 C 
HETATM   13  S   UNL     1      62.742  11.174   5.475  1.00  0.00    -0.060 SA
BRANCH  12  14
HETATM   14  N   UNL     1      61.506  10.315   3.348  1.00  0.00    -0.390 N 
HETATM   15  H   UNL     1      60.557  10.228   3.598  1.00  0.00     0.157 HD
HETATM   16  H   UNL     1      61.751  10.598   2.438  1.00  0.00     0.157 HD
ENDBRANCH  12  14
ENDBRANCH   2  12
TORSDOF 3
ENDMDL
MODEL 9
REMARK VINA RESULT:      -4.5     12.047     13.295
REMARK  3 active torsions:
REMARK  status: ('A' for Active; 'I' for Inactive)
REMARK    1  A    between atoms: N_1  and  C_3 
REMARK    2  A    between atoms: C_2  and  C_4 
REMARK    3  A    between atoms: C_2  and  N_11 
ROOT
HETATM    1  C   UNL     1      68.024   4.570   6.655  1.00  0.00     0.039 A 
HETATM    2  C   UNL     1      69.010   2.903   8.152  1.00  0.00     0.004 A 
HETATM    3  C   UNL     1      68.640   4.231   7.872  1.00  0.00     0.044 A 
HETATM    4  C   UNL     1      67.824   3.565   5.697  1.00  0.00     0.030 A 
HETATM    5  C   UNL     1      68.794   1.916   7.183  1.00  0.00     0.014 A 
HETATM    6  C   UNL     1      68.213   2.250   5.959  1.00  0.00     0.003 A 
ENDROOT
BRANCH   1   7
HETATM    7  N   UNL     1      67.576   5.908   6.414  1.00  0.00    -0.333 N 
HETATM    8  C   UNL     1      67.006   6.770   7.336  1.00  0.00     0.096 A 
HETATM    9  C   UNL     1      66.657   7.948   6.710  1.00  0.00     0.019 A 
HETATM   10  C   UNL     1      67.030   7.827   5.360  1.00  0.00     0.019 A 
HETATM   11  C   UNL     1      67.598   6.583   5.203  1.00  0.00     0.096 A 
ENDBRANCH   1   7
BRANCH   2  12
HETATM   12  C   UNL     1      69.578   2.534   9.483  1.00  0.00     0.104 C 
HETATM   13  S   UNL     1      70.080   1.003   9.934  1.00  0.00    -0.060 SA
BRANCH  12  14
HETATM   14  N   UNL     1      69.711   3.539  10.406  1.00  0.00    -0.390 N 
HETATM   15  H   UNL     1      69.729   3.325  11.368  1.00  0.00     0.157 HD
HETATM   16  H   UNL     1      69.789   4.474  10.109  1.00  0.00     0.157 HD
ENDBRANCH  12  14
ENDBRANCH   2  12
TORSDOF 3
ENDMDL
