MODEL 1
REMARK VINA RESULT:      -5.8      0.000      0.000
REMARK  2 active torsions:
REMARK  status: ('A' for Active; 'I' for Inactive)
REMARK    1  A    between atoms: C_1  and  C_2 
REMARK    2  A    between atoms: C_2  and  O_5 
ROOT
HETATM    1  C   UNL     1      77.698  11.212  19.326  1.00  0.00     0.078 A 
HETATM    2  C   UNL     1      78.325  11.916  20.358  1.00  0.00     0.132 A 
HETATM    3  F   UNL     1      79.439  11.464  20.951  1.00  0.00    -0.205 F 
HETATM    4  C   UNL     1      76.535  11.752  18.753  1.00  0.00     0.021 A 
HETATM    5  C   UNL     1      77.805  13.129  20.813  1.00  0.00     0.043 A 
HETATM    6  C   UNL     1      76.013  12.967  19.209  1.00  0.00     0.001 A 
HETATM    7  C   UNL     1      76.648  13.655  20.240  1.00  0.00     0.003 A 
ENDROOT
BRANCH   1   8
HETATM    8  C   UNL     1      78.194   9.917  18.796  1.00  0.00     0.296 C 
HETATM    9  O   UNL     1      79.255   9.811  18.197  1.00  0.00    -0.259 OA
BRANCH   8  10
HETATM   10  O   UNL     1      77.338   8.901  19.054  1.00  0.00    -0.322 OA
HETATM   11  C   UNL     1      76.979   8.123  17.912  1.00  0.00     0.213 C 
ENDBRANCH   8  10
ENDBRANCH   1   8
TORSDOF 2
ENDMDL
MODEL 2
REMARK VINA RESULT:      -5.2     13.911     14.463
REMARK  2 active torsions:
REMARK  status: ('A' for Active; 'I' for Inactive)
REMARK    1  A    between atoms: C_1  and  C_2 
REMARK    2  A    between atoms: C_2  and  O_5 
ROOT
HETATM    1  C   UNL     1      71.966  22.470  12.812  1.00  0.00     0.078 A 
HETATM    2  C   UNL     1      70.780  23.000  13.327  1.00  0.00     0.132 A 
HETATM    3  F   UNL     1      69.577  22.628  12.867  1.00  0.00    -0.205 F 
HETATM    4  C   UNL     1      73.188  22.909  13.348  1.00  0.00     0.021 A 
HETATM    5  C   UNL     1      70.807  23.949  14.351  1.00  0.00     0.043 A 
HETATM    6  C   UNL     1      73.216  23.860  14.374  1.00  0.00     0.001 A 
HETATM    7  C   UNL     1      72.025  24.380  14.875  1.00  0.00     0.003 A 
ENDROOT
BRANCH   1   8
HETATM    8  C   UNL     1      72.010  21.462  11.723  1.00  0.00     0.296 C 
HETATM    9  O   UNL     1      72.592  21.660  10.665  1.00  0.00    -0.259 OA
BRANCH   8  10
HETATM   10  O   UNL     1      71.339  20.332  12.047  1.00  0.00    -0.322 OA
HETATM   11  C   UNL     1      70.924  19.547  10.929  1.00  0.00     0.213 C 
ENDBRANCH   8  10
ENDBRANCH   1   8
TORSDOF 2
ENDMDL
MODEL 3
REMARK VINA RESULT:      -5.2      2.638      5.225
REMARK  2 active torsions:
REMARK  status: ('A' for Active; 'I' for Inactive)
REMARK    1  A    between atoms: C_1  and  C_2 
REMARK    2  A    between atoms: C_2  and  O_5 
ROOT
HETATM    1  C   UNL     1      77.557   8.970  17.016  1.00  0.00     0.078 A 
HETATM    2  C   UNL     1      77.602   9.091  15.625  1.00  0.00     0.132 A 
HETATM    3  F   UNL     1      77.983  10.225  15.022  1.00  0.00    -0.205 F 
HETATM    4  C   UNL     1      77.149   7.746  17.573  1.00  0.00     0.021 A 
HETATM    5  C   UNL     1      77.246   8.019  14.803  1.00  0.00     0.043 A 
HETATM    6  C   UNL     1      76.791   6.672  16.750  1.00  0.00     0.001 A 
HETATM    7  C   UNL     1      76.839   6.810  15.365  1.00  0.00     0.003 A 
ENDROOT
BRANCH   1   8
HETATM    8  C   UNL     1      77.918  10.068  17.948  1.00  0.00     0.296 C 
HETATM    9  O   UNL     1      78.929  10.043  18.636  1.00  0.00    -0.259 OA
BRANCH   8  10
HETATM   10  O   UNL     1      77.005  11.066  17.936  1.00  0.00    -0.322 OA
HETATM   11  C   UNL     1      77.015  11.894  19.098  1.00  0.00     0.213 C 
ENDBRANCH   8  10
ENDBRANCH   1   8
TORSDOF 2
ENDMDL
MODEL 4
REMARK VINA RESULT:      -5.2     20.317     21.452
REMARK  2 active torsions:
REMARK  status: ('A' for Active; 'I' for Inactive)
REMARK    1  A    between atoms: C_1  and  C_2 
REMARK    2  A    between atoms: C_2  and  O_5 
ROOT
HETATM    1  C   UNL     1      62.872   9.422   4.180  1.00  0.00     0.078 A 
HETATM    2  C   UNL     1      62.342  10.703   4.011  1.00  0.00     0.132 A 
HETATM    3  F   UNL     1      62.328  11.603   5.004  1.00  0.00    -0.205 F 
HETATM    4  C   UNL     1      62.853   8.536   3.090  1.00  0.00     0.021 A 
HETATM    5  C   UNL     1      61.802  11.096   2.785  1.00  0.00     0.043 A 
HETATM    6  C   UNL     1      62.310   8.928   1.861  1.00  0.00     0.001 A 
HETATM    7  C   UNL     1      61.784  10.209   1.710  1.00  0.00     0.003 A 
ENDROOT
BRANCH   1   8
HETATM    8  C   UNL     1      63.459   8.937   5.455  1.00  0.00     0.296 C 
HETATM    9  O   UNL     1      62.817   8.292   6.273  1.00  0.00    -0.259 OA
BRANCH   8  10
HETATM   10  O   UNL     1      64.756   9.296   5.587  1.00  0.00    -0.322 OA
HETATM   11  C   UNL     1      65.673   8.203   5.637  1.00  0.00     0.213 C 
ENDBRANCH   8  10
ENDBRANCH   1   8
TORSDOF 2
ENDMDL
MODEL 5
REMARK VINA RESULT:      -5.1     13.719     14.237
REMARK  2 active torsions:
REMARK  status: ('A' for Active; 'I' for Inactive)
REMARK    1  A    between atoms: C_1  and  C_2 
REMARK    2  A    between atoms: C_2  and  O_5 
ROOT
HETATM    1  C   UNL     1      71.985  22.566  12.890  1.00  0.00     0.078 A 
HETATM    2  C   UNL     1      73.110  23.131  13.496  1.00  0.00     0.132 A 
HETATM    3  F   UNL     1      74.356  22.792  13.138  1.00  0.00    -0.205 F 
HETATM    4  C   UNL     1      70.711  22.975  13.320  1.00  0.00     0.021 A 
HETATM    5  C   UNL     1      72.973  24.080  14.511  1.00  0.00     0.043 A 
HETATM    6  C   UNL     1      70.573  23.926  14.338  1.00  0.00     0.001 A 
HETATM    7  C   UNL     1      71.705  24.478  14.933  1.00  0.00     0.003 A 
ENDROOT
BRANCH   1   8
HETATM    8  C   UNL     1      72.057  21.550  11.809  1.00  0.00     0.296 C 
HETATM    9  O   UNL     1      72.694  21.726  10.780  1.00  0.00    -0.259 OA
BRANCH   8  10
HETATM   10  O   UNL     1      71.343  20.440  12.107  1.00  0.00    -0.322 OA
HETATM   11  C   UNL     1      70.983  19.645  10.977  1.00  0.00     0.213 C 
ENDBRANCH   8  10
ENDBRANCH   1   8
TORSDOF 2
ENDMDL
MODEL 6
REMARK VINA RESULT:      -5.1     12.763     14.043
REMARK  2 active torsions:
REMARK  status: ('A' for Active; 'I' for Inactive)
REMARK    1  A    between atoms: C_1  and  C_2 
REMARK    2  A    between atoms: C_2  and  O_5 
ROOT
HETATM    1  C   UNL     1      72.345  22.740  13.990  1.00  0.00     0.078 A 
HETATM    2  C   UNL     1      71.537  23.685  14.628  1.00  0.00     0.132 A 
HETATM    3  F   UNL     1      71.979  24.418  15.658  1.00  0.00    -0.205 F 
HETATM    4  C   UNL     1      71.809  22.012  12.914  1.00  0.00     0.021 A 
HETATM    5  C   UNL     1      70.222  23.900  14.208  1.00  0.00     0.043 A 
HETATM    6  C   UNL     1      70.492  22.226  12.494  1.00  0.00     0.001 A 
HETATM    7  C   UNL     1      69.699  23.170  13.142  1.00  0.00     0.003 A 
ENDROOT
BRANCH   1   8
HETATM    8  C   UNL     1      73.748  22.458  14.386  1.00  0.00     0.296 C 
HETATM    9  O   UNL     1      74.686  22.559  13.607  1.00  0.00    -0.259 OA
BRANCH   8  10
HETATM   10  O   UNL     1      73.845  22.084  15.682  1.00  0.00    -0.322 OA
HETATM   11  C   UNL     1      75.031  21.356  16.003  1.00  0.00     0.213 C 
ENDBRANCH   8  10
ENDBRANCH   1   8
TORSDOF 2
ENDMDL
MODEL 7
REMARK VINA RESULT:      -5.0      5.056      8.137
REMARK  2 active torsions:
REMARK  status: ('A' for Active; 'I' for Inactive)
REMARK    1  A    between atoms: C_1  and  C_2 
REMARK    2  A    between atoms: C_2  and  O_5 
ROOT
HETATM    1  C   UNL     1      76.143   4.679  17.167  1.00  0.00     0.078 A 
HETATM    2  C   UNL     1      74.894   4.206  16.755  1.00  0.00     0.132 A 
HETATM    3  F   UNL     1      74.006   4.994  16.135  1.00  0.00    -0.205 F 
HETATM    4  C   UNL     1      77.021   3.790  17.811  1.00  0.00     0.021 A 
HETATM    5  C   UNL     1      74.524   2.878  16.980  1.00  0.00     0.043 A 
HETATM    6  C   UNL     1      76.650   2.460  18.037  1.00  0.00     0.001 A 
HETATM    7  C   UNL     1      75.401   2.005  17.622  1.00  0.00     0.003 A 
ENDROOT
BRANCH   1   8
HETATM    8  C   UNL     1      76.599   6.077  16.964  1.00  0.00     0.296 C 
HETATM    9  O   UNL     1      76.860   6.532  15.859  1.00  0.00    -0.259 OA
BRANCH   8  10
HETATM   10  O   UNL     1      76.689   6.757  18.130  1.00  0.00    -0.322 OA
HETATM   11  C   UNL     1      76.950   8.153  17.985  1.00  0.00     0.213 C 
ENDBRANCH   8  10
ENDBRANCH   1   8
TORSDOF 2
ENDMDL
MODEL 8
REMARK VINA RESULT:      -4.9      6.523      9.717
REMARK  2 active torsions:
REMARK  status: ('A' for Active; 'I' for Inactive)
REMARK    1  A    between atoms: C_1  and  C_2 
REMARK    2  A    between atoms: C_2  and  O_5 
ROOT
HETATM    1  C   UNL     1      76.256   2.604  17.564  1.00  0.00     0.078 A 
HETATM    2  C   UNL     1      75.012   2.592  16.928  1.00  0.00     0.132 A 
HETATM    3  F   UNL     1      74.225   3.675  16.885  1.00  0.00    -0.205 F 
HETATM    4  C   UNL     1      77.024   1.428  17.564  1.00  0.00     0.021 A 
HETATM    5  C   UNL     1      74.540   1.434  16.306  1.00  0.00     0.043 A 
HETATM    6  C   UNL     1      76.552   0.267  16.942  1.00  0.00     0.001 A 
HETATM    7  C   UNL     1      75.309   0.271  16.313  1.00  0.00     0.003 A 
ENDROOT
BRANCH   1   8
HETATM    8  C   UNL     1      76.817   3.797  18.248  1.00  0.00     0.296 C 
HETATM    9  O   UNL     1      77.004   3.838  19.456  1.00  0.00    -0.259 OA
BRANCH   8  10
HETATM   10  O   UNL     1      77.082   4.802  17.381  1.00  0.00    -0.322 OA
HETATM   11  C   UNL     1      76.452   6.042  17.699  1.00  0.00     0.213 C 
ENDBRANCH   8  10
ENDBRANCH   1   8
TORSDOF 2
ENDMDL
MODEL 9
REMARK VINA RESULT:      -4.6     19.596     20.704
REMARK  2 active torsions:
REMARK  status: ('A' for Active; 'I' for Inactive)
REMARK    1  A    between atoms: C_1  and  C_2 
REMARK    2  A    between atoms: C_2  and  O_5 
ROOT
HETATM    1  C   UNL     1      63.552   9.116   4.738  1.00  0.00     0.078 A 
HETATM    2  C   UNL     1      63.107   8.691   3.484  1.00  0.00     0.132 A 
HETATM    3  F   UNL     1      63.476   7.514   2.960  1.00  0.00    -0.205 F 
HETATM    4  C   UNL     1      63.119  10.363   5.220  1.00  0.00     0.021 A 
HETATM    5  C   UNL     1      62.250   9.489   2.723  1.00  0.00     0.043 A 
HETATM    6  C   UNL     1      62.262  11.163   4.457  1.00  0.00     0.001 A 
HETATM    7  C   UNL     1      61.828  10.726   3.208  1.00  0.00     0.003 A 
ENDROOT
BRANCH   1   8
HETATM    8  C   UNL     1      64.466   8.321   5.598  1.00  0.00     0.296 C 
HETATM    9  O   UNL     1      64.060   7.508   6.416  1.00  0.00    -0.259 OA
BRANCH   8  10
HETATM   10  O   UNL     1      65.766   8.612   5.364  1.00  0.00    -0.322 OA
HETATM   11  C   UNL     1      66.669   8.146   6.367  1.00  0.00     0.213 C 
ENDBRANCH   8  10
ENDBRANCH   1   8
TORSDOF 2
ENDMDL
