MODEL 1
REMARK VINA RESULT:      -4.6      0.000      0.000
REMARK  3 active torsions:
REMARK  status: ('A' for Active; 'I' for Inactive)
REMARK    1  A    between atoms: C_1  and  C_5 
REMARK    2  A    between atoms: C_5  and  O_9 
REMARK    3  A    between atoms: O_9  and  C_11 
ROOT
HETATM    1  C   UNL     1      77.679  10.566  18.445  1.00  0.00     0.115 A 
HETATM    2  N   UNL     1      76.790  11.641  18.547  1.00  0.00    -0.349 N 
ATOM      3  HN  UNL     1      76.016  11.821  17.906  1.00  0.00     0.166 HD
HETATM    4  C   UNL     1      78.658  10.553  19.426  1.00  0.00     0.087 A 
HETATM    5  C   UNL     1      77.095  12.386  19.588  1.00  0.00     0.047 A 
HETATM    6  S   UNL     1      78.465  11.876  20.491  1.00  0.00    -0.087 SA
HETATM    7  C   UNL     1      76.342  13.598  20.017  1.00  0.00     0.076 C 
ENDROOT
BRANCH   1   8
HETATM    8  C   UNL     1      77.593   9.539  17.405  1.00  0.00     0.310 C 
HETATM    9  O   UNL     1      76.871   8.549  17.511  1.00  0.00    -0.258 OA
BRANCH   8  10
HETATM   10  O   UNL     1      78.389   9.793  16.327  1.00  0.00    -0.317 OA
BRANCH  10  11
HETATM   11  C   UNL     1      77.709  10.220  15.138  1.00  0.00     0.175 C 
HETATM   12  C   UNL     1      77.958   9.260  13.988  1.00  0.00     0.034 C 
ENDBRANCH  10  11
ENDBRANCH   8  10
ENDBRANCH   1   8
TORSDOF 3
ENDMDL
MODEL 2
REMARK VINA RESULT:      -4.4      7.137      8.376
REMARK  3 active torsions:
REMARK  status: ('A' for Active; 'I' for Inactive)
REMARK    1  A    between atoms: C_1  and  C_5 
REMARK    2  A    between atoms: C_5  and  O_9 
REMARK    3  A    between atoms: O_9  and  C_11 
ROOT
HETATM    1  C   UNL     1      76.892   2.861  18.015  1.00  0.00     0.115 A 
HETATM    2  N   UNL     1      77.719   2.743  19.137  1.00  0.00    -0.349 N 
ATOM      3  HN  UNL     1      78.028   3.523  19.719  1.00  0.00     0.166 HD
HETATM    4  C   UNL     1      76.633   1.657  17.380  1.00  0.00     0.087 A 
HETATM    5  C   UNL     1      78.043   1.483  19.332  1.00  0.00     0.047 A 
HETATM    6  S   UNL     1      77.410   0.368  18.188  1.00  0.00    -0.087 SA
HETATM    7  C   UNL     1      78.888   0.985  20.453  1.00  0.00     0.076 C 
ENDROOT
BRANCH   1   8
HETATM    8  C   UNL     1      76.339   4.134  17.547  1.00  0.00     0.310 C 
HETATM    9  O   UNL     1      75.434   4.197  16.718  1.00  0.00    -0.258 OA
BRANCH   8  10
HETATM   10  O   UNL     1      76.930   5.223  18.117  1.00  0.00    -0.317 OA
BRANCH  10  11
HETATM   11  C   UNL     1      76.224   6.463  17.969  1.00  0.00     0.175 C 
HETATM   12  C   UNL     1      77.166   7.588  17.578  1.00  0.00     0.034 C 
ENDBRANCH  10  11
ENDBRANCH   8  10
ENDBRANCH   1   8
TORSDOF 3
ENDMDL
MODEL 3
REMARK VINA RESULT:      -4.4      7.894      9.119
REMARK  3 active torsions:
REMARK  status: ('A' for Active; 'I' for Inactive)
REMARK    1  A    between atoms: C_1  and  C_5 
REMARK    2  A    between atoms: C_5  and  O_9 
REMARK    3  A    between atoms: O_9  and  C_11 
ROOT
HETATM    1  C   UNL     1      76.434   2.250  18.170  1.00  0.00     0.115 A 
HETATM    2  N   UNL     1      75.150   1.754  18.417  1.00  0.00    -0.349 N 
ATOM      3  HN  UNL     1      74.423   2.247  18.938  1.00  0.00     0.166 HD
HETATM    4  C   UNL     1      77.244   1.381  17.457  1.00  0.00     0.087 A 
HETATM    5  C   UNL     1      75.013   0.560  17.882  1.00  0.00     0.047 A 
HETATM    6  S   UNL     1      76.401  -0.057  17.079  1.00  0.00    -0.087 SA
HETATM    7  C   UNL     1      73.766  -0.254  17.923  1.00  0.00     0.076 C 
ENDROOT
BRANCH   1   8
HETATM    8  C   UNL     1      76.892   3.568  18.614  1.00  0.00     0.310 C 
HETATM    9  O   UNL     1      77.111   3.829  19.796  1.00  0.00    -0.258 OA
BRANCH   8  10
HETATM   10  O   UNL     1      77.043   4.461  17.594  1.00  0.00    -0.317 OA
BRANCH  10  11
HETATM   11  C   UNL     1      76.200   5.621  17.654  1.00  0.00     0.175 C 
HETATM   12  C   UNL     1      77.002   6.893  17.437  1.00  0.00     0.034 C 
ENDBRANCH  10  11
ENDBRANCH   8  10
ENDBRANCH   1   8
TORSDOF 3
ENDMDL
MODEL 4
REMARK VINA RESULT:      -4.4      7.307      8.474
REMARK  3 active torsions:
REMARK  status: ('A' for Active; 'I' for Inactive)
REMARK    1  A    between atoms: C_1  and  C_5 
REMARK    2  A    between atoms: C_5  and  O_9 
REMARK    3  A    between atoms: O_9  and  C_11 
ROOT
HETATM    1  C   UNL     1      76.737   3.161  17.857  1.00  0.00     0.115 A 
HETATM    2  N   UNL     1      77.296   4.418  18.110  1.00  0.00    -0.349 N 
ATOM      3  HN  UNL     1      78.140   4.582  18.660  1.00  0.00     0.166 HD
HETATM    4  C   UNL     1      75.576   3.205  17.101  1.00  0.00     0.087 A 
HETATM    5  C   UNL     1      76.577   5.359  17.536  1.00  0.00     0.047 A 
HETATM    6  S   UNL     1      75.184   4.817  16.688  1.00  0.00    -0.087 SA
HETATM    7  C   UNL     1      76.895   6.814  17.571  1.00  0.00     0.076 C 
ENDROOT
BRANCH   1   8
HETATM    8  C   UNL     1      77.316   1.905  18.339  1.00  0.00     0.310 C 
HETATM    9  O   UNL     1      77.293   0.870  17.677  1.00  0.00    -0.258 OA
BRANCH   8  10
HETATM   10  O   UNL     1      77.870   2.007  19.581  1.00  0.00    -0.317 OA
BRANCH  10  11
HETATM   11  C   UNL     1      78.856   1.015  19.905  1.00  0.00     0.175 C 
HETATM   12  C   UNL     1      78.532   0.330  21.221  1.00  0.00     0.034 C 
ENDBRANCH  10  11
ENDBRANCH   8  10
ENDBRANCH   1   8
TORSDOF 3
ENDMDL
MODEL 5
REMARK VINA RESULT:      -4.4     14.980     16.546
REMARK  3 active torsions:
REMARK  status: ('A' for Active; 'I' for Inactive)
REMARK    1  A    between atoms: C_1  and  C_5 
REMARK    2  A    between atoms: C_5  and  O_9 
REMARK    3  A    between atoms: O_9  and  C_11 
ROOT
HETATM    1  C   UNL     1      66.857   7.174   6.797  1.00  0.00     0.115 A 
HETATM    2  N   UNL     1      68.122   6.619   7.015  1.00  0.00    -0.349 N 
ATOM      3  HN  UNL     1      68.953   6.820   6.456  1.00  0.00     0.166 HD
HETATM    4  C   UNL     1      65.888   6.725   7.680  1.00  0.00     0.087 A 
HETATM    5  C   UNL     1      68.088   5.799   8.044  1.00  0.00     0.047 A 
HETATM    6  S   UNL     1      66.554   5.616   8.797  1.00  0.00    -0.087 SA
HETATM    7  C   UNL     1      69.262   5.055   8.579  1.00  0.00     0.076 C 
ENDROOT
BRANCH   1   8
HETATM    8  C   UNL     1      66.570   8.145   5.739  1.00  0.00     0.310 C 
HETATM    9  O   UNL     1      67.315   8.314   4.776  1.00  0.00    -0.258 OA
BRANCH   8  10
HETATM   10  O   UNL     1      65.409   8.834   5.938  1.00  0.00    -0.317 OA
BRANCH  10  11
HETATM   11  C   UNL     1      64.411   8.676   4.919  1.00  0.00     0.175 C 
HETATM   12  C   UNL     1      63.271   9.660   5.111  1.00  0.00     0.034 C 
ENDBRANCH  10  11
ENDBRANCH   8  10
ENDBRANCH   1   8
TORSDOF 3
ENDMDL
MODEL 6
REMARK VINA RESULT:      -4.3      7.863      9.003
REMARK  3 active torsions:
REMARK  status: ('A' for Active; 'I' for Inactive)
REMARK    1  A    between atoms: C_1  and  C_5 
REMARK    2  A    between atoms: C_5  and  O_9 
REMARK    3  A    between atoms: O_9  and  C_11 
ROOT
HETATM    1  C   UNL     1      77.217   2.421  18.392  1.00  0.00     0.115 A 
HETATM    2  N   UNL     1      78.043   2.253  19.508  1.00  0.00    -0.349 N 
ATOM      3  HN  UNL     1      78.354   3.006  20.123  1.00  0.00     0.166 HD
HETATM    4  C   UNL     1      76.953   1.245  17.707  1.00  0.00     0.087 A 
HETATM    5  C   UNL     1      78.360   0.984  19.652  1.00  0.00     0.047 A 
HETATM    6  S   UNL     1      77.724  -0.080  18.462  1.00  0.00    -0.087 SA
HETATM    7  C   UNL     1      79.201   0.437  20.752  1.00  0.00     0.076 C 
ENDROOT
BRANCH   1   8
HETATM    8  C   UNL     1      76.671   3.714  17.976  1.00  0.00     0.310 C 
HETATM    9  O   UNL     1      77.010   4.774  18.498  1.00  0.00    -0.258 OA
BRANCH   8  10
HETATM   10  O   UNL     1      75.757   3.617  16.967  1.00  0.00    -0.317 OA
BRANCH  10  11
HETATM   11  C   UNL     1      75.101   4.840  16.602  1.00  0.00     0.175 C 
HETATM   12  C   UNL     1      73.592   4.679  16.624  1.00  0.00     0.034 C 
ENDBRANCH  10  11
ENDBRANCH   8  10
ENDBRANCH   1   8
TORSDOF 3
ENDMDL
MODEL 7
REMARK VINA RESULT:      -4.2      2.589      4.766
REMARK  3 active torsions:
REMARK  status: ('A' for Active; 'I' for Inactive)
REMARK    1  A    between atoms: C_1  and  C_5 
REMARK    2  A    between atoms: C_5  and  O_9 
REMARK    3  A    between atoms: O_9  and  C_11 
ROOT
HETATM    1  C   UNL     1      77.861   9.421  17.778  1.00  0.00     0.115 A 
HETATM    2  N   UNL     1      78.014   9.759  16.430  1.00  0.00    -0.349 N 
ATOM      3  HN  UNL     1      78.390  10.644  16.089  1.00  0.00     0.166 HD
HETATM    4  C   UNL     1      77.308   8.167  17.984  1.00  0.00     0.087 A 
HETATM    5  C   UNL     1      77.604   8.770  15.664  1.00  0.00     0.047 A 
HETATM    6  S   UNL     1      76.989   7.396  16.492  1.00  0.00    -0.087 SA
HETATM    7  C   UNL     1      77.648   8.772  14.176  1.00  0.00     0.076 C 
ENDROOT
BRANCH   1   8
HETATM    8  C   UNL     1      78.250  10.301  18.883  1.00  0.00     0.310 C 
HETATM    9  O   UNL     1      79.422  10.474  19.210  1.00  0.00    -0.258 OA
BRANCH   8  10
HETATM   10  O   UNL     1      77.188  10.893  19.502  1.00  0.00    -0.317 OA
BRANCH  10  11
HETATM   11  C   UNL     1      76.793  12.168  18.974  1.00  0.00     0.175 C 
HETATM   12  C   UNL     1      76.558  13.173  20.088  1.00  0.00     0.034 C 
ENDBRANCH  10  11
ENDBRANCH   8  10
ENDBRANCH   1   8
TORSDOF 3
ENDMDL
MODEL 8
REMARK VINA RESULT:      -4.2     18.015     19.484
REMARK  3 active torsions:
REMARK  status: ('A' for Active; 'I' for Inactive)
REMARK    1  A    between atoms: C_1  and  C_5 
REMARK    2  A    between atoms: C_5  and  O_9 
REMARK    3  A    between atoms: O_9  and  C_11 
ROOT
HETATM    1  C   UNL     1      63.948   9.049   5.048  1.00  0.00     0.115 A 
HETATM    2  N   UNL     1      65.057   8.817   5.868  1.00  0.00    -0.349 N 
ATOM      3  HN  UNL     1      65.356   9.424   6.631  1.00  0.00     0.166 HD
HETATM    4  C   UNL     1      63.763   8.087   4.067  1.00  0.00     0.087 A 
HETATM    5  C   UNL     1      65.659   7.702   5.512  1.00  0.00     0.047 A 
HETATM    6  S   UNL     1      64.966   6.878   4.173  1.00  0.00    -0.087 SA
HETATM    7  C   UNL     1      66.858   7.130   6.186  1.00  0.00     0.076 C 
ENDROOT
BRANCH   1   8
HETATM    8  C   UNL     1      63.053  10.198   5.203  1.00  0.00     0.310 C 
HETATM    9  O   UNL     1      63.220  11.055   6.068  1.00  0.00    -0.258 OA
BRANCH   8  10
HETATM   10  O   UNL     1      62.028  10.211   4.302  1.00  0.00    -0.317 OA
BRANCH  10  11
HETATM   11  C   UNL     1      61.890  11.415   3.534  1.00  0.00     0.175 C 
HETATM   12  C   UNL     1      61.867  11.116   2.046  1.00  0.00     0.034 C 
ENDBRANCH  10  11
ENDBRANCH   8  10
ENDBRANCH   1   8
TORSDOF 3
ENDMDL
MODEL 9
REMARK VINA RESULT:      -4.1     14.529     16.124
REMARK  3 active torsions:
REMARK  status: ('A' for Active; 'I' for Inactive)
REMARK    1  A    between atoms: C_1  and  C_5 
REMARK    2  A    between atoms: C_5  and  O_9 
REMARK    3  A    between atoms: O_9  and  C_11 
ROOT
HETATM    1  C   UNL     1      67.008   6.165   7.815  1.00  0.00     0.115 A 
HETATM    2  N   UNL     1      68.390   6.295   7.984  1.00  0.00    -0.349 N 
ATOM      3  HN  UNL     1      68.927   7.137   7.774  1.00  0.00     0.166 HD
HETATM    4  C   UNL     1      66.516   4.913   8.151  1.00  0.00     0.087 A 
HETATM    5  C   UNL     1      68.898   5.174   8.452  1.00  0.00     0.047 A 
HETATM    6  S   UNL     1      67.777   3.895   8.695  1.00  0.00    -0.087 SA
HETATM    7  C   UNL     1      70.335   4.964   8.780  1.00  0.00     0.076 C 
ENDROOT
BRANCH   1   8
HETATM    8  C   UNL     1      66.146   7.246   7.332  1.00  0.00     0.310 C 
HETATM    9  O   UNL     1      66.593   8.309   6.907  1.00  0.00    -0.258 OA
BRANCH   8  10
HETATM   10  O   UNL     1      64.815   6.952   7.408  1.00  0.00    -0.317 OA
BRANCH  10  11
HETATM   11  C   UNL     1      64.124   6.870   6.153  1.00  0.00     0.175 C 
HETATM   12  C   UNL     1      62.722   7.443   6.261  1.00  0.00     0.034 C 
ENDBRANCH  10  11
ENDBRANCH   8  10
ENDBRANCH   1   8
TORSDOF 3
ENDMDL
