MODEL 1
REMARK VINA RESULT:      -6.7      0.000      0.000
REMARK  4 active torsions:
REMARK  status: ('A' for Active; 'I' for Inactive)
REMARK    1  A    between atoms: C_3  and  C_8 
REMARK    2  A    between atoms: C_4  and  C_9 
REMARK    3  A    between atoms: C_7  and  O_10 
REMARK    4  A    between atoms: O_10  and  C_17 
ROOT
HETATM    1  C   UNL     1      78.154  10.332  19.068  1.00  0.00    -0.002 A 
HETATM    2  C   UNL     1      77.217  11.269  19.534  1.00  0.00     0.017 A 
HETATM    3  C   UNL     1      79.467  10.425  19.550  1.00  0.00     0.017 A 
HETATM    4  C   UNL     1      78.857  12.276  21.005  1.00  0.00     0.078 A 
HETATM    5  C   UNL     1      77.566  12.240  20.486  1.00  0.00     0.038 A 
HETATM    6  C   UNL     1      79.811  11.388  20.504  1.00  0.00     0.038 A 
ENDROOT
BRANCH   1   7
HETATM    7  C   UNL     1      77.739   9.311  18.089  1.00  0.00     0.085 A 
HETATM    8  N   UNL     1      77.346   8.090  18.404  1.00  0.00    -0.347 N 
HETATM    9  C   UNL     1      77.036   7.361  17.255  1.00  0.00     0.085 A 
ATOM     10  HN  UNL     1      77.279   7.729  19.356  1.00  0.00     0.167 HD
HETATM   11  C   UNL     1      77.236   8.050  16.074  1.00  0.00     0.085 A 
HETATM   12  S   UNL     1      77.802   9.629  16.394  1.00  0.00    -0.081 SA
BRANCH   9  13
HETATM   13  C   UNL     1      76.542   5.985  17.314  1.00  0.00     0.172 C 
HETATM   14  O   UNL     1      76.771   5.251  18.279  1.00  0.00    -0.291 OA
HETATM   15  C   UNL     1      75.735   5.487  16.141  1.00  0.00     0.098 C 
ENDBRANCH   9  13
ENDBRANCH   1   7
BRANCH   4  16
HETATM   16  O   UNL     1      79.333  13.136  21.945  1.00  0.00    -0.255 OA
BRANCH  16  17
HETATM   17  C   UNL     1      79.755  12.640  23.207  1.00  0.00     0.530 C 
HETATM   18  F   UNL     1      81.001  12.122  23.206  1.00  0.00    -0.144 F 
HETATM   19  F   UNL     1      79.738  13.663  24.091  1.00  0.00    -0.144 F 
HETATM   20  F   UNL     1      78.887  11.701  23.635  1.00  0.00    -0.144 F 
ENDBRANCH  16  17
ENDBRANCH   4  16
TORSDOF 4
ENDMDL
MODEL 2
REMARK VINA RESULT:      -6.6      2.904      4.118
REMARK  4 active torsions:
REMARK  status: ('A' for Active; 'I' for Inactive)
REMARK    1  A    between atoms: C_3  and  C_8 
REMARK    2  A    between atoms: C_4  and  C_9 
REMARK    3  A    between atoms: C_7  and  O_10 
REMARK    4  A    between atoms: O_10  and  C_17 
ROOT
HETATM    1  C   UNL     1      79.105  12.164  21.932  1.00  0.00    -0.002 A 
HETATM    2  C   UNL     1      78.616  11.719  23.171  1.00  0.00     0.017 A 
HETATM    3  C   UNL     1      80.346  12.815  21.915  1.00  0.00     0.017 A 
HETATM    4  C   UNL     1      80.620  12.467  24.306  1.00  0.00     0.078 A 
HETATM    5  C   UNL     1      79.359  11.877  24.350  1.00  0.00     0.038 A 
HETATM    6  C   UNL     1      81.089  12.966  23.090  1.00  0.00     0.038 A 
ENDROOT
BRANCH   1   7
HETATM    7  C   UNL     1      78.305  11.952  20.712  1.00  0.00     0.085 A 
HETATM    8  N   UNL     1      78.468  10.942  19.877  1.00  0.00    -0.347 N 
HETATM    9  C   UNL     1      77.568  11.033  18.814  1.00  0.00     0.085 A 
ATOM     10  HN  UNL     1      79.156  10.198  19.993  1.00  0.00     0.167 HD
HETATM   11  C   UNL     1      76.752  12.147  18.853  1.00  0.00     0.085 A 
HETATM   12  S   UNL     1      77.095  13.088  20.236  1.00  0.00    -0.081 SA
BRANCH   9  13
HETATM   13  C   UNL     1      77.507  10.024  17.755  1.00  0.00     0.172 C 
HETATM   14  O   UNL     1      77.946  10.241  16.623  1.00  0.00    -0.291 OA
HETATM   15  C   UNL     1      76.883   8.695  18.099  1.00  0.00     0.098 C 
ENDBRANCH   9  13
ENDBRANCH   1   7
BRANCH   4  16
HETATM   16  O   UNL     1      81.463  12.663  25.355  1.00  0.00    -0.255 OA
BRANCH  16  17
HETATM   17  C   UNL     1      81.218  13.720  26.271  1.00  0.00     0.530 C 
HETATM   18  F   UNL     1      80.137  14.470  25.970  1.00  0.00    -0.144 F 
HETATM   19  F   UNL     1      81.015  13.182  27.495  1.00  0.00    -0.144 F 
HETATM   20  F   UNL     1      82.303  14.518  26.337  1.00  0.00    -0.144 F 
ENDBRANCH  16  17
ENDBRANCH   4  16
TORSDOF 4
ENDMDL
MODEL 3
REMARK VINA RESULT:      -6.4     17.124     19.780
REMARK  4 active torsions:
REMARK  status: ('A' for Active; 'I' for Inactive)
REMARK    1  A    between atoms: C_3  and  C_8 
REMARK    2  A    between atoms: C_4  and  C_9 
REMARK    3  A    between atoms: C_7  and  O_10 
REMARK    4  A    between atoms: O_10  and  C_17 
ROOT
HETATM    1  C   UNL     1      64.899   7.469   5.527  1.00  0.00    -0.002 A 
HETATM    2  C   UNL     1      64.711   6.395   6.411  1.00  0.00     0.017 A 
HETATM    3  C   UNL     1      66.212   7.907   5.301  1.00  0.00     0.017 A 
HETATM    4  C   UNL     1      67.099   6.151   6.729  1.00  0.00     0.078 A 
HETATM    5  C   UNL     1      65.798   5.747   7.016  1.00  0.00     0.038 A 
HETATM    6  C   UNL     1      67.295   7.256   5.899  1.00  0.00     0.038 A 
ENDROOT
BRANCH   1   7
HETATM    7  C   UNL     1      63.731   8.104   4.891  1.00  0.00     0.085 A 
HETATM    8  N   UNL     1      63.623   9.397   4.646  1.00  0.00    -0.347 N 
HETATM    9  C   UNL     1      62.395   9.685   4.050  1.00  0.00     0.085 A 
ATOM     10  HN  UNL     1      64.340  10.091   4.862  1.00  0.00     0.167 HD
HETATM   11  C   UNL     1      61.572   8.587   3.885  1.00  0.00     0.085 A 
HETATM   12  S   UNL     1      62.340   7.175   4.462  1.00  0.00    -0.081 SA
BRANCH   9  13
HETATM   13  C   UNL     1      62.024  11.040   3.642  1.00  0.00     0.172 C 
HETATM   14  O   UNL     1      61.906  11.958   4.459  1.00  0.00    -0.291 OA
HETATM   15  C   UNL     1      61.787  11.282   2.172  1.00  0.00     0.098 C 
ENDBRANCH   9  13
ENDBRANCH   1   7
BRANCH   4  16
HETATM   16  O   UNL     1      68.246   5.607   7.215  1.00  0.00    -0.255 OA
BRANCH  16  17
HETATM   17  C   UNL     1      68.472   5.567   8.617  1.00  0.00     0.530 C 
HETATM   18  F   UNL     1      67.922   6.597   9.293  1.00  0.00    -0.144 F 
HETATM   19  F   UNL     1      67.934   4.425   9.101  1.00  0.00    -0.144 F 
HETATM   20  F   UNL     1      69.799   5.541   8.858  1.00  0.00    -0.144 F 
ENDBRANCH  16  17
ENDBRANCH   4  16
TORSDOF 4
ENDMDL
MODEL 4
REMARK VINA RESULT:      -6.1     16.000     18.608
REMARK  4 active torsions:
REMARK  status: ('A' for Active; 'I' for Inactive)
REMARK    1  A    between atoms: C_3  and  C_8 
REMARK    2  A    between atoms: C_4  and  C_9 
REMARK    3  A    between atoms: C_7  and  O_10 
REMARK    4  A    between atoms: O_10  and  C_17 
ROOT
HETATM    1  C   UNL     1      66.159   6.718   6.660  1.00  0.00    -0.002 A 
HETATM    2  C   UNL     1      67.252   6.016   6.127  1.00  0.00     0.017 A 
HETATM    3  C   UNL     1      66.011   6.738   8.054  1.00  0.00     0.017 A 
HETATM    4  C   UNL     1      68.069   5.476   8.342  1.00  0.00     0.078 A 
HETATM    5  C   UNL     1      68.194   5.390   6.958  1.00  0.00     0.038 A 
HETATM    6  C   UNL     1      66.954   6.121   8.880  1.00  0.00     0.038 A 
ENDROOT
BRANCH   1   7
HETATM    7  C   UNL     1      65.208   7.386   5.752  1.00  0.00     0.085 A 
HETATM    8  N   UNL     1      64.590   8.521   6.021  1.00  0.00    -0.347 N 
HETATM    9  C   UNL     1      63.746   8.883   4.970  1.00  0.00     0.085 A 
ATOM     10  HN  UNL     1      64.712   9.060   6.879  1.00  0.00     0.167 HD
HETATM   11  C   UNL     1      63.720   7.979   3.925  1.00  0.00     0.085 A 
HETATM   12  S   UNL     1      64.770   6.671   4.244  1.00  0.00    -0.081 SA
BRANCH   9  13
HETATM   13  C   UNL     1      62.961  10.118   4.990  1.00  0.00     0.172 C 
HETATM   14  O   UNL     1      63.029  10.919   5.925  1.00  0.00    -0.291 OA
HETATM   15  C   UNL     1      62.054  10.382   3.814  1.00  0.00     0.098 C 
ENDBRANCH   9  13
ENDBRANCH   1   7
BRANCH   4  16
HETATM   16  O   UNL     1      68.912   4.947   9.269  1.00  0.00    -0.255 OA
BRANCH  16  17
HETATM   17  C   UNL     1      68.943   3.542   9.476  1.00  0.00     0.530 C 
HETATM   18  F   UNL     1      67.725   2.977   9.599  1.00  0.00    -0.144 F 
HETATM   19  F   UNL     1      69.555   2.971   8.414  1.00  0.00    -0.144 F 
HETATM   20  F   UNL     1      69.670   3.267  10.579  1.00  0.00    -0.144 F 
ENDBRANCH  16  17
ENDBRANCH   4  16
TORSDOF 4
ENDMDL
MODEL 5
REMARK VINA RESULT:      -6.1     16.945     19.556
REMARK  4 active torsions:
REMARK  status: ('A' for Active; 'I' for Inactive)
REMARK    1  A    between atoms: C_3  and  C_8 
REMARK    2  A    between atoms: C_4  and  C_9 
REMARK    3  A    between atoms: C_7  and  O_10 
REMARK    4  A    between atoms: O_10  and  C_17 
ROOT
HETATM    1  C   UNL     1      65.046   7.350   5.859  1.00  0.00    -0.002 A 
HETATM    2  C   UNL     1      66.217   8.036   6.222  1.00  0.00     0.017 A 
HETATM    3  C   UNL     1      64.741   6.167   6.548  1.00  0.00     0.017 A 
HETATM    4  C   UNL     1      66.683   6.443   7.987  1.00  0.00     0.078 A 
HETATM    5  C   UNL     1      67.035   7.583   7.269  1.00  0.00     0.038 A 
HETATM    6  C   UNL     1      65.554   5.721   7.595  1.00  0.00     0.038 A 
ENDROOT
BRANCH   1   7
HETATM    7  C   UNL     1      64.199   7.875   4.773  1.00  0.00     0.085 A 
HETATM    8  N   UNL     1      63.597   9.050   4.797  1.00  0.00    -0.347 N 
HETATM    9  C   UNL     1      62.859   9.248   3.629  1.00  0.00     0.085 A 
ATOM     10  HN  UNL     1      63.663   9.721   5.562  1.00  0.00     0.167 HD
HETATM   11  C   UNL     1      62.894   8.185   2.747  1.00  0.00     0.085 A 
HETATM   12  S   UNL     1      63.869   6.928   3.368  1.00  0.00    -0.081 SA
BRANCH   9  13
HETATM   13  C   UNL     1      62.116  10.484   3.376  1.00  0.00     0.172 C 
HETATM   14  O   UNL     1      61.749  11.222   4.292  1.00  0.00    -0.291 OA
HETATM   15  C   UNL     1      61.811  10.827   1.939  1.00  0.00     0.098 C 
ENDBRANCH   9  13
ENDBRANCH   1   7
BRANCH   4  16
HETATM   16  O   UNL     1      67.357   5.902   9.035  1.00  0.00    -0.255 OA
BRANCH  16  17
HETATM   17  C   UNL     1      68.569   5.197   8.809  1.00  0.00     0.530 C 
HETATM   18  F   UNL     1      69.634   5.993   8.580  1.00  0.00    -0.144 F 
HETATM   19  F   UNL     1      68.840   4.456   9.907  1.00  0.00    -0.144 F 
HETATM   20  F   UNL     1      68.413   4.358   7.764  1.00  0.00    -0.144 F 
ENDBRANCH  16  17
ENDBRANCH   4  16
TORSDOF 4
ENDMDL
MODEL 6
REMARK VINA RESULT:      -5.8     16.626     17.985
REMARK  4 active torsions:
REMARK  status: ('A' for Active; 'I' for Inactive)
REMARK    1  A    between atoms: C_3  and  C_8 
REMARK    2  A    between atoms: C_4  and  C_9 
REMARK    3  A    between atoms: C_7  and  O_10 
REMARK    4  A    between atoms: O_10  and  C_17 
ROOT
HETATM    1  C   UNL     1      67.577   5.214   7.752  1.00  0.00    -0.002 A 
HETATM    2  C   UNL     1      67.139   6.403   8.356  1.00  0.00     0.017 A 
HETATM    3  C   UNL     1      67.462   5.107   6.359  1.00  0.00     0.017 A 
HETATM    4  C   UNL     1      66.597   7.375   6.205  1.00  0.00     0.078 A 
HETATM    5  C   UNL     1      66.643   7.471   7.593  1.00  0.00     0.038 A 
HETATM    6  C   UNL     1      66.974   6.175   5.599  1.00  0.00     0.038 A 
ENDROOT
BRANCH   1   7
HETATM    7  C   UNL     1      68.118   4.127   8.587  1.00  0.00     0.085 A 
HETATM    8  N   UNL     1      67.408   3.112   9.046  1.00  0.00    -0.347 N 
HETATM    9  C   UNL     1      68.204   2.263   9.816  1.00  0.00     0.085 A 
ATOM     10  HN  UNL     1      66.415   2.968   8.862  1.00  0.00     0.167 HD
HETATM   11  C   UNL     1      69.514   2.680   9.953  1.00  0.00     0.085 A 
HETATM   12  S   UNL     1      69.767   4.138   9.100  1.00  0.00    -0.081 SA
BRANCH   9  13
HETATM   13  C   UNL     1      67.679   1.039  10.422  1.00  0.00     0.172 C 
HETATM   14  O   UNL     1      67.065   1.052  11.492  1.00  0.00    -0.291 OA
HETATM   15  C   UNL     1      67.917  -0.256   9.686  1.00  0.00     0.098 C 
ENDBRANCH   9  13
ENDBRANCH   1   7
BRANCH   4  16
HETATM   16  O   UNL     1      66.169   8.330   5.337  1.00  0.00    -0.255 OA
BRANCH  16  17
HETATM   17  C   UNL     1      64.780   8.497   5.097  1.00  0.00     0.530 C 
HETATM   18  F   UNL     1      64.345   9.766   5.239  1.00  0.00    -0.144 F 
HETATM   19  F   UNL     1      64.520   8.114   3.826  1.00  0.00    -0.144 F 
HETATM   20  F   UNL     1      64.081   7.696   5.928  1.00  0.00    -0.144 F 
ENDBRANCH  16  17
ENDBRANCH   4  16
TORSDOF 4
ENDMDL
MODEL 7
REMARK VINA RESULT:      -5.6     15.842     18.087
REMARK  4 active torsions:
REMARK  status: ('A' for Active; 'I' for Inactive)
REMARK    1  A    between atoms: C_3  and  C_8 
REMARK    2  A    between atoms: C_4  and  C_9 
REMARK    3  A    between atoms: C_7  and  O_10 
REMARK    4  A    between atoms: O_10  and  C_17 
ROOT
HETATM    1  C   UNL     1      67.467   5.306   6.703  1.00  0.00    -0.002 A 
HETATM    2  C   UNL     1      67.888   4.010   6.364  1.00  0.00     0.017 A 
HETATM    3  C   UNL     1      67.838   5.808   7.958  1.00  0.00     0.017 A 
HETATM    4  C   UNL     1      69.109   3.792   8.445  1.00  0.00     0.078 A 
HETATM    5  C   UNL     1      68.693   3.254   7.230  1.00  0.00     0.038 A 
HETATM    6  C   UNL     1      68.646   5.055   8.816  1.00  0.00     0.038 A 
ENDROOT
BRANCH   1   7
HETATM    7  C   UNL     1      66.646   6.079   5.752  1.00  0.00     0.085 A 
HETATM    8  N   UNL     1      65.937   7.145   6.072  1.00  0.00    -0.347 N 
HETATM    9  C   UNL     1      65.260   7.639   4.956  1.00  0.00     0.085 A 
ATOM     10  HN  UNL     1      65.890   7.553   7.006  1.00  0.00     0.167 HD
HETATM   11  C   UNL     1      65.450   6.902   3.803  1.00  0.00     0.085 A 
HETATM   12  S   UNL     1      66.497   5.586   4.104  1.00  0.00    -0.081 SA
BRANCH   9  13
HETATM   13  C   UNL     1      64.423   8.838   5.019  1.00  0.00     0.172 C 
HETATM   14  O   UNL     1      64.680   9.773   5.781  1.00  0.00    -0.291 OA
HETATM   15  C   UNL     1      63.220   8.892   4.110  1.00  0.00     0.098 C 
ENDBRANCH   9  13
ENDBRANCH   1   7
BRANCH   4  16
HETATM   16  O   UNL     1      69.905   3.193   9.369  1.00  0.00    -0.255 OA
BRANCH  16  17
HETATM   17  C   UNL     1      69.421   2.080  10.106  1.00  0.00     0.530 C 
HETATM   18  F   UNL     1      68.091   2.105  10.330  1.00  0.00    -0.144 F 
HETATM   19  F   UNL     1      69.698   0.956   9.407  1.00  0.00    -0.144 F 
HETATM   20  F   UNL     1      70.066   2.009  11.288  1.00  0.00    -0.144 F 
ENDBRANCH  16  17
ENDBRANCH   4  16
TORSDOF 4
ENDMDL
MODEL 8
REMARK VINA RESULT:      -5.6     17.304     19.905
REMARK  4 active torsions:
REMARK  status: ('A' for Active; 'I' for Inactive)
REMARK    1  A    between atoms: C_3  and  C_8 
REMARK    2  A    between atoms: C_4  and  C_9 
REMARK    3  A    between atoms: C_7  and  O_10 
REMARK    4  A    between atoms: O_10  and  C_17 
ROOT
HETATM    1  C   UNL     1      65.130   7.741   5.342  1.00  0.00    -0.002 A 
HETATM    2  C   UNL     1      64.841   6.957   6.471  1.00  0.00     0.017 A 
HETATM    3  C   UNL     1      66.470   7.845   4.943  1.00  0.00     0.017 A 
HETATM    4  C   UNL     1      67.167   6.323   6.707  1.00  0.00     0.078 A 
HETATM    5  C   UNL     1      65.850   6.263   7.156  1.00  0.00     0.038 A 
HETATM    6  C   UNL     1      67.473   7.147   5.622  1.00  0.00     0.038 A 
ENDROOT
BRANCH   1   7
HETATM    7  C   UNL     1      64.036   8.431   4.635  1.00  0.00     0.085 A 
HETATM    8  N   UNL     1      63.584   8.090   3.442  1.00  0.00    -0.347 N 
HETATM    9  C   UNL     1      62.558   8.946   3.040  1.00  0.00     0.085 A 
ATOM     10  HN  UNL     1      63.936   7.307   2.890  1.00  0.00     0.167 HD
HETATM   11  C   UNL     1      62.275   9.955   3.941  1.00  0.00     0.085 A 
HETATM   12  S   UNL     1      63.284   9.829   5.312  1.00  0.00    -0.081 SA
BRANCH   9  13
HETATM   13  C   UNL     1      61.853   8.776   1.769  1.00  0.00     0.172 C 
HETATM   14  O   UNL     1      62.234   9.329   0.734  1.00  0.00    -0.291 OA
HETATM   15  C   UNL     1      60.630   7.894   1.767  1.00  0.00     0.098 C 
ENDBRANCH   9  13
ENDBRANCH   1   7
BRANCH   4  16
HETATM   16  O   UNL     1      68.240   5.688   7.248  1.00  0.00    -0.255 OA
BRANCH  16  17
HETATM   17  C   UNL     1      68.364   5.583   8.659  1.00  0.00     0.530 C 
HETATM   18  F   UNL     1      67.737   4.513   9.189  1.00  0.00    -0.144 F 
HETATM   19  F   UNL     1      69.678   5.481   8.963  1.00  0.00    -0.144 F 
HETATM   20  F   UNL     1      67.886   6.705   9.236  1.00  0.00    -0.144 F 
ENDBRANCH  16  17
ENDBRANCH   4  16
TORSDOF 4
ENDMDL
MODEL 9
REMARK VINA RESULT:      -5.5     18.590     21.291
REMARK  4 active torsions:
REMARK  status: ('A' for Active; 'I' for Inactive)
REMARK    1  A    between atoms: C_3  and  C_8 
REMARK    2  A    between atoms: C_4  and  C_9 
REMARK    3  A    between atoms: C_7  and  O_10 
REMARK    4  A    between atoms: O_10  and  C_17 
ROOT
HETATM    1  C   UNL     1      64.544   7.549   5.105  1.00  0.00    -0.002 A 
HETATM    2  C   UNL     1      64.247   8.921   5.093  1.00  0.00     0.017 A 
HETATM    3  C   UNL     1      63.690   6.689   4.400  1.00  0.00     0.017 A 
HETATM    4  C   UNL     1      62.359   8.567   3.618  1.00  0.00     0.078 A 
HETATM    5  C   UNL     1      63.159   9.427   4.366  1.00  0.00     0.038 A 
HETATM    6  C   UNL     1      62.611   7.195   3.671  1.00  0.00     0.038 A 
ENDROOT
BRANCH   1   7
HETATM    7  C   UNL     1      65.714   7.062   5.858  1.00  0.00     0.085 A 
HETATM    8  N   UNL     1      65.779   6.994   7.176  1.00  0.00    -0.347 N 
HETATM    9  C   UNL     1      67.022   6.506   7.582  1.00  0.00     0.085 A 
ATOM     10  HN  UNL     1      65.025   7.261   7.809  1.00  0.00     0.167 HD
HETATM   11  C   UNL     1      67.896   6.243   6.545  1.00  0.00     0.085 A 
HETATM   12  S   UNL     1      67.161   6.590   5.044  1.00  0.00    -0.081 SA
BRANCH   9  13
HETATM   13  C   UNL     1      67.355   6.298   8.992  1.00  0.00     0.172 C 
HETATM   14  O   UNL     1      68.390   5.723   9.339  1.00  0.00    -0.291 OA
HETATM   15  C   UNL     1      66.378   6.814  10.019  1.00  0.00     0.098 C 
ENDBRANCH   9  13
ENDBRANCH   1   7
BRANCH   4  16
HETATM   16  O   UNL     1      61.293   8.912   2.847  1.00  0.00    -0.255 OA
BRANCH  16  17
HETATM   17  C   UNL     1      61.503   9.534   1.588  1.00  0.00     0.530 C 
HETATM   18  F   UNL     1      61.565  10.881   1.643  1.00  0.00    -0.144 F 
HETATM   19  F   UNL     1      62.677   9.090   1.086  1.00  0.00    -0.144 F 
HETATM   20  F   UNL     1      60.519   9.173   0.739  1.00  0.00    -0.144 F 
ENDBRANCH  16  17
ENDBRANCH   4  16
TORSDOF 4
ENDMDL
