MODEL 1
REMARK VINA RESULT:      -5.6      0.000      0.000
REMARK  3 active torsions:
REMARK  status: ('A' for Active; 'I' for Inactive)
REMARK    1  A    between atoms: C_1  and  N_2 
REMARK    2  A    between atoms: C_1  and  N_6 
REMARK    3  A    between atoms: N_2  and  C_3 
ROOT
HETATM    1  C   UNL     1      77.471   8.730  17.041  1.00  0.00     0.040 A 
HETATM    2  C   UNL     1      77.049   7.451  16.628  1.00  0.00    -0.035 A 
HETATM    3  C   UNL     1      77.836   9.669  16.068  1.00  0.00     0.030 A 
HETATM    4  C   UNL     1      76.624   6.351  17.564  1.00  0.00     0.050 C 
HETATM    5  C   UNL     1      77.000   7.161  15.249  1.00  0.00     0.009 A 
HETATM    6  C   UNL     1      77.771   9.371  14.708  1.00  0.00     0.002 A 
HETATM    7  C   UNL     1      77.353   8.115  14.297  1.00  0.00     0.001 A 
ENDROOT
BRANCH   1   8
HETATM    8  N   UNL     1      77.632   9.029  18.415  1.00  0.00    -0.333 N 
HETATM    9  H   UNL     1      77.303   8.345  19.041  1.00  0.00     0.168 HD
BRANCH   8  10
HETATM   10  C   UNL     1      78.185  10.147  18.991  1.00  0.00     0.170 C 
HETATM   11  S   UNL     1      77.448  11.543  19.517  1.00  0.00    -0.041 SA
BRANCH  10  12
HETATM   12  N   UNL     1      79.529  10.004  19.194  1.00  0.00    -0.376 N 
HETATM   13  H   UNL     1      79.876   9.848  20.102  1.00  0.00     0.158 HD
HETATM   14  H   UNL     1      80.150  10.056  18.432  1.00  0.00     0.158 HD
ENDBRANCH  10  12
ENDBRANCH   8  10
ENDBRANCH   1   8
TORSDOF 3
ENDMDL
MODEL 2
REMARK VINA RESULT:      -5.1      3.090      4.174
REMARK  3 active torsions:
REMARK  status: ('A' for Active; 'I' for Inactive)
REMARK    1  A    between atoms: C_1  and  N_2 
REMARK    2  A    between atoms: C_1  and  N_6 
REMARK    3  A    between atoms: N_2  and  C_3 
ROOT
HETATM    1  C   UNL     1      76.976   7.276  16.662  1.00  0.00     0.040 A 
HETATM    2  C   UNL     1      77.379   8.574  17.032  1.00  0.00    -0.035 A 
HETATM    3  C   UNL     1      76.941   6.941  15.302  1.00  0.00     0.030 A 
HETATM    4  C   UNL     1      77.467   9.066  18.452  1.00  0.00     0.050 C 
HETATM    5  C   UNL     1      77.741   9.490  16.023  1.00  0.00     0.009 A 
HETATM    6  C   UNL     1      77.313   7.854  14.317  1.00  0.00     0.002 A 
HETATM    7  C   UNL     1      77.713   9.131  14.677  1.00  0.00     0.001 A 
ENDROOT
BRANCH   1   8
HETATM    8  N   UNL     1      76.508   6.360  17.633  1.00  0.00    -0.333 N 
HETATM    9  H   UNL     1      76.468   6.701  18.556  1.00  0.00     0.168 HD
BRANCH   8  10
HETATM   10  C   UNL     1      76.103   5.059  17.462  1.00  0.00     0.170 C 
HETATM   11  S   UNL     1      76.893   3.644  17.842  1.00  0.00    -0.041 SA
BRANCH  10  12
HETATM   12  N   UNL     1      74.834   4.981  16.961  1.00  0.00    -0.376 N 
HETATM   13  H   UNL     1      74.088   4.720  17.549  1.00  0.00     0.158 HD
HETATM   14  H   UNL     1      74.665   5.187  16.014  1.00  0.00     0.158 HD
ENDBRANCH  10  12
ENDBRANCH   8  10
ENDBRANCH   1   8
TORSDOF 3
ENDMDL
MODEL 3
REMARK VINA RESULT:      -5.0      3.795      5.167
REMARK  3 active torsions:
REMARK  status: ('A' for Active; 'I' for Inactive)
REMARK    1  A    between atoms: C_1  and  N_2 
REMARK    2  A    between atoms: C_1  and  N_6 
REMARK    3  A    between atoms: N_2  and  C_3 
ROOT
HETATM    1  C   UNL     1      78.374  12.062  20.259  1.00  0.00     0.040 A 
HETATM    2  C   UNL     1      77.167  12.452  19.646  1.00  0.00    -0.035 A 
HETATM    3  C   UNL     1      78.988  10.872  19.847  1.00  0.00     0.030 A 
HETATM    4  C   UNL     1      76.405  13.705  19.988  1.00  0.00     0.050 C 
HETATM    5  C   UNL     1      76.621  11.638  18.633  1.00  0.00     0.009 A 
HETATM    6  C   UNL     1      78.442  10.084  18.835  1.00  0.00     0.002 A 
HETATM    7  C   UNL     1      77.256  10.466  18.228  1.00  0.00     0.001 A 
ENDROOT
BRANCH   1   8
HETATM    8  N   UNL     1      78.902  12.795  21.348  1.00  0.00    -0.333 N 
HETATM    9  H   UNL     1      78.877  13.774  21.254  1.00  0.00     0.168 HD
BRANCH   8  10
HETATM   10  C   UNL     1      79.445  12.323  22.518  1.00  0.00     0.170 C 
HETATM   11  S   UNL     1      80.945  12.609  23.181  1.00  0.00    -0.041 SA
BRANCH  10  12
HETATM   12  N   UNL     1      78.554  11.567  23.226  1.00  0.00    -0.376 N 
HETATM   13  H   UNL     1      78.872  10.808  23.767  1.00  0.00     0.158 HD
HETATM   14  H   UNL     1      77.594  11.782  23.197  1.00  0.00     0.158 HD
ENDBRANCH  10  12
ENDBRANCH   8  10
ENDBRANCH   1   8
TORSDOF 3
ENDMDL
MODEL 4
REMARK VINA RESULT:      -4.9      3.298      4.554
REMARK  3 active torsions:
REMARK  status: ('A' for Active; 'I' for Inactive)
REMARK    1  A    between atoms: C_1  and  N_2 
REMARK    2  A    between atoms: C_1  and  N_6 
REMARK    3  A    between atoms: N_2  and  C_3 
ROOT
HETATM    1  C   UNL     1      76.918   7.330  16.606  1.00  0.00     0.040 A 
HETATM    2  C   UNL     1      77.344   8.290  15.669  1.00  0.00    -0.035 A 
HETATM    3  C   UNL     1      76.899   7.672  17.964  1.00  0.00     0.030 A 
HETATM    4  C   UNL     1      77.409   8.059  14.182  1.00  0.00     0.050 C 
HETATM    5  C   UNL     1      77.731   9.567  16.126  1.00  0.00     0.009 A 
HETATM    6  C   UNL     1      77.273   8.942  18.400  1.00  0.00     0.002 A 
HETATM    7  C   UNL     1      77.690   9.891  17.480  1.00  0.00     0.001 A 
ENDROOT
BRANCH   1   8
HETATM    8  N   UNL     1      76.619   6.008  16.201  1.00  0.00    -0.333 N 
HETATM    9  H   UNL     1      76.821   5.794  15.261  1.00  0.00     0.168 HD
BRANCH   8  10
HETATM   10  C   UNL     1      76.085   4.982  16.943  1.00  0.00     0.170 C 
HETATM   11  S   UNL     1      76.846   3.893  17.946  1.00  0.00    -0.041 SA
BRANCH  10  12
HETATM   12  N   UNL     1      74.723   4.941  16.852  1.00  0.00    -0.376 N 
HETATM   13  H   UNL     1      74.169   5.178  17.631  1.00  0.00     0.158 HD
HETATM   14  H   UNL     1      74.294   4.675  16.007  1.00  0.00     0.158 HD
ENDBRANCH  10  12
ENDBRANCH   8  10
ENDBRANCH   1   8
TORSDOF 3
ENDMDL
MODEL 5
REMARK VINA RESULT:      -4.6     18.729     19.871
REMARK  3 active torsions:
REMARK  status: ('A' for Active; 'I' for Inactive)
REMARK    1  A    between atoms: C_1  and  N_2 
REMARK    2  A    between atoms: C_1  and  N_6 
REMARK    3  A    between atoms: N_2  and  C_3 
ROOT
HETATM    1  C   UNL     1      62.772   9.271   3.825  1.00  0.00     0.040 A 
HETATM    2  C   UNL     1      62.491  10.595   4.213  1.00  0.00    -0.035 A 
HETATM    3  C   UNL     1      62.490   8.878   2.509  1.00  0.00     0.030 A 
HETATM    4  C   UNL     1      62.747  11.151   5.588  1.00  0.00     0.050 C 
HETATM    5  C   UNL     1      61.944  11.484   3.265  1.00  0.00     0.009 A 
HETATM    6  C   UNL     1      61.960   9.771   1.580  1.00  0.00     0.002 A 
HETATM    7  C   UNL     1      61.686  11.076   1.958  1.00  0.00     0.001 A 
ENDROOT
BRANCH   1   8
HETATM    8  N   UNL     1      63.224   8.321   4.770  1.00  0.00    -0.333 N 
HETATM    9  H   UNL     1      62.541   7.976   5.388  1.00  0.00     0.168 HD
BRANCH   8  10
HETATM   10  C   UNL     1      64.490   7.814   4.940  1.00  0.00     0.170 C 
HETATM   11  S   UNL     1      65.295   6.654   4.058  1.00  0.00    -0.041 SA
BRANCH  10  12
HETATM   12  N   UNL     1      65.157   8.438   5.956  1.00  0.00    -0.376 N 
HETATM   13  H   UNL     1      65.776   9.178   5.758  1.00  0.00     0.158 HD
HETATM   14  H   UNL     1      65.019   8.148   6.886  1.00  0.00     0.158 HD
ENDBRANCH  10  12
ENDBRANCH   8  10
ENDBRANCH   1   8
TORSDOF 3
ENDMDL
MODEL 6
REMARK VINA RESULT:      -4.6     19.122     20.273
REMARK  3 active torsions:
REMARK  status: ('A' for Active; 'I' for Inactive)
REMARK    1  A    between atoms: C_1  and  N_2 
REMARK    2  A    between atoms: C_1  and  N_6 
REMARK    3  A    between atoms: N_2  and  C_3 
ROOT
HETATM    1  C   UNL     1      62.352   9.132   3.590  1.00  0.00     0.040 A 
HETATM    2  C   UNL     1      62.251   9.044   2.188  1.00  0.00    -0.035 A 
HETATM    3  C   UNL     1      62.179  10.380   4.203  1.00  0.00     0.030 A 
HETATM    4  C   UNL     1      62.409   7.769   1.402  1.00  0.00     0.050 C 
HETATM    5  C   UNL     1      61.973  10.211   1.448  1.00  0.00     0.009 A 
HETATM    6  C   UNL     1      61.892  11.523   3.458  1.00  0.00     0.002 A 
HETATM    7  C   UNL     1      61.789  11.439   2.078  1.00  0.00     0.001 A 
ENDROOT
BRANCH   1   8
HETATM    8  N   UNL     1      62.730   8.008   4.360  1.00  0.00    -0.333 N 
HETATM    9  H   UNL     1      62.233   7.178   4.175  1.00  0.00     0.168 HD
BRANCH   8  10
HETATM   10  C   UNL     1      63.697   7.918   5.332  1.00  0.00     0.170 C 
HETATM   11  S   UNL     1      65.346   8.102   5.206  1.00  0.00    -0.041 SA
BRANCH  10  12
HETATM   12  N   UNL     1      63.158   7.709   6.570  1.00  0.00    -0.376 N 
HETATM   13  H   UNL     1      62.320   8.158   6.825  1.00  0.00     0.158 HD
HETATM   14  H   UNL     1      63.608   7.108   7.207  1.00  0.00     0.158 HD
ENDBRANCH  10  12
ENDBRANCH   8  10
ENDBRANCH   1   8
TORSDOF 3
ENDMDL
MODEL 7
REMARK VINA RESULT:      -4.6      2.694      3.749
REMARK  3 active torsions:
REMARK  status: ('A' for Active; 'I' for Inactive)
REMARK    1  A    between atoms: C_1  and  N_2 
REMARK    2  A    between atoms: C_1  and  N_6 
REMARK    3  A    between atoms: N_2  and  C_3 
ROOT
HETATM    1  C   UNL     1      77.377   8.197  16.128  1.00  0.00     0.040 A 
HETATM    2  C   UNL     1      77.109   8.037  17.501  1.00  0.00    -0.035 A 
HETATM    3  C   UNL     1      77.045   7.158  15.248  1.00  0.00     0.030 A 
HETATM    4  C   UNL     1      77.408   9.071  18.553  1.00  0.00     0.050 C 
HETATM    5  C   UNL     1      76.508   6.840  17.945  1.00  0.00     0.009 A 
HETATM    6  C   UNL     1      76.441   5.986  15.700  1.00  0.00     0.002 A 
HETATM    7  C   UNL     1      76.173   5.826  17.051  1.00  0.00     0.001 A 
ENDROOT
BRANCH   1   8
HETATM    8  N   UNL     1      78.069   9.336  15.654  1.00  0.00    -0.333 N 
HETATM    9  H   UNL     1      78.849   9.612  16.187  1.00  0.00     0.168 HD
BRANCH   8  10
HETATM   10  C   UNL     1      77.799  10.109  14.551  1.00  0.00     0.170 C 
HETATM   11  S   UNL     1      77.911   9.725  12.935  1.00  0.00    -0.041 SA
BRANCH  10  12
HETATM   12  N   UNL     1      77.312  11.338  14.895  1.00  0.00    -0.376 N 
HETATM   13  H   UNL     1      77.933  12.074  15.102  1.00  0.00     0.158 HD
HETATM   14  H   UNL     1      76.340  11.489  14.936  1.00  0.00     0.158 HD
ENDBRANCH  10  12
ENDBRANCH   8  10
ENDBRANCH   1   8
TORSDOF 3
ENDMDL
MODEL 8
REMARK VINA RESULT:      -4.4     13.256     14.465
REMARK  3 active torsions:
REMARK  status: ('A' for Active; 'I' for Inactive)
REMARK    1  A    between atoms: C_1  and  N_2 
REMARK    2  A    between atoms: C_1  and  N_6 
REMARK    3  A    between atoms: N_2  and  C_3 
ROOT
HETATM    1  C   UNL     1      68.346   5.375   7.557  1.00  0.00     0.040 A 
HETATM    2  C   UNL     1      68.160   4.107   6.973  1.00  0.00    -0.035 A 
HETATM    3  C   UNL     1      68.842   5.451   8.865  1.00  0.00     0.030 A 
HETATM    4  C   UNL     1      67.641   3.881   5.578  1.00  0.00     0.050 C 
HETATM    5  C   UNL     1      68.485   2.957   7.720  1.00  0.00     0.009 A 
HETATM    6  C   UNL     1      69.170   4.304   9.587  1.00  0.00     0.002 A 
HETATM    7  C   UNL     1      68.991   3.055   9.014  1.00  0.00     0.001 A 
ENDROOT
BRANCH   1   8
HETATM    8  N   UNL     1      67.938   6.550   6.882  1.00  0.00    -0.333 N 
HETATM    9  H   UNL     1      68.603   6.943   6.271  1.00  0.00     0.168 HD
BRANCH   8  10
HETATM   10  C   UNL     1      66.739   7.215   6.964  1.00  0.00     0.170 C 
HETATM   11  S   UNL     1      65.189   6.608   6.963  1.00  0.00    -0.041 SA
BRANCH  10  12
HETATM   12  N   UNL     1      66.911   8.560   7.132  1.00  0.00    -0.376 N 
HETATM   13  H   UNL     1      67.614   8.894   7.736  1.00  0.00     0.158 HD
HETATM   14  H   UNL     1      66.334   9.194   6.650  1.00  0.00     0.158 HD
ENDBRANCH  10  12
ENDBRANCH   8  10
ENDBRANCH   1   8
TORSDOF 3
ENDMDL
MODEL 9
REMARK VINA RESULT:      -4.3     20.882     22.135
REMARK  3 active torsions:
REMARK  status: ('A' for Active; 'I' for Inactive)
REMARK    1  A    between atoms: C_1  and  N_2 
REMARK    2  A    between atoms: C_1  and  N_6 
REMARK    3  A    between atoms: N_2  and  C_3 
ROOT
HETATM    1  C   UNL     1      61.950   9.344   2.473  1.00  0.00     0.040 A 
HETATM    2  C   UNL     1      61.983  10.694   2.874  1.00  0.00    -0.035 A 
HETATM    3  C   UNL     1      62.319   8.356   3.395  1.00  0.00     0.030 A 
HETATM    4  C   UNL     1      61.609  11.854   1.991  1.00  0.00     0.050 C 
HETATM    5  C   UNL     1      62.378  11.006   4.192  1.00  0.00     0.009 A 
HETATM    6  C   UNL     1      62.696   8.679   4.697  1.00  0.00     0.002 A 
HETATM    7  C   UNL     1      62.726  10.006   5.097  1.00  0.00     0.001 A 
ENDROOT
BRANCH   1   8
HETATM    8  N   UNL     1      61.659   8.995   1.133  1.00  0.00    -0.333 N 
HETATM    9  H   UNL     1      62.251   9.390   0.452  1.00  0.00     0.168 HD
BRANCH   8  10
HETATM   10  C   UNL     1      60.662   8.180   0.655  1.00  0.00     0.170 C 
HETATM   11  S   UNL     1      60.774   6.802  -0.272  1.00  0.00    -0.041 SA
BRANCH  10  12
HETATM   12  N   UNL     1      59.428   8.573   1.090  1.00  0.00    -0.376 N 
HETATM   13  H   UNL     1      58.896   7.978   1.666  1.00  0.00     0.158 HD
HETATM   14  H   UNL     1      59.072   9.452   0.829  1.00  0.00     0.158 HD
ENDBRANCH  10  12
ENDBRANCH   8  10
ENDBRANCH   1   8
TORSDOF 3
ENDMDL
