MODEL 1
REMARK VINA RESULT:      -4.3      0.000      0.000
REMARK  0 active torsions:
REMARK  status: ('A' for Active; 'I' for Inactive)
ROOT
HETATM    1  N   UNL     1      77.285   4.549  18.101  1.00  0.00    -0.326 N 
ATOM      2  HN  UNL     1      78.133   4.684  18.651  1.00  0.00     0.169 HD
HETATM    3  C   UNL     1      76.688   3.434  17.791  1.00  0.00     0.155 A 
HETATM    4  N   UNL     1      75.567   3.601  17.038  1.00  0.00    -0.310 N 
HETATM    5  C   UNL     1      76.487   5.506  17.501  1.00  0.00     0.121 A 
HETATM    6  C   UNL     1      75.413   4.937  16.836  1.00  0.00     0.141 A 
HETATM    7  S   UNL     1      76.981   1.753  18.111  1.00  0.00    -0.064 SA
HETATM    8  C   UNL     1      74.906   2.447  16.687  1.00  0.00     0.106 A 
HETATM    9  C   UNL     1      75.525   1.358  17.178  1.00  0.00     0.071 A 
HETATM   10 CL   UNL     1      76.829   7.170  17.602  1.00  0.00    -0.063 Cl
ENDROOT
TORSDOF 0
ENDMDL
MODEL 2
REMARK VINA RESULT:      -3.7     24.442     25.090
REMARK  0 active torsions:
REMARK  status: ('A' for Active; 'I' for Inactive)
ROOT
HETATM    1  N   UNL     1      58.270  17.602  25.105  1.00  0.00    -0.326 N 
ATOM      2  HN  UNL     1      58.020  17.109  24.248  1.00  0.00     0.169 HD
HETATM    3  C   UNL     1      57.560  18.454  25.787  1.00  0.00     0.155 A 
HETATM    4  N   UNL     1      58.190  18.933  26.894  1.00  0.00    -0.310 N 
HETATM    5  C   UNL     1      59.447  17.528  25.828  1.00  0.00     0.121 A 
HETATM    6  C   UNL     1      59.417  18.348  26.945  1.00  0.00     0.141 A 
HETATM    7  S   UNL     1      55.973  19.140  25.625  1.00  0.00    -0.064 SA
HETATM    8  C   UNL     1      57.474  19.838  27.644  1.00  0.00     0.106 A 
HETATM    9  C   UNL     1      56.261  20.067  27.110  1.00  0.00     0.071 A 
HETATM   10 CL   UNL     1      60.743  16.532  25.357  1.00  0.00    -0.063 Cl
ENDROOT
TORSDOF 0
ENDMDL
MODEL 3
REMARK VINA RESULT:      -3.5     13.387     14.070
REMARK  0 active torsions:
REMARK  status: ('A' for Active; 'I' for Inactive)
ROOT
HETATM    1  N   UNL     1      68.446   6.169   7.596  1.00  0.00    -0.326 N 
ATOM      2  HN  UNL     1      69.420   6.366   7.364  1.00  0.00     0.169 HD
HETATM    3  C   UNL     1      67.368   6.625   7.025  1.00  0.00     0.155 A 
HETATM    4  N   UNL     1      66.215   6.162   7.580  1.00  0.00    -0.310 N 
HETATM    5  C   UNL     1      67.948   5.350   8.593  1.00  0.00     0.121 A 
HETATM    6  C   UNL     1      66.562   5.332   8.599  1.00  0.00     0.141 A 
HETATM    7  S   UNL     1      67.038   7.701   5.704  1.00  0.00    -0.064 SA
HETATM    8  C   UNL     1      65.051   6.621   7.007  1.00  0.00     0.106 A 
HETATM    9  C   UNL     1      65.304   7.458   5.984  1.00  0.00     0.071 A 
HETATM   10 CL   UNL     1      68.962   4.491   9.656  1.00  0.00    -0.063 Cl
ENDROOT
TORSDOF 0
ENDMDL
MODEL 4
REMARK VINA RESULT:      -3.5      3.492      4.126
REMARK  0 active torsions:
REMARK  status: ('A' for Active; 'I' for Inactive)
ROOT
HETATM    1  N   UNL     1      78.388   2.045  19.123  1.00  0.00    -0.326 N 
ATOM      2  HN  UNL     1      79.091   2.675  19.508  1.00  0.00     0.169 HD
HETATM    3  C   UNL     1      77.332   2.341  18.420  1.00  0.00     0.155 A 
HETATM    4  N   UNL     1      76.593   1.258  18.055  1.00  0.00    -0.310 N 
HETATM    5  C   UNL     1      78.322   0.667  19.218  1.00  0.00     0.121 A 
HETATM    6  C   UNL     1      77.213   0.158  18.560  1.00  0.00     0.141 A 
HETATM    7  S   UNL     1      76.626   3.809  17.822  1.00  0.00    -0.064 SA
HETATM    8  C   UNL     1      75.467   1.527  17.312  1.00  0.00     0.106 A 
HETATM    9  C   UNL     1      75.328   2.846  17.091  1.00  0.00     0.071 A 
HETATM   10 CL   UNL     1      79.490  -0.245  20.055  1.00  0.00    -0.063 Cl
ENDROOT
TORSDOF 0
ENDMDL
MODEL 5
REMARK VINA RESULT:      -3.5     11.306     12.006
REMARK  0 active torsions:
REMARK  status: ('A' for Active; 'I' for Inactive)
ROOT
HETATM    1  N   UNL     1      66.589   4.134   8.409  1.00  0.00    -0.326 N 
ATOM      2  HN  UNL     1      65.739   3.726   8.020  1.00  0.00     0.169 HD
HETATM    3  C   UNL     1      67.618   3.525   8.925  1.00  0.00     0.155 A 
HETATM    4  N   UNL     1      68.596   4.367   9.357  1.00  0.00    -0.310 N 
HETATM    5  C   UNL     1      66.931   5.469   8.518  1.00  0.00     0.121 A 
HETATM    6  C   UNL     1      68.175   5.636   9.105  1.00  0.00     0.141 A 
HETATM    7  S   UNL     1      68.055   1.867   9.201  1.00  0.00    -0.064 SA
HETATM    8  C   UNL     1      69.701   3.764   9.911  1.00  0.00     0.106 A 
HETATM    9  C   UNL     1      69.583   2.424   9.908  1.00  0.00     0.071 A 
HETATM   10 CL   UNL     1      65.908   6.717   7.979  1.00  0.00    -0.063 Cl
ENDROOT
TORSDOF 0
ENDMDL
MODEL 6
REMARK VINA RESULT:      -3.4     19.540     20.197
REMARK  0 active torsions:
REMARK  status: ('A' for Active; 'I' for Inactive)
ROOT
HETATM    1  N   UNL     1      61.058   9.102   3.031  1.00  0.00    -0.326 N 
ATOM      2  HN  UNL     1      60.348   8.986   2.308  1.00  0.00     0.169 HD
HETATM    3  C   UNL     1      61.420   8.257   3.955  1.00  0.00     0.155 A 
HETATM    4  N   UNL     1      62.406   8.723   4.769  1.00  0.00    -0.310 N 
HETATM    5  C   UNL     1      61.872  10.193   3.271  1.00  0.00     0.121 A 
HETATM    6  C   UNL     1      62.718   9.978   4.348  1.00  0.00     0.141 A 
HETATM    7  S   UNL     1      60.943   6.650   4.407  1.00  0.00    -0.064 SA
HETATM    8  C   UNL     1      62.818   7.862   5.760  1.00  0.00     0.106 A 
HETATM    9  C   UNL     1      62.140   6.701   5.714  1.00  0.00     0.071 A 
HETATM   10 CL   UNL     1      61.802  11.606   2.326  1.00  0.00    -0.063 Cl
ENDROOT
TORSDOF 0
ENDMDL
MODEL 7
REMARK VINA RESULT:      -3.4     11.661     12.287
REMARK  0 active torsions:
REMARK  status: ('A' for Active; 'I' for Inactive)
ROOT
HETATM    1  N   UNL     1      68.412   6.102   8.683  1.00  0.00    -0.326 N 
ATOM      2  HN  UNL     1      69.029   6.856   8.986  1.00  0.00     0.169 HD
HETATM    3  C   UNL     1      68.500   4.829   8.944  1.00  0.00     0.155 A 
HETATM    4  N   UNL     1      67.508   4.084   8.384  1.00  0.00    -0.310 N 
HETATM    5  C   UNL     1      67.279   6.182   7.896  1.00  0.00     0.121 A 
HETATM    6  C   UNL     1      66.701   4.938   7.698  1.00  0.00     0.141 A 
HETATM    7  S   UNL     1      69.594   3.831   9.849  1.00  0.00    -0.064 SA
HETATM    8  C   UNL     1      67.563   2.732   8.633  1.00  0.00     0.106 A 
HETATM    9  C   UNL     1      68.619   2.418   9.405  1.00  0.00     0.071 A 
HETATM   10 CL   UNL     1      66.706   7.658   7.272  1.00  0.00    -0.063 Cl
ENDROOT
TORSDOF 0
ENDMDL
MODEL 8
REMARK VINA RESULT:      -3.3     19.525     20.291
REMARK  0 active torsions:
REMARK  status: ('A' for Active; 'I' for Inactive)
ROOT
HETATM    1  N   UNL     1      63.044   7.898   3.621  1.00  0.00    -0.326 N 
ATOM      2  HN  UNL     1      63.223   6.990   3.193  1.00  0.00     0.169 HD
HETATM    3  C   UNL     1      62.584   8.981   3.064  1.00  0.00     0.155 A 
HETATM    4  N   UNL     1      62.459  10.030   3.921  1.00  0.00    -0.310 N 
HETATM    5  C   UNL     1      63.230   8.279   4.937  1.00  0.00     0.121 A 
HETATM    6  C   UNL     1      62.872   9.602   5.144  1.00  0.00     0.141 A 
HETATM    7  S   UNL     1      62.081   9.420   1.461  1.00  0.00    -0.064 SA
HETATM    8  C   UNL     1      61.977  11.196   3.372  1.00  0.00     0.106 A 
HETATM    9  C   UNL     1      61.720  11.050   2.060  1.00  0.00     0.071 A 
HETATM   10 CL   UNL     1      63.829   7.212   6.119  1.00  0.00    -0.063 Cl
ENDROOT
TORSDOF 0
ENDMDL
MODEL 9
REMARK VINA RESULT:      -3.3     15.158     15.870
REMARK  0 active torsions:
REMARK  status: ('A' for Active; 'I' for Inactive)
ROOT
HETATM    1  N   UNL     1      65.416   6.109   7.620  1.00  0.00    -0.326 N 
ATOM      2  HN  UNL     1      65.067   5.317   8.160  1.00  0.00     0.169 HD
HETATM    3  C   UNL     1      64.821   6.764   6.664  1.00  0.00     0.155 A 
HETATM    4  N   UNL     1      65.566   7.778   6.146  1.00  0.00    -0.310 N 
HETATM    5  C   UNL     1      66.636   6.751   7.725  1.00  0.00     0.121 A 
HETATM    6  C   UNL     1      66.748   7.793   6.817  1.00  0.00     0.141 A 
HETATM    7  S   UNL     1      63.278   6.655   5.875  1.00  0.00    -0.064 SA
HETATM    8  C   UNL     1      64.974   8.495   5.132  1.00  0.00     0.106 A 
HETATM    9  C   UNL     1      63.742   8.030   4.856  1.00  0.00     0.071 A 
HETATM   10 CL   UNL     1      67.820   6.278   8.851  1.00  0.00    -0.063 Cl
ENDROOT
TORSDOF 0
ENDMDL
