MODEL 1
REMARK VINA RESULT:      -4.0      0.000      0.000
REMARK  0 active torsions:
REMARK  status: ('A' for Active; 'I' for Inactive)
ROOT
HETATM    1  N   UNL     1      77.208   4.231  18.164  1.00  0.00    -0.345 N 
ATOM      2  HN  UNL     1      78.029   4.404  18.744  1.00  0.00     0.167 HD
HETATM    3  C   UNL     1      76.429   5.209  17.570  1.00  0.00     0.121 A 
HETATM    4  C   UNL     1      76.727   3.041  17.866  1.00  0.00     0.047 A 
HETATM    5  S   UNL     1      75.327   3.038  16.865  1.00  0.00    -0.086 SA
HETATM    6  N   UNL     1      76.984   7.725  17.870  1.00  0.00    -0.190 NA
HETATM    7  C   UNL     1      76.755   6.593  17.750  1.00  0.00     0.118 C 
HETATM    8  C   UNL     1      75.362   4.751  16.824  1.00  0.00     0.092 A 
HETATM    9  C   UNL     1      77.309   1.752  18.330  1.00  0.00     0.076 C 
ENDROOT
TORSDOF 0
ENDMDL
MODEL 2
REMARK VINA RESULT:      -3.9      1.447      3.694
REMARK  0 active torsions:
REMARK  status: ('A' for Active; 'I' for Inactive)
ROOT
HETATM    1  N   UNL     1      77.279   4.523  18.191  1.00  0.00    -0.345 N 
ATOM      2  HN  UNL     1      78.092   4.713  18.776  1.00  0.00     0.167 HD
HETATM    3  C   UNL     1      76.729   3.271  17.969  1.00  0.00     0.121 A 
HETATM    4  C   UNL     1      76.589   5.431  17.532  1.00  0.00     0.047 A 
HETATM    5  S   UNL     1      75.257   4.832  16.620  1.00  0.00    -0.086 SA
HETATM    6  N   UNL     1      77.748   1.152  19.065  1.00  0.00    -0.190 NA
HETATM    7  C   UNL     1      77.310   2.115  18.585  1.00  0.00     0.118 C 
HETATM    8  C   UNL     1      75.626   3.241  17.143  1.00  0.00     0.092 A 
HETATM    9  C   UNL     1      76.889   6.889  17.535  1.00  0.00     0.076 C 
ENDROOT
TORSDOF 0
ENDMDL
MODEL 3
REMARK VINA RESULT:      -3.8      2.059      2.507
REMARK  0 active torsions:
REMARK  status: ('A' for Active; 'I' for Inactive)
ROOT
HETATM    1  N   UNL     1      75.354   3.007  17.173  1.00  0.00    -0.345 N 
ATOM      2  HN  UNL     1      74.632   3.586  16.745  1.00  0.00     0.167 HD
HETATM    3  C   UNL     1      76.496   3.485  17.794  1.00  0.00     0.121 A 
HETATM    4  C   UNL     1      75.344   1.691  17.221  1.00  0.00     0.047 A 
HETATM    5  S   UNL     1      76.694   0.967  18.008  1.00  0.00    -0.086 SA
HETATM    6  N   UNL     1      76.964   6.032  17.952  1.00  0.00    -0.190 NA
HETATM    7  C   UNL     1      76.733   4.897  17.869  1.00  0.00     0.118 C 
HETATM    8  C   UNL     1      77.343   2.526  18.308  1.00  0.00     0.092 A 
HETATM    9  C   UNL     1      74.269   0.832  16.654  1.00  0.00     0.076 C 
ENDROOT
TORSDOF 0
ENDMDL
MODEL 4
REMARK VINA RESULT:      -3.7     12.791     13.680
REMARK  0 active torsions:
REMARK  status: ('A' for Active; 'I' for Inactive)
ROOT
HETATM    1  N   UNL     1      68.351   6.422   7.738  1.00  0.00    -0.345 N 
ATOM      2  HN  UNL     1      69.045   7.166   7.668  1.00  0.00     0.167 HD
HETATM    3  C   UNL     1      67.029   6.524   7.340  1.00  0.00     0.121 A 
HETATM    4  C   UNL     1      68.575   5.217   8.219  1.00  0.00     0.047 A 
HETATM    5  S   UNL     1      67.221   4.155   8.218  1.00  0.00    -0.086 SA
HETATM    6  N   UNL     1      66.106   8.724   6.320  1.00  0.00    -0.190 NA
HETATM    7  C   UNL     1      66.542   7.750   6.779  1.00  0.00     0.118 C 
HETATM    8  C   UNL     1      66.261   5.394   7.523  1.00  0.00     0.092 A 
HETATM    9  C   UNL     1      69.887   4.745   8.742  1.00  0.00     0.076 C 
ENDROOT
TORSDOF 0
ENDMDL
MODEL 5
REMARK VINA RESULT:      -3.5     19.511     20.609
REMARK  0 active torsions:
REMARK  status: ('A' for Active; 'I' for Inactive)
ROOT
HETATM    1  N   UNL     1      62.540   8.406   3.147  1.00  0.00    -0.345 N 
ATOM      2  HN  UNL     1      62.772   7.421   3.015  1.00  0.00     0.167 HD
HETATM    3  C   UNL     1      62.518   9.065   4.364  1.00  0.00     0.121 A 
HETATM    4  C   UNL     1      62.216   9.245   2.184  1.00  0.00     0.047 A 
HETATM    5  S   UNL     1      61.872  10.854   2.689  1.00  0.00    -0.086 SA
HETATM    6  N   UNL     1      63.091   7.821   6.568  1.00  0.00    -0.190 NA
HETATM    7  C   UNL     1      62.838   8.357   5.568  1.00  0.00     0.118 C 
HETATM    8  C   UNL     1      62.177  10.400   4.314  1.00  0.00     0.092 A 
HETATM    9  C   UNL     1      62.136   8.888   0.741  1.00  0.00     0.076 C 
ENDROOT
TORSDOF 0
ENDMDL
MODEL 6
REMARK VINA RESULT:      -3.4     17.285     18.297
REMARK  0 active torsions:
REMARK  status: ('A' for Active; 'I' for Inactive)
ROOT
HETATM    1  N   UNL     1      64.594   9.174   5.407  1.00  0.00    -0.345 N 
ATOM      2  HN  UNL     1      65.182  10.001   5.306  1.00  0.00     0.167 HD
HETATM    3  C   UNL     1      63.240   9.117   5.125  1.00  0.00     0.121 A 
HETATM    4  C   UNL     1      65.008   7.995   5.825  1.00  0.00     0.047 A 
HETATM    5  S   UNL     1      63.801   6.770   5.900  1.00  0.00    -0.086 SA
HETATM    6  N   UNL     1      61.965  11.207   4.265  1.00  0.00    -0.190 NA
HETATM    7  C   UNL     1      62.557  10.285   4.651  1.00  0.00     0.118 C 
HETATM    8  C   UNL     1      62.637   7.894   5.332  1.00  0.00     0.092 A 
HETATM    9  C   UNL     1      66.409   7.681   6.220  1.00  0.00     0.076 C 
ENDROOT
TORSDOF 0
ENDMDL
MODEL 7
REMARK VINA RESULT:      -3.3     12.351     12.994
REMARK  0 active torsions:
REMARK  status: ('A' for Active; 'I' for Inactive)
ROOT
HETATM    1  N   UNL     1      66.822   3.880   8.591  1.00  0.00    -0.345 N 
ATOM      2  HN  UNL     1      65.955   3.424   8.309  1.00  0.00     0.167 HD
HETATM    3  C   UNL     1      67.060   5.243   8.544  1.00  0.00     0.121 A 
HETATM    4  C   UNL     1      67.888   3.262   9.057  1.00  0.00     0.047 A 
HETATM    5  S   UNL     1      69.218   4.278   9.458  1.00  0.00    -0.086 SA
HETATM    6  N   UNL     1      65.243   6.888   7.692  1.00  0.00    -0.190 NA
HETATM    7  C   UNL     1      66.041   6.132   8.069  1.00  0.00     0.118 C 
HETATM    8  C   UNL     1      68.306   5.647   8.976  1.00  0.00     0.092 A 
HETATM    9  C   UNL     1      67.997   1.789   9.247  1.00  0.00     0.076 C 
ENDROOT
TORSDOF 0
ENDMDL
MODEL 8
REMARK VINA RESULT:      -3.3      2.617      3.306
REMARK  0 active torsions:
REMARK  status: ('A' for Active; 'I' for Inactive)
ROOT
HETATM    1  N   UNL     1      77.165   1.110  17.234  1.00  0.00    -0.345 N 
ATOM      2  HN  UNL     1      78.115   0.915  17.553  1.00  0.00     0.167 HD
HETATM    3  C   UNL     1      76.358   2.131  17.706  1.00  0.00     0.121 A 
HETATM    4  C   UNL     1      76.520   0.428  16.310  1.00  0.00     0.047 A 
HETATM    5  S   UNL     1      74.925   0.975  15.965  1.00  0.00    -0.086 SA
HETATM    6  N   UNL     1      77.198   3.756  19.546  1.00  0.00    -0.190 NA
HETATM    7  C   UNL     1      76.844   3.016  18.723  1.00  0.00     0.118 C 
HETATM    8  C   UNL     1      75.106   2.215  17.134  1.00  0.00     0.092 A 
HETATM    9  C   UNL     1      77.076  -0.743  15.579  1.00  0.00     0.076 C 
ENDROOT
TORSDOF 0
ENDMDL
MODEL 9
REMARK VINA RESULT:      -3.3     20.410     21.196
REMARK  0 active torsions:
REMARK  status: ('A' for Active; 'I' for Inactive)
ROOT
HETATM    1  N   UNL     1      60.727   8.884   3.178  1.00  0.00    -0.345 N 
ATOM      2  HN  UNL     1      59.889   9.092   2.635  1.00  0.00     0.167 HD
HETATM    3  C   UNL     1      61.832   9.712   3.289  1.00  0.00     0.121 A 
HETATM    4  C   UNL     1      60.924   7.788   3.881  1.00  0.00     0.047 A 
HETATM    5  S   UNL     1      62.433   7.696   4.703  1.00  0.00    -0.086 SA
HETATM    6  N   UNL     1      61.913  12.003   2.074  1.00  0.00    -0.190 NA
HETATM    7  C   UNL     1      61.854  10.973   2.609  1.00  0.00     0.118 C 
HETATM    8  C   UNL     1      62.858   9.234   4.077  1.00  0.00     0.092 A 
HETATM    9  C   UNL     1      59.948   6.670   3.996  1.00  0.00     0.076 C 
ENDROOT
TORSDOF 0
ENDMDL
