MODEL 1
REMARK VINA RESULT:      -5.0      0.000      0.000
REMARK  1 active torsions:
REMARK  status: ('A' for Active; 'I' for Inactive)
REMARK    1  A    between atoms: C_1  and  N_2 
ROOT
HETATM    1  C   UNL     1      62.898   9.158   4.047  1.00  0.00     0.077 A 
HETATM    2  C   UNL     1      62.485  10.489   4.326  1.00  0.00     0.077 A 
HETATM    3  C   UNL     1      62.603   8.718   2.728  1.00  0.00     0.077 A 
HETATM    4  N   UNL     1      61.596  10.837   2.089  1.00  0.00    -0.372 N 
ATOM      5  HN  UNL     1      61.143  11.432   1.395  1.00  0.00     0.164 HD
HETATM    6 CL   UNL     1      62.821  11.332   5.804  1.00  0.00    -0.080 Cl
HETATM    7 CL   UNL     1      62.857   7.098   2.158  1.00  0.00    -0.080 Cl
HETATM    8  C   UNL     1      61.992   9.579   1.812  1.00  0.00     0.113 A 
HETATM    9  C   UNL     1      61.843  11.251   3.346  1.00  0.00     0.113 A 
ENDROOT
BRANCH   1  10
HETATM   10  N   UNL     1      63.573   8.369   4.976  1.00  0.00    -0.375 N 
HETATM   11  C   UNL     1      65.041   8.320   5.096  1.00  0.00     0.150 C 
HETATM   12  C   UNL     1      65.517   6.846   5.112  1.00  0.00     0.252 C 
HETATM   13  N   UNL     1      64.901   6.057   6.203  1.00  0.00    -0.072 N 
HETATM   14  C   UNL     1      63.430   6.146   6.082  1.00  0.00     0.252 C 
HETATM   15  H   UNL     1      65.193   5.083   6.130  1.00  0.00     0.277 HD
HETATM   16  H   UNL     1      65.197   6.425   7.108  1.00  0.00     0.277 HD
HETATM   17  C   UNL     1      62.873   7.589   6.014  1.00  0.00     0.150 C 
ENDBRANCH   1  10
TORSDOF 1
ENDMDL
MODEL 2
REMARK VINA RESULT:      -5.0      0.143      2.456
REMARK  1 active torsions:
REMARK  status: ('A' for Active; 'I' for Inactive)
REMARK    1  A    between atoms: C_1  and  N_2 
ROOT
HETATM    1  C   UNL     1      62.962   9.123   4.090  1.00  0.00     0.077 A 
HETATM    2  C   UNL     1      62.694   8.638   2.781  1.00  0.00     0.077 A 
HETATM    3  C   UNL     1      62.513  10.450   4.326  1.00  0.00     0.077 A 
HETATM    4  N   UNL     1      61.590  10.692   2.090  1.00  0.00    -0.372 N 
ATOM      5  HN  UNL     1      61.100  11.243   1.385  1.00  0.00     0.164 HD
HETATM    6 CL   UNL     1      63.016   7.019   2.249  1.00  0.00    -0.080 Cl
HETATM    7 CL   UNL     1      62.834  11.347   5.777  1.00  0.00    -0.080 Cl
HETATM    8  C   UNL     1      61.832  11.157   3.331  1.00  0.00     0.113 A 
HETATM    9  C   UNL     1      62.042   9.447   1.846  1.00  0.00     0.113 A 
ENDROOT
BRANCH   1  10
HETATM   10  N   UNL     1      63.577   8.345   5.070  1.00  0.00    -0.375 N 
HETATM   11  C   UNL     1      65.034   8.313   5.294  1.00  0.00     0.150 C 
HETATM   12  C   UNL     1      65.523   6.845   5.351  1.00  0.00     0.252 C 
HETATM   13  N   UNL     1      64.839   6.054   6.400  1.00  0.00    -0.072 N 
HETATM   14  C   UNL     1      63.380   6.126   6.173  1.00  0.00     0.252 C 
HETATM   15  H   UNL     1      65.146   5.082   6.353  1.00  0.00     0.277 HD
HETATM   16  H   UNL     1      65.066   6.429   7.322  1.00  0.00     0.277 HD
HETATM   17  C   UNL     1      62.814   7.562   6.059  1.00  0.00     0.150 C 
ENDBRANCH   1  10
TORSDOF 1
ENDMDL
MODEL 3
REMARK VINA RESULT:      -4.4      4.686      7.917
REMARK  1 active torsions:
REMARK  status: ('A' for Active; 'I' for Inactive)
REMARK    1  A    between atoms: C_1  and  N_2 
ROOT
HETATM    1  C   UNL     1      67.651   4.886   7.397  1.00  0.00     0.077 A 
HETATM    2  C   UNL     1      68.142   3.670   6.849  1.00  0.00     0.077 A 
HETATM    3  C   UNL     1      68.074   5.142   8.729  1.00  0.00     0.077 A 
HETATM    4  N   UNL     1      69.388   3.100   8.859  1.00  0.00    -0.372 N 
ATOM      5  HN  UNL     1      70.007   2.472   9.372  1.00  0.00     0.164 HD
HETATM    6 CL   UNL     1      67.893   3.160   5.211  1.00  0.00    -0.080 Cl
HETATM    7 CL   UNL     1      67.513   6.470   9.696  1.00  0.00    -0.080 Cl
HETATM    8  C   UNL     1      68.935   4.255   9.383  1.00  0.00     0.113 A 
HETATM    9  C   UNL     1      68.966   2.834   7.608  1.00  0.00     0.113 A 
ENDROOT
BRANCH   1  10
HETATM   10  N   UNL     1      66.856   5.772   6.671  1.00  0.00    -0.375 N 
HETATM   11  C   UNL     1      67.379   6.969   5.988  1.00  0.00     0.150 C 
HETATM   12  C   UNL     1      66.523   8.203   6.366  1.00  0.00     0.252 C 
HETATM   13  N   UNL     1      65.089   8.028   6.039  1.00  0.00    -0.072 N 
HETATM   14  C   UNL     1      64.595   6.806   6.708  1.00  0.00     0.252 C 
HETATM   15  H   UNL     1      64.561   8.836   6.366  1.00  0.00     0.277 HD
HETATM   16  H   UNL     1      64.971   7.942   5.029  1.00  0.00     0.277 HD
HETATM   17  C   UNL     1      65.424   5.531   6.419  1.00  0.00     0.150 C 
ENDBRANCH   1  10
TORSDOF 1
ENDMDL
MODEL 4
REMARK VINA RESULT:      -4.4      4.781      7.595
REMARK  1 active torsions:
REMARK  status: ('A' for Active; 'I' for Inactive)
REMARK    1  A    between atoms: C_1  and  N_2 
ROOT
HETATM    1  C   UNL     1      67.739   4.656   7.129  1.00  0.00     0.077 A 
HETATM    2  C   UNL     1      68.204   4.778   8.467  1.00  0.00     0.077 A 
HETATM    3  C   UNL     1      68.086   3.431   6.498  1.00  0.00     0.077 A 
HETATM    4  N   UNL     1      69.236   2.576   8.462  1.00  0.00    -0.372 N 
ATOM      5  HN  UNL     1      69.759   1.838   8.935  1.00  0.00     0.164 HD
HETATM    6 CL   UNL     1      67.828   6.104   9.520  1.00  0.00    -0.080 Cl
HETATM    7 CL   UNL     1      67.781   3.072   4.827  1.00  0.00    -0.080 Cl
HETATM    8  C   UNL     1      68.792   2.447   7.196  1.00  0.00     0.113 A 
HETATM    9  C   UNL     1      68.940   3.747   9.057  1.00  0.00     0.113 A 
ENDROOT
BRANCH   1  10
HETATM   10  N   UNL     1      66.972   5.640   6.507  1.00  0.00    -0.375 N 
HETATM   11  C   UNL     1      67.538   6.859   5.904  1.00  0.00     0.150 C 
HETATM   12  C   UNL     1      66.766   8.102   6.411  1.00  0.00     0.252 C 
HETATM   13  N   UNL     1      65.314   8.031   6.123  1.00  0.00    -0.072 N 
HETATM   14  C   UNL     1      64.775   6.786   6.709  1.00  0.00     0.252 C 
HETATM   15  H   UNL     1      64.843   8.836   6.533  1.00  0.00     0.277 HD
HETATM   16  H   UNL     1      65.160   8.035   5.114  1.00  0.00     0.277 HD
HETATM   17  C   UNL     1      65.521   5.496   6.288  1.00  0.00     0.150 C 
ENDBRANCH   1  10
TORSDOF 1
ENDMDL
MODEL 5
REMARK VINA RESULT:      -4.2      2.388      4.481
REMARK  1 active torsions:
REMARK  status: ('A' for Active; 'I' for Inactive)
REMARK    1  A    between atoms: C_1  and  N_2 
ROOT
HETATM    1  C   UNL     1      62.069   9.035   3.095  1.00  0.00     0.077 A 
HETATM    2  C   UNL     1      62.170  10.409   3.445  1.00  0.00     0.077 A 
HETATM    3  C   UNL     1      62.461   8.138   4.125  1.00  0.00     0.077 A 
HETATM    4  N   UNL     1      62.965   9.927   5.693  1.00  0.00    -0.372 N 
ATOM      5  HN  UNL     1      63.275  10.243   6.612  1.00  0.00     0.164 HD
HETATM    6 CL   UNL     1      61.646  11.719   2.437  1.00  0.00    -0.080 Cl
HETATM    7 CL   UNL     1      62.582   6.417   3.930  1.00  0.00    -0.080 Cl
HETATM    8  C   UNL     1      62.865   8.622   5.373  1.00  0.00     0.113 A 
HETATM    9  C   UNL     1      62.627  10.785   4.711  1.00  0.00     0.113 A 
ENDROOT
BRANCH   1  10
HETATM   10  N   UNL     1      61.587   8.606   1.860  1.00  0.00    -0.375 N 
HETATM   11  C   UNL     1      60.234   8.059   1.655  1.00  0.00     0.150 C 
HETATM   12  C   UNL     1      60.321   6.726   0.870  1.00  0.00     0.252 C 
HETATM   13  N   UNL     1      61.002   6.876  -0.437  1.00  0.00    -0.072 N 
HETATM   14  C   UNL     1      62.343   7.455  -0.210  1.00  0.00     0.252 C 
HETATM   15  H   UNL     1      61.093   5.963  -0.883  1.00  0.00     0.277 HD
HETATM   16  H   UNL     1      60.458   7.489  -1.045  1.00  0.00     0.277 HD
HETATM   17  C   UNL     1      62.349   8.769   0.608  1.00  0.00     0.150 C 
ENDBRANCH   1  10
TORSDOF 1
ENDMDL
MODEL 6
REMARK VINA RESULT:      -4.2      5.997      9.166
REMARK  1 active torsions:
REMARK  status: ('A' for Active; 'I' for Inactive)
REMARK    1  A    between atoms: C_1  and  N_2 
ROOT
HETATM    1  C   UNL     1      67.926   3.375   8.493  1.00  0.00     0.077 A 
HETATM    2  C   UNL     1      67.726   2.122   9.134  1.00  0.00     0.077 A 
HETATM    3  C   UNL     1      68.995   4.143   9.029  1.00  0.00     0.077 A 
HETATM    4  N   UNL     1      69.574   2.455  10.680  1.00  0.00    -0.372 N 
ATOM      5  HN  UNL     1      70.160   2.126  11.448  1.00  0.00     0.164 HD
HETATM    6 CL   UNL     1      66.581   0.927   8.617  1.00  0.00    -0.080 Cl
HETATM    7 CL   UNL     1      69.372   5.767   8.544  1.00  0.00    -0.080 Cl
HETATM    8  C   UNL     1      69.777   3.640  10.073  1.00  0.00     0.113 A 
HETATM    9  C   UNL     1      68.543   1.734  10.200  1.00  0.00     0.113 A 
ENDROOT
BRANCH   1  10
HETATM   10  N   UNL     1      67.163   3.794   7.404  1.00  0.00    -0.375 N 
HETATM   11  C   UNL     1      67.569   3.606   6.000  1.00  0.00     0.150 C 
HETATM   12  C   UNL     1      67.435   4.944   5.232  1.00  0.00     0.252 C 
HETATM   13  N   UNL     1      66.063   5.499   5.285  1.00  0.00    -0.072 N 
HETATM   14  C   UNL     1      65.665   5.649   6.700  1.00  0.00     0.252 C 
HETATM   15  H   UNL     1      66.042   6.408   4.824  1.00  0.00     0.277 HD
HETATM   16  H   UNL     1      65.416   4.871   4.807  1.00  0.00     0.277 HD
HETATM   17  C   UNL     1      65.812   4.365   7.553  1.00  0.00     0.150 C 
ENDBRANCH   1  10
TORSDOF 1
ENDMDL
MODEL 7
REMARK VINA RESULT:      -4.2      2.378      4.852
REMARK  1 active torsions:
REMARK  status: ('A' for Active; 'I' for Inactive)
REMARK    1  A    between atoms: C_1  and  N_2 
ROOT
HETATM    1  C   UNL     1      61.986   8.940   3.183  1.00  0.00     0.077 A 
HETATM    2  C   UNL     1      62.345   8.004   4.191  1.00  0.00     0.077 A 
HETATM    3  C   UNL     1      62.174  10.299   3.552  1.00  0.00     0.077 A 
HETATM    4  N   UNL     1      63.037   9.735   5.754  1.00  0.00    -0.372 N 
ATOM      5  HN  UNL     1      63.414  10.015   6.659  1.00  0.00     0.164 HD
HETATM    6 CL   UNL     1      62.340   6.283   3.980  1.00  0.00    -0.080 Cl
HETATM    7 CL   UNL     1      61.684  11.652   2.581  1.00  0.00    -0.080 Cl
HETATM    8  C   UNL     1      62.708  10.629   4.801  1.00  0.00     0.113 A 
HETATM    9  C   UNL     1      62.832   8.445   5.425  1.00  0.00     0.113 A 
ENDROOT
BRANCH   1  10
HETATM   10  N   UNL     1      61.529   8.552   1.924  1.00  0.00    -0.375 N 
HETATM   11  C   UNL     1      60.176   8.026   1.672  1.00  0.00     0.150 C 
HETATM   12  C   UNL     1      60.268   6.715   0.851  1.00  0.00     0.252 C 
HETATM   13  N   UNL     1      60.982   6.893  -0.434  1.00  0.00    -0.072 N 
HETATM   14  C   UNL     1      62.323   7.450  -0.159  1.00  0.00     0.252 C 
HETATM   15  H   UNL     1      61.074   5.993  -0.904  1.00  0.00     0.277 HD
HETATM   16  H   UNL     1      60.459   7.529  -1.037  1.00  0.00     0.277 HD
HETATM   17  C   UNL     1      62.324   8.740   0.697  1.00  0.00     0.150 C 
ENDBRANCH   1  10
TORSDOF 1
ENDMDL
MODEL 8
REMARK VINA RESULT:      -4.2      5.942      8.905
REMARK  1 active torsions:
REMARK  status: ('A' for Active; 'I' for Inactive)
REMARK    1  A    between atoms: C_1  and  N_2 
ROOT
HETATM    1  C   UNL     1      67.815   3.279   8.394  1.00  0.00     0.077 A 
HETATM    2  C   UNL     1      68.878   3.996   9.006  1.00  0.00     0.077 A 
HETATM    3  C   UNL     1      67.529   2.025   8.999  1.00  0.00     0.077 A 
HETATM    4  N   UNL     1      69.252   2.285  10.694  1.00  0.00    -0.372 N 
ATOM      5  HN  UNL     1      69.755   1.937  11.511  1.00  0.00     0.164 HD
HETATM    6 CL   UNL     1      69.365   5.600   8.562  1.00  0.00    -0.080 Cl
HETATM    7 CL   UNL     1      66.387   0.876   8.375  1.00  0.00    -0.080 Cl
HETATM    8  C   UNL     1      68.239   1.602  10.126  1.00  0.00     0.113 A 
HETATM    9  C   UNL     1      69.552   3.459  10.107  1.00  0.00     0.113 A 
ENDROOT
BRANCH   1  10
HETATM   10  N   UNL     1      67.088   3.784   7.317  1.00  0.00    -0.375 N 
HETATM   11  C   UNL     1      67.524   3.676   5.913  1.00  0.00     0.150 C 
HETATM   12  C   UNL     1      67.439   5.063   5.229  1.00  0.00     0.252 C 
HETATM   13  N   UNL     1      66.079   5.647   5.286  1.00  0.00    -0.072 N 
HETATM   14  C   UNL     1      65.651   5.716   6.699  1.00  0.00     0.252 C 
HETATM   15  H   UNL     1      66.090   6.584   4.884  1.00  0.00     0.277 HD
HETATM   16  H   UNL     1      65.429   5.066   4.755  1.00  0.00     0.277 HD
HETATM   17  C   UNL     1      65.747   4.378   7.470  1.00  0.00     0.150 C 
ENDBRANCH   1  10
TORSDOF 1
ENDMDL
MODEL 9
REMARK VINA RESULT:      -4.1      1.904      4.480
REMARK  1 active torsions:
REMARK  status: ('A' for Active; 'I' for Inactive)
REMARK    1  A    between atoms: C_1  and  N_2 
ROOT
HETATM    1  C   UNL     1      63.264   8.156   3.589  1.00  0.00     0.077 A 
HETATM    2  C   UNL     1      63.826   8.922   4.645  1.00  0.00     0.077 A 
HETATM    3  C   UNL     1      64.016   7.002   3.238  1.00  0.00     0.077 A 
HETATM    4  N   UNL     1      65.712   7.413   4.931  1.00  0.00    -0.372 N 
ATOM      5  HN  UNL     1      66.573   7.148   5.410  1.00  0.00     0.164 HD
HETATM    6 CL   UNL     1      63.069  10.307   5.364  1.00  0.00    -0.080 Cl
HETATM    7 CL   UNL     1      63.649   5.967   1.894  1.00  0.00    -0.080 Cl
HETATM    8  C   UNL     1      65.182   6.675   3.936  1.00  0.00     0.113 A 
HETATM    9  C   UNL     1      65.024   8.526   5.248  1.00  0.00     0.113 A 
ENDROOT
BRANCH   1  10
HETATM   10  N   UNL     1      62.056   8.487   2.978  1.00  0.00    -0.375 N 
HETATM   11  C   UNL     1      60.736   8.205   3.570  1.00  0.00     0.150 C 
HETATM   12  C   UNL     1      59.831   7.506   2.525  1.00  0.00     0.252 C 
HETATM   13  N   UNL     1      59.664   8.304   1.288  1.00  0.00    -0.072 N 
HETATM   14  C   UNL     1      61.000   8.602   0.730  1.00  0.00     0.252 C 
HETATM   15  H   UNL     1      59.118   7.775   0.609  1.00  0.00     0.277 HD
HETATM   16  H   UNL     1      59.174   9.175   1.500  1.00  0.00     0.277 HD
HETATM   17  C   UNL     1      61.984   9.262   1.726  1.00  0.00     0.150 C 
ENDBRANCH   1  10
TORSDOF 1
ENDMDL
