MODEL 1
REMARK VINA RESULT:      -4.4      0.000      0.000
REMARK  1 active torsions:
REMARK  status: ('A' for Active; 'I' for Inactive)
REMARK    1  A    between atoms: C_1  and  C_4 
ROOT
HETATM    1  C   UNL     1      77.884  10.882  19.255  1.00  0.00     0.077 A 
HETATM    2  N   UNL     1      78.641  11.225  20.391  1.00  0.00    -0.351 N 
ATOM      3  HN  UNL     1      79.435  10.691  20.745  1.00  0.00     0.166 HD
HETATM    4  C   UNL     1      76.861  11.781  18.990  1.00  0.00     0.084 A 
HETATM    5  C   UNL     1      78.179  12.335  20.934  1.00  0.00     0.047 A 
HETATM    6  S   UNL     1      76.833  13.043  20.139  1.00  0.00    -0.087 SA
HETATM    7  C   UNL     1      78.724  12.996  22.154  1.00  0.00     0.076 C 
ENDROOT
BRANCH   1   8
HETATM    8  C   UNL     1      78.207   9.680  18.484  1.00  0.00     0.121 C 
HETATM    9  S   UNL     1      77.034   8.622  17.961  1.00  0.00    -0.059 SA
HETATM   10  N   UNL     1      79.522   9.447  18.204  1.00  0.00    -0.388 N 
HETATM   11  H   UNL     1      80.211  10.078  18.517  1.00  0.00     0.157 HD
HETATM   12  H   UNL     1      79.783   8.649  17.688  1.00  0.00     0.157 HD
ENDBRANCH   1   8
TORSDOF 1
ENDMDL
MODEL 2
REMARK VINA RESULT:      -4.3      6.268      8.000
REMARK  1 active torsions:
REMARK  status: ('A' for Active; 'I' for Inactive)
REMARK    1  A    between atoms: C_1  and  C_4 
ROOT
HETATM    1  C   UNL     1      76.778   3.241  17.934  1.00  0.00     0.077 A 
HETATM    2  N   UNL     1      77.311   4.525  18.156  1.00  0.00    -0.351 N 
ATOM      3  HN  UNL     1      78.139   4.722  18.717  1.00  0.00     0.166 HD
HETATM    4  C   UNL     1      75.647   3.252  17.131  1.00  0.00     0.084 A 
HETATM    5  C   UNL     1      76.587   5.437  17.536  1.00  0.00     0.047 A 
HETATM    6  S   UNL     1      75.242   4.840  16.653  1.00  0.00    -0.087 SA
HETATM    7  C   UNL     1      76.843   6.906  17.551  1.00  0.00     0.076 C 
ENDROOT
BRANCH   1   8
HETATM    8  C   UNL     1      77.411   2.062  18.528  1.00  0.00     0.121 C 
HETATM    9  S   UNL     1      77.254   0.544  17.866  1.00  0.00    -0.059 SA
HETATM   10  N   UNL     1      78.146   2.248  19.663  1.00  0.00    -0.388 N 
HETATM   11  H   UNL     1      78.235   3.150  20.050  1.00  0.00     0.157 HD
HETATM   12  H   UNL     1      78.588   1.482  20.095  1.00  0.00     0.157 HD
ENDBRANCH   1   8
TORSDOF 1
ENDMDL
MODEL 3
REMARK VINA RESULT:      -4.2      1.986      4.064
REMARK  1 active torsions:
REMARK  status: ('A' for Active; 'I' for Inactive)
REMARK    1  A    between atoms: C_1  and  C_4 
ROOT
HETATM    1  C   UNL     1      78.452  12.242  21.154  1.00  0.00     0.077 A 
HETATM    2  N   UNL     1      78.383  11.115  20.313  1.00  0.00    -0.351 N 
ATOM      3  HN  UNL     1      78.895  10.246  20.461  1.00  0.00     0.166 HD
HETATM    4  C   UNL     1      77.652  13.291  20.727  1.00  0.00     0.084 A 
HETATM    5  C   UNL     1      77.562  11.343  19.306  1.00  0.00     0.047 A 
HETATM    6  S   UNL     1      76.819  12.891  19.291  1.00  0.00    -0.087 SA
HETATM    7  C   UNL     1      77.245  10.383  18.210  1.00  0.00     0.076 C 
ENDROOT
BRANCH   1   8
HETATM    8  C   UNL     1      79.307  12.229  22.343  1.00  0.00     0.121 C 
HETATM    9  S   UNL     1      80.829  12.901  22.346  1.00  0.00    -0.059 SA
HETATM   10  N   UNL     1      78.811  11.636  23.468  1.00  0.00    -0.388 N 
HETATM   11  H   UNL     1      77.909  11.240  23.459  1.00  0.00     0.157 HD
HETATM   12  H   UNL     1      79.354  11.605  24.289  1.00  0.00     0.157 HD
ENDBRANCH   1   8
TORSDOF 1
ENDMDL
MODEL 4
REMARK VINA RESULT:      -3.9      7.599      9.225
REMARK  1 active torsions:
REMARK  status: ('A' for Active; 'I' for Inactive)
REMARK    1  A    between atoms: C_1  and  C_4 
ROOT
HETATM    1  C   UNL     1      76.450   3.037  17.703  1.00  0.00     0.077 A 
HETATM    2  N   UNL     1      77.522   2.883  18.602  1.00  0.00    -0.351 N 
ATOM      3  HN  UNL     1      78.038   3.651  19.030  1.00  0.00     0.166 HD
HETATM    4  C   UNL     1      75.922   1.828  17.272  1.00  0.00     0.084 A 
HETATM    5  C   UNL     1      77.765   1.603  18.813  1.00  0.00     0.047 A 
HETATM    6  S   UNL     1      76.746   0.507  17.972  1.00  0.00    -0.087 SA
HETATM    7  C   UNL     1      78.832   1.058  19.699  1.00  0.00     0.076 C 
ENDROOT
BRANCH   1   8
HETATM    8  C   UNL     1      75.997   4.373  17.310  1.00  0.00     0.121 C 
HETATM    9  S   UNL     1      76.985   5.708  17.412  1.00  0.00    -0.059 SA
HETATM   10  N   UNL     1      74.717   4.493  16.851  1.00  0.00    -0.388 N 
HETATM   11  H   UNL     1      74.138   3.699  16.794  1.00  0.00     0.157 HD
HETATM   12  H   UNL     1      74.373   5.374  16.577  1.00  0.00     0.157 HD
ENDBRANCH   1   8
TORSDOF 1
ENDMDL
MODEL 5
REMARK VINA RESULT:      -3.9      2.669      4.018
REMARK  1 active torsions:
REMARK  status: ('A' for Active; 'I' for Inactive)
REMARK    1  A    between atoms: C_1  and  C_4 
ROOT
HETATM    1  C   UNL     1      79.294  12.307  21.954  1.00  0.00     0.077 A 
HETATM    2  N   UNL     1      78.946  11.892  23.253  1.00  0.00    -0.351 N 
ATOM      3  HN  UNL     1      78.075  11.424  23.501  1.00  0.00     0.166 HD
HETATM    4  C   UNL     1      80.539  12.916  21.891  1.00  0.00     0.084 A 
HETATM    5  C   UNL     1      79.907  12.193  24.105  1.00  0.00     0.047 A 
HETATM    6  S   UNL     1      81.277  12.976  23.429  1.00  0.00    -0.087 SA
HETATM    7  C   UNL     1      79.888  11.913  25.569  1.00  0.00     0.076 C 
ENDROOT
BRANCH   1   8
HETATM    8  C   UNL     1      78.377  12.084  20.834  1.00  0.00     0.121 C 
HETATM    9  S   UNL     1      77.040  13.041  20.580  1.00  0.00    -0.059 SA
HETATM   10  N   UNL     1      78.656  11.049  19.990  1.00  0.00    -0.388 N 
HETATM   11  H   UNL     1      79.450  10.486  20.146  1.00  0.00     0.157 HD
HETATM   12  H   UNL     1      78.065  10.864  19.224  1.00  0.00     0.157 HD
ENDBRANCH   1   8
TORSDOF 1
ENDMDL
MODEL 6
REMARK VINA RESULT:      -3.7     15.337     16.717
REMARK  1 active torsions:
REMARK  status: ('A' for Active; 'I' for Inactive)
REMARK    1  A    between atoms: C_1  and  C_4 
ROOT
HETATM    1  C   UNL     1      67.317   5.985   7.810  1.00  0.00     0.077 A 
HETATM    2  N   UNL     1      68.701   6.173   7.991  1.00  0.00    -0.351 N 
ATOM      3  HN  UNL     1      69.215   7.011   7.720  1.00  0.00     0.166 HD
HETATM    4  C   UNL     1      66.869   4.756   8.270  1.00  0.00     0.084 A 
HETATM    5  C   UNL     1      69.238   5.112   8.561  1.00  0.00     0.047 A 
HETATM    6  S   UNL     1      68.150   3.834   8.922  1.00  0.00    -0.087 SA
HETATM    7  C   UNL     1      70.680   4.946   8.901  1.00  0.00     0.076 C 
ENDROOT
BRANCH   1   8
HETATM    8  C   UNL     1      66.502   7.031   7.188  1.00  0.00     0.121 C 
HETATM    9  S   UNL     1      64.953   6.745   6.652  1.00  0.00    -0.059 SA
HETATM   10  N   UNL     1      67.061   8.270   7.057  1.00  0.00    -0.388 N 
HETATM   11  H   UNL     1      67.979   8.431   7.376  1.00  0.00     0.157 HD
HETATM   12  H   UNL     1      66.548   9.001   6.644  1.00  0.00     0.157 HD
ENDBRANCH   1   8
TORSDOF 1
ENDMDL
MODEL 7
REMARK VINA RESULT:      -3.7     19.087     20.271
REMARK  1 active torsions:
REMARK  status: ('A' for Active; 'I' for Inactive)
REMARK    1  A    between atoms: C_1  and  C_4 
ROOT
HETATM    1  C   UNL     1      64.000   9.033   5.006  1.00  0.00     0.077 A 
HETATM    2  N   UNL     1      65.021   8.893   5.965  1.00  0.00    -0.351 N 
ATOM      3  HN  UNL     1      65.232   9.573   6.694  1.00  0.00     0.166 HD
HETATM    4  C   UNL     1      63.924   7.960   4.130  1.00  0.00     0.084 A 
HETATM    5  C   UNL     1      65.667   7.756   5.787  1.00  0.00     0.047 A 
HETATM    6  S   UNL     1      65.109   6.783   4.487  1.00  0.00    -0.087 SA
HETATM    7  C   UNL     1      66.814   7.272   6.607  1.00  0.00     0.076 C 
ENDROOT
BRANCH   1   8
HETATM    8  C   UNL     1      63.146  10.223   5.000  1.00  0.00     0.121 C 
HETATM    9  S   UNL     1      61.963  10.457   3.855  1.00  0.00    -0.059 SA
HETATM   10  N   UNL     1      63.356  11.151   5.978  1.00  0.00    -0.388 N 
HETATM   11  H   UNL     1      64.059  11.006   6.653  1.00  0.00     0.157 HD
HETATM   12  H   UNL     1      62.804  11.966   6.010  1.00  0.00     0.157 HD
ENDBRANCH   1   8
TORSDOF 1
ENDMDL
MODEL 8
REMARK VINA RESULT:      -3.6     16.195     17.432
REMARK  1 active torsions:
REMARK  status: ('A' for Active; 'I' for Inactive)
REMARK    1  A    between atoms: C_1  and  C_4 
ROOT
HETATM    1  C   UNL     1      66.940   6.931   6.671  1.00  0.00     0.077 A 
HETATM    2  N   UNL     1      68.196   6.360   6.950  1.00  0.00    -0.351 N 
ATOM      3  HN  UNL     1      68.997   6.380   6.321  1.00  0.00     0.166 HD
HETATM    4  C   UNL     1      66.024   6.765   7.699  1.00  0.00     0.084 A 
HETATM    5  C   UNL     1      68.188   5.794   8.142  1.00  0.00     0.047 A 
HETATM    6  S   UNL     1      66.709   5.905   9.006  1.00  0.00    -0.087 SA
HETATM    7  C   UNL     1      69.337   5.084   8.772  1.00  0.00     0.076 C 
ENDROOT
BRANCH   1   8
HETATM    8  C   UNL     1      66.703   7.615   5.398  1.00  0.00     0.121 C 
HETATM    9  S   UNL     1      65.203   8.193   4.968  1.00  0.00    -0.059 SA
HETATM   10  N   UNL     1      67.768   7.765   4.557  1.00  0.00    -0.388 N 
HETATM   11  H   UNL     1      68.653   7.421   4.818  1.00  0.00     0.157 HD
HETATM   12  H   UNL     1      67.652   8.219   3.691  1.00  0.00     0.157 HD
ENDBRANCH   1   8
TORSDOF 1
ENDMDL
MODEL 9
REMARK VINA RESULT:      -3.6     18.981     20.155
REMARK  1 active torsions:
REMARK  status: ('A' for Active; 'I' for Inactive)
REMARK    1  A    between atoms: C_1  and  C_4 
ROOT
HETATM    1  C   UNL     1      64.725   8.212   5.229  1.00  0.00     0.077 A 
HETATM    2  N   UNL     1      64.172   9.471   5.531  1.00  0.00    -0.351 N 
ATOM      3  HN  UNL     1      64.478  10.073   6.294  1.00  0.00     0.166 HD
HETATM    4  C   UNL     1      64.127   7.602   4.136  1.00  0.00     0.084 A 
HETATM    5  C   UNL     1      63.201   9.761   4.686  1.00  0.00     0.047 A 
HETATM    6  S   UNL     1      62.885   8.576   3.485  1.00  0.00    -0.087 SA
HETATM    7  C   UNL     1      62.381  11.006   4.702  1.00  0.00     0.076 C 
ENDROOT
BRANCH   1   8
HETATM    8  C   UNL     1      65.820   7.670   6.036  1.00  0.00     0.121 C 
HETATM    9  S   UNL     1      67.398   7.676   5.506  1.00  0.00    -0.059 SA
HETATM   10  N   UNL     1      65.503   7.150   7.257  1.00  0.00    -0.388 N 
HETATM   11  H   UNL     1      64.567   7.150   7.564  1.00  0.00     0.157 HD
HETATM   12  H   UNL     1      66.210   6.775   7.831  1.00  0.00     0.157 HD
ENDBRANCH   1   8
TORSDOF 1
ENDMDL
