MODEL 1
REMARK VINA RESULT:      -5.1      0.000      0.000
REMARK  1 active torsions:
REMARK  status: ('A' for Active; 'I' for Inactive)
REMARK    1  A    between atoms: C_1  and  C_2 
ROOT
HETATM    1  C   UNL     1      75.232   2.490  17.467  1.00  0.00     0.046 A 
HETATM    2  C   UNL     1      76.543   2.820  17.871  1.00  0.00    -0.043 A 
HETATM    3  C   UNL     1      74.423   3.471  16.863  1.00  0.00     0.020 A 
HETATM    4  C   UNL     1      77.009   4.132  17.628  1.00  0.00     0.031 A 
HETATM    5  C   UNL     1      76.196   5.089  17.020  1.00  0.00     0.034 A 
HETATM    6  C   UNL     1      74.901   4.763  16.638  1.00  0.00     0.025 A 
HETATM    7 CL   UNL     1      76.794   6.679  16.758  1.00  0.00    -0.084 Cl
HETATM    8  C   UNL     1      77.500   1.896  18.570  1.00  0.00     0.049 C 
ENDROOT
BRANCH   1   9
HETATM    9  C   UNL     1      74.579   1.166  17.647  1.00  0.00     0.209 C 
HETATM   10  O   UNL     1      74.302   0.662  18.719  1.00  0.00    -0.644 OA
HETATM   11  O   UNL     1      74.205   0.589  16.497  1.00  0.00    -0.644 OA
ENDBRANCH   1   9
TORSDOF 1
ENDMDL
MODEL 2
REMARK VINA RESULT:      -5.0     19.802     21.075
REMARK  1 active torsions:
REMARK  status: ('A' for Active; 'I' for Inactive)
REMARK    1  A    between atoms: C_1  and  C_2 
ROOT
HETATM    1  C   UNL     1      62.444   9.999   3.589  1.00  0.00     0.046 A 
HETATM    2  C   UNL     1      62.058  10.423   2.299  1.00  0.00    -0.043 A 
HETATM    3  C   UNL     1      62.737   8.642   3.815  1.00  0.00     0.020 A 
HETATM    4  C   UNL     1      62.003   9.462   1.266  1.00  0.00     0.031 A 
HETATM    5  C   UNL     1      62.306   8.121   1.507  1.00  0.00     0.034 A 
HETATM    6  C   UNL     1      62.671   7.706   2.781  1.00  0.00     0.025 A 
HETATM    7 CL   UNL     1      62.211   6.978   0.226  1.00  0.00    -0.084 Cl
HETATM    8  C   UNL     1      61.669  11.825   1.921  1.00  0.00     0.049 C 
ENDROOT
BRANCH   1   9
HETATM    9  C   UNL     1      62.549  10.870   4.790  1.00  0.00     0.209 C 
HETATM   10  O   UNL     1      62.033  11.965   4.909  1.00  0.00    -0.644 OA
HETATM   11  O   UNL     1      63.192  10.297   5.816  1.00  0.00    -0.644 OA
ENDBRANCH   1   9
TORSDOF 1
ENDMDL
MODEL 3
REMARK VINA RESULT:      -4.9      3.298      4.509
REMARK  1 active torsions:
REMARK  status: ('A' for Active; 'I' for Inactive)
REMARK    1  A    between atoms: C_1  and  C_2 
ROOT
HETATM    1  C   UNL     1      76.443   2.799  17.793  1.00  0.00     0.046 A 
HETATM    2  C   UNL     1      75.274   2.759  17.004  1.00  0.00    -0.043 A 
HETATM    3  C   UNL     1      77.266   1.660  17.875  1.00  0.00     0.020 A 
HETATM    4  C   UNL     1      74.983   1.572  16.297  1.00  0.00     0.031 A 
HETATM    5  C   UNL     1      75.815   0.455  16.383  1.00  0.00     0.034 A 
HETATM    6  C   UNL     1      76.956   0.494  17.173  1.00  0.00     0.025 A 
HETATM    7 CL   UNL     1      75.417  -0.978  15.521  1.00  0.00    -0.084 Cl
HETATM    8  C   UNL     1      74.278   3.876  16.862  1.00  0.00     0.049 C 
ENDROOT
BRANCH   1   9
HETATM    9  C   UNL     1      76.899   3.959  18.605  1.00  0.00     0.209 C 
HETATM   10  O   UNL     1      76.976   5.106  18.208  1.00  0.00    -0.644 OA
HETATM   11  O   UNL     1      77.131   3.659  19.891  1.00  0.00    -0.644 OA
ENDBRANCH   1   9
TORSDOF 1
ENDMDL
MODEL 4
REMARK VINA RESULT:      -4.9     17.876     19.229
REMARK  1 active torsions:
REMARK  status: ('A' for Active; 'I' for Inactive)
REMARK    1  A    between atoms: C_1  and  C_2 
ROOT
HETATM    1  C   UNL     1      63.869   8.543   4.607  1.00  0.00     0.046 A 
HETATM    2  C   UNL     1      63.027   9.663   4.437  1.00  0.00    -0.043 A 
HETATM    3  C   UNL     1      63.860   7.514   3.647  1.00  0.00     0.020 A 
HETATM    4  C   UNL     1      62.216   9.722   3.282  1.00  0.00     0.031 A 
HETATM    5  C   UNL     1      62.227   8.697   2.335  1.00  0.00     0.034 A 
HETATM    6  C   UNL     1      63.046   7.590   2.515  1.00  0.00     0.025 A 
HETATM    7 CL   UNL     1      61.213   8.799   0.951  1.00  0.00    -0.084 Cl
HETATM    8  C   UNL     1      62.893  10.809   5.400  1.00  0.00     0.049 C 
ENDROOT
BRANCH   1   9
HETATM    9  C   UNL     1      64.780   8.314   5.760  1.00  0.00     0.209 C 
HETATM   10  O   UNL     1      65.801   8.936   5.981  1.00  0.00    -0.644 OA
HETATM   11  O   UNL     1      64.324   7.406   6.635  1.00  0.00    -0.644 OA
ENDBRANCH   1   9
TORSDOF 1
ENDMDL
MODEL 5
REMARK VINA RESULT:      -4.8     12.514     13.816
REMARK  1 active torsions:
REMARK  status: ('A' for Active; 'I' for Inactive)
REMARK    1  A    between atoms: C_1  and  C_2 
ROOT
HETATM    1  C   UNL     1      66.803   6.621   7.343  1.00  0.00     0.046 A 
HETATM    2  C   UNL     1      67.516   5.632   6.634  1.00  0.00    -0.043 A 
HETATM    3  C   UNL     1      67.008   6.767   8.728  1.00  0.00     0.020 A 
HETATM    4  C   UNL     1      68.440   4.833   7.343  1.00  0.00     0.031 A 
HETATM    5  C   UNL     1      68.637   4.998   8.715  1.00  0.00     0.034 A 
HETATM    6  C   UNL     1      67.922   5.963   9.411  1.00  0.00     0.025 A 
HETATM    7 CL   UNL     1      69.758   3.993   9.546  1.00  0.00    -0.084 Cl
HETATM    8  C   UNL     1      67.365   5.327   5.169  1.00  0.00     0.049 C 
ENDROOT
BRANCH   1   9
HETATM    9  C   UNL     1      65.792   7.543   6.761  1.00  0.00     0.209 C 
HETATM   10  O   UNL     1      64.601   7.313   6.672  1.00  0.00    -0.644 OA
HETATM   11  O   UNL     1      66.289   8.741   6.420  1.00  0.00    -0.644 OA
ENDBRANCH   1   9
TORSDOF 1
ENDMDL
MODEL 6
REMARK VINA RESULT:      -4.6     17.564     18.833
REMARK  1 active torsions:
REMARK  status: ('A' for Active; 'I' for Inactive)
REMARK    1  A    between atoms: C_1  and  C_2 
ROOT
HETATM    1  C   UNL     1      64.077   8.321   4.743  1.00  0.00     0.046 A 
HETATM    2  C   UNL     1      64.026   7.438   3.643  1.00  0.00    -0.043 A 
HETATM    3  C   UNL     1      63.248   9.458   4.760  1.00  0.00     0.020 A 
HETATM    4  C   UNL     1      63.116   7.719   2.600  1.00  0.00     0.031 A 
HETATM    5  C   UNL     1      62.295   8.846   2.637  1.00  0.00     0.034 A 
HETATM    6  C   UNL     1      62.359   9.720   3.715  1.00  0.00     0.025 A 
HETATM    7 CL   UNL     1      61.212   9.161   1.340  1.00  0.00    -0.084 Cl
HETATM    8  C   UNL     1      64.884   6.217   3.463  1.00  0.00     0.049 C 
ENDROOT
BRANCH   1   9
HETATM    9  C   UNL     1      64.974   8.185   5.920  1.00  0.00     0.209 C 
HETATM   10  O   UNL     1      65.957   8.868   6.136  1.00  0.00    -0.644 OA
HETATM   11  O   UNL     1      64.549   7.288   6.821  1.00  0.00    -0.644 OA
ENDBRANCH   1   9
TORSDOF 1
ENDMDL
MODEL 7
REMARK VINA RESULT:      -4.6     10.159     11.276
REMARK  1 active torsions:
REMARK  status: ('A' for Active; 'I' for Inactive)
REMARK    1  A    between atoms: C_1  and  C_2 
ROOT
HETATM    1  C   UNL     1      69.095   2.871   9.212  1.00  0.00     0.046 A 
HETATM    2  C   UNL     1      68.770   2.640   7.859  1.00  0.00    -0.043 A 
HETATM    3  C   UNL     1      69.070   4.184   9.719  1.00  0.00     0.020 A 
HETATM    4  C   UNL     1      68.403   3.745   7.059  1.00  0.00     0.031 A 
HETATM    5  C   UNL     1      68.375   5.039   7.581  1.00  0.00     0.034 A 
HETATM    6  C   UNL     1      68.710   5.263   8.909  1.00  0.00     0.025 A 
HETATM    7 CL   UNL     1      67.939   6.360   6.570  1.00  0.00    -0.084 Cl
HETATM    8  C   UNL     1      68.802   1.305   7.169  1.00  0.00     0.049 C 
ENDROOT
BRANCH   1   9
HETATM    9  C   UNL     1      69.507   1.831  10.192  1.00  0.00     0.209 C 
HETATM   10  O   UNL     1      70.650   1.460  10.382  1.00  0.00    -0.644 OA
HETATM   11  O   UNL     1      68.503   1.385  10.960  1.00  0.00    -0.644 OA
ENDBRANCH   1   9
TORSDOF 1
ENDMDL
MODEL 8
REMARK VINA RESULT:      -4.6     11.124     12.313
REMARK  1 active torsions:
REMARK  status: ('A' for Active; 'I' for Inactive)
REMARK    1  A    between atoms: C_1  and  C_2 
ROOT
HETATM    1  C   UNL     1      68.816   4.756   8.643  1.00  0.00     0.046 A 
HETATM    2  C   UNL     1      68.223   4.185   7.497  1.00  0.00    -0.043 A 
HETATM    3  C   UNL     1      68.213   5.870   9.256  1.00  0.00     0.020 A 
HETATM    4  C   UNL     1      67.017   4.743   7.018  1.00  0.00     0.031 A 
HETATM    5  C   UNL     1      66.428   5.842   7.644  1.00  0.00     0.034 A 
HETATM    6  C   UNL     1      67.023   6.410   8.762  1.00  0.00     0.025 A 
HETATM    7 CL   UNL     1      64.969   6.503   7.019  1.00  0.00    -0.084 Cl
HETATM    8  C   UNL     1      68.778   3.031   6.710  1.00  0.00     0.049 C 
ENDROOT
BRANCH   1   9
HETATM    9  C   UNL     1      70.082   4.303   9.278  1.00  0.00     0.209 C 
HETATM   10  O   UNL     1      70.192   3.341  10.014  1.00  0.00    -0.644 OA
HETATM   11  O   UNL     1      71.161   4.995   8.885  1.00  0.00    -0.644 OA
ENDBRANCH   1   9
TORSDOF 1
ENDMDL
MODEL 9
REMARK VINA RESULT:      -4.3     19.307     20.687
REMARK  1 active torsions:
REMARK  status: ('A' for Active; 'I' for Inactive)
REMARK    1  A    between atoms: C_1  and  C_2 
ROOT
HETATM    1  C   UNL     1      62.495   9.505   3.123  1.00  0.00     0.046 A 
HETATM    2  C   UNL     1      62.149   8.599   2.098  1.00  0.00    -0.043 A 
HETATM    3  C   UNL     1      63.351   9.087   4.160  1.00  0.00     0.020 A 
HETATM    4  C   UNL     1      62.700   7.299   2.138  1.00  0.00     0.031 A 
HETATM    5  C   UNL     1      63.554   6.905   3.168  1.00  0.00     0.034 A 
HETATM    6  C   UNL     1      63.881   7.795   4.183  1.00  0.00     0.025 A 
HETATM    7 CL   UNL     1      64.191   5.308   3.190  1.00  0.00    -0.084 Cl
HETATM    8  C   UNL     1      61.210   8.886   0.960  1.00  0.00     0.049 C 
ENDROOT
BRANCH   1   9
HETATM    9  C   UNL     1      62.006  10.904   3.242  1.00  0.00     0.209 C 
HETATM   10  O   UNL     1      61.675  11.445   4.280  1.00  0.00    -0.644 OA
HETATM   11  O   UNL     1      62.055  11.592   2.093  1.00  0.00    -0.644 OA
ENDBRANCH   1   9
TORSDOF 1
ENDMDL
