MODEL 1
REMARK VINA RESULT:      -4.4      0.000      0.000
REMARK  2 active torsions:
REMARK  status: ('A' for Active; 'I' for Inactive)
REMARK    1  A    between atoms: C_3  and  C_6 
REMARK    2  A    between atoms: N_4  and  C_6 
ROOT
HETATM    1  N   UNL     1      77.462  11.210  18.885  1.00  0.00    -0.375 N 
ATOM      2  HN  UNL     1      77.700  10.431  18.272  1.00  0.00     0.164 HD
HETATM    3  C   UNL     1      77.861  12.491  20.910  1.00  0.00    -0.017 A 
HETATM    4  C   UNL     1      78.131  11.438  20.039  1.00  0.00     0.096 A 
HETATM    5  C   UNL     1      76.463  12.068  18.585  1.00  0.00     0.087 A 
HETATM    6  C   UNL     1      76.826  13.362  20.553  1.00  0.00     0.011 A 
HETATM    7  C   UNL     1      76.111  13.146  19.380  1.00  0.00     0.018 A 
ENDROOT
BRANCH   3   8
HETATM    8  C   UNL     1      78.674  12.689  22.161  1.00  0.00     0.271 C 
BRANCH   8   9
HETATM    9  N   UNL     1      79.854  11.825  22.183  1.00  0.00    -0.075 N 
HETATM   10  C   UNL     1      80.966  12.470  22.866  1.00  0.00     0.267 C 
HETATM   11  H   UNL     1      80.130  11.614  21.224  1.00  0.00     0.277 HD
HETATM   12  H   UNL     1      79.619  10.968  22.684  1.00  0.00     0.277 HD
ENDBRANCH   8   9
ENDBRANCH   3   8
TORSDOF 2
ENDMDL
MODEL 2
REMARK VINA RESULT:      -4.0      9.203     10.592
REMARK  2 active torsions:
REMARK  status: ('A' for Active; 'I' for Inactive)
REMARK    1  A    between atoms: C_3  and  C_6 
REMARK    2  A    between atoms: N_4  and  C_6 
ROOT
HETATM    1  N   UNL     1      77.344   4.172  18.272  1.00  0.00    -0.375 N 
ATOM      2  HN  UNL     1      78.171   4.195  18.867  1.00  0.00     0.164 HD
HETATM    3  C   UNL     1      75.465   2.955  17.329  1.00  0.00    -0.017 A 
HETATM    4  C   UNL     1      76.610   3.045  18.116  1.00  0.00     0.096 A 
HETATM    5  C   UNL     1      76.924   5.264  17.598  1.00  0.00     0.087 A 
HETATM    6  C   UNL     1      75.059   4.115  16.660  1.00  0.00     0.011 A 
HETATM    7  C   UNL     1      75.801   5.285  16.789  1.00  0.00     0.018 A 
ENDROOT
BRANCH   3   8
HETATM    8  C   UNL     1      74.689   1.668  17.235  1.00  0.00     0.271 C 
BRANCH   8   9
HETATM    9  N   UNL     1      74.807   0.873  18.457  1.00  0.00    -0.075 N 
HETATM   10  C   UNL     1      74.059  -0.371  18.350  1.00  0.00     0.267 C 
HETATM   11  H   UNL     1      74.444   1.414  19.242  1.00  0.00     0.277 HD
HETATM   12  H   UNL     1      75.792   0.648  18.603  1.00  0.00     0.277 HD
ENDBRANCH   8   9
ENDBRANCH   3   8
TORSDOF 2
ENDMDL
MODEL 3
REMARK VINA RESULT:      -4.0     20.672     23.033
REMARK  2 active torsions:
REMARK  status: ('A' for Active; 'I' for Inactive)
REMARK    1  A    between atoms: C_3  and  C_6 
REMARK    2  A    between atoms: N_4  and  C_6 
ROOT
HETATM    1  N   UNL     1      61.768  11.550   3.137  1.00  0.00    -0.375 N 
ATOM      2  HN  UNL     1      61.507  12.514   3.342  1.00  0.00     0.164 HD
HETATM    3  C   UNL     1      62.522   9.369   3.894  1.00  0.00    -0.017 A 
HETATM    4  C   UNL     1      62.165  10.698   4.110  1.00  0.00     0.096 A 
HETATM    5  C   UNL     1      61.736  11.060   1.879  1.00  0.00     0.087 A 
HETATM    6  C   UNL     1      62.460   8.900   2.577  1.00  0.00     0.011 A 
HETATM    7  C   UNL     1      62.070   9.756   1.553  1.00  0.00     0.018 A 
ENDROOT
BRANCH   3   8
HETATM    8  C   UNL     1      62.924   8.479   5.039  1.00  0.00     0.271 C 
BRANCH   8   9
HETATM    9  N   UNL     1      64.166   8.931   5.666  1.00  0.00    -0.075 N 
HETATM   10  C   UNL     1      65.315   8.206   5.142  1.00  0.00     0.267 C 
HETATM   11  H   UNL     1      64.106   8.777   6.673  1.00  0.00     0.277 HD
HETATM   12  H   UNL     1      64.288   9.924   5.463  1.00  0.00     0.277 HD
ENDBRANCH   8   9
ENDBRANCH   3   8
TORSDOF 2
ENDMDL
MODEL 4
REMARK VINA RESULT:      -3.8     16.258     17.203
REMARK  2 active torsions:
REMARK  status: ('A' for Active; 'I' for Inactive)
REMARK    1  A    between atoms: C_3  and  C_6 
REMARK    2  A    between atoms: N_4  and  C_6 
ROOT
HETATM    1  N   UNL     1      66.267   4.307   8.106  1.00  0.00    -0.375 N 
ATOM      2  HN  UNL     1      65.546   3.735   7.669  1.00  0.00     0.164 HD
HETATM    3  C   UNL     1      68.494   4.524   9.054  1.00  0.00    -0.017 A 
HETATM    4  C   UNL     1      67.466   3.791   8.465  1.00  0.00     0.096 A 
HETATM    5  C   UNL     1      66.075   5.620   8.358  1.00  0.00     0.087 A 
HETATM    6  C   UNL     1      68.255   5.883   9.283  1.00  0.00     0.011 A 
HETATM    7  C   UNL     1      67.028   6.440   8.939  1.00  0.00     0.018 A 
ENDROOT
BRANCH   3   8
HETATM    8  C   UNL     1      69.809   3.876   9.395  1.00  0.00     0.271 C 
BRANCH   8   9
HETATM    9  N   UNL     1      69.734   3.125  10.647  1.00  0.00    -0.075 N 
HETATM   10  C   UNL     1      69.685   1.691  10.398  1.00  0.00     0.267 C 
HETATM   11  H   UNL     1      68.894   3.404  11.153  1.00  0.00     0.277 HD
HETATM   12  H   UNL     1      70.569   3.330  11.198  1.00  0.00     0.277 HD
ENDBRANCH   8   9
ENDBRANCH   3   8
TORSDOF 2
ENDMDL
MODEL 5
REMARK VINA RESULT:      -3.8      1.327      1.801
REMARK  2 active torsions:
REMARK  status: ('A' for Active; 'I' for Inactive)
REMARK    1  A    between atoms: C_3  and  C_6 
REMARK    2  A    between atoms: N_4  and  C_6 
ROOT
HETATM    1  N   UNL     1      76.399  13.352  20.588  1.00  0.00    -0.375 N 
ATOM      2  HN  UNL     1      75.717  14.042  20.901  1.00  0.00     0.164 HD
HETATM    3  C   UNL     1      78.515  12.200  20.892  1.00  0.00    -0.017 A 
HETATM    4  C   UNL     1      77.552  13.135  21.262  1.00  0.00     0.096 A 
HETATM    5  C   UNL     1      76.196  12.608  19.480  1.00  0.00     0.087 A 
HETATM    6  C   UNL     1      78.257  11.441  19.744  1.00  0.00     0.011 A 
HETATM    7  C   UNL     1      77.087  11.651  19.023  1.00  0.00     0.018 A 
ENDROOT
BRANCH   3   8
HETATM    8  C   UNL     1      79.759  12.002  21.716  1.00  0.00     0.271 C 
BRANCH   8   9
HETATM    9  N   UNL     1      79.467  12.004  23.149  1.00  0.00    -0.075 N 
HETATM   10  C   UNL     1      80.386  12.871  23.872  1.00  0.00     0.267 C 
HETATM   11  H   UNL     1      79.553  11.054  23.508  1.00  0.00     0.277 HD
HETATM   12  H   UNL     1      78.517  12.354  23.284  1.00  0.00     0.277 HD
ENDBRANCH   8   9
ENDBRANCH   3   8
TORSDOF 2
ENDMDL
MODEL 6
REMARK VINA RESULT:      -3.8     16.137     17.367
REMARK  2 active torsions:
REMARK  status: ('A' for Active; 'I' for Inactive)
REMARK    1  A    between atoms: C_3  and  C_6 
REMARK    2  A    between atoms: N_4  and  C_6 
ROOT
HETATM    1  N   UNL     1      69.772   2.794  10.708  1.00  0.00    -0.375 N 
ATOM      2  HN  UNL     1      70.133   2.822  11.661  1.00  0.00     0.164 HD
HETATM    3  C   UNL     1      68.983   3.951   8.724  1.00  0.00    -0.017 A 
HETATM    4  C   UNL     1      69.467   3.924  10.029  1.00  0.00     0.096 A 
HETATM    5  C   UNL     1      69.574   1.627  10.060  1.00  0.00     0.087 A 
HETATM    6  C   UNL     1      68.806   2.718   8.086  1.00  0.00     0.011 A 
HETATM    7  C   UNL     1      69.097   1.539   8.762  1.00  0.00     0.018 A 
ENDROOT
BRANCH   3   8
HETATM    8  C   UNL     1      68.697   5.256   8.030  1.00  0.00     0.271 C 
BRANCH   8   9
HETATM    9  N   UNL     1      68.220   6.274   8.967  1.00  0.00    -0.075 N 
HETATM   10  C   UNL     1      66.765   6.303   9.015  1.00  0.00     0.267 C 
HETATM   11  H   UNL     1      68.561   7.187   8.668  1.00  0.00     0.277 HD
HETATM   12  H   UNL     1      68.571   6.046   9.898  1.00  0.00     0.277 HD
ENDBRANCH   8   9
ENDBRANCH   3   8
TORSDOF 2
ENDMDL
MODEL 7
REMARK VINA RESULT:      -3.7     16.698     17.855
REMARK  2 active torsions:
REMARK  status: ('A' for Active; 'I' for Inactive)
REMARK    1  A    between atoms: C_3  and  C_6 
REMARK    2  A    between atoms: N_4  and  C_6 
ROOT
HETATM    1  N   UNL     1      67.524   3.024   9.166  1.00  0.00    -0.375 N 
ATOM      2  HN  UNL     1      66.824   2.310   9.366  1.00  0.00     0.164 HD
HETATM    3  C   UNL     1      68.212   5.011   7.951  1.00  0.00    -0.017 A 
HETATM    4  C   UNL     1      67.302   4.003   8.258  1.00  0.00     0.096 A 
HETATM    5  C   UNL     1      68.719   3.040   9.793  1.00  0.00     0.087 A 
HETATM    6  C   UNL     1      69.433   4.997   8.636  1.00  0.00     0.011 A 
HETATM    7  C   UNL     1      69.695   3.995   9.564  1.00  0.00     0.018 A 
ENDROOT
BRANCH   3   8
HETATM    8  C   UNL     1      67.874   6.081   6.948  1.00  0.00     0.271 C 
BRANCH   8   9
HETATM    9  N   UNL     1      67.229   7.232   7.580  1.00  0.00    -0.075 N 
HETATM   10  C   UNL     1      66.663   8.130   6.584  1.00  0.00     0.267 C 
HETATM   11  H   UNL     1      67.921   7.740   8.130  1.00  0.00     0.277 HD
HETATM   12  H   UNL     1      66.474   6.892   8.177  1.00  0.00     0.277 HD
ENDBRANCH   8   9
ENDBRANCH   3   8
TORSDOF 2
ENDMDL
MODEL 8
REMARK VINA RESULT:      -3.7     21.395     23.937
REMARK  2 active torsions:
REMARK  status: ('A' for Active; 'I' for Inactive)
REMARK    1  A    between atoms: C_3  and  C_6 
REMARK    2  A    between atoms: N_4  and  C_6 
ROOT
HETATM    1  N   UNL     1      63.482   9.526   5.409  1.00  0.00    -0.375 N 
ATOM      2  HN  UNL     1      64.045   9.070   6.127  1.00  0.00     0.164 HD
HETATM    3  C   UNL     1      62.367   9.456   3.252  1.00  0.00    -0.017 A 
HETATM    4  C   UNL     1      63.143   8.892   4.262  1.00  0.00     0.096 A 
HETATM    5  C   UNL     1      63.037  10.792   5.555  1.00  0.00     0.087 A 
HETATM    6  C   UNL     1      61.917  10.765   3.452  1.00  0.00     0.011 A 
HETATM    7  C   UNL     1      62.261  11.448   4.614  1.00  0.00     0.018 A 
ENDROOT
BRANCH   3   8
HETATM    8  C   UNL     1      62.011   8.669   2.019  1.00  0.00     0.271 C 
BRANCH   8   9
HETATM    9  N   UNL     1      60.698   9.044   1.497  1.00  0.00    -0.075 N 
HETATM   10  C   UNL     1      60.185   8.032   0.585  1.00  0.00     0.267 C 
HETATM   11  H   UNL     1      60.778   9.931   1.000  1.00  0.00     0.277 HD
HETATM   12  H   UNL     1      60.051   9.132   2.282  1.00  0.00     0.277 HD
ENDBRANCH   8   9
ENDBRANCH   3   8
TORSDOF 2
ENDMDL
MODEL 9
REMARK VINA RESULT:      -3.5     19.650     21.875
REMARK  2 active torsions:
REMARK  status: ('A' for Active; 'I' for Inactive)
REMARK    1  A    between atoms: C_3  and  C_6 
REMARK    2  A    between atoms: N_4  and  C_6 
ROOT
HETATM    1  N   UNL     1      62.407   8.841   2.677  1.00  0.00    -0.375 N 
ATOM      2  HN  UNL     1      62.114   8.423   1.795  1.00  0.00     0.164 HD
HETATM    3  C   UNL     1      63.804   8.796   4.664  1.00  0.00    -0.017 A 
HETATM    4  C   UNL     1      63.353   8.268   3.457  1.00  0.00     0.096 A 
HETATM    5  C   UNL     1      61.871   9.995   3.127  1.00  0.00     0.087 A 
HETATM    6  C   UNL     1      63.229  10.001   5.084  1.00  0.00     0.011 A 
HETATM    7  C   UNL     1      62.244  10.607   4.312  1.00  0.00     0.018 A 
ENDROOT
BRANCH   3   8
HETATM    8  C   UNL     1      64.883   8.108   5.456  1.00  0.00     0.271 C 
BRANCH   8   9
HETATM    9  N   UNL     1      64.341   7.416   6.624  1.00  0.00    -0.075 N 
HETATM   10  C   UNL     1      65.343   6.558   7.240  1.00  0.00     0.267 C 
HETATM   11  H   UNL     1      63.547   6.845   6.334  1.00  0.00     0.277 HD
HETATM   12  H   UNL     1      64.048   8.116   7.307  1.00  0.00     0.277 HD
ENDBRANCH   8   9
ENDBRANCH   3   8
TORSDOF 2
ENDMDL
