MODEL 1
REMARK VINA RESULT:      -4.2      0.000      0.000
REMARK  0 active torsions:
REMARK  status: ('A' for Active; 'I' for Inactive)
ROOT
HETATM    1  N   UNL     1      78.915  11.450  20.475  1.00  0.00    -0.266 N 
ATOM      2  HN  UNL     1      79.663  10.784  20.663  1.00  0.00     0.194 HD
HETATM    3  O   UNL     1      78.091  11.488  19.364  1.00  0.00    -0.243 OA
HETATM    4  C   UNL     1      77.454  13.181  20.666  1.00  0.00     0.060 A 
HETATM    5  C   UNL     1      77.218  12.524  19.483  1.00  0.00     0.074 A 
HETATM    6  C   UNL     1      78.526  12.469  21.251  1.00  0.00     0.031 A 
HETATM    7  C   UNL     1      76.260  12.710  18.380  1.00  0.00     0.079 C 
HETATM    8  C   UNL     1      79.200  12.730  22.542  1.00  0.00     0.070 C 
ENDROOT
TORSDOF 0
ENDMDL
MODEL 2
REMARK VINA RESULT:      -4.2     22.016     23.620
REMARK  0 active torsions:
REMARK  status: ('A' for Active; 'I' for Inactive)
ROOT
HETATM    1  N   UNL     1      61.572  11.321   2.235  1.00  0.00    -0.266 N 
ATOM      2  HN  UNL     1      61.180  11.836   1.447  1.00  0.00     0.194 HD
HETATM    3  O   UNL     1      61.896  11.823   3.482  1.00  0.00    -0.243 OA
HETATM    4  C   UNL     1      62.403   9.654   3.537  1.00  0.00     0.060 A 
HETATM    5  C   UNL     1      62.392  10.822   4.258  1.00  0.00     0.074 A 
HETATM    6  C   UNL     1      61.879  10.019   2.275  1.00  0.00     0.031 A 
HETATM    7  C   UNL     1      62.788  11.185   5.630  1.00  0.00     0.079 C 
HETATM    8  C   UNL     1      61.657   9.157   1.093  1.00  0.00     0.070 C 
ENDROOT
TORSDOF 0
ENDMDL
MODEL 3
REMARK VINA RESULT:      -4.1      2.237      3.296
REMARK  0 active torsions:
REMARK  status: ('A' for Active; 'I' for Inactive)
ROOT
HETATM    1  N   UNL     1      79.351  10.045  19.133  1.00  0.00    -0.266 N 
ATOM      2  HN  UNL     1      80.111   9.416  18.875  1.00  0.00     0.194 HD
HETATM    3  O   UNL     1      79.437  11.178  19.922  1.00  0.00    -0.243 OA
HETATM    4  C   UNL     1      77.298  11.001  19.324  1.00  0.00     0.060 A 
HETATM    5  C   UNL     1      78.207  11.747  20.034  1.00  0.00     0.074 A 
HETATM    6  C   UNL     1      78.064   9.946  18.778  1.00  0.00     0.031 A 
HETATM    7  C   UNL     1      78.117  12.973  20.844  1.00  0.00     0.079 C 
HETATM    8  C   UNL     1      77.606   8.833  17.917  1.00  0.00     0.070 C 
ENDROOT
TORSDOF 0
ENDMDL
MODEL 4
REMARK VINA RESULT:      -4.1      7.987      8.748
REMARK  0 active torsions:
REMARK  status: ('A' for Active; 'I' for Inactive)
ROOT
HETATM    1  N   UNL     1      76.487   3.690  18.345  1.00  0.00    -0.266 N 
ATOM      2  HN  UNL     1      76.683   2.871  18.920  1.00  0.00     0.194 HD
HETATM    3  O   UNL     1      76.989   4.968  18.513  1.00  0.00    -0.243 OA
HETATM    4  C   UNL     1      75.659   5.055  16.728  1.00  0.00     0.060 A 
HETATM    5  C   UNL     1      76.492   5.781  17.543  1.00  0.00     0.074 A 
HETATM    6  C   UNL     1      75.689   3.751  17.272  1.00  0.00     0.031 A 
HETATM    7  C   UNL     1      76.929   7.187  17.572  1.00  0.00     0.079 C 
HETATM    8  C   UNL     1      74.976   2.544  16.796  1.00  0.00     0.070 C 
ENDROOT
TORSDOF 0
ENDMDL
MODEL 5
REMARK VINA RESULT:      -4.1     14.204     14.267
REMARK  0 active torsions:
REMARK  status: ('A' for Active; 'I' for Inactive)
ROOT
HETATM    1  N   UNL     1      72.797  22.798  12.608  1.00  0.00    -0.266 N 
ATOM      2  HN  UNL     1      73.633  23.289  12.925  1.00  0.00     0.194 HD
HETATM    3  O   UNL     1      72.711  21.872  11.584  1.00  0.00    -0.243 OA
HETATM    4  C   UNL     1      70.651  22.076  12.409  1.00  0.00     0.060 A 
HETATM    5  C   UNL     1      71.425  21.443  11.469  1.00  0.00     0.074 A 
HETATM    6  C   UNL     1      71.557  22.915  13.099  1.00  0.00     0.031 A 
HETATM    7  C   UNL     1      71.154  20.445  10.420  1.00  0.00     0.079 C 
HETATM    8  C   UNL     1      71.278  23.834  14.224  1.00  0.00     0.070 C 
ENDROOT
TORSDOF 0
ENDMDL
MODEL 6
REMARK VINA RESULT:      -4.0     14.316     14.745
REMARK  0 active torsions:
REMARK  status: ('A' for Active; 'I' for Inactive)
ROOT
HETATM    1  N   UNL     1      72.766  23.139  12.356  1.00  0.00    -0.266 N 
ATOM      2  HN  UNL     1      73.381  22.814  11.610  1.00  0.00     0.194 HD
HETATM    3  O   UNL     1      72.963  24.230  13.183  1.00  0.00    -0.243 OA
HETATM    4  C   UNL     1      71.027  23.321  13.807  1.00  0.00     0.060 A 
HETATM    5  C   UNL     1      71.920  24.336  14.050  1.00  0.00     0.074 A 
HETATM    6  C   UNL     1      71.602  22.599  12.737  1.00  0.00     0.031 A 
HETATM    7  C   UNL     1      71.968  25.453  15.007  1.00  0.00     0.079 C 
HETATM    8  C   UNL     1      71.072  21.397  12.055  1.00  0.00     0.070 C 
ENDROOT
TORSDOF 0
ENDMDL
MODEL 7
REMARK VINA RESULT:      -3.9      9.115      9.624
REMARK  0 active torsions:
REMARK  status: ('A' for Active; 'I' for Inactive)
ROOT
HETATM    1  N   UNL     1      77.029   3.821  18.722  1.00  0.00    -0.266 N 
ATOM      2  HN  UNL     1      77.727   4.126  19.399  1.00  0.00     0.194 HD
HETATM    3  O   UNL     1      76.360   2.611  18.700  1.00  0.00    -0.243 OA
HETATM    4  C   UNL     1      75.602   3.768  16.953  1.00  0.00     0.060 A 
HETATM    5  C   UNL     1      75.507   2.583  17.641  1.00  0.00     0.074 A 
HETATM    6  C   UNL     1      76.569   4.510  17.670  1.00  0.00     0.031 A 
HETATM    7  C   UNL     1      74.707   1.359  17.469  1.00  0.00     0.079 C 
HETATM    8  C   UNL     1      77.074   5.871  17.384  1.00  0.00     0.070 C 
ENDROOT
TORSDOF 0
ENDMDL
MODEL 8
REMARK VINA RESULT:      -3.7      4.802      5.508
REMARK  0 active torsions:
REMARK  status: ('A' for Active; 'I' for Inactive)
ROOT
HETATM    1  N   UNL     1      77.103   7.944  17.159  1.00  0.00    -0.266 N 
ATOM      2  HN  UNL     1      76.792   7.296  17.882  1.00  0.00     0.194 HD
HETATM    3  O   UNL     1      77.151   7.713  15.796  1.00  0.00    -0.243 OA
HETATM    4  C   UNL     1      77.893   9.792  16.098  1.00  0.00     0.060 A 
HETATM    5  C   UNL     1      77.623   8.821  15.165  1.00  0.00     0.074 A 
HETATM    6  C   UNL     1      77.551   9.193  17.332  1.00  0.00     0.031 A 
HETATM    7  C   UNL     1      77.737   8.748  13.699  1.00  0.00     0.079 C 
HETATM    8  C   UNL     1      77.634   9.780  18.688  1.00  0.00     0.070 C 
ENDROOT
TORSDOF 0
ENDMDL
MODEL 9
REMARK VINA RESULT:      -3.6      9.800     10.337
REMARK  0 active torsions:
REMARK  status: ('A' for Active; 'I' for Inactive)
ROOT
HETATM    1  N   UNL     1      78.568  19.596  14.974  1.00  0.00    -0.266 N 
ATOM      2  HN  UNL     1      78.026  18.740  15.091  1.00  0.00     0.194 HD
HETATM    3  O   UNL     1      79.743  19.749  14.262  1.00  0.00    -0.243 OA
HETATM    4  C   UNL     1      79.266  21.754  15.106  1.00  0.00     0.060 A 
HETATM    5  C   UNL     1      80.158  21.041  14.343  1.00  0.00     0.074 A 
HETATM    6  C   UNL     1      78.288  20.804  15.478  1.00  0.00     0.031 A 
HETATM    7  C   UNL     1      81.402  21.382  13.634  1.00  0.00     0.079 C 
HETATM    8  C   UNL     1      77.079  21.011  16.306  1.00  0.00     0.070 C 
ENDROOT
TORSDOF 0
ENDMDL
