MODEL 1
REMARK VINA RESULT:      -5.7      0.000      0.000
REMARK  1 active torsions:
REMARK  status: ('A' for Active; 'I' for Inactive)
REMARK    1  A    between atoms: C_1  and  C_2 
REMARK       I    between atoms: C_2  and  N_6 
ROOT
HETATM    1  C   UNL     1      77.291  11.209  18.757  1.00  0.00     0.038 A 
HETATM    2  C   UNL     1      78.317  11.383  19.719  1.00  0.00    -0.040 A 
HETATM    3  C   UNL     1      78.179  12.414  20.690  1.00  0.00    -0.055 A 
HETATM    4  C   UNL     1      76.173  12.063  18.770  1.00  0.00     0.017 A 
HETATM    5  C   UNL     1      79.559  10.526  19.775  1.00  0.00     0.050 C 
HETATM    6  C   UNL     1      76.047  13.066  19.725  1.00  0.00     0.002 A 
HETATM    7  C   UNL     1      77.043  13.240  20.680  1.00  0.00     0.007 A 
HETATM    8  C   UNL     1      79.231  12.658  21.741  1.00  0.00     0.049 C 
ENDROOT
BRANCH   1   9
HETATM    9  C   UNL     1      77.353  10.176  17.675  1.00  0.00     0.249 C 
HETATM   10  O   UNL     1      77.701  10.423  16.526  1.00  0.00    -0.268 OA
HETATM   11  N   UNL     1      76.991   8.896  18.005  1.00  0.00    -0.366 N 
HETATM   12  H   UNL     1      76.710   8.687  18.925  1.00  0.00     0.159 HD
HETATM   13  H   UNL     1      77.010   8.188  17.322  1.00  0.00     0.159 HD
ENDBRANCH   1   9
TORSDOF 1
ENDMDL
MODEL 2
REMARK VINA RESULT:      -5.4     20.405     22.046
REMARK  1 active torsions:
REMARK  status: ('A' for Active; 'I' for Inactive)
REMARK    1  A    between atoms: C_1  and  C_2 
REMARK       I    between atoms: C_2  and  N_6 
ROOT
HETATM    1  C   UNL     1      62.887   9.310   4.200  1.00  0.00     0.038 A 
HETATM    2  C   UNL     1      62.815   8.612   2.968  1.00  0.00    -0.040 A 
HETATM    3  C   UNL     1      62.251   9.271   1.840  1.00  0.00    -0.055 A 
HETATM    4  C   UNL     1      62.389  10.624   4.285  1.00  0.00     0.017 A 
HETATM    5  C   UNL     1      63.309   7.198   2.783  1.00  0.00     0.050 C 
HETATM    6  C   UNL     1      61.843  11.258   3.175  1.00  0.00     0.002 A 
HETATM    7  C   UNL     1      61.775  10.587   1.959  1.00  0.00     0.007 A 
HETATM    8  C   UNL     1      62.140   8.589   0.499  1.00  0.00     0.049 C 
ENDROOT
BRANCH   1   9
HETATM    9  C   UNL     1      63.432   8.700   5.453  1.00  0.00     0.249 C 
HETATM   10  O   UNL     1      62.736   8.121   6.279  1.00  0.00    -0.268 OA
HETATM   11  N   UNL     1      64.780   8.814   5.674  1.00  0.00    -0.366 N 
HETATM   12  H   UNL     1      65.348   9.276   5.017  1.00  0.00     0.159 HD
HETATM   13  H   UNL     1      65.179   8.433   6.489  1.00  0.00     0.159 HD
ENDBRANCH   1   9
TORSDOF 1
ENDMDL
MODEL 3
REMARK VINA RESULT:      -5.3     20.325     21.984
REMARK  1 active torsions:
REMARK  status: ('A' for Active; 'I' for Inactive)
REMARK    1  A    between atoms: C_1  and  C_2 
REMARK       I    between atoms: C_2  and  N_6 
ROOT
HETATM    1  C   UNL     1      62.887   8.826   4.085  1.00  0.00     0.038 A 
HETATM    2  C   UNL     1      62.468  10.145   3.778  1.00  0.00    -0.040 A 
HETATM    3  C   UNL     1      62.039  10.436   2.453  1.00  0.00    -0.055 A 
HETATM    4  C   UNL     1      62.886   7.843   3.078  1.00  0.00     0.017 A 
HETATM    5  C   UNL     1      62.448  11.268   4.787  1.00  0.00     0.050 C 
HETATM    6  C   UNL     1      62.462   8.139   1.787  1.00  0.00     0.002 A 
HETATM    7  C   UNL     1      62.040   9.427   1.476  1.00  0.00     0.007 A 
HETATM    8  C   UNL     1      61.582  11.817   2.054  1.00  0.00     0.049 C 
ENDROOT
BRANCH   1   9
HETATM    9  C   UNL     1      63.385   8.422   5.438  1.00  0.00     0.249 C 
HETATM   10  O   UNL     1      62.657   7.993   6.324  1.00  0.00    -0.268 OA
HETATM   11  N   UNL     1      64.728   8.555   5.679  1.00  0.00    -0.366 N 
HETATM   12  H   UNL     1      65.322   8.898   4.974  1.00  0.00     0.159 HD
HETATM   13  H   UNL     1      65.097   8.308   6.557  1.00  0.00     0.159 HD
ENDBRANCH   1   9
TORSDOF 1
ENDMDL
MODEL 4
REMARK VINA RESULT:      -5.3     20.865     22.351
REMARK  1 active torsions:
REMARK  status: ('A' for Active; 'I' for Inactive)
REMARK    1  A    between atoms: C_1  and  C_2 
REMARK       I    between atoms: C_2  and  N_6 
ROOT
HETATM    1  C   UNL     1      62.560   9.955   4.102  1.00  0.00     0.038 A 
HETATM    2  C   UNL     1      62.249   9.941   2.720  1.00  0.00    -0.040 A 
HETATM    3  C   UNL     1      62.313   8.706   2.015  1.00  0.00    -0.055 A 
HETATM    4  C   UNL     1      62.940   8.759   4.741  1.00  0.00     0.017 A 
HETATM    5  C   UNL     1      61.845  11.172   1.945  1.00  0.00     0.050 C 
HETATM    6  C   UNL     1      62.998   7.559   4.043  1.00  0.00     0.002 A 
HETATM    7  C   UNL     1      62.685   7.531   2.688  1.00  0.00     0.007 A 
HETATM    8  C   UNL     1      61.998   8.617   0.543  1.00  0.00     0.049 C 
ENDROOT
BRANCH   1   9
HETATM    9  C   UNL     1      62.553  11.203   4.928  1.00  0.00     0.249 C 
HETATM   10  O   UNL     1      61.855  12.177   4.672  1.00  0.00    -0.268 OA
HETATM   11  N   UNL     1      63.383  11.240   6.019  1.00  0.00    -0.366 N 
HETATM   12  H   UNL     1      63.947  10.463   6.234  1.00  0.00     0.159 HD
HETATM   13  H   UNL     1      63.414  12.044   6.585  1.00  0.00     0.159 HD
ENDBRANCH   1   9
TORSDOF 1
ENDMDL
MODEL 5
REMARK VINA RESULT:      -5.0     13.658     14.491
REMARK  1 active torsions:
REMARK  status: ('A' for Active; 'I' for Inactive)
REMARK    1  A    between atoms: C_1  and  C_2 
REMARK       I    between atoms: C_2  and  N_6 
ROOT
HETATM    1  C   UNL     1      72.035  22.608  13.000  1.00  0.00     0.038 A 
HETATM    2  C   UNL     1      70.905  23.259  13.556  1.00  0.00    -0.040 A 
HETATM    3  C   UNL     1      71.105  24.214  14.592  1.00  0.00    -0.055 A 
HETATM    4  C   UNL     1      73.320  22.906  13.492  1.00  0.00     0.017 A 
HETATM    5  C   UNL     1      69.489  22.997  13.105  1.00  0.00     0.050 C 
HETATM    6  C   UNL     1      73.503  23.842  14.503  1.00  0.00     0.002 A 
HETATM    7  C   UNL     1      72.403  24.494  15.049  1.00  0.00     0.007 A 
HETATM    8  C   UNL     1      69.949  24.942  15.230  1.00  0.00     0.049 C 
ENDROOT
BRANCH   1   9
HETATM    9  C   UNL     1      71.934  21.567  11.930  1.00  0.00     0.249 C 
HETATM   10  O   UNL     1      71.435  20.462  12.109  1.00  0.00    -0.268 OA
HETATM   11  N   UNL     1      72.438  21.883  10.695  1.00  0.00    -0.366 N 
HETATM   12  H   UNL     1      72.840  22.767  10.540  1.00  0.00     0.159 HD
HETATM   13  H   UNL     1      72.398  21.224   9.965  1.00  0.00     0.159 HD
ENDBRANCH   1   9
TORSDOF 1
ENDMDL
MODEL 6
REMARK VINA RESULT:      -5.0      0.779      2.379
REMARK  1 active torsions:
REMARK  status: ('A' for Active; 'I' for Inactive)
REMARK    1  A    between atoms: C_1  and  C_2 
REMARK       I    between atoms: C_2  and  N_6 
ROOT
HETATM    1  C   UNL     1      77.926  10.743  18.751  1.00  0.00     0.038 A 
HETATM    2  C   UNL     1      77.091  11.828  19.116  1.00  0.00    -0.040 A 
HETATM    3  C   UNL     1      77.461  12.633  20.231  1.00  0.00    -0.055 A 
HETATM    4  C   UNL     1      79.085  10.474  19.503  1.00  0.00     0.017 A 
HETATM    5  C   UNL     1      75.822  12.186  18.381  1.00  0.00     0.050 C 
HETATM    6  C   UNL     1      79.437  11.267  20.589  1.00  0.00     0.002 A 
HETATM    7  C   UNL     1      78.631  12.342  20.950  1.00  0.00     0.007 A 
HETATM    8  C   UNL     1      76.620  13.802  20.677  1.00  0.00     0.049 C 
ENDROOT
BRANCH   1   9
HETATM    9  C   UNL     1      77.613   9.818  17.617  1.00  0.00     0.249 C 
HETATM   10  O   UNL     1      77.881  10.069  16.448  1.00  0.00    -0.268 OA
HETATM   11  N   UNL     1      76.986   8.637  17.922  1.00  0.00    -0.366 N 
HETATM   12  H   UNL     1      76.767   8.425  18.858  1.00  0.00     0.159 HD
HETATM   13  H   UNL     1      76.756   8.003  17.206  1.00  0.00     0.159 HD
ENDBRANCH   1   9
TORSDOF 1
ENDMDL
MODEL 7
REMARK VINA RESULT:      -4.8     15.374     16.989
REMARK  1 active torsions:
REMARK  status: ('A' for Active; 'I' for Inactive)
REMARK    1  A    between atoms: C_1  and  C_2 
REMARK       I    between atoms: C_2  and  N_6 
ROOT
HETATM    1  C   UNL     1      67.445   5.894   7.725  1.00  0.00     0.038 A 
HETATM    2  C   UNL     1      67.715   4.832   6.826  1.00  0.00    -0.040 A 
HETATM    3  C   UNL     1      68.566   3.774   7.252  1.00  0.00    -0.055 A 
HETATM    4  C   UNL     1      68.033   5.890   9.004  1.00  0.00     0.017 A 
HETATM    5  C   UNL     1      67.143   4.757   5.431  1.00  0.00     0.050 C 
HETATM    6  C   UNL     1      68.861   4.849   9.410  1.00  0.00     0.002 A 
HETATM    7  C   UNL     1      69.125   3.796   8.540  1.00  0.00     0.007 A 
HETATM    8  C   UNL     1      68.898   2.613   6.349  1.00  0.00     0.049 C 
ENDROOT
BRANCH   1   9
HETATM    9  C   UNL     1      66.591   7.070   7.367  1.00  0.00     0.249 C 
HETATM   10  O   UNL     1      65.371   7.077   7.482  1.00  0.00    -0.268 OA
HETATM   11  N   UNL     1      67.224   8.183   6.878  1.00  0.00    -0.366 N 
HETATM   12  H   UNL     1      68.203   8.188   6.782  1.00  0.00     0.159 HD
HETATM   13  H   UNL     1      66.699   8.975   6.623  1.00  0.00     0.159 HD
ENDBRANCH   1   9
TORSDOF 1
ENDMDL
MODEL 8
REMARK VINA RESULT:      -4.7     14.512     16.262
REMARK  1 active torsions:
REMARK  status: ('A' for Active; 'I' for Inactive)
REMARK    1  A    between atoms: C_1  and  C_2 
REMARK       I    between atoms: C_2  and  N_6 
ROOT
HETATM    1  C   UNL     1      68.877   4.673   8.752  1.00  0.00     0.038 A 
HETATM    2  C   UNL     1      68.444   4.117   7.522  1.00  0.00    -0.040 A 
HETATM    3  C   UNL     1      67.383   4.753   6.819  1.00  0.00    -0.055 A 
HETATM    4  C   UNL     1      68.242   5.823   9.257  1.00  0.00     0.017 A 
HETATM    5  C   UNL     1      69.053   2.880   6.908  1.00  0.00     0.050 C 
HETATM    6  C   UNL     1      67.207   6.437   8.560  1.00  0.00     0.002 A 
HETATM    7  C   UNL     1      66.781   5.906   7.347  1.00  0.00     0.007 A 
HETATM    8  C   UNL     1      66.870   4.216   5.506  1.00  0.00     0.049 C 
ENDROOT
BRANCH   1   9
HETATM    9  C   UNL     1      69.962   4.066   9.586  1.00  0.00     0.249 C 
HETATM   10  O   UNL     1      71.149   4.334   9.445  1.00  0.00    -0.268 OA
HETATM   11  N   UNL     1      69.587   3.161  10.544  1.00  0.00    -0.366 N 
HETATM   12  H   UNL     1      68.637   2.939  10.666  1.00  0.00     0.159 HD
HETATM   13  H   UNL     1      70.270   2.732  11.109  1.00  0.00     0.159 HD
ENDBRANCH   1   9
TORSDOF 1
ENDMDL
MODEL 9
REMARK VINA RESULT:      -4.7     20.241     22.071
REMARK  1 active torsions:
REMARK  status: ('A' for Active; 'I' for Inactive)
REMARK    1  A    between atoms: C_1  and  C_2 
REMARK       I    between atoms: C_2  and  N_6 
ROOT
HETATM    1  C   UNL     1      63.542   8.046   3.996  1.00  0.00     0.038 A 
HETATM    2  C   UNL     1      62.708   8.755   3.096  1.00  0.00    -0.040 A 
HETATM    3  C   UNL     1      62.434   8.183   1.822  1.00  0.00    -0.055 A 
HETATM    4  C   UNL     1      64.092   6.810   3.609  1.00  0.00     0.017 A 
HETATM    5  C   UNL     1      62.085  10.092   3.415  1.00  0.00     0.050 C 
HETATM    6  C   UNL     1      63.815   6.260   2.362  1.00  0.00     0.002 A 
HETATM    7  C   UNL     1      62.990   6.941   1.474  1.00  0.00     0.007 A 
HETATM    8  C   UNL     1      61.556   8.881   0.813  1.00  0.00     0.049 C 
ENDROOT
BRANCH   1   9
HETATM    9  C   UNL     1      63.918   8.572   5.346  1.00  0.00     0.249 C 
HETATM   10  O   UNL     1      64.862   9.330   5.536  1.00  0.00    -0.268 OA
HETATM   11  N   UNL     1      63.160   8.166   6.413  1.00  0.00    -0.366 N 
HETATM   12  H   UNL     1      62.399   7.558   6.272  1.00  0.00     0.159 HD
HETATM   13  H   UNL     1      63.377   8.482   7.320  1.00  0.00     0.159 HD
ENDBRANCH   1   9
TORSDOF 1
ENDMDL
