MODEL 1
REMARK VINA RESULT:      -4.6      0.000      0.000
REMARK  1 active torsions:
REMARK  status: ('A' for Active; 'I' for Inactive)
REMARK    1  A    between atoms: C_1  and  C_8 
ROOT
HETATM    1  C   UNL     1      77.992  11.608  19.948  1.00  0.00     0.051 A 
HETATM    2  S   UNL     1      79.607  11.225  20.387  1.00  0.00    -0.076 SA
HETATM    3  C   UNL     1      79.547  12.205  21.782  1.00  0.00     0.086 A 
HETATM    4  C   UNL     1      77.422  12.471  20.866  1.00  0.00     0.025 A 
HETATM    5  N   UNL     1      81.519  12.518  23.431  1.00  0.00    -0.191 NA
HETATM    6  C   UNL     1      80.645  12.366  22.683  1.00  0.00     0.107 C 
HETATM    7  C   UNL     1      78.318  12.814  21.923  1.00  0.00     0.032 A 
ENDROOT
BRANCH   1   8
HETATM    8  C   UNL     1      77.418  11.031  18.736  1.00  0.00     0.162 C 
HETATM    9  O   UNL     1      76.838  11.684  17.868  1.00  0.00    -0.292 OA
HETATM   10  C   UNL     1      77.563   9.536  18.569  1.00  0.00     0.097 C 
ENDBRANCH   1   8
TORSDOF 1
ENDMDL
MODEL 2
REMARK VINA RESULT:      -4.6      1.565      2.153
REMARK  1 active torsions:
REMARK  status: ('A' for Active; 'I' for Inactive)
REMARK    1  A    between atoms: C_1  and  C_8 
ROOT
HETATM    1  C   UNL     1      77.478  10.751  18.396  1.00  0.00     0.051 A 
HETATM    2  S   UNL     1      78.688  10.671  19.611  1.00  0.00    -0.076 SA
HETATM    3  C   UNL     1      78.075  12.039  20.427  1.00  0.00     0.086 A 
HETATM    4  C   UNL     1      76.618  11.810  18.624  1.00  0.00     0.025 A 
HETATM    5  N   UNL     1      79.106  13.037  22.582  1.00  0.00    -0.191 NA
HETATM    6  C   UNL     1      78.656  12.576  21.616  1.00  0.00     0.107 C 
HETATM    7  C   UNL     1      76.962  12.552  19.794  1.00  0.00     0.032 A 
ENDROOT
BRANCH   1   8
HETATM    8  C   UNL     1      77.473   9.767  17.318  1.00  0.00     0.162 C 
HETATM    9  O   UNL     1      77.791  10.016  16.154  1.00  0.00    -0.292 OA
HETATM   10  C   UNL     1      77.047   8.365  17.688  1.00  0.00     0.097 C 
ENDBRANCH   1   8
TORSDOF 1
ENDMDL
MODEL 3
REMARK VINA RESULT:      -4.4      3.215      4.646
REMARK  1 active torsions:
REMARK  status: ('A' for Active; 'I' for Inactive)
REMARK    1  A    between atoms: C_1  and  C_8 
ROOT
HETATM    1  C   UNL     1      79.328  12.348  21.499  1.00  0.00     0.051 A 
HETATM    2  S   UNL     1      79.625  11.157  20.298  1.00  0.00    -0.076 SA
HETATM    3  C   UNL     1      78.018  11.215  19.727  1.00  0.00     0.086 A 
HETATM    4  C   UNL     1      78.016  12.781  21.451  1.00  0.00     0.025 A 
HETATM    5  N   UNL     1      77.106   9.765  17.785  1.00  0.00    -0.191 NA
HETATM    6  C   UNL     1      77.532  10.408  18.653  1.00  0.00     0.107 C 
HETATM    7  C   UNL     1      77.261  12.129  20.430  1.00  0.00     0.032 A 
ENDROOT
BRANCH   1   8
HETATM    8  C   UNL     1      80.409  12.757  22.391  1.00  0.00     0.162 C 
HETATM    9  O   UNL     1      81.466  13.261  22.009  1.00  0.00    -0.292 OA
HETATM   10  C   UNL     1      80.183  12.535  23.868  1.00  0.00     0.097 C 
ENDBRANCH   1   8
TORSDOF 1
ENDMDL
MODEL 4
REMARK VINA RESULT:      -4.3      9.593     11.596
REMARK  1 active torsions:
REMARK  status: ('A' for Active; 'I' for Inactive)
REMARK    1  A    between atoms: C_1  and  C_8 
ROOT
HETATM    1  C   UNL     1      76.161   2.749  17.699  1.00  0.00     0.051 A 
HETATM    2  S   UNL     1      76.936   1.217  17.673  1.00  0.00    -0.076 SA
HETATM    3  C   UNL     1      75.718   0.526  16.698  1.00  0.00     0.086 A 
HETATM    4  C   UNL     1      74.990   2.722  16.965  1.00  0.00     0.025 A 
HETATM    5  N   UNL     1      75.707  -1.938  15.902  1.00  0.00    -0.191 NA
HETATM    6  C   UNL     1      75.728  -0.836  16.267  1.00  0.00     0.107 C 
HETATM    7  C   UNL     1      74.735   1.442  16.387  1.00  0.00     0.032 A 
ENDROOT
BRANCH   1   8
HETATM    8  C   UNL     1      76.767   3.850  18.442  1.00  0.00     0.162 C 
HETATM    9  O   UNL     1      77.151   3.767  19.609  1.00  0.00    -0.292 OA
HETATM   10  C   UNL     1      76.917   5.158  17.701  1.00  0.00     0.097 C 
ENDBRANCH   1   8
TORSDOF 1
ENDMDL
MODEL 5
REMARK VINA RESULT:      -4.2     17.182     18.646
REMARK  1 active torsions:
REMARK  status: ('A' for Active; 'I' for Inactive)
REMARK    1  A    between atoms: C_1  and  C_8 
ROOT
HETATM    1  C   UNL     1      67.798   4.535   8.147  1.00  0.00     0.051 A 
HETATM    2  S   UNL     1      67.057   6.019   8.591  1.00  0.00    -0.076 SA
HETATM    3  C   UNL     1      66.972   6.555   6.973  1.00  0.00     0.086 A 
HETATM    4  C   UNL     1      67.969   4.459   6.777  1.00  0.00     0.025 A 
HETATM    5  N   UNL     1      65.995   8.838   6.242  1.00  0.00    -0.191 NA
HETATM    6  C   UNL     1      66.429   7.818   6.587  1.00  0.00     0.107 C 
HETATM    7  C   UNL     1      67.492   5.622   6.101  1.00  0.00     0.032 A 
ENDROOT
BRANCH   1   8
HETATM    8  C   UNL     1      68.152   3.568   9.182  1.00  0.00     0.162 C 
HETATM    9  O   UNL     1      67.468   2.586   9.473  1.00  0.00    -0.292 OA
HETATM   10  C   UNL     1      69.446   3.818   9.922  1.00  0.00     0.097 C 
ENDBRANCH   1   8
TORSDOF 1
ENDMDL
MODEL 6
REMARK VINA RESULT:      -4.2     16.834     18.112
REMARK  1 active torsions:
REMARK  status: ('A' for Active; 'I' for Inactive)
REMARK    1  A    between atoms: C_1  and  C_8 
ROOT
HETATM    1  C   UNL     1      66.997   6.000   7.448  1.00  0.00     0.051 A 
HETATM    2  S   UNL     1      67.656   5.921   9.032  1.00  0.00    -0.076 SA
HETATM    3  C   UNL     1      68.600   4.549   8.658  1.00  0.00     0.086 A 
HETATM    4  C   UNL     1      67.503   4.990   6.651  1.00  0.00     0.025 A 
HETATM    5  N   UNL     1      70.161   3.350  10.340  1.00  0.00    -0.191 NA
HETATM    6  C   UNL     1      69.458   3.900   9.599  1.00  0.00     0.107 C 
HETATM    7  C   UNL     1      68.427   4.154   7.348  1.00  0.00     0.032 A 
ENDROOT
BRANCH   1   8
HETATM    8  C   UNL     1      66.035   7.048   7.120  1.00  0.00     0.162 C 
HETATM    9  O   UNL     1      64.853   7.032   7.463  1.00  0.00    -0.292 OA
HETATM   10  C   UNL     1      66.557   8.210   6.307  1.00  0.00     0.097 C 
ENDBRANCH   1   8
TORSDOF 1
ENDMDL
MODEL 7
REMARK VINA RESULT:      -4.1     16.874     17.699
REMARK  1 active torsions:
REMARK  status: ('A' for Active; 'I' for Inactive)
REMARK    1  A    between atoms: C_1  and  C_8 
ROOT
HETATM    1  C   UNL     1      69.090   3.287   9.575  1.00  0.00     0.051 A 
HETATM    2  S   UNL     1      67.720   3.712   8.630  1.00  0.00    -0.076 SA
HETATM    3  C   UNL     1      68.476   5.114   8.017  1.00  0.00     0.086 A 
HETATM    4  C   UNL     1      70.107   4.209   9.412  1.00  0.00     0.025 A 
HETATM    5  N   UNL     1      67.363   6.767   6.364  1.00  0.00    -0.191 NA
HETATM    6  C   UNL     1      67.847   6.015   7.104  1.00  0.00     0.107 C 
HETATM    7  C   UNL     1      69.754   5.261   8.515  1.00  0.00     0.032 A 
ENDROOT
BRANCH   1   8
HETATM    8  C   UNL     1      69.051   2.083  10.399  1.00  0.00     0.162 C 
HETATM    9  O   UNL     1      70.001   1.671  11.066  1.00  0.00    -0.292 OA
HETATM   10  C   UNL     1      67.747   1.319  10.413  1.00  0.00     0.097 C 
ENDBRANCH   1   8
TORSDOF 1
ENDMDL
MODEL 8
REMARK VINA RESULT:      -3.9     22.946     24.601
REMARK  1 active torsions:
REMARK  status: ('A' for Active; 'I' for Inactive)
REMARK    1  A    between atoms: C_1  and  C_8 
ROOT
HETATM    1  C   UNL     1      62.552   9.535   3.716  1.00  0.00     0.051 A 
HETATM    2  S   UNL     1      62.921   8.031   2.975  1.00  0.00    -0.076 SA
HETATM    3  C   UNL     1      62.316   8.536   1.461  1.00  0.00     0.086 A 
HETATM    4  C   UNL     1      61.979  10.406   2.808  1.00  0.00     0.025 A 
HETATM    5  N   UNL     1      62.280   7.056  -0.664  1.00  0.00    -0.191 NA
HETATM    6  C   UNL     1      62.304   7.706   0.298  1.00  0.00     0.107 C 
HETATM    7  C   UNL     1      61.843   9.830   1.509  1.00  0.00     0.032 A 
ENDROOT
BRANCH   1   8
HETATM    8  C   UNL     1      62.855   9.735   5.130  1.00  0.00     0.162 C 
HETATM    9  O   UNL     1      63.074   8.820   5.925  1.00  0.00    -0.292 OA
HETATM   10  C   UNL     1      62.894  11.166   5.614  1.00  0.00     0.097 C 
ENDBRANCH   1   8
TORSDOF 1
ENDMDL
MODEL 9
REMARK VINA RESULT:      -3.8     24.546     25.136
REMARK  1 active torsions:
REMARK  status: ('A' for Active; 'I' for Inactive)
REMARK    1  A    between atoms: C_1  and  C_8 
ROOT
HETATM    1  C   UNL     1      62.158   9.402   2.200  1.00  0.00     0.051 A 
HETATM    2  S   UNL     1      62.889   8.119   3.076  1.00  0.00    -0.076 SA
HETATM    3  C   UNL     1      62.919   7.095   1.711  1.00  0.00     0.086 A 
HETATM    4  C   UNL     1      61.947   9.043   0.882  1.00  0.00     0.025 A 
HETATM    5  N   UNL     1      63.841   4.675   1.721  1.00  0.00    -0.191 NA
HETATM    6  C   UNL     1      63.432   5.762   1.734  1.00  0.00     0.107 C 
HETATM    7  C   UNL     1      62.387   7.714   0.599  1.00  0.00     0.032 A 
ENDROOT
BRANCH   1   8
HETATM    8  C   UNL     1      61.848  10.655   2.882  1.00  0.00     0.162 C 
HETATM    9  O   UNL     1      61.657  10.752   4.095  1.00  0.00    -0.292 OA
HETATM   10  C   UNL     1      61.765  11.890   2.015  1.00  0.00     0.097 C 
ENDBRANCH   1   8
TORSDOF 1
ENDMDL
