MODEL 1
REMARK VINA RESULT:      -5.6      0.000      0.000
REMARK  2 active torsions:
REMARK  status: ('A' for Active; 'I' for Inactive)
REMARK       I    between atoms: C_1  and  N_2 
REMARK    1  A    between atoms: N_2  and  C_7 
REMARK    2  A    between atoms: C_6  and  C_7 
ROOT
HETATM    1  N   UNL     1      73.533  23.429  12.917  1.00  0.00    -0.375 N 
ATOM      2  HN  UNL     1      73.643  23.491  11.905  1.00  0.00     0.164 HD
HETATM    3  C   UNL     1      74.159  22.440  15.039  1.00  0.00    -0.025 A 
HETATM    4  C   UNL     1      74.264  22.566  13.658  1.00  0.00     0.096 A 
HETATM    5  C   UNL     1      72.651  24.205  13.581  1.00  0.00     0.087 A 
HETATM    6  C   UNL     1      73.250  23.277  15.693  1.00  0.00     0.011 A 
HETATM    7  C   UNL     1      72.477  24.169  14.954  1.00  0.00     0.018 A 
ENDROOT
BRANCH   3   8
HETATM    8  C   UNL     1      74.999  21.454  15.792  1.00  0.00     0.162 C 
BRANCH   8   9
HETATM    9  N   UNL     1      76.383  21.505  15.387  1.00  0.00    -0.357 N 
HETATM   10  C   UNL     1      77.367  21.039  16.226  1.00  0.00     0.213 C 
HETATM   11  O   UNL     1      77.140  20.589  17.344  1.00  0.00    -0.274 OA
HETATM   12  C   UNL     1      78.762  21.120  15.668  1.00  0.00     0.117 C 
HETATM   13  H   UNL     1      76.624  21.874  14.507  1.00  0.00     0.162 HD
ENDBRANCH   8   9
ENDBRANCH   3   8
TORSDOF 2
ENDMDL
MODEL 2
REMARK VINA RESULT:      -5.0      3.888      5.451
REMARK  2 active torsions:
REMARK  status: ('A' for Active; 'I' for Inactive)
REMARK       I    between atoms: C_1  and  N_2 
REMARK    1  A    between atoms: N_2  and  C_7 
REMARK    2  A    between atoms: C_6  and  C_7 
ROOT
HETATM    1  N   UNL     1      73.875  23.141  14.202  1.00  0.00    -0.375 N 
ATOM      2  HN  UNL     1      74.887  23.071  14.300  1.00  0.00     0.164 HD
HETATM    3  C   UNL     1      71.874  22.883  12.859  1.00  0.00    -0.025 A 
HETATM    4  C   UNL     1      73.250  22.811  13.050  1.00  0.00     0.096 A 
HETATM    5  C   UNL     1      73.094  23.568  15.217  1.00  0.00     0.087 A 
HETATM    6  C   UNL     1      71.097  23.309  13.940  1.00  0.00     0.011 A 
HETATM    7  C   UNL     1      71.715  23.665  15.137  1.00  0.00     0.018 A 
ENDROOT
BRANCH   3   8
HETATM    8  C   UNL     1      71.253  22.507  11.548  1.00  0.00     0.162 C 
BRANCH   8   9
HETATM    9  N   UNL     1      70.927  21.102  11.490  1.00  0.00    -0.357 N 
HETATM   10  C   UNL     1      71.675  20.250  10.713  1.00  0.00     0.213 C 
HETATM   11  O   UNL     1      72.619  20.621  10.025  1.00  0.00    -0.274 OA
HETATM   12  C   UNL     1      71.247  18.808  10.768  1.00  0.00     0.117 C 
HETATM   13  H   UNL     1      70.166  20.753  12.007  1.00  0.00     0.162 HD
ENDBRANCH   8   9
ENDBRANCH   3   8
TORSDOF 2
ENDMDL
MODEL 3
REMARK VINA RESULT:      -4.5     20.301     21.065
REMARK  2 active torsions:
REMARK  status: ('A' for Active; 'I' for Inactive)
REMARK       I    between atoms: C_1  and  N_2 
REMARK    1  A    between atoms: N_2  and  C_7 
REMARK    2  A    between atoms: C_6  and  C_7 
ROOT
HETATM    1  N   UNL     1      61.687  10.850   2.621  1.00  0.00    -0.375 N 
ATOM      2  HN  UNL     1      61.311  11.798   2.621  1.00  0.00     0.164 HD
HETATM    3  C   UNL     1      62.604   8.957   3.825  1.00  0.00    -0.025 A 
HETATM    4  C   UNL     1      62.087  10.247   3.763  1.00  0.00     0.096 A 
HETATM    5  C   UNL     1      61.809  10.138   1.482  1.00  0.00     0.087 A 
HETATM    6  C   UNL     1      62.694   8.243   2.626  1.00  0.00     0.011 A 
HETATM    7  C   UNL     1      62.299   8.843   1.433  1.00  0.00     0.018 A 
ENDROOT
BRANCH   3   8
HETATM    8  C   UNL     1      63.034   8.357   5.129  1.00  0.00     0.162 C 
BRANCH   8   9
HETATM    9  N   UNL     1      64.251   7.592   4.995  1.00  0.00    -0.357 N 
HETATM   10  C   UNL     1      65.449   8.120   5.416  1.00  0.00     0.213 C 
HETATM   11  O   UNL     1      65.558   9.244   5.893  1.00  0.00    -0.274 OA
HETATM   12  C   UNL     1      66.633   7.206   5.250  1.00  0.00     0.117 C 
HETATM   13  H   UNL     1      64.224   6.691   4.601  1.00  0.00     0.162 HD
ENDBRANCH   8   9
ENDBRANCH   3   8
TORSDOF 2
ENDMDL
MODEL 4
REMARK VINA RESULT:      -4.3     19.464     20.313
REMARK  2 active torsions:
REMARK  status: ('A' for Active; 'I' for Inactive)
REMARK       I    between atoms: C_1  and  N_2 
REMARK    1  A    between atoms: N_2  and  C_7 
REMARK    2  A    between atoms: C_6  and  C_7 
ROOT
HETATM    1  N   UNL     1      67.703   3.050   8.576  1.00  0.00    -0.375 N 
ATOM      2  HN  UNL     1      67.131   2.210   8.487  1.00  0.00     0.164 HD
HETATM    3  C   UNL     1      67.879   5.465   8.690  1.00  0.00    -0.025 A 
HETATM    4  C   UNL     1      67.152   4.285   8.570  1.00  0.00     0.096 A 
HETATM    5  C   UNL     1      69.044   2.983   8.704  1.00  0.00     0.087 A 
HETATM    6  C   UNL     1      69.264   5.352   8.843  1.00  0.00     0.011 A 
HETATM    7  C   UNL     1      69.860   4.093   8.844  1.00  0.00     0.018 A 
ENDROOT
BRANCH   3   8
HETATM    8  C   UNL     1      67.199   6.799   8.667  1.00  0.00     0.162 C 
BRANCH   8   9
HETATM    9  N   UNL     1      67.042   7.302   7.323  1.00  0.00    -0.357 N 
HETATM   10  C   UNL     1      65.790   7.404   6.765  1.00  0.00     0.213 C 
HETATM   11  O   UNL     1      64.765   7.063   7.345  1.00  0.00    -0.274 OA
HETATM   12  C   UNL     1      65.766   7.973   5.372  1.00  0.00     0.117 C 
HETATM   13  H   UNL     1      67.833   7.572   6.805  1.00  0.00     0.162 HD
ENDBRANCH   8   9
ENDBRANCH   3   8
TORSDOF 2
ENDMDL
MODEL 5
REMARK VINA RESULT:      -4.3     19.120     20.518
REMARK  2 active torsions:
REMARK  status: ('A' for Active; 'I' for Inactive)
REMARK       I    between atoms: C_1  and  N_2 
REMARK    1  A    between atoms: N_2  and  C_7 
REMARK    2  A    between atoms: C_6  and  C_7 
ROOT
HETATM    1  N   UNL     1      77.285   4.092  18.351  1.00  0.00    -0.375 N 
ATOM      2  HN  UNL     1      78.075   4.063  18.995  1.00  0.00     0.164 HD
HETATM    3  C   UNL     1      75.516   2.954  17.147  1.00  0.00    -0.025 A 
HETATM    4  C   UNL     1      76.601   2.975  18.016  1.00  0.00     0.096 A 
HETATM    5  C   UNL     1      76.871   5.248  17.791  1.00  0.00     0.087 A 
HETATM    6  C   UNL     1      75.104   4.175  16.605  1.00  0.00     0.011 A 
HETATM    7  C   UNL     1      75.795   5.341  16.925  1.00  0.00     0.018 A 
ENDROOT
BRANCH   3   8
HETATM    8  C   UNL     1      74.812   1.673  16.818  1.00  0.00     0.162 C 
BRANCH   8   9
HETATM    9  N   UNL     1      74.305   1.017  18.000  1.00  0.00    -0.357 N 
HETATM   10  C   UNL     1      74.507  -0.330  18.183  1.00  0.00     0.213 C 
HETATM   11  O   UNL     1      75.089  -1.040  17.371  1.00  0.00    -0.274 OA
HETATM   12  C   UNL     1      73.956  -0.880  19.472  1.00  0.00     0.117 C 
HETATM   13  H   UNL     1      73.813   1.536  18.676  1.00  0.00     0.162 HD
ENDBRANCH   8   9
ENDBRANCH   3   8
TORSDOF 2
ENDMDL
MODEL 6
REMARK VINA RESULT:      -4.2     20.749     21.858
REMARK  2 active torsions:
REMARK  status: ('A' for Active; 'I' for Inactive)
REMARK       I    between atoms: C_1  and  N_2 
REMARK    1  A    between atoms: N_2  and  C_7 
REMARK    2  A    between atoms: C_6  and  C_7 
ROOT
HETATM    1  N   UNL     1      63.535   6.721   6.374  1.00  0.00    -0.375 N 
ATOM      2  HN  UNL     1      63.389   6.006   7.087  1.00  0.00     0.164 HD
HETATM    3  C   UNL     1      62.673   8.098   4.576  1.00  0.00    -0.025 A 
HETATM    4  C   UNL     1      62.534   7.127   5.562  1.00  0.00     0.096 A 
HETATM    5  C   UNL     1      64.738   7.305   6.196  1.00  0.00     0.087 A 
HETATM    6  C   UNL     1      63.929   8.696   4.437  1.00  0.00     0.011 A 
HETATM    7  C   UNL     1      64.982   8.291   5.253  1.00  0.00     0.018 A 
ENDROOT
BRANCH   3   8
HETATM    8  C   UNL     1      61.517   8.492   3.708  1.00  0.00     0.162 C 
BRANCH   8   9
HETATM    9  N   UNL     1      61.506   9.909   3.435  1.00  0.00    -0.357 N 
HETATM   10  C   UNL     1      61.812  10.373   2.177  1.00  0.00     0.213 C 
HETATM   11  O   UNL     1      62.126   9.638   1.247  1.00  0.00    -0.274 OA
HETATM   12  C   UNL     1      61.732  11.868   2.020  1.00  0.00     0.117 C 
HETATM   13  H   UNL     1      61.280  10.546   4.150  1.00  0.00     0.162 HD
ENDBRANCH   8   9
ENDBRANCH   3   8
TORSDOF 2
ENDMDL
MODEL 7
REMARK VINA RESULT:      -4.1     22.018     22.792
REMARK  2 active torsions:
REMARK  status: ('A' for Active; 'I' for Inactive)
REMARK       I    between atoms: C_1  and  N_2 
REMARK    1  A    between atoms: N_2  and  C_7 
REMARK    2  A    between atoms: C_6  and  C_7 
ROOT
HETATM    1  N   UNL     1      78.029  -0.700  14.940  1.00  0.00    -0.375 N 
ATOM      2  HN  UNL     1      78.878  -0.977  15.434  1.00  0.00     0.164 HD
HETATM    3  C   UNL     1      75.756   0.141  14.984  1.00  0.00    -0.025 A 
HETATM    4  C   UNL     1      76.938  -0.253  15.602  1.00  0.00     0.096 A 
HETATM    5  C   UNL     1      77.941  -0.763  13.595  1.00  0.00     0.087 A 
HETATM    6  C   UNL     1      75.712   0.082  13.588  1.00  0.00     0.011 A 
HETATM    7  C   UNL     1      76.817  -0.383  12.880  1.00  0.00     0.018 A 
ENDROOT
BRANCH   3   8
HETATM    8  C   UNL     1      74.585   0.620  15.787  1.00  0.00     0.162 C 
BRANCH   8   9
HETATM    9  N   UNL     1      74.303  -0.253  16.902  1.00  0.00    -0.357 N 
HETATM   10  C   UNL     1      74.286   0.246  18.183  1.00  0.00     0.213 C 
HETATM   11  O   UNL     1      74.524   1.419  18.451  1.00  0.00    -0.274 OA
HETATM   12  C   UNL     1      73.946  -0.762  19.247  1.00  0.00     0.117 C 
HETATM   13  H   UNL     1      74.123  -1.207  16.745  1.00  0.00     0.162 HD
ENDBRANCH   8   9
ENDBRANCH   3   8
TORSDOF 2
ENDMDL
MODEL 8
REMARK VINA RESULT:      -4.1     21.517     22.575
REMARK  2 active torsions:
REMARK  status: ('A' for Active; 'I' for Inactive)
REMARK       I    between atoms: C_1  and  N_2 
REMARK    1  A    between atoms: N_2  and  C_7 
REMARK    2  A    between atoms: C_6  and  C_7 
ROOT
HETATM    1  N   UNL     1      63.641   9.770   5.556  1.00  0.00    -0.375 N 
ATOM      2  HN  UNL     1      64.220   9.549   6.366  1.00  0.00     0.164 HD
HETATM    3  C   UNL     1      62.718   9.145   3.403  1.00  0.00    -0.025 A 
HETATM    4  C   UNL     1      63.496   8.901   4.530  1.00  0.00     0.096 A 
HETATM    5  C   UNL     1      62.982  10.943   5.456  1.00  0.00     0.087 A 
HETATM    6  C   UNL     1      62.034  10.363   3.348  1.00  0.00     0.011 A 
HETATM    7  C   UNL     1      62.172  11.281   4.385  1.00  0.00     0.018 A 
ENDROOT
BRANCH   3   8
HETATM    8  C   UNL     1      62.612   8.135   2.302  1.00  0.00     0.162 C 
BRANCH   8   9
HETATM    9  N   UNL     1      61.465   8.375   1.459  1.00  0.00    -0.357 N 
HETATM   10  C   UNL     1      60.354   7.571   1.558  1.00  0.00     0.213 C 
HETATM   11  O   UNL     1      60.279   6.618   2.326  1.00  0.00    -0.274 OA
HETATM   12  C   UNL     1      59.219   7.951   0.646  1.00  0.00     0.117 C 
HETATM   13  H   UNL     1      61.478   9.115   0.811  1.00  0.00     0.162 HD
ENDBRANCH   8   9
ENDBRANCH   3   8
TORSDOF 2
ENDMDL
MODEL 9
REMARK VINA RESULT:      -4.0     19.913     20.736
REMARK  2 active torsions:
REMARK  status: ('A' for Active; 'I' for Inactive)
REMARK       I    between atoms: C_1  and  N_2 
REMARK    1  A    between atoms: N_2  and  C_7 
REMARK    2  A    between atoms: C_6  and  C_7 
ROOT
HETATM    1  N   UNL     1      68.946   1.911   7.771  1.00  0.00    -0.375 N 
ATOM      2  HN  UNL     1      68.728   1.335   6.958  1.00  0.00     0.164 HD
HETATM    3  C   UNL     1      69.268   4.097   8.768  1.00  0.00    -0.025 A 
HETATM    4  C   UNL     1      68.980   3.261   7.695  1.00  0.00     0.096 A 
HETATM    5  C   UNL     1      69.214   1.363   8.975  1.00  0.00     0.087 A 
HETATM    6  C   UNL     1      69.518   3.492  10.004  1.00  0.00     0.011 A 
HETATM    7  C   UNL     1      69.499   2.104  10.110  1.00  0.00     0.018 A 
ENDROOT
BRANCH   3   8
HETATM    8  C   UNL     1      69.295   5.586   8.604  1.00  0.00     0.162 C 
BRANCH   8   9
HETATM    9  N   UNL     1      68.247   6.050   7.726  1.00  0.00    -0.357 N 
HETATM   10  C   UNL     1      67.084   6.563   8.249  1.00  0.00     0.213 C 
HETATM   11  O   UNL     1      66.861   6.634   9.453  1.00  0.00    -0.274 OA
HETATM   12  C   UNL     1      66.090   7.041   7.225  1.00  0.00     0.117 C 
HETATM   13  H   UNL     1      68.366   5.999   6.751  1.00  0.00     0.162 HD
ENDBRANCH   8   9
ENDBRANCH   3   8
TORSDOF 2
ENDMDL
