MODEL 1
REMARK VINA RESULT:      -6.3      0.000      0.000
REMARK  2 active torsions:
REMARK  status: ('A' for Active; 'I' for Inactive)
REMARK    1  A    between atoms: C_1  and  C_2 
REMARK    2  A    between atoms: C_3  and  C_4 
REMARK       I    between atoms: C_4  and  N_9 
ROOT
HETATM    1  C   UNL     1      77.302   8.429  17.163  1.00  0.00     0.063 A 
HETATM    2  C   UNL     1      77.433   8.421  15.764  1.00  0.00     0.046 A 
HETATM    3  C   UNL     1      76.748   7.281  17.790  1.00  0.00     0.017 A 
HETATM    4  C   UNL     1      77.049   7.270  15.044  1.00  0.00     0.018 A 
HETATM    5  C   UNL     1      76.362   6.158  17.060  1.00  0.00     0.001 A 
HETATM    6  C   UNL     1      76.519   6.149  15.684  1.00  0.00     0.001 A 
ENDROOT
BRANCH   2   7
HETATM    7  C   UNL     1      77.989   9.506  14.908  1.00  0.00     0.250 C 
HETATM    8  O   UNL     1      78.977   9.308  14.210  1.00  0.00    -0.268 OA
HETATM    9  N   UNL     1      77.348  10.708  14.843  1.00  0.00    -0.366 N 
HETATM   10  H   UNL     1      76.553  10.873  15.401  1.00  0.00     0.159 HD
HETATM   11  H   UNL     1      77.679  11.410  14.239  1.00  0.00     0.159 HD
ENDBRANCH   2   7
BRANCH   1  12
HETATM   12  C   UNL     1      77.735   9.530  18.093  1.00  0.00     0.418 C 
HETATM   13  F   UNL     1      77.174  10.748  17.895  1.00  0.00    -0.166 F 
HETATM   14  F   UNL     1      79.081   9.741  18.047  1.00  0.00    -0.166 F 
HETATM   15  F   UNL     1      77.462   9.221  19.394  1.00  0.00    -0.166 F 
ENDBRANCH   1  12
TORSDOF 2
ENDMDL
MODEL 2
REMARK VINA RESULT:      -6.2      2.379      3.268
REMARK  2 active torsions:
REMARK  status: ('A' for Active; 'I' for Inactive)
REMARK    1  A    between atoms: C_1  and  C_2 
REMARK    2  A    between atoms: C_3  and  C_4 
REMARK       I    between atoms: C_4  and  N_9 
ROOT
HETATM    1  C   UNL     1      77.630   8.931  16.775  1.00  0.00     0.063 A 
HETATM    2  C   UNL     1      77.166   7.629  16.520  1.00  0.00     0.046 A 
HETATM    3  C   UNL     1      77.956   9.755  15.665  1.00  0.00     0.017 A 
HETATM    4  C   UNL     1      77.006   7.206  15.183  1.00  0.00     0.018 A 
HETATM    5  C   UNL     1      77.803   9.315  14.351  1.00  0.00     0.001 A 
HETATM    6  C   UNL     1      77.320   8.040  14.109  1.00  0.00     0.001 A 
ENDROOT
BRANCH   2   7
HETATM    7  C   UNL     1      76.765   6.606  17.524  1.00  0.00     0.250 C 
HETATM    8  O   UNL     1      75.801   6.793  18.257  1.00  0.00    -0.268 OA
HETATM    9  N   UNL     1      77.432   5.418  17.578  1.00  0.00    -0.366 N 
HETATM   10  H   UNL     1      78.208   5.261  16.991  1.00  0.00     0.159 HD
HETATM   11  H   UNL     1      77.138   4.716  18.203  1.00  0.00     0.159 HD
ENDBRANCH   2   7
BRANCH   1  12
HETATM   12  C   UNL     1      77.782   9.575  18.126  1.00  0.00     0.418 C 
HETATM   13  F   UNL     1      77.295   8.884  19.186  1.00  0.00    -0.166 F 
HETATM   14  F   UNL     1      77.178  10.796  18.184  1.00  0.00    -0.166 F 
HETATM   15  F   UNL     1      79.094   9.805  18.425  1.00  0.00    -0.166 F 
ENDBRANCH   1  12
TORSDOF 2
ENDMDL
MODEL 3
REMARK VINA RESULT:      -6.1     14.916     16.043
REMARK  2 active torsions:
REMARK  status: ('A' for Active; 'I' for Inactive)
REMARK    1  A    between atoms: C_1  and  C_2 
REMARK    2  A    between atoms: C_3  and  C_4 
REMARK       I    between atoms: C_4  and  N_9 
ROOT
HETATM    1  C   UNL     1      71.845  23.509  14.201  1.00  0.00     0.063 A 
HETATM    2  C   UNL     1      71.122  22.839  13.199  1.00  0.00     0.046 A 
HETATM    3  C   UNL     1      71.138  24.388  15.063  1.00  0.00     0.017 A 
HETATM    4  C   UNL     1      69.727  23.034  13.111  1.00  0.00     0.018 A 
HETATM    5  C   UNL     1      69.761  24.578  14.954  1.00  0.00     0.001 A 
HETATM    6  C   UNL     1      69.053  23.894  13.980  1.00  0.00     0.001 A 
ENDROOT
BRANCH   2   7
HETATM    7  C   UNL     1      71.656  21.875  12.198  1.00  0.00     0.250 C 
HETATM    8  O   UNL     1      71.400  20.680  12.282  1.00  0.00    -0.268 OA
HETATM    9  N   UNL     1      72.376  22.338  11.136  1.00  0.00    -0.366 N 
HETATM   10  H   UNL     1      72.585  23.297  11.063  1.00  0.00     0.159 HD
HETATM   11  H   UNL     1      72.687  21.712  10.442  1.00  0.00     0.159 HD
ENDBRANCH   2   7
BRANCH   1  12
HETATM   12  C   UNL     1      73.314  23.358  14.493  1.00  0.00     0.418 C 
HETATM   13  F   UNL     1      74.169  23.704  13.500  1.00  0.00    -0.166 F 
HETATM   14  F   UNL     1      73.643  22.075  14.821  1.00  0.00    -0.166 F 
HETATM   15  F   UNL     1      73.690  24.113  15.565  1.00  0.00    -0.166 F 
ENDBRANCH   1  12
TORSDOF 2
ENDMDL
MODEL 4
REMARK VINA RESULT:      -5.9     15.661     16.835
REMARK  2 active torsions:
REMARK  status: ('A' for Active; 'I' for Inactive)
REMARK    1  A    between atoms: C_1  and  C_2 
REMARK    2  A    between atoms: C_3  and  C_4 
REMARK       I    between atoms: C_4  and  N_9 
ROOT
HETATM    1  C   UNL     1      70.549  23.282  13.582  1.00  0.00     0.063 A 
HETATM    2  C   UNL     1      71.348  24.096  14.403  1.00  0.00     0.046 A 
HETATM    3  C   UNL     1      69.138  23.424  13.669  1.00  0.00     0.017 A 
HETATM    4  C   UNL     1      70.728  25.041  15.247  1.00  0.00     0.018 A 
HETATM    5  C   UNL     1      68.542  24.355  14.517  1.00  0.00     0.001 A 
HETATM    6  C   UNL     1      69.339  25.171  15.304  1.00  0.00     0.001 A 
ENDROOT
BRANCH   2   7
HETATM    7  C   UNL     1      72.836  24.118  14.470  1.00  0.00     0.250 C 
HETATM    8  O   UNL     1      73.502  24.393  13.480  1.00  0.00    -0.268 OA
HETATM    9  N   UNL     1      73.458  23.903  15.664  1.00  0.00    -0.366 N 
HETATM   10  H   UNL     1      72.928  23.682  16.464  1.00  0.00     0.159 HD
HETATM   11  H   UNL     1      74.439  23.969  15.727  1.00  0.00     0.159 HD
ENDBRANCH   2   7
BRANCH   1  12
HETATM   12  C   UNL     1      71.039  22.284  12.567  1.00  0.00     0.418 C 
HETATM   13  F   UNL     1      71.581  22.788  11.432  1.00  0.00    -0.166 F 
HETATM   14  F   UNL     1      70.047  21.445  12.152  1.00  0.00    -0.166 F 
HETATM   15  F   UNL     1      72.003  21.472  13.091  1.00  0.00    -0.166 F 
ENDBRANCH   1  12
TORSDOF 2
ENDMDL
MODEL 5
REMARK VINA RESULT:      -5.9      4.497      5.984
REMARK  2 active torsions:
REMARK  status: ('A' for Active; 'I' for Inactive)
REMARK    1  A    between atoms: C_1  and  C_2 
REMARK    2  A    between atoms: C_3  and  C_4 
REMARK       I    between atoms: C_4  and  N_9 
ROOT
HETATM    1  C   UNL     1      77.655  11.442  19.449  1.00  0.00     0.063 A 
HETATM    2  C   UNL     1      77.979  12.216  20.577  1.00  0.00     0.046 A 
HETATM    3  C   UNL     1      76.649  11.926  18.572  1.00  0.00     0.017 A 
HETATM    4  C   UNL     1      77.326  13.452  20.773  1.00  0.00     0.018 A 
HETATM    5  C   UNL     1      76.006  13.144  18.788  1.00  0.00     0.001 A 
HETATM    6  C   UNL     1      76.350  13.912  19.888  1.00  0.00     0.001 A 
ENDROOT
BRANCH   2   7
HETATM    7  C   UNL     1      78.998  11.906  21.617  1.00  0.00     0.250 C 
HETATM    8  O   UNL     1      80.194  12.020  21.375  1.00  0.00    -0.268 OA
HETATM    9  N   UNL     1      78.594  11.562  22.873  1.00  0.00    -0.366 N 
HETATM   10  H   UNL     1      77.634  11.468  23.074  1.00  0.00     0.159 HD
HETATM   11  H   UNL     1      79.262  11.407  23.580  1.00  0.00     0.159 HD
ENDBRANCH   2   7
BRANCH   1  12
HETATM   12  C   UNL     1      78.305  10.148  19.040  1.00  0.00     0.418 C 
HETATM   13  F   UNL     1      79.581   9.951  19.452  1.00  0.00    -0.166 F 
HETATM   14  F   UNL     1      78.337   9.995  17.685  1.00  0.00    -0.166 F 
HETATM   15  F   UNL     1      77.611   9.071  19.509  1.00  0.00    -0.166 F 
ENDBRANCH   1  12
TORSDOF 2
ENDMDL
MODEL 6
REMARK VINA RESULT:      -5.9      4.375      5.369
REMARK  2 active torsions:
REMARK  status: ('A' for Active; 'I' for Inactive)
REMARK    1  A    between atoms: C_1  and  C_2 
REMARK    2  A    between atoms: C_3  and  C_4 
REMARK       I    between atoms: C_4  and  N_9 
ROOT
HETATM    1  C   UNL     1      77.261  11.742  19.284  1.00  0.00     0.063 A 
HETATM    2  C   UNL     1      78.478  11.414  19.904  1.00  0.00     0.046 A 
HETATM    3  C   UNL     1      76.839  10.956  18.179  1.00  0.00     0.017 A 
HETATM    4  C   UNL     1      79.211  10.303  19.435  1.00  0.00     0.018 A 
HETATM    5  C   UNL     1      77.582   9.869  17.721  1.00  0.00     0.001 A 
HETATM    6  C   UNL     1      78.768   9.537  18.355  1.00  0.00     0.001 A 
ENDROOT
BRANCH   2   7
HETATM    7  C   UNL     1      79.104  12.094  21.072  1.00  0.00     0.250 C 
HETATM    8  O   UNL     1      78.586  13.087  21.568  1.00  0.00    -0.268 OA
HETATM    9  N   UNL     1      80.223  11.561  21.641  1.00  0.00    -0.366 N 
HETATM   10  H   UNL     1      80.643  10.762  21.247  1.00  0.00     0.159 HD
HETATM   11  H   UNL     1      80.611  11.975  22.445  1.00  0.00     0.159 HD
ENDBRANCH   2   7
BRANCH   1  12
HETATM   12  C   UNL     1      76.314  12.835  19.701  1.00  0.00     0.418 C 
HETATM   13  F   UNL     1      76.799  14.101  19.679  1.00  0.00    -0.166 F 
HETATM   14  F   UNL     1      75.845  12.651  20.968  1.00  0.00    -0.166 F 
HETATM   15  F   UNL     1      75.205  12.866  18.906  1.00  0.00    -0.166 F 
ENDBRANCH   1  12
TORSDOF 2
ENDMDL
MODEL 7
REMARK VINA RESULT:      -5.6      3.822      5.579
REMARK  2 active torsions:
REMARK  status: ('A' for Active; 'I' for Inactive)
REMARK    1  A    between atoms: C_1  and  C_2 
REMARK    2  A    between atoms: C_3  and  C_4 
REMARK       I    between atoms: C_4  and  N_9 
ROOT
HETATM    1  C   UNL     1      77.600  12.530  19.951  1.00  0.00     0.063 A 
HETATM    2  C   UNL     1      78.160  11.308  19.540  1.00  0.00     0.046 A 
HETATM    3  C   UNL     1      78.227  13.228  21.017  1.00  0.00     0.017 A 
HETATM    4  C   UNL     1      79.334  10.843  20.169  1.00  0.00     0.018 A 
HETATM    5  C   UNL     1      79.380  12.747  21.635  1.00  0.00     0.001 A 
HETATM    6  C   UNL     1      79.939  11.555  21.206  1.00  0.00     0.001 A 
ENDROOT
BRANCH   2   7
HETATM    7  C   UNL     1      77.674  10.420  18.447  1.00  0.00     0.250 C 
HETATM    8  O   UNL     1      77.580  10.835  17.299  1.00  0.00    -0.268 OA
HETATM    9  N   UNL     1      77.402   9.111  18.716  1.00  0.00    -0.366 N 
HETATM   10  H   UNL     1      77.476   8.771  19.638  1.00  0.00     0.159 HD
HETATM   11  H   UNL     1      77.132   8.505  17.989  1.00  0.00     0.159 HD
ENDBRANCH   2   7
BRANCH   1  12
HETATM   12  C   UNL     1      76.407  13.215  19.340  1.00  0.00     0.418 C 
HETATM   13  F   UNL     1      75.281  12.472  19.210  1.00  0.00    -0.166 F 
HETATM   14  F   UNL     1      76.672  13.690  18.090  1.00  0.00    -0.166 F 
HETATM   15  F   UNL     1      76.030  14.305  20.069  1.00  0.00    -0.166 F 
ENDBRANCH   1  12
TORSDOF 2
ENDMDL
MODEL 8
REMARK VINA RESULT:      -5.4      3.579      5.419
REMARK  2 active torsions:
REMARK  status: ('A' for Active; 'I' for Inactive)
REMARK    1  A    between atoms: C_1  and  C_2 
REMARK    2  A    between atoms: C_3  and  C_4 
REMARK       I    between atoms: C_4  and  N_9 
ROOT
HETATM    1  C   UNL     1      78.031  11.261  19.498  1.00  0.00     0.063 A 
HETATM    2  C   UNL     1      77.220  12.403  19.387  1.00  0.00     0.046 A 
HETATM    3  C   UNL     1      78.965  11.204  20.566  1.00  0.00     0.017 A 
HETATM    4  C   UNL     1      77.336  13.425  20.353  1.00  0.00     0.018 A 
HETATM    5  C   UNL     1      79.074  12.229  21.505  1.00  0.00     0.001 A 
HETATM    6  C   UNL     1      78.253  13.340  21.402  1.00  0.00     0.001 A 
ENDROOT
BRANCH   2   7
HETATM    7  C   UNL     1      76.178  12.669  18.356  1.00  0.00     0.250 C 
HETATM    8  O   UNL     1      74.989  12.554  18.625  1.00  0.00    -0.268 OA
HETATM    9  N   UNL     1      76.551  13.117  17.123  1.00  0.00    -0.366 N 
HETATM   10  H   UNL     1      77.505  13.211  16.900  1.00  0.00     0.159 HD
HETATM   11  H   UNL     1      75.865  13.345  16.455  1.00  0.00     0.159 HD
ENDBRANCH   2   7
BRANCH   1  12
HETATM   12  C   UNL     1      77.984  10.045  18.612  1.00  0.00     0.418 C 
HETATM   13  F   UNL     1      77.451  10.213  17.377  1.00  0.00    -0.166 F 
HETATM   14  F   UNL     1      77.275   9.026  19.176  1.00  0.00    -0.166 F 
HETATM   15  F   UNL     1      79.233   9.539  18.393  1.00  0.00    -0.166 F 
ENDBRANCH   1  12
TORSDOF 2
ENDMDL
MODEL 9
REMARK VINA RESULT:      -5.3     19.078     19.946
REMARK  2 active torsions:
REMARK  status: ('A' for Active; 'I' for Inactive)
REMARK    1  A    between atoms: C_1  and  C_2 
REMARK    2  A    between atoms: C_3  and  C_4 
REMARK       I    between atoms: C_4  and  N_9 
ROOT
HETATM    1  C   UNL     1      62.807   8.634   2.930  1.00  0.00     0.063 A 
HETATM    2  C   UNL     1      62.937   9.377   4.116  1.00  0.00     0.046 A 
HETATM    3  C   UNL     1      62.165   9.249   1.822  1.00  0.00     0.017 A 
HETATM    4  C   UNL     1      62.465  10.706   4.150  1.00  0.00     0.018 A 
HETATM    5  C   UNL     1      61.694  10.559   1.878  1.00  0.00     0.001 A 
HETATM    6  C   UNL     1      61.850  11.293   3.043  1.00  0.00     0.001 A 
ENDROOT
BRANCH   2   7
HETATM    7  C   UNL     1      63.575   8.936   5.387  1.00  0.00     0.250 C 
HETATM    8  O   UNL     1      64.702   9.314   5.686  1.00  0.00    -0.268 OA
HETATM    9  N   UNL     1      62.869   8.163   6.262  1.00  0.00    -0.366 N 
HETATM   10  H   UNL     1      61.963   7.857   6.028  1.00  0.00     0.159 HD
HETATM   11  H   UNL     1      63.265   7.912   7.127  1.00  0.00     0.159 HD
ENDBRANCH   2   7
BRANCH   1  12
HETATM   12  C   UNL     1      63.323   7.241   2.690  1.00  0.00     0.418 C 
HETATM   13  F   UNL     1      64.602   6.994   3.064  1.00  0.00    -0.166 F 
HETATM   14  F   UNL     1      63.259   6.890   1.373  1.00  0.00    -0.166 F 
HETATM   15  F   UNL     1      62.575   6.310   3.349  1.00  0.00    -0.166 F 
ENDBRANCH   1  12
TORSDOF 2
ENDMDL
