MODEL 1
REMARK VINA RESULT:      -5.4      0.000      0.000
REMARK  2 active torsions:
REMARK  status: ('A' for Active; 'I' for Inactive)
REMARK    1  A    between atoms: N_1  and  C_2 
REMARK    2  A    between atoms: C_5  and  O_8 
ROOT
HETATM    1  C   UNL     1      76.600   6.523  16.728  1.00  0.00     0.033 A 
HETATM    2  C   UNL     1      76.730   6.606  15.333  1.00  0.00     0.065 A 
HETATM    3  C   UNL     1      77.230   7.758  14.720  1.00  0.00     0.067 A 
HETATM    4  C   UNL     1      76.995   7.651  17.468  1.00  0.00     0.029 A 
HETATM    5  C   UNL     1      77.500   8.803  16.853  1.00  0.00     0.005 A 
HETATM    6  C   UNL     1      77.619   8.855  15.470  1.00  0.00     0.036 A 
ENDROOT
BRANCH   1   7
HETATM    7  N   UNL     1      76.116   5.394  17.352  1.00  0.00    -0.377 N 
HETATM    8  C   UNL     1      76.888   4.609  18.325  1.00  0.00     0.149 C 
HETATM    9  C   UNL     1      77.022   3.158  17.839  1.00  0.00     0.187 C 
HETATM   10  O   UNL     1      75.736   2.573  17.570  1.00  0.00    -0.388 OA
HETATM   11  C   UNL     1      75.045   3.329  16.561  1.00  0.00     0.187 C 
HETATM   12  C   UNL     1      74.823   4.790  16.990  1.00  0.00     0.149 C 
ENDBRANCH   1   7
BRANCH   3  13
HETATM   13  O   UNL     1      77.348   7.844  13.361  1.00  0.00    -0.361 OA
HETATM   14  H   UNL     1      76.590   8.000  12.834  1.00  0.00     0.217 HD
ENDBRANCH   3  13
TORSDOF 2
ENDMDL
MODEL 2
REMARK VINA RESULT:      -5.3      4.097      6.316
REMARK  2 active torsions:
REMARK  status: ('A' for Active; 'I' for Inactive)
REMARK    1  A    between atoms: N_1  and  C_2 
REMARK    2  A    between atoms: C_5  and  O_8 
ROOT
HETATM    1  C   UNL     1      77.362  10.003  17.768  1.00  0.00     0.033 A 
HETATM    2  C   UNL     1      77.040   8.778  18.372  1.00  0.00     0.065 A 
HETATM    3  C   UNL     1      76.979   7.597  17.626  1.00  0.00     0.067 A 
HETATM    4  C   UNL     1      77.616   9.980  16.385  1.00  0.00     0.029 A 
HETATM    5  C   UNL     1      77.559   8.796  15.640  1.00  0.00     0.005 A 
HETATM    6  C   UNL     1      77.239   7.597  16.266  1.00  0.00     0.036 A 
ENDROOT
BRANCH   1   7
HETATM    7  N   UNL     1      77.435  11.177  18.487  1.00  0.00    -0.377 N 
HETATM    8  C   UNL     1      78.186  11.315  19.742  1.00  0.00     0.149 C 
HETATM    9  C   UNL     1      77.245  11.766  20.869  1.00  0.00     0.187 C 
HETATM   10  O   UNL     1      76.546  12.974  20.519  1.00  0.00    -0.388 OA
HETATM   11  C   UNL     1      75.766  12.772  19.328  1.00  0.00     0.187 C 
HETATM   12  C   UNL     1      76.643  12.365  18.130  1.00  0.00     0.149 C 
ENDBRANCH   1   7
BRANCH   3  13
HETATM   13  O   UNL     1      76.657   6.405  18.210  1.00  0.00    -0.361 OA
HETATM   14  H   UNL     1      77.335   5.826  18.498  1.00  0.00     0.217 HD
ENDBRANCH   3  13
TORSDOF 2
ENDMDL
MODEL 3
REMARK VINA RESULT:      -5.3      7.220      9.055
REMARK  2 active torsions:
REMARK  status: ('A' for Active; 'I' for Inactive)
REMARK    1  A    between atoms: N_1  and  C_2 
REMARK    2  A    between atoms: C_5  and  O_8 
ROOT
HETATM    1  C   UNL     1      78.392  12.318  21.151  1.00  0.00     0.033 A 
HETATM    2  C   UNL     1      78.268  11.499  20.018  1.00  0.00     0.065 A 
HETATM    3  C   UNL     1      77.281  11.737  19.058  1.00  0.00     0.067 A 
HETATM    4  C   UNL     1      77.477  13.379  21.268  1.00  0.00     0.029 A 
HETATM    5  C   UNL     1      76.492  13.619  20.303  1.00  0.00     0.005 A 
HETATM    6  C   UNL     1      76.394  12.792  19.191  1.00  0.00     0.036 A 
ENDROOT
BRANCH   1   7
HETATM    7  N   UNL     1      79.363  12.105  22.106  1.00  0.00    -0.377 N 
HETATM    8  C   UNL     1      79.083  12.023  23.546  1.00  0.00     0.149 C 
HETATM    9  C   UNL     1      79.888  13.094  24.297  1.00  0.00     0.187 C 
HETATM   10  O   UNL     1      81.294  12.992  24.012  1.00  0.00    -0.388 OA
HETATM   11  C   UNL     1      81.530  13.151  22.603  1.00  0.00     0.187 C 
HETATM   12  C   UNL     1      80.797  12.081  21.774  1.00  0.00     0.149 C 
ENDBRANCH   1   7
BRANCH   3  13
HETATM   13  O   UNL     1      77.152  10.935  17.959  1.00  0.00    -0.361 OA
HETATM   14  H   UNL     1      77.737  10.214  17.834  1.00  0.00     0.217 HD
ENDBRANCH   3  13
TORSDOF 2
ENDMDL
MODEL 4
REMARK VINA RESULT:      -5.1     18.224     19.103
REMARK  2 active torsions:
REMARK  status: ('A' for Active; 'I' for Inactive)
REMARK    1  A    between atoms: N_1  and  C_2 
REMARK    2  A    between atoms: C_5  and  O_8 
ROOT
HETATM    1  C   UNL     1      62.404   8.781   3.633  1.00  0.00     0.033 A 
HETATM    2  C   UNL     1      62.323  10.014   4.299  1.00  0.00     0.065 A 
HETATM    3  C   UNL     1      62.044  11.194   3.604  1.00  0.00     0.067 A 
HETATM    4  C   UNL     1      62.195   8.797   2.244  1.00  0.00     0.029 A 
HETATM    5  C   UNL     1      61.911   9.979   1.549  1.00  0.00     0.005 A 
HETATM    6  C   UNL     1      61.835  11.185   2.235  1.00  0.00     0.036 A 
ENDROOT
BRANCH   1   7
HETATM    7  N   UNL     1      62.671   7.605   4.301  1.00  0.00    -0.377 N 
HETATM    8  C   UNL     1      61.626   6.694   4.791  1.00  0.00     0.149 C 
HETATM    9  C   UNL     1      61.765   6.507   6.309  1.00  0.00     0.187 C 
HETATM   10  O   UNL     1      63.084   6.061   6.666  1.00  0.00    -0.388 OA
HETATM   11  C   UNL     1      64.068   7.016   6.234  1.00  0.00     0.187 C 
HETATM   12  C   UNL     1      64.033   7.227   4.710  1.00  0.00     0.149 C 
ENDBRANCH   1   7
BRANCH   3  13
HETATM   13  O   UNL     1      61.973  12.397   4.248  1.00  0.00    -0.361 OA
HETATM   14  H   UNL     1      61.161  12.684   4.616  1.00  0.00     0.217 HD
ENDBRANCH   3  13
TORSDOF 2
ENDMDL
MODEL 5
REMARK VINA RESULT:      -5.0     17.020     17.894
REMARK  2 active torsions:
REMARK  status: ('A' for Active; 'I' for Inactive)
REMARK    1  A    between atoms: N_1  and  C_2 
REMARK    2  A    between atoms: C_5  and  O_8 
ROOT
HETATM    1  C   UNL     1      63.393   8.944   4.692  1.00  0.00     0.033 A 
HETATM    2  C   UNL     1      63.014  10.241   5.071  1.00  0.00     0.065 A 
HETATM    3  C   UNL     1      62.271  11.057   4.214  1.00  0.00     0.067 A 
HETATM    4  C   UNL     1      62.990   8.514   3.416  1.00  0.00     0.029 A 
HETATM    5  C   UNL     1      62.242   9.331   2.559  1.00  0.00     0.005 A 
HETATM    6  C   UNL     1      61.880  10.611   2.962  1.00  0.00     0.036 A 
ENDROOT
BRANCH   1   7
HETATM    7  N   UNL     1      64.119   8.121   5.526  1.00  0.00    -0.377 N 
HETATM    8  C   UNL     1      65.584   8.160   5.631  1.00  0.00     0.149 C 
HETATM    9  C   UNL     1      66.171   6.784   5.285  1.00  0.00     0.187 C 
HETATM   10  O   UNL     1      65.597   5.747   6.100  1.00  0.00    -0.388 OA
HETATM   11  C   UNL     1      64.173   5.695   5.910  1.00  0.00     0.187 C 
HETATM   12  C   UNL     1      63.495   7.025   6.284  1.00  0.00     0.149 C 
ENDBRANCH   1   7
BRANCH   3  13
HETATM   13  O   UNL     1      61.909  12.324   4.576  1.00  0.00    -0.361 OA
HETATM   14  H   UNL     1      61.940  13.018   3.948  1.00  0.00     0.217 HD
ENDBRANCH   3  13
TORSDOF 2
ENDMDL
MODEL 6
REMARK VINA RESULT:      -4.9      3.924      5.689
REMARK  2 active torsions:
REMARK  status: ('A' for Active; 'I' for Inactive)
REMARK    1  A    between atoms: N_1  and  C_2 
REMARK    2  A    between atoms: C_5  and  O_8 
ROOT
HETATM    1  C   UNL     1      77.381  10.561  18.158  1.00  0.00     0.033 A 
HETATM    2  C   UNL     1      77.707  10.601  19.523  1.00  0.00     0.065 A 
HETATM    3  C   UNL     1      77.275  11.649  20.340  1.00  0.00     0.067 A 
HETATM    4  C   UNL     1      76.606  11.623  17.662  1.00  0.00     0.029 A 
HETATM    5  C   UNL     1      76.171  12.671  18.481  1.00  0.00     0.005 A 
HETATM    6  C   UNL     1      76.508  12.683  19.829  1.00  0.00     0.036 A 
ENDROOT
BRANCH   1   7
HETATM    7  N   UNL     1      77.791   9.532  17.337  1.00  0.00    -0.377 N 
HETATM    8  C   UNL     1      78.261   9.730  15.959  1.00  0.00     0.149 C 
HETATM    9  C   UNL     1      77.388   8.922  14.988  1.00  0.00     0.187 C 
HETATM   10  O   UNL     1      77.345   7.531  15.351  1.00  0.00    -0.388 OA
HETATM   11  C   UNL     1      76.810   7.379  16.677  1.00  0.00     0.187 C 
HETATM   12  C   UNL     1      77.658   8.119  17.726  1.00  0.00     0.149 C 
ENDBRANCH   1   7
BRANCH   3  13
HETATM   13  O   UNL     1      77.599  11.695  21.666  1.00  0.00    -0.361 OA
HETATM   14  H   UNL     1      78.464  11.942  21.929  1.00  0.00     0.217 HD
ENDBRANCH   3  13
TORSDOF 2
ENDMDL
MODEL 7
REMARK VINA RESULT:      -4.9      3.552      5.571
REMARK  2 active torsions:
REMARK  status: ('A' for Active; 'I' for Inactive)
REMARK    1  A    between atoms: N_1  and  C_2 
REMARK    2  A    between atoms: C_5  and  O_8 
ROOT
HETATM    1  C   UNL     1      77.542   9.644  16.555  1.00  0.00     0.033 A 
HETATM    2  C   UNL     1      77.379   8.311  16.143  1.00  0.00     0.065 A 
HETATM    3  C   UNL     1      77.409   7.963  14.791  1.00  0.00     0.067 A 
HETATM    4  C   UNL     1      77.732  10.600  15.542  1.00  0.00     0.029 A 
HETATM    5  C   UNL     1      77.765  10.249  14.187  1.00  0.00     0.005 A 
HETATM    6  C   UNL     1      77.603   8.922  13.810  1.00  0.00     0.036 A 
ENDROOT
BRANCH   1   7
HETATM    7  N   UNL     1      77.523  10.007  17.884  1.00  0.00    -0.377 N 
HETATM    8  C   UNL     1      76.644  11.051  18.429  1.00  0.00     0.149 C 
HETATM    9  C   UNL     1      77.487  12.148  19.097  1.00  0.00     0.187 C 
HETATM   10  O   UNL     1      78.365  11.602  20.097  1.00  0.00    -0.388 OA
HETATM   11  C   UNL     1      79.256  10.640  19.507  1.00  0.00     0.187 C 
HETATM   12  C   UNL     1      78.492   9.473  18.856  1.00  0.00     0.149 C 
ENDBRANCH   1   7
BRANCH   3  13
HETATM   13  O   UNL     1      77.242   6.668  14.387  1.00  0.00    -0.361 OA
HETATM   14  H   UNL     1      76.729   6.079  14.905  1.00  0.00     0.217 HD
ENDBRANCH   3  13
TORSDOF 2
ENDMDL
MODEL 8
REMARK VINA RESULT:      -4.9     10.979     12.650
REMARK  2 active torsions:
REMARK  status: ('A' for Active; 'I' for Inactive)
REMARK    1  A    between atoms: N_1  and  C_2 
REMARK    2  A    between atoms: C_5  and  O_8 
ROOT
HETATM    1  C   UNL     1      68.531   3.914   8.478  1.00  0.00     0.033 A 
HETATM    2  C   UNL     1      69.007   3.594   9.759  1.00  0.00     0.065 A 
HETATM    3  C   UNL     1      69.472   2.311  10.058  1.00  0.00     0.067 A 
HETATM    4  C   UNL     1      68.546   2.884   7.522  1.00  0.00     0.029 A 
HETATM    5  C   UNL     1      69.016   1.599   7.821  1.00  0.00     0.005 A 
HETATM    6  C   UNL     1      69.483   1.312   9.098  1.00  0.00     0.036 A 
ENDROOT
BRANCH   1   7
HETATM    7  N   UNL     1      68.074   5.175   8.160  1.00  0.00    -0.377 N 
HETATM    8  C   UNL     1      67.751   6.199   9.164  1.00  0.00     0.149 C 
HETATM    9  C   UNL     1      66.287   6.638   9.010  1.00  0.00     0.187 C 
HETATM   10  O   UNL     1      66.009   7.085   7.672  1.00  0.00    -0.388 OA
HETATM   11  C   UNL     1      66.269   6.030   6.730  1.00  0.00     0.187 C 
HETATM   12  C   UNL     1      67.734   5.562   6.782  1.00  0.00     0.149 C 
ENDBRANCH   1   7
BRANCH   3  13
HETATM   13  O   UNL     1      69.927   1.995  11.307  1.00  0.00    -0.361 OA
HETATM   14  H   UNL     1      70.534   2.561  11.742  1.00  0.00     0.217 HD
ENDBRANCH   3  13
TORSDOF 2
ENDMDL
MODEL 9
REMARK VINA RESULT:      -4.8      4.559      6.336
REMARK  2 active torsions:
REMARK  status: ('A' for Active; 'I' for Inactive)
REMARK    1  A    between atoms: N_1  and  C_2 
REMARK    2  A    between atoms: C_5  and  O_8 
ROOT
HETATM    1  C   UNL     1      77.562  11.147  19.113  1.00  0.00     0.033 A 
HETATM    2  C   UNL     1      78.751  10.872  19.807  1.00  0.00     0.065 A 
HETATM    3  C   UNL     1      79.192  11.700  20.843  1.00  0.00     0.067 A 
HETATM    4  C   UNL     1      76.847  12.289  19.511  1.00  0.00     0.029 A 
HETATM    5  C   UNL     1      77.287  13.116  20.552  1.00  0.00     0.005 A 
HETATM    6  C   UNL     1      78.468  12.818  21.222  1.00  0.00     0.036 A 
ENDROOT
BRANCH   1   7
HETATM    7  N   UNL     1      77.106  10.339  18.094  1.00  0.00    -0.377 N 
HETATM    8  C   UNL     1      76.652   8.956  18.295  1.00  0.00     0.149 C 
HETATM    9  C   UNL     1      77.489   7.999  17.432  1.00  0.00     0.187 C 
HETATM   10  O   UNL     1      77.463   8.382  16.046  1.00  0.00    -0.388 OA
HETATM   11  C   UNL     1      77.985   9.712  15.886  1.00  0.00     0.187 C 
HETATM   12  C   UNL     1      77.169  10.748  16.681  1.00  0.00     0.149 C 
ENDBRANCH   1   7
BRANCH   3  13
HETATM   13  O   UNL     1      80.353  11.440  21.514  1.00  0.00    -0.361 OA
HETATM   14  H   UNL     1      80.959  12.133  21.687  1.00  0.00     0.217 HD
ENDBRANCH   3  13
TORSDOF 2
ENDMDL
