MODEL 1
REMARK VINA RESULT:      -5.0      0.000      0.000
REMARK  2 active torsions:
REMARK  status: ('A' for Active; 'I' for Inactive)
REMARK    1  A    between atoms: C_1  and  C_2 
REMARK    2  A    between atoms: C_1  and  O_5 
ROOT
HETATM    1  C   UNL     1      62.861   9.343   4.124  1.00  0.00     0.045 A 
HETATM    2  C   UNL     1      62.835   8.557   2.952  1.00  0.00    -0.046 A 
HETATM    3  C   UNL     1      62.347  10.656   4.086  1.00  0.00     0.018 A 
HETATM    4  C   UNL     1      63.375   7.162   2.812  1.00  0.00     0.049 C 
HETATM    5  C   UNL     1      62.280   9.118   1.782  1.00  0.00     0.008 A 
HETATM    6  C   UNL     1      61.803  11.186   2.916  1.00  0.00     0.001 A 
HETATM    7  C   UNL     1      61.769  10.415   1.762  1.00  0.00     0.001 A 
ENDROOT
BRANCH   1   8
HETATM    8  C   UNL     1      63.431   8.933   5.442  1.00  0.00     0.293 C 
HETATM    9  O   UNL     1      62.812   8.267   6.257  1.00  0.00    -0.259 OA
BRANCH   8  10
HETATM   10  O   UNL     1      64.726   9.312   5.557  1.00  0.00    -0.323 OA
HETATM   11  C   UNL     1      65.649   8.222   5.624  1.00  0.00     0.213 C 
ENDBRANCH   8  10
ENDBRANCH   1   8
TORSDOF 2
ENDMDL
MODEL 2
REMARK VINA RESULT:      -4.9      0.566      2.134
REMARK  2 active torsions:
REMARK  status: ('A' for Active; 'I' for Inactive)
REMARK    1  A    between atoms: C_1  and  C_2 
REMARK    2  A    between atoms: C_1  and  O_5 
ROOT
HETATM    1  C   UNL     1      62.918   9.116   3.957  1.00  0.00     0.045 A 
HETATM    2  C   UNL     1      62.305  10.316   3.539  1.00  0.00    -0.046 A 
HETATM    3  C   UNL     1      63.012   8.038   3.053  1.00  0.00     0.018 A 
HETATM    4  C   UNL     1      62.089  11.540   4.384  1.00  0.00     0.049 C 
HETATM    5  C   UNL     1      61.816  10.393   2.217  1.00  0.00     0.008 A 
HETATM    6  C   UNL     1      62.521   8.141   1.752  1.00  0.00     0.001 A 
HETATM    7  C   UNL     1      61.923   9.321   1.332  1.00  0.00     0.001 A 
ENDROOT
BRANCH   1   8
HETATM    8  C   UNL     1      63.466   8.840   5.319  1.00  0.00     0.293 C 
HETATM    9  O   UNL     1      62.842   8.238   6.178  1.00  0.00    -0.259 OA
BRANCH   8  10
HETATM   10  O   UNL     1      64.749   9.258   5.427  1.00  0.00    -0.323 OA
HETATM   11  C   UNL     1      65.686   8.206   5.675  1.00  0.00     0.213 C 
ENDBRANCH   8  10
ENDBRANCH   1   8
TORSDOF 2
ENDMDL
MODEL 3
REMARK VINA RESULT:      -4.8      0.694      1.391
REMARK  2 active torsions:
REMARK  status: ('A' for Active; 'I' for Inactive)
REMARK    1  A    between atoms: C_1  and  C_2 
REMARK    2  A    between atoms: C_1  and  O_5 
ROOT
HETATM    1  C   UNL     1      63.013   9.336   4.133  1.00  0.00     0.045 A 
HETATM    2  C   UNL     1      62.905   8.577   2.949  1.00  0.00    -0.046 A 
HETATM    3  C   UNL     1      62.472  10.638   4.171  1.00  0.00     0.018 A 
HETATM    4  C   UNL     1      63.458   7.198   2.729  1.00  0.00     0.049 C 
HETATM    5  C   UNL     1      62.242   9.153   1.843  1.00  0.00     0.008 A 
HETATM    6  C   UNL     1      61.821  11.183   3.065  1.00  0.00     0.001 A 
HETATM    7  C   UNL     1      61.705  10.439   1.898  1.00  0.00     0.001 A 
ENDROOT
BRANCH   1   8
HETATM    8  C   UNL     1      63.700   8.907   5.389  1.00  0.00     0.293 C 
HETATM    9  O   UNL     1      64.895   9.062   5.579  1.00  0.00    -0.259 OA
BRANCH   8  10
HETATM   10  O   UNL     1      62.815   8.427   6.294  1.00  0.00    -0.323 OA
HETATM   11  C   UNL     1      62.693   7.002   6.292  1.00  0.00     0.213 C 
ENDBRANCH   8  10
ENDBRANCH   1   8
TORSDOF 2
ENDMDL
MODEL 4
REMARK VINA RESULT:      -4.7     18.115     19.615
REMARK  2 active torsions:
REMARK  status: ('A' for Active; 'I' for Inactive)
REMARK    1  A    between atoms: C_1  and  C_2 
REMARK    2  A    between atoms: C_1  and  O_5 
ROOT
HETATM    1  C   UNL     1      75.203   2.496  17.457  1.00  0.00     0.045 A 
HETATM    2  C   UNL     1      76.493   2.914  17.847  1.00  0.00    -0.046 A 
HETATM    3  C   UNL     1      74.341   3.416  16.827  1.00  0.00     0.018 A 
HETATM    4  C   UNL     1      77.516   2.076  18.560  1.00  0.00     0.049 C 
HETATM    5  C   UNL     1      76.875   4.246  17.578  1.00  0.00     0.008 A 
HETATM    6  C   UNL     1      74.743   4.727  16.573  1.00  0.00     0.001 A 
HETATM    7  C   UNL     1      76.013   5.143  16.948  1.00  0.00     0.001 A 
ENDROOT
BRANCH   1   8
HETATM    8  C   UNL     1      74.616   1.140  17.681  1.00  0.00     0.293 C 
HETATM    9  O   UNL     1      74.349   0.707  18.790  1.00  0.00    -0.259 OA
BRANCH   8  10
HETATM   10  O   UNL     1      74.343   0.523  16.508  1.00  0.00    -0.323 OA
HETATM   11  C   UNL     1      73.687  -0.740  16.652  1.00  0.00     0.213 C 
ENDBRANCH   8  10
ENDBRANCH   1   8
TORSDOF 2
ENDMDL
MODEL 5
REMARK VINA RESULT:      -4.4      4.260      7.280
REMARK  2 active torsions:
REMARK  status: ('A' for Active; 'I' for Inactive)
REMARK    1  A    between atoms: C_1  and  C_2 
REMARK    2  A    between atoms: C_1  and  O_5 
ROOT
HETATM    1  C   UNL     1      67.225   6.159   7.593  1.00  0.00     0.045 A 
HETATM    2  C   UNL     1      67.644   5.187   6.660  1.00  0.00    -0.046 A 
HETATM    3  C   UNL     1      67.693   6.088   8.921  1.00  0.00     0.018 A 
HETATM    4  C   UNL     1      67.212   5.095   5.224  1.00  0.00     0.049 C 
HETATM    5  C   UNL     1      68.534   4.181   7.096  1.00  0.00     0.008 A 
HETATM    6  C   UNL     1      68.572   5.084   9.326  1.00  0.00     0.001 A 
HETATM    7  C   UNL     1      68.994   4.129   8.411  1.00  0.00     0.001 A 
ENDROOT
BRANCH   1   8
HETATM    8  C   UNL     1      66.270   7.277   7.325  1.00  0.00     0.293 C 
HETATM    9  O   UNL     1      66.613   8.343   6.841  1.00  0.00    -0.259 OA
BRANCH   8  10
HETATM   10  O   UNL     1      64.996   6.910   7.598  1.00  0.00    -0.323 OA
HETATM   11  C   UNL     1      64.148   6.847   6.449  1.00  0.00     0.213 C 
ENDBRANCH   8  10
ENDBRANCH   1   8
TORSDOF 2
ENDMDL
MODEL 6
REMARK VINA RESULT:      -3.9      5.021      7.938
REMARK  2 active torsions:
REMARK  status: ('A' for Active; 'I' for Inactive)
REMARK    1  A    between atoms: C_1  and  C_2 
REMARK    2  A    between atoms: C_1  and  O_5 
ROOT
HETATM    1  C   UNL     1      68.015   5.416   7.319  1.00  0.00     0.045 A 
HETATM    2  C   UNL     1      68.069   4.151   6.696  1.00  0.00    -0.046 A 
HETATM    3  C   UNL     1      68.608   5.587   8.587  1.00  0.00     0.018 A 
HETATM    4  C   UNL     1      67.457   3.790   5.372  1.00  0.00     0.049 C 
HETATM    5  C   UNL     1      68.732   3.101   7.369  1.00  0.00     0.008 A 
HETATM    6  C   UNL     1      69.258   4.533   9.229  1.00  0.00     0.001 A 
HETATM    7  C   UNL     1      69.321   3.288   8.618  1.00  0.00     0.001 A 
ENDROOT
BRANCH   1   8
HETATM    8  C   UNL     1      67.336   6.631   6.776  1.00  0.00     0.293 C 
HETATM    9  O   UNL     1      66.302   7.080   7.243  1.00  0.00    -0.259 OA
BRANCH   8  10
HETATM   10  O   UNL     1      68.064   7.199   5.786  1.00  0.00    -0.323 OA
HETATM   11  C   UNL     1      67.308   7.519   4.616  1.00  0.00     0.213 C 
ENDBRANCH   8  10
ENDBRANCH   1   8
TORSDOF 2
ENDMDL
MODEL 7
REMARK VINA RESULT:      -3.8     16.246     18.037
REMARK  2 active torsions:
REMARK  status: ('A' for Active; 'I' for Inactive)
REMARK    1  A    between atoms: C_1  and  C_2 
REMARK    2  A    between atoms: C_1  and  O_5 
ROOT
HETATM    1  C   UNL     1      48.316  18.952   2.752  1.00  0.00     0.045 A 
HETATM    2  C   UNL     1      49.178  19.325   1.699  1.00  0.00    -0.046 A 
HETATM    3  C   UNL     1      48.325  17.619   3.212  1.00  0.00     0.018 A 
HETATM    4  C   UNL     1      49.265  20.685   1.068  1.00  0.00     0.049 C 
HETATM    5  C   UNL     1      50.032  18.342   1.153  1.00  0.00     0.008 A 
HETATM    6  C   UNL     1      49.179  16.667   2.655  1.00  0.00     0.001 A 
HETATM    7  C   UNL     1      50.035  17.030   1.624  1.00  0.00     0.001 A 
ENDROOT
BRANCH   1   8
HETATM    8  C   UNL     1      47.327  19.842   3.432  1.00  0.00     0.293 C 
HETATM    9  O   UNL     1      46.128  19.799   3.207  1.00  0.00    -0.259 OA
BRANCH   8  10
HETATM   10  O   UNL     1      47.924  20.610   4.374  1.00  0.00    -0.323 OA
HETATM   11  C   UNL     1      47.603  22.000   4.283  1.00  0.00     0.213 C 
ENDBRANCH   8  10
ENDBRANCH   1   8
TORSDOF 2
ENDMDL
MODEL 8
REMARK VINA RESULT:      -3.7      6.202      7.928
REMARK  2 active torsions:
REMARK  status: ('A' for Active; 'I' for Inactive)
REMARK    1  A    between atoms: C_1  and  C_2 
REMARK    2  A    between atoms: C_1  and  O_5 
ROOT
HETATM    1  C   UNL     1      67.760   4.950   8.077  1.00  0.00     0.045 A 
HETATM    2  C   UNL     1      67.063   6.152   8.321  1.00  0.00    -0.046 A 
HETATM    3  C   UNL     1      68.003   4.550   6.747  1.00  0.00     0.018 A 
HETATM    4  C   UNL     1      66.689   6.700   9.670  1.00  0.00     0.049 C 
HETATM    5  C   UNL     1      66.643   6.919   7.213  1.00  0.00     0.008 A 
HETATM    6  C   UNL     1      67.578   5.328   5.670  1.00  0.00     0.001 A 
HETATM    7  C   UNL     1      66.897   6.515   5.903  1.00  0.00     0.001 A 
ENDROOT
BRANCH   1   8
HETATM    8  C   UNL     1      68.255   3.997   9.117  1.00  0.00     0.293 C 
HETATM    9  O   UNL     1      69.238   4.216   9.805  1.00  0.00    -0.259 OA
BRANCH   8  10
HETATM   10  O   UNL     1      67.425   2.936   9.246  1.00  0.00    -0.323 OA
HETATM   11  C   UNL     1      67.969   1.859  10.012  1.00  0.00     0.213 C 
ENDBRANCH   8  10
ENDBRANCH   1   8
TORSDOF 2
ENDMDL
MODEL 9
REMARK VINA RESULT:      -3.7      4.903      8.353
REMARK  2 active torsions:
REMARK  status: ('A' for Active; 'I' for Inactive)
REMARK    1  A    between atoms: C_1  and  C_2 
REMARK    2  A    between atoms: C_1  and  O_5 
ROOT
HETATM    1  C   UNL     1      67.762   4.951   7.290  1.00  0.00     0.045 A 
HETATM    2  C   UNL     1      67.966   5.293   8.644  1.00  0.00    -0.046 A 
HETATM    3  C   UNL     1      68.349   3.776   6.779  1.00  0.00     0.018 A 
HETATM    4  C   UNL     1      67.446   6.522   9.334  1.00  0.00     0.049 C 
HETATM    5  C   UNL     1      68.748   4.429   9.442  1.00  0.00     0.008 A 
HETATM    6  C   UNL     1      69.117   2.940   7.589  1.00  0.00     0.001 A 
HETATM    7  C   UNL     1      69.316   3.266   8.923  1.00  0.00     0.001 A 
ENDROOT
BRANCH   1   8
HETATM    8  C   UNL     1      66.991   5.752   6.291  1.00  0.00     0.293 C 
HETATM    9  O   UNL     1      67.525   6.439   5.436  1.00  0.00    -0.259 OA
BRANCH   8  10
HETATM   10  O   UNL     1      65.660   5.534   6.408  1.00  0.00    -0.323 OA
HETATM   11  C   UNL     1      64.889   6.723   6.600  1.00  0.00     0.213 C 
ENDBRANCH   8  10
ENDBRANCH   1   8
TORSDOF 2
ENDMDL
