MODEL 1
REMARK VINA RESULT:      -5.6      0.000      0.000
REMARK  2 active torsions:
REMARK  status: ('A' for Active; 'I' for Inactive)
REMARK    1  A    between atoms: C_1  and  C_2 
REMARK    2  A    between atoms: C_2  and  O_5 
ROOT
HETATM    1  C   UNL     1      77.721  11.264  19.368  1.00  0.00     0.061 A 
HETATM    2  C   UNL     1      78.316  12.010  20.398  1.00  0.00     0.050 A 
HETATM    3 CL   UNL     1      79.732  11.516  21.259  1.00  0.00    -0.083 Cl
HETATM    4  C   UNL     1      76.530  11.742  18.789  1.00  0.00     0.019 A 
HETATM    5  C   UNL     1      77.729  13.212  20.817  1.00  0.00     0.025 A 
HETATM    6  C   UNL     1      75.952  12.940  19.212  1.00  0.00     0.001 A 
HETATM    7  C   UNL     1      76.552  13.677  20.227  1.00  0.00     0.002 A 
ENDROOT
BRANCH   1   8
HETATM    8  C   UNL     1      78.217   9.964  18.846  1.00  0.00     0.294 C 
HETATM    9  O   UNL     1      79.322   9.836  18.335  1.00  0.00    -0.259 OA
BRANCH   8  10
HETATM   10  O   UNL     1      77.344   8.960  19.087  1.00  0.00    -0.322 OA
HETATM   11  C   UNL     1      77.014   8.176  17.937  1.00  0.00     0.213 C 
ENDBRANCH   8  10
ENDBRANCH   1   8
TORSDOF 2
ENDMDL
MODEL 2
REMARK VINA RESULT:      -5.2      2.963      5.603
REMARK  2 active torsions:
REMARK  status: ('A' for Active; 'I' for Inactive)
REMARK    1  A    between atoms: C_1  and  C_2 
REMARK    2  A    between atoms: C_2  and  O_5 
ROOT
HETATM    1  C   UNL     1      77.258   8.499  16.993  1.00  0.00     0.061 A 
HETATM    2  C   UNL     1      77.299   8.065  15.659  1.00  0.00     0.050 A 
HETATM    3 CL   UNL     1      77.752   9.070  14.326  1.00  0.00    -0.083 Cl
HETATM    4  C   UNL     1      76.808   7.603  17.981  1.00  0.00     0.019 A 
HETATM    5  C   UNL     1      76.910   6.757  15.338  1.00  0.00     0.025 A 
HETATM    6  C   UNL     1      76.422   6.302  17.654  1.00  0.00     0.001 A 
HETATM    7  C   UNL     1      76.473   5.877  16.332  1.00  0.00     0.002 A 
ENDROOT
BRANCH   1   8
HETATM    8  C   UNL     1      77.613   9.861  17.470  1.00  0.00     0.294 C 
HETATM    9  O   UNL     1      77.393  10.869  16.812  1.00  0.00    -0.259 OA
BRANCH   8  10
HETATM   10  O   UNL     1      78.114   9.839  18.727  1.00  0.00    -0.322 OA
HETATM   11  C   UNL     1      77.792  10.990  19.510  1.00  0.00     0.213 C 
ENDBRANCH   8  10
ENDBRANCH   1   8
TORSDOF 2
ENDMDL
MODEL 3
REMARK VINA RESULT:      -5.0     20.533     21.635
REMARK  2 active torsions:
REMARK  status: ('A' for Active; 'I' for Inactive)
REMARK    1  A    between atoms: C_1  and  C_2 
REMARK    2  A    between atoms: C_2  and  O_5 
ROOT
HETATM    1  C   UNL     1      62.859   9.377   4.149  1.00  0.00     0.061 A 
HETATM    2  C   UNL     1      62.834   8.642   2.954  1.00  0.00     0.050 A 
HETATM    3 CL   UNL     1      63.503   7.057   2.776  1.00  0.00    -0.083 Cl
HETATM    4  C   UNL     1      62.340  10.686   4.149  1.00  0.00     0.019 A 
HETATM    5  C   UNL     1      62.285   9.211   1.796  1.00  0.00     0.025 A 
HETATM    6  C   UNL     1      61.795  11.246   2.992  1.00  0.00     0.001 A 
HETATM    7  C   UNL     1      61.766  10.508   1.814  1.00  0.00     0.002 A 
ENDROOT
BRANCH   1   8
HETATM    8  C   UNL     1      63.434   8.911   5.438  1.00  0.00     0.294 C 
HETATM    9  O   UNL     1      62.806   8.222   6.230  1.00  0.00    -0.259 OA
BRANCH   8  10
HETATM   10  O   UNL     1      64.733   9.267   5.567  1.00  0.00    -0.322 OA
HETATM   11  C   UNL     1      65.646   8.169   5.585  1.00  0.00     0.213 C 
ENDBRANCH   8  10
ENDBRANCH   1   8
TORSDOF 2
ENDMDL
MODEL 4
REMARK VINA RESULT:      -4.9     20.484     21.681
REMARK  2 active torsions:
REMARK  status: ('A' for Active; 'I' for Inactive)
REMARK    1  A    between atoms: C_1  and  C_2 
REMARK    2  A    between atoms: C_2  and  O_5 
ROOT
HETATM    1  C   UNL     1      62.945   9.093   3.998  1.00  0.00     0.061 A 
HETATM    2  C   UNL     1      62.356  10.296   3.576  1.00  0.00     0.050 A 
HETATM    3 CL   UNL     1      62.150  11.682   4.589  1.00  0.00    -0.083 Cl
HETATM    4  C   UNL     1      62.994   8.013   3.097  1.00  0.00     0.019 A 
HETATM    5  C   UNL     1      61.845  10.404   2.274  1.00  0.00     0.025 A 
HETATM    6  C   UNL     1      62.485   8.128   1.803  1.00  0.00     0.001 A 
HETATM    7  C   UNL     1      61.910   9.325   1.390  1.00  0.00     0.002 A 
ENDROOT
BRANCH   1   8
HETATM    8  C   UNL     1      63.498   8.831   5.352  1.00  0.00     0.294 C 
HETATM    9  O   UNL     1      62.871   8.237   6.218  1.00  0.00    -0.259 OA
BRANCH   8  10
HETATM   10  O   UNL     1      64.781   9.247   5.460  1.00  0.00    -0.322 OA
HETATM   11  C   UNL     1      65.721   8.200   5.712  1.00  0.00     0.213 C 
ENDBRANCH   8  10
ENDBRANCH   1   8
TORSDOF 2
ENDMDL
MODEL 5
REMARK VINA RESULT:      -4.3     15.988     17.297
REMARK  2 active torsions:
REMARK  status: ('A' for Active; 'I' for Inactive)
REMARK    1  A    between atoms: C_1  and  C_2 
REMARK    2  A    between atoms: C_2  and  O_5 
ROOT
HETATM    1  C   UNL     1      67.364   6.089   7.614  1.00  0.00     0.061 A 
HETATM    2  C   UNL     1      67.741   5.083   6.710  1.00  0.00     0.050 A 
HETATM    3 CL   UNL     1      67.179   4.987   5.076  1.00  0.00    -0.083 Cl
HETATM    4  C   UNL     1      67.836   6.019   8.938  1.00  0.00     0.019 A 
HETATM    5  C   UNL     1      68.584   4.045   7.132  1.00  0.00     0.025 A 
HETATM    6  C   UNL     1      68.676   4.983   9.351  1.00  0.00     0.001 A 
HETATM    7  C   UNL     1      69.051   3.995   8.447  1.00  0.00     0.002 A 
ENDROOT
BRANCH   1   8
HETATM    8  C   UNL     1      66.456   7.226   7.311  1.00  0.00     0.294 C 
HETATM    9  O   UNL     1      66.832   8.233   6.725  1.00  0.00    -0.259 OA
BRANCH   8  10
HETATM   10  O   UNL     1      65.182   6.965   7.681  1.00  0.00    -0.322 OA
HETATM   11  C   UNL     1      64.299   6.680   6.593  1.00  0.00     0.213 C 
ENDBRANCH   8  10
ENDBRANCH   1   8
TORSDOF 2
ENDMDL
MODEL 6
REMARK VINA RESULT:      -4.3     21.916     22.886
REMARK  2 active torsions:
REMARK  status: ('A' for Active; 'I' for Inactive)
REMARK    1  A    between atoms: C_1  and  C_2 
REMARK    2  A    between atoms: C_2  and  O_5 
ROOT
HETATM    1  C   UNL     1      62.262   9.449   2.816  1.00  0.00     0.061 A 
HETATM    2  C   UNL     1      63.098   8.689   3.650  1.00  0.00     0.050 A 
HETATM    3 CL   UNL     1      63.625   7.081   3.287  1.00  0.00    -0.083 Cl
HETATM    4  C   UNL     1      61.848  10.721   3.254  1.00  0.00     0.019 A 
HETATM    5  C   UNL     1      63.512   9.208   4.884  1.00  0.00     0.025 A 
HETATM    6  C   UNL     1      62.265  11.232   4.484  1.00  0.00     0.001 A 
HETATM    7  C   UNL     1      63.099  10.476   5.301  1.00  0.00     0.002 A 
ENDROOT
BRANCH   1   8
HETATM    8  C   UNL     1      61.726   9.013   1.500  1.00  0.00     0.294 C 
HETATM    9  O   UNL     1      62.377   9.081   0.466  1.00  0.00    -0.259 OA
BRANCH   8  10
HETATM   10  O   UNL     1      60.494   8.465   1.617  1.00  0.00    -0.322 OA
HETATM   11  C   UNL     1      59.955   7.962   0.392  1.00  0.00     0.213 C 
ENDBRANCH   8  10
ENDBRANCH   1   8
TORSDOF 2
ENDMDL
MODEL 7
REMARK VINA RESULT:      -4.2     15.321     16.309
REMARK  2 active torsions:
REMARK  status: ('A' for Active; 'I' for Inactive)
REMARK    1  A    between atoms: C_1  and  C_2 
REMARK    2  A    between atoms: C_2  and  O_5 
ROOT
HETATM    1  C   UNL     1      68.724   2.851   9.449  1.00  0.00     0.061 A 
HETATM    2  C   UNL     1      68.170   2.642   8.176  1.00  0.00     0.050 A 
HETATM    3 CL   UNL     1      67.628   1.105   7.595  1.00  0.00    -0.083 Cl
HETATM    4  C   UNL     1      69.191   4.137   9.780  1.00  0.00     0.019 A 
HETATM    5  C   UNL     1      68.078   3.709   7.272  1.00  0.00     0.025 A 
HETATM    6  C   UNL     1      69.095   5.195   8.875  1.00  0.00     0.001 A 
HETATM    7  C   UNL     1      68.537   4.982   7.619  1.00  0.00     0.002 A 
ENDROOT
BRANCH   1   8
HETATM    8  C   UNL     1      68.910   1.808  10.492  1.00  0.00     0.294 C 
HETATM    9  O   UNL     1      67.970   1.259  11.050  1.00  0.00    -0.259 OA
BRANCH   8  10
HETATM   10  O   UNL     1      70.215   1.499  10.667  1.00  0.00    -0.322 OA
HETATM   11  C   UNL     1      70.670   0.397   9.880  1.00  0.00     0.213 C 
ENDBRANCH   8  10
ENDBRANCH   1   8
TORSDOF 2
ENDMDL
MODEL 8
REMARK VINA RESULT:      -4.2     21.897     22.796
REMARK  2 active torsions:
REMARK  status: ('A' for Active; 'I' for Inactive)
REMARK    1  A    between atoms: C_1  and  C_2 
REMARK    2  A    between atoms: C_2  and  O_5 
ROOT
HETATM    1  C   UNL     1      62.595   8.794   3.128  1.00  0.00     0.061 A 
HETATM    2  C   UNL     1      62.226   9.383   1.908  1.00  0.00     0.050 A 
HETATM    3 CL   UNL     1      62.255   8.561   0.387  1.00  0.00    -0.083 Cl
HETATM    4  C   UNL     1      62.594   9.589   4.290  1.00  0.00     0.019 A 
HETATM    5  C   UNL     1      61.853  10.734   1.871  1.00  0.00     0.025 A 
HETATM    6  C   UNL     1      62.220  10.933   4.245  1.00  0.00     0.001 A 
HETATM    7  C   UNL     1      61.848  11.507   3.034  1.00  0.00     0.002 A 
ENDROOT
BRANCH   1   8
HETATM    8  C   UNL     1      63.039   7.387   3.309  1.00  0.00     0.294 C 
HETATM    9  O   UNL     1      64.198   7.034   3.142  1.00  0.00    -0.259 OA
BRANCH   8  10
HETATM   10  O   UNL     1      62.035   6.598   3.755  1.00  0.00    -0.322 OA
HETATM   11  C   UNL     1      61.410   5.809   2.740  1.00  0.00     0.213 C 
ENDBRANCH   8  10
ENDBRANCH   1   8
TORSDOF 2
ENDMDL
MODEL 9
REMARK VINA RESULT:      -4.2     15.060     16.005
REMARK  2 active torsions:
REMARK  status: ('A' for Active; 'I' for Inactive)
REMARK    1  A    between atoms: C_1  and  C_2 
REMARK    2  A    between atoms: C_2  and  O_5 
ROOT
HETATM    1  C   UNL     1      68.717   4.583   8.671  1.00  0.00     0.061 A 
HETATM    2  C   UNL     1      68.348   4.192   7.374  1.00  0.00     0.050 A 
HETATM    3 CL   UNL     1      68.988   2.805   6.562  1.00  0.00    -0.083 Cl
HETATM    4  C   UNL     1      68.176   5.771   9.197  1.00  0.00     0.019 A 
HETATM    5  C   UNL     1      67.447   4.974   6.639  1.00  0.00     0.025 A 
HETATM    6  C   UNL     1      67.278   6.544   8.459  1.00  0.00     0.001 A 
HETATM    7  C   UNL     1      66.912   6.146   7.179  1.00  0.00     0.002 A 
ENDROOT
BRANCH   1   8
HETATM    8  C   UNL     1      69.680   3.868   9.548  1.00  0.00     0.294 C 
HETATM    9  O   UNL     1      70.861   4.179   9.624  1.00  0.00    -0.259 OA
BRANCH   8  10
HETATM   10  O   UNL     1      69.071   2.917  10.292  1.00  0.00    -0.322 OA
HETATM   11  C   UNL     1      69.635   1.611  10.155  1.00  0.00     0.213 C 
ENDBRANCH   8  10
ENDBRANCH   1   8
TORSDOF 2
ENDMDL
