MODEL 1
REMARK VINA RESULT:      -5.0      0.000      0.000
REMARK  3 active torsions:
REMARK  status: ('A' for Active; 'I' for Inactive)
REMARK    1  A    between atoms: C_1  and  O_2 
REMARK    2  A    between atoms: O_2  and  C_6 
REMARK    3  A    between atoms: C_7  and  N_8 
ROOT
HETATM    1  C   UNL     1      62.357   9.093   3.238  1.00  0.00     0.078 A 
HETATM    2  C   UNL     1      63.196  10.682   5.408  1.00  0.00     0.025 A 
HETATM    3  C   UNL     1      63.350   8.645   4.109  1.00  0.00     0.039 A 
HETATM    4  C   UNL     1      61.854  10.380   3.398  1.00  0.00     0.039 A 
HETATM    5  C   UNL     1      63.780   9.440   5.172  1.00  0.00     0.031 A 
HETATM    6  C   UNL     1      62.277  11.172   4.472  1.00  0.00     0.031 A 
ENDROOT
BRANCH   1   7
HETATM    7  O   UNL     1      62.012   8.199   2.273  1.00  0.00    -0.255 OA
BRANCH   7   8
HETATM    8  C   UNL     1      61.881   8.638   0.929  1.00  0.00     0.530 C 
HETATM    9  F   UNL     1      62.641   9.714   0.630  1.00  0.00    -0.144 F 
HETATM   10  F   UNL     1      60.589   8.978   0.719  1.00  0.00    -0.144 F 
HETATM   11  F   UNL     1      62.191   7.629   0.089  1.00  0.00    -0.144 F 
ENDBRANCH   7   8
ENDBRANCH   1   7
BRANCH   2  12
HETATM   12  N   UNL     1      63.693  11.517   6.416  1.00  0.00    -0.399 N 
HETATM   13  H   UNL     1      64.615  11.857   6.363  1.00  0.00     0.156 HD
HETATM   14  H   UNL     1      63.119  11.765   7.177  1.00  0.00     0.156 HD
ENDBRANCH   2  12
TORSDOF 3
ENDMDL
MODEL 2
REMARK VINA RESULT:      -4.8      3.712      4.462
REMARK  3 active torsions:
REMARK  status: ('A' for Active; 'I' for Inactive)
REMARK    1  A    between atoms: C_1  and  O_2 
REMARK    2  A    between atoms: O_2  and  C_6 
REMARK    3  A    between atoms: C_7  and  N_8 
ROOT
HETATM    1  C   UNL     1      63.196   8.952   4.950  1.00  0.00     0.078 A 
HETATM    2  C   UNL     1      61.953  10.709   3.133  1.00  0.00     0.025 A 
HETATM    3  C   UNL     1      62.938  10.277   5.300  1.00  0.00     0.039 A 
HETATM    4  C   UNL     1      62.920   8.534   3.652  1.00  0.00     0.039 A 
HETATM    5  C   UNL     1      62.341  11.154   4.393  1.00  0.00     0.031 A 
HETATM    6  C   UNL     1      62.309   9.411   2.747  1.00  0.00     0.031 A 
ENDROOT
BRANCH   1   7
HETATM    7  O   UNL     1      63.745   8.205   5.945  1.00  0.00    -0.255 OA
BRANCH   7   8
HETATM    8  C   UNL     1      65.048   7.666   5.775  1.00  0.00     0.530 C 
HETATM    9  F   UNL     1      65.707   7.454   6.935  1.00  0.00    -0.144 F 
HETATM   10  F   UNL     1      65.776   8.542   5.046  1.00  0.00    -0.144 F 
HETATM   11  F   UNL     1      64.975   6.508   5.088  1.00  0.00    -0.144 F 
ENDBRANCH   7   8
ENDBRANCH   1   7
BRANCH   2  12
HETATM   12  N   UNL     1      61.442  11.611   2.191  1.00  0.00    -0.399 N 
HETATM   13  H   UNL     1      61.740  11.567   1.254  1.00  0.00     0.156 HD
HETATM   14  H   UNL     1      60.784  12.290   2.467  1.00  0.00     0.156 HD
ENDBRANCH   2  12
TORSDOF 3
ENDMDL
MODEL 3
REMARK VINA RESULT:      -4.8      8.546      9.603
REMARK  3 active torsions:
REMARK  status: ('A' for Active; 'I' for Inactive)
REMARK    1  A    between atoms: C_1  and  O_2 
REMARK    2  A    between atoms: O_2  and  C_6 
REMARK    3  A    between atoms: C_7  and  N_8 
ROOT
HETATM    1  C   UNL     1      68.288   5.141   8.128  1.00  0.00     0.078 A 
HETATM    2  C   UNL     1      69.312   3.230   9.925  1.00  0.00     0.025 A 
HETATM    3  C   UNL     1      67.518   4.047   8.522  1.00  0.00     0.039 A 
HETATM    4  C   UNL     1      69.608   5.223   8.558  1.00  0.00     0.039 A 
HETATM    5  C   UNL     1      68.032   3.089   9.397  1.00  0.00     0.031 A 
HETATM    6  C   UNL     1      70.118   4.269   9.446  1.00  0.00     0.031 A 
ENDROOT
BRANCH   1   7
HETATM    7  O   UNL     1      67.645   6.012   7.304  1.00  0.00    -0.255 OA
BRANCH   7   8
HETATM    8  C   UNL     1      66.771   6.983   7.860  1.00  0.00     0.530 C 
HETATM    9  F   UNL     1      65.472   6.612   7.863  1.00  0.00    -0.144 F 
HETATM   10  F   UNL     1      66.872   8.114   7.125  1.00  0.00    -0.144 F 
HETATM   11  F   UNL     1      67.153   7.268   9.122  1.00  0.00    -0.144 F 
ENDBRANCH   7   8
ENDBRANCH   1   7
BRANCH   2  12
HETATM   12  N   UNL     1      69.860   2.221  10.727  1.00  0.00    -0.399 N 
HETATM   13  H   UNL     1      70.567   1.637  10.368  1.00  0.00     0.156 HD
HETATM   14  H   UNL     1      69.539   2.096  11.650  1.00  0.00     0.156 HD
ENDBRANCH   2  12
TORSDOF 3
ENDMDL
MODEL 4
REMARK VINA RESULT:      -4.7      8.533      9.539
REMARK  3 active torsions:
REMARK  status: ('A' for Active; 'I' for Inactive)
REMARK    1  A    between atoms: C_1  and  O_2 
REMARK    2  A    between atoms: O_2  and  C_6 
REMARK    3  A    between atoms: C_7  and  N_8 
ROOT
HETATM    1  C   UNL     1      68.179   4.997   8.106  1.00  0.00     0.078 A 
HETATM    2  C   UNL     1      69.363   3.106   9.825  1.00  0.00     0.025 A 
HETATM    3  C   UNL     1      69.466   5.194   8.608  1.00  0.00     0.039 A 
HETATM    4  C   UNL     1      67.448   3.898   8.545  1.00  0.00     0.039 A 
HETATM    5  C   UNL     1      70.045   4.268   9.476  1.00  0.00     0.031 A 
HETATM    6  C   UNL     1      68.035   2.962   9.406  1.00  0.00     0.031 A 
ENDROOT
BRANCH   1   7
HETATM    7  O   UNL     1      67.759   5.960   7.242  1.00  0.00    -0.255 OA
BRANCH   7   8
HETATM    8  C   UNL     1      66.876   6.972   7.702  1.00  0.00     0.530 C 
HETATM    9  F   UNL     1      67.084   7.338   8.985  1.00  0.00    -0.144 F 
HETATM   10  F   UNL     1      65.610   6.503   7.611  1.00  0.00    -0.144 F 
HETATM   11  F   UNL     1      66.978   8.059   6.909  1.00  0.00    -0.144 F 
ENDBRANCH   7   8
ENDBRANCH   1   7
BRANCH   2  12
HETATM   12  N   UNL     1      69.905   2.225  10.769  1.00  0.00    -0.399 N 
HETATM   13  H   UNL     1      69.901   2.463  11.724  1.00  0.00     0.156 HD
HETATM   14  H   UNL     1      70.290   1.366  10.477  1.00  0.00     0.156 HD
ENDBRANCH   2  12
TORSDOF 3
ENDMDL
MODEL 5
REMARK VINA RESULT:      -4.5      7.403      8.355
REMARK  3 active torsions:
REMARK  status: ('A' for Active; 'I' for Inactive)
REMARK    1  A    between atoms: C_1  and  O_2 
REMARK    2  A    between atoms: O_2  and  C_6 
REMARK    3  A    between atoms: C_7  and  N_8 
ROOT
HETATM    1  C   UNL     1      67.295   5.870   7.129  1.00  0.00     0.078 A 
HETATM    2  C   UNL     1      65.526   7.714   5.944  1.00  0.00     0.025 A 
HETATM    3  C   UNL     1      65.941   5.879   7.466  1.00  0.00     0.039 A 
HETATM    4  C   UNL     1      67.781   6.851   6.271  1.00  0.00     0.039 A 
HETATM    5  C   UNL     1      65.069   6.805   6.894  1.00  0.00     0.031 A 
HETATM    6  C   UNL     1      66.901   7.772   5.688  1.00  0.00     0.031 A 
ENDROOT
BRANCH   1   7
HETATM    7  O   UNL     1      68.017   4.888   7.733  1.00  0.00    -0.255 OA
BRANCH   7   8
HETATM    8  C   UNL     1      68.831   5.208   8.852  1.00  0.00     0.530 C 
HETATM    9  F   UNL     1      70.058   5.668   8.523  1.00  0.00    -0.144 F 
HETATM   10  F   UNL     1      68.998   4.086   9.588  1.00  0.00    -0.144 F 
HETATM   11  F   UNL     1      68.206   6.124   9.621  1.00  0.00    -0.144 F 
ENDBRANCH   7   8
ENDBRANCH   1   7
BRANCH   2  12
HETATM   12  N   UNL     1      64.671   8.703   5.443  1.00  0.00    -0.399 N 
HETATM   13  H   UNL     1      64.138   8.530   4.634  1.00  0.00     0.156 HD
HETATM   14  H   UNL     1      64.603   9.573   5.901  1.00  0.00     0.156 HD
ENDBRANCH   2  12
TORSDOF 3
ENDMDL
MODEL 6
REMARK VINA RESULT:      -4.1      4.356      5.217
REMARK  3 active torsions:
REMARK  status: ('A' for Active; 'I' for Inactive)
REMARK    1  A    between atoms: C_1  and  O_2 
REMARK    2  A    between atoms: O_2  and  C_6 
REMARK    3  A    between atoms: C_7  and  N_8 
ROOT
HETATM    1  C   UNL     1      65.308   7.182   5.435  1.00  0.00     0.078 A 
HETATM    2  C   UNL     1      67.482   6.370   7.031  1.00  0.00     0.025 A 
HETATM    3  C   UNL     1      66.616   7.267   4.957  1.00  0.00     0.039 A 
HETATM    4  C   UNL     1      65.098   6.783   6.751  1.00  0.00     0.039 A 
HETATM    5  C   UNL     1      67.694   6.884   5.755  1.00  0.00     0.031 A 
HETATM    6  C   UNL     1      66.180   6.386   7.546  1.00  0.00     0.031 A 
ENDROOT
BRANCH   1   7
HETATM    7  O   UNL     1      64.357   7.553   4.536  1.00  0.00    -0.255 OA
BRANCH   7   8
HETATM    8  C   UNL     1      63.643   8.764   4.734  1.00  0.00     0.530 C 
HETATM    9  F   UNL     1      64.357   9.722   5.364  1.00  0.00    -0.144 F 
HETATM   10  F   UNL     1      62.557   8.496   5.496  1.00  0.00    -0.144 F 
HETATM   11  F   UNL     1      63.215   9.239   3.547  1.00  0.00    -0.144 F 
ENDBRANCH   7   8
ENDBRANCH   1   7
BRANCH   2  12
HETATM   12  N   UNL     1      68.568   6.075   7.864  1.00  0.00    -0.399 N 
HETATM   13  H   UNL     1      68.594   5.223   8.356  1.00  0.00     0.156 HD
HETATM   14  H   UNL     1      69.306   6.721   7.958  1.00  0.00     0.156 HD
ENDBRANCH   2  12
TORSDOF 3
ENDMDL
MODEL 7
REMARK VINA RESULT:      -4.1      5.747      6.735
REMARK  3 active torsions:
REMARK  status: ('A' for Active; 'I' for Inactive)
REMARK    1  A    between atoms: C_1  and  O_2 
REMARK    2  A    between atoms: O_2  and  C_6 
REMARK    3  A    between atoms: C_7  and  N_8 
ROOT
HETATM    1  C   UNL     1      66.841   7.312   6.885  1.00  0.00     0.078 A 
HETATM    2  C   UNL     1      67.762   4.998   8.201  1.00  0.00     0.025 A 
HETATM    3  C   UNL     1      67.439   6.273   6.170  1.00  0.00     0.039 A 
HETATM    4  C   UNL     1      66.794   7.232   8.273  1.00  0.00     0.039 A 
HETATM    5  C   UNL     1      67.914   5.136   6.825  1.00  0.00     0.031 A 
HETATM    6  C   UNL     1      67.259   6.085   8.927  1.00  0.00     0.031 A 
ENDROOT
BRANCH   1   7
HETATM    7  O   UNL     1      66.391   8.338   6.114  1.00  0.00    -0.255 OA
BRANCH   7   8
HETATM    8  C   UNL     1      65.150   8.210   5.436  1.00  0.00     0.530 C 
HETATM    9  F   UNL     1      65.254   7.671   4.202  1.00  0.00    -0.144 F 
HETATM   10  F   UNL     1      64.614   9.445   5.299  1.00  0.00    -0.144 F 
HETATM   11  F   UNL     1      64.304   7.465   6.176  1.00  0.00    -0.144 F 
ENDBRANCH   7   8
ENDBRANCH   1   7
BRANCH   2  12
HETATM   12  N   UNL     1      68.323   3.902   8.868  1.00  0.00    -0.399 N 
HETATM   13  H   UNL     1      69.298   3.767   8.861  1.00  0.00     0.156 HD
HETATM   14  H   UNL     1      67.741   3.266   9.345  1.00  0.00     0.156 HD
ENDBRANCH   2  12
TORSDOF 3
ENDMDL
MODEL 8
REMARK VINA RESULT:      -4.1      2.950      3.696
REMARK  3 active torsions:
REMARK  status: ('A' for Active; 'I' for Inactive)
REMARK    1  A    between atoms: C_1  and  O_2 
REMARK    2  A    between atoms: O_2  and  C_6 
REMARK    3  A    between atoms: C_7  and  N_8 
ROOT
HETATM    1  C   UNL     1      63.445   8.917   5.262  1.00  0.00     0.078 A 
HETATM    2  C   UNL     1      64.658   6.588   6.280  1.00  0.00     0.025 A 
HETATM    3  C   UNL     1      62.674   7.894   5.815  1.00  0.00     0.039 A 
HETATM    4  C   UNL     1      64.817   8.730   5.131  1.00  0.00     0.039 A 
HETATM    5  C   UNL     1      63.273   6.731   6.300  1.00  0.00     0.031 A 
HETATM    6  C   UNL     1      65.418   7.568   5.631  1.00  0.00     0.031 A 
ENDROOT
BRANCH   1   7
HETATM    7  O   UNL     1      62.731  10.006   4.866  1.00  0.00    -0.255 OA
BRANCH   7   8
HETATM    8  C   UNL     1      62.113  10.007   3.588  1.00  0.00     0.530 C 
HETATM    9  F   UNL     1      61.994  11.235   3.039  1.00  0.00    -0.144 F 
HETATM   10  F   UNL     1      60.867   9.495   3.720  1.00  0.00    -0.144 F 
HETATM   11  F   UNL     1      62.805   9.211   2.747  1.00  0.00    -0.144 F 
ENDBRANCH   7   8
ENDBRANCH   1   7
BRANCH   2  12
HETATM   12  N   UNL     1      65.250   5.383   6.679  1.00  0.00    -0.399 N 
HETATM   13  H   UNL     1      65.090   5.033   7.585  1.00  0.00     0.156 HD
HETATM   14  H   UNL     1      65.825   4.886   6.053  1.00  0.00     0.156 HD
ENDBRANCH   2  12
TORSDOF 3
ENDMDL
MODEL 9
REMARK VINA RESULT:      -4.0      1.812      2.495
REMARK  3 active torsions:
REMARK  status: ('A' for Active; 'I' for Inactive)
REMARK    1  A    between atoms: C_1  and  O_2 
REMARK    2  A    between atoms: O_2  and  C_6 
REMARK    3  A    between atoms: C_7  and  N_8 
ROOT
HETATM    1  C   UNL     1      62.015   8.401   3.648  1.00  0.00     0.078 A 
HETATM    2  C   UNL     1      63.638   7.602   5.806  1.00  0.00     0.025 A 
HETATM    3  C   UNL     1      61.871   7.137   4.220  1.00  0.00     0.039 A 
HETATM    4  C   UNL     1      63.040   9.228   4.095  1.00  0.00     0.039 A 
HETATM    5  C   UNL     1      62.689   6.733   5.276  1.00  0.00     0.031 A 
HETATM    6  C   UNL     1      63.851   8.827   5.163  1.00  0.00     0.031 A 
ENDROOT
BRANCH   1   7
HETATM    7  O   UNL     1      61.125   8.673   2.655  1.00  0.00    -0.255 OA
BRANCH   7   8
HETATM    8  C   UNL     1      61.599   8.894   1.335  1.00  0.00     0.530 C 
HETATM    9  F   UNL     1      60.697   8.600   0.374  1.00  0.00    -0.144 F 
HETATM   10  F   UNL     1      62.681   8.105   1.136  1.00  0.00    -0.144 F 
HETATM   11  F   UNL     1      61.987  10.179   1.201  1.00  0.00    -0.144 F 
ENDBRANCH   7   8
ENDBRANCH   1   7
BRANCH   2  12
HETATM   12  N   UNL     1      64.521   7.162   6.801  1.00  0.00    -0.399 N 
HETATM   13  H   UNL     1      65.159   7.793   7.207  1.00  0.00     0.156 HD
HETATM   14  H   UNL     1      64.503   6.222   7.094  1.00  0.00     0.156 HD
ENDBRANCH   2  12
TORSDOF 3
ENDMDL
