MODEL 1
REMARK VINA RESULT:      -6.0      0.000      0.000
REMARK  1 active torsions:
REMARK  status: ('A' for Active; 'I' for Inactive)
REMARK    1  A    between atoms: C_1  and  C_2 
ROOT
HETATM    1  C   UNL     1      76.815   6.470  16.783  1.00  0.00     0.042 A 
HETATM    2  C   UNL     1      77.370   8.817  16.961  1.00  0.00     0.041 A 
HETATM    3  C   UNL     1      77.054   7.602  17.569  1.00  0.00     0.042 A 
HETATM    4  C   UNL     1      77.440   8.923  15.561  1.00  0.00    -0.040 A 
HETATM    5  C   UNL     1      76.876   6.561  15.389  1.00  0.00     0.019 A 
HETATM    6  C   UNL     1      77.189   7.780  14.784  1.00  0.00     0.009 A 
HETATM    7 CL   UNL     1      77.662  10.180  17.982  1.00  0.00    -0.084 Cl
HETATM    8  C   UNL     1      77.755  10.227  14.879  1.00  0.00     0.050 C 
ENDROOT
BRANCH   1   9
HETATM    9  C   UNL     1      76.440   5.210  17.466  1.00  0.00     0.209 C 
HETATM   10  O   UNL     1      76.941   4.852  18.514  1.00  0.00    -0.644 OA
HETATM   11  O   UNL     1      75.517   4.488  16.795  1.00  0.00    -0.644 OA
ENDBRANCH   1   9
TORSDOF 1
ENDMDL
MODEL 2
REMARK VINA RESULT:      -5.4      6.286      7.377
REMARK  1 active torsions:
REMARK  status: ('A' for Active; 'I' for Inactive)
REMARK    1  A    between atoms: C_1  and  C_2 
ROOT
HETATM    1  C   UNL     1      78.736  12.432  21.392  1.00  0.00     0.042 A 
HETATM    2  C   UNL     1      77.616  11.477  19.473  1.00  0.00     0.041 A 
HETATM    3  C   UNL     1      78.655  11.445  20.404  1.00  0.00     0.042 A 
HETATM    4  C   UNL     1      76.652  12.499  19.507  1.00  0.00    -0.040 A 
HETATM    5  C   UNL     1      77.787  13.458  21.436  1.00  0.00     0.019 A 
HETATM    6  C   UNL     1      76.751  13.488  20.500  1.00  0.00     0.009 A 
HETATM    7 CL   UNL     1      77.562  10.229  18.280  1.00  0.00    -0.084 Cl
HETATM    8  C   UNL     1      75.536  12.570  18.501  1.00  0.00     0.050 C 
ENDROOT
BRANCH   1   9
HETATM    9  C   UNL     1      79.879  12.387  22.335  1.00  0.00     0.209 C 
HETATM   10  O   UNL     1      79.776  11.990  23.479  1.00  0.00    -0.644 OA
HETATM   11  O   UNL     1      81.029  12.861  21.809  1.00  0.00    -0.644 OA
ENDBRANCH   1   9
TORSDOF 1
ENDMDL
MODEL 3
REMARK VINA RESULT:      -5.3     18.648     19.415
REMARK  1 active torsions:
REMARK  status: ('A' for Active; 'I' for Inactive)
REMARK    1  A    between atoms: C_1  and  C_2 
ROOT
HETATM    1  C   UNL     1      62.892   8.850   4.767  1.00  0.00     0.042 A 
HETATM    2  C   UNL     1      62.217   9.497   2.537  1.00  0.00     0.041 A 
HETATM    3  C   UNL     1      62.645   8.516   3.432  1.00  0.00     0.042 A 
HETATM    4  C   UNL     1      62.043  10.827   2.958  1.00  0.00    -0.040 A 
HETATM    5  C   UNL     1      62.728  10.170   5.200  1.00  0.00     0.019 A 
HETATM    6  C   UNL     1      62.304  11.149   4.299  1.00  0.00     0.009 A 
HETATM    7 CL   UNL     1      61.920   9.024   0.902  1.00  0.00    -0.084 Cl
HETATM    8  C   UNL     1      61.606  11.908   2.008  1.00  0.00     0.050 C 
ENDROOT
BRANCH   1   9
HETATM    9  C   UNL     1      63.387   7.789   5.676  1.00  0.00     0.209 C 
HETATM   10  O   UNL     1      64.231   6.978   5.346  1.00  0.00    -0.644 OA
HETATM   11  O   UNL     1      62.787   7.792   6.885  1.00  0.00    -0.644 OA
ENDBRANCH   1   9
TORSDOF 1
ENDMDL
MODEL 4
REMARK VINA RESULT:      -5.2      3.537      5.505
REMARK  1 active torsions:
REMARK  status: ('A' for Active; 'I' for Inactive)
REMARK    1  A    between atoms: C_1  and  C_2 
ROOT
HETATM    1  C   UNL     1      76.153   5.069  17.166  1.00  0.00     0.042 A 
HETATM    2  C   UNL     1      76.463   2.759  17.813  1.00  0.00     0.041 A 
HETATM    3  C   UNL     1      76.944   4.067  17.736  1.00  0.00     0.042 A 
HETATM    4  C   UNL     1      75.192   2.432  17.309  1.00  0.00    -0.040 A 
HETATM    5  C   UNL     1      74.889   4.757  16.656  1.00  0.00     0.019 A 
HETATM    6  C   UNL     1      74.413   3.447  16.731  1.00  0.00     0.009 A 
HETATM    7 CL   UNL     1      77.480   1.565  18.534  1.00  0.00    -0.084 Cl
HETATM    8  C   UNL     1      74.659   1.026  17.357  1.00  0.00     0.050 C 
ENDROOT
BRANCH   1   9
HETATM    9  C   UNL     1      76.719   6.435  17.064  1.00  0.00     0.209 C 
HETATM   10  O   UNL     1      76.925   7.138  18.035  1.00  0.00    -0.644 OA
HETATM   11  O   UNL     1      76.948   6.831  15.794  1.00  0.00    -0.644 OA
ENDBRANCH   1   9
TORSDOF 1
ENDMDL
MODEL 5
REMARK VINA RESULT:      -5.2     19.435     20.306
REMARK  1 active torsions:
REMARK  status: ('A' for Active; 'I' for Inactive)
REMARK    1  A    between atoms: C_1  and  C_2 
ROOT
HETATM    1  C   UNL     1      62.393  10.164   3.644  1.00  0.00     0.042 A 
HETATM    2  C   UNL     1      62.920   8.042   2.610  1.00  0.00     0.041 A 
HETATM    3  C   UNL     1      62.950   8.884   3.722  1.00  0.00     0.042 A 
HETATM    4  C   UNL     1      62.345   8.470   1.401  1.00  0.00    -0.040 A 
HETATM    5  C   UNL     1      61.822  10.606   2.446  1.00  0.00     0.019 A 
HETATM    6  C   UNL     1      61.797   9.761   1.334  1.00  0.00     0.009 A 
HETATM    7 CL   UNL     1      63.617   6.469   2.768  1.00  0.00    -0.084 Cl
HETATM    8  C   UNL     1      62.321   7.592   0.180  1.00  0.00     0.050 C 
ENDROOT
BRANCH   1   9
HETATM    9  C   UNL     1      62.484  11.042   4.834  1.00  0.00     0.209 C 
HETATM   10  O   UNL     1      63.026  10.700   5.867  1.00  0.00    -0.644 OA
HETATM   11  O   UNL     1      61.881  12.239   4.668  1.00  0.00    -0.644 OA
ENDBRANCH   1   9
TORSDOF 1
ENDMDL
MODEL 6
REMARK VINA RESULT:      -4.7     17.802     18.716
REMARK  1 active torsions:
REMARK  status: ('A' for Active; 'I' for Inactive)
REMARK    1  A    between atoms: C_1  and  C_2 
ROOT
HETATM    1  C   UNL     1      63.052   9.664   4.469  1.00  0.00     0.042 A 
HETATM    2  C   UNL     1      64.524   7.746   4.524  1.00  0.00     0.041 A 
HETATM    3  C   UNL     1      64.100   8.958   5.069  1.00  0.00     0.042 A 
HETATM    4  C   UNL     1      63.919   7.228   3.366  1.00  0.00    -0.040 A 
HETATM    5  C   UNL     1      62.443   9.164   3.314  1.00  0.00     0.019 A 
HETATM    6  C   UNL     1      62.874   7.952   2.769  1.00  0.00     0.009 A 
HETATM    7 CL   UNL     1      65.818   6.916   5.312  1.00  0.00    -0.084 Cl
HETATM    8  C   UNL     1      64.374   5.936   2.745  1.00  0.00     0.050 C 
ENDROOT
BRANCH   1   9
HETATM    9  C   UNL     1      62.660  10.968   5.053  1.00  0.00     0.209 C 
HETATM   10  O   UNL     1      61.974  11.778   4.460  1.00  0.00    -0.644 OA
HETATM   11  O   UNL     1      63.165  11.179   6.288  1.00  0.00    -0.644 OA
ENDBRANCH   1   9
TORSDOF 1
ENDMDL
MODEL 7
REMARK VINA RESULT:      -4.7     12.966     13.969
REMARK  1 active torsions:
REMARK  status: ('A' for Active; 'I' for Inactive)
REMARK    1  A    between atoms: C_1  and  C_2 
ROOT
HETATM    1  C   UNL     1      66.717   6.600   7.492  1.00  0.00     0.042 A 
HETATM    2  C   UNL     1      68.063   4.596   7.346  1.00  0.00     0.041 A 
HETATM    3  C   UNL     1      67.158   5.487   6.769  1.00  0.00     0.042 A 
HETATM    4  C   UNL     1      68.531   4.796   8.656  1.00  0.00    -0.040 A 
HETATM    5  C   UNL     1      67.170   6.810   8.798  1.00  0.00     0.019 A 
HETATM    6  C   UNL     1      68.073   5.913   9.373  1.00  0.00     0.009 A 
HETATM    7 CL   UNL     1      68.577   3.242   6.403  1.00  0.00    -0.084 Cl
HETATM    8  C   UNL     1      69.488   3.837   9.310  1.00  0.00     0.050 C 
ENDROOT
BRANCH   1   9
HETATM    9  C   UNL     1      65.722   7.498   6.859  1.00  0.00     0.209 C 
HETATM   10  O   UNL     1      66.035   8.488   6.226  1.00  0.00    -0.644 OA
HETATM   11  O   UNL     1      64.444   7.128   7.082  1.00  0.00    -0.644 OA
ENDBRANCH   1   9
TORSDOF 1
ENDMDL
MODEL 8
REMARK VINA RESULT:      -4.6     17.845     18.646
REMARK  1 active torsions:
REMARK  status: ('A' for Active; 'I' for Inactive)
REMARK    1  A    between atoms: C_1  and  C_2 
ROOT
HETATM    1  C   UNL     1      64.129   8.136   4.625  1.00  0.00     0.042 A 
HETATM    2  C   UNL     1      62.617   9.675   3.532  1.00  0.00     0.041 A 
HETATM    3  C   UNL     1      63.459   9.364   4.600  1.00  0.00     0.042 A 
HETATM    4  C   UNL     1      62.421   8.761   2.482  1.00  0.00    -0.040 A 
HETATM    5  C   UNL     1      63.941   7.216   3.589  1.00  0.00     0.019 A 
HETATM    6  C   UNL     1      63.094   7.530   2.525  1.00  0.00     0.009 A 
HETATM    7 CL   UNL     1      61.821  11.208   3.552  1.00  0.00    -0.084 Cl
HETATM    8  C   UNL     1      61.499   9.062   1.332  1.00  0.00     0.050 C 
ENDROOT
BRANCH   1   9
HETATM    9  C   UNL     1      64.981   7.826   5.797  1.00  0.00     0.209 C 
HETATM   10  O   UNL     1      64.930   6.765   6.388  1.00  0.00    -0.644 OA
HETATM   11  O   UNL     1      65.788   8.845   6.161  1.00  0.00    -0.644 OA
ENDBRANCH   1   9
TORSDOF 1
ENDMDL
MODEL 9
REMARK VINA RESULT:      -4.3     14.092     15.056
REMARK  1 active torsions:
REMARK  status: ('A' for Active; 'I' for Inactive)
REMARK    1  A    between atoms: C_1  and  C_2 
ROOT
HETATM    1  C   UNL     1      66.111   7.164   5.850  1.00  0.00     0.042 A 
HETATM    2  C   UNL     1      67.323   6.102   7.654  1.00  0.00     0.041 A 
HETATM    3  C   UNL     1      66.512   7.139   7.190  1.00  0.00     0.042 A 
HETATM    4  C   UNL     1      67.754   5.084   6.786  1.00  0.00    -0.040 A 
HETATM    5  C   UNL     1      66.536   6.161   4.974  1.00  0.00     0.019 A 
HETATM    6  C   UNL     1      67.350   5.127   5.442  1.00  0.00     0.009 A 
HETATM    7 CL   UNL     1      67.782   6.119   9.319  1.00  0.00    -0.084 Cl
HETATM    8  C   UNL     1      68.647   3.968   7.255  1.00  0.00     0.050 C 
ENDROOT
BRANCH   1   9
HETATM    9  C   UNL     1      65.287   8.306   5.387  1.00  0.00     0.209 C 
HETATM   10  O   UNL     1      65.311   9.397   5.922  1.00  0.00    -0.644 OA
HETATM   11  O   UNL     1      64.489   8.004   4.340  1.00  0.00    -0.644 OA
ENDBRANCH   1   9
TORSDOF 1
ENDMDL
