MODEL 1
REMARK VINA RESULT:      -4.7      0.000      0.000
REMARK  4 active torsions:
REMARK  status: ('A' for Active; 'I' for Inactive)
REMARK    1  A    between atoms: C_1  and  C_8 
REMARK    2  A    between atoms: C_2  and  O_9 
REMARK    3  A    between atoms: C_5  and  O_10 
REMARK    4  A    between atoms: N_7  and  C_8 
ROOT
HETATM    1  C   UNL     1      63.319   9.607   4.744  1.00  0.00     0.003 A 
HETATM    2  C   UNL     1      64.448   8.851   5.093  1.00  0.00     0.076 A 
HETATM    3  C   UNL     1      62.523   9.150   3.661  1.00  0.00     0.048 A 
HETATM    4  C   UNL     1      64.720   7.671   4.372  1.00  0.00     0.040 A 
HETATM    5  C   UNL     1      62.797   7.972   2.963  1.00  0.00     0.069 A 
HETATM    6  C   UNL     1      63.909   7.230   3.322  1.00  0.00     0.039 A 
ENDROOT
BRANCH   1   7
HETATM    7  C   UNL     1      62.855  10.895   5.378  1.00  0.00     0.271 C 
BRANCH   7   8
HETATM    8  N   UNL     1      63.833  11.420   6.323  1.00  0.00    -0.075 N 
HETATM    9  H   UNL     1      64.368  10.649   6.722  1.00  0.00     0.274 HD
HETATM   10  H   UNL     1      63.350  11.921   7.069  1.00  0.00     0.274 HD
HETATM   11  H   UNL     1      64.465  12.058   5.839  1.00  0.00     0.274 HD
ENDBRANCH   7   8
ENDBRANCH   1   7
BRANCH   2  12
HETATM   12  O   UNL     1      65.406   9.046   6.045  1.00  0.00    -0.355 OA
HETATM   13  C   UNL     1      66.423   8.101   6.297  1.00  0.00     0.210 C 
ENDBRANCH   2  12
BRANCH   5  14
HETATM   14  O   UNL     1      61.908   7.669   1.969  1.00  0.00    -0.356 OA
HETATM   15  C   UNL     1      61.769   8.620   0.921  1.00  0.00     0.210 C 
ENDBRANCH   5  14
TORSDOF 4
ENDMDL
MODEL 2
REMARK VINA RESULT:      -4.5     17.892     19.236
REMARK  4 active torsions:
REMARK  status: ('A' for Active; 'I' for Inactive)
REMARK    1  A    between atoms: C_1  and  C_8 
REMARK    2  A    between atoms: C_2  and  O_9 
REMARK    3  A    between atoms: C_5  and  O_10 
REMARK    4  A    between atoms: N_7  and  C_8 
ROOT
HETATM    1  C   UNL     1      76.778   2.530  18.025  1.00  0.00     0.003 A 
HETATM    2  C   UNL     1      76.497   3.881  17.771  1.00  0.00     0.076 A 
HETATM    3  C   UNL     1      75.895   1.557  17.488  1.00  0.00     0.048 A 
HETATM    4  C   UNL     1      75.375   4.201  16.981  1.00  0.00     0.040 A 
HETATM    5  C   UNL     1      74.792   1.888  16.696  1.00  0.00     0.069 A 
HETATM    6  C   UNL     1      74.532   3.224  16.446  1.00  0.00     0.039 A 
ENDROOT
BRANCH   1   7
HETATM    7  C   UNL     1      77.916   1.976  18.845  1.00  0.00     0.271 C 
BRANCH   7   8
HETATM    8  N   UNL     1      78.211   2.810  20.003  1.00  0.00    -0.075 N 
HETATM    9  H   UNL     1      77.677   3.677  19.942  1.00  0.00     0.274 HD
HETATM   10  H   UNL     1      79.207   3.024  20.024  1.00  0.00     0.274 HD
HETATM   11  H   UNL     1      77.952   2.312  20.856  1.00  0.00     0.274 HD
ENDBRANCH   7   8
ENDBRANCH   1   7
BRANCH   2  12
HETATM   12  O   UNL     1      77.127   5.024  18.170  1.00  0.00    -0.355 OA
HETATM   13  C   UNL     1      77.058   6.222  17.428  1.00  0.00     0.210 C 
ENDBRANCH   2  12
BRANCH   5  14
HETATM   14  O   UNL     1      74.069   0.822  16.239  1.00  0.00    -0.356 OA
HETATM   15  C   UNL     1      74.380   0.348  14.934  1.00  0.00     0.210 C 
ENDBRANCH   5  14
TORSDOF 4
ENDMDL
MODEL 3
REMARK VINA RESULT:      -4.5     17.907     19.309
REMARK  4 active torsions:
REMARK  status: ('A' for Active; 'I' for Inactive)
REMARK    1  A    between atoms: C_1  and  C_8 
REMARK    2  A    between atoms: C_2  and  O_9 
REMARK    3  A    between atoms: C_5  and  O_10 
REMARK    4  A    between atoms: N_7  and  C_8 
ROOT
HETATM    1  C   UNL     1      76.259   2.177  17.721  1.00  0.00     0.003 A 
HETATM    2  C   UNL     1      75.072   2.253  16.977  1.00  0.00     0.076 A 
HETATM    3  C   UNL     1      76.969   3.384  17.960  1.00  0.00     0.048 A 
HETATM    4  C   UNL     1      74.634   3.516  16.530  1.00  0.00     0.040 A 
HETATM    5  C   UNL     1      76.517   4.630  17.520  1.00  0.00     0.069 A 
HETATM    6  C   UNL     1      75.339   4.692  16.796  1.00  0.00     0.039 A 
ENDROOT
BRANCH   1   7
HETATM    7  C   UNL     1      76.903   0.935  18.284  1.00  0.00     0.271 C 
BRANCH   7   8
HETATM    8  N   UNL     1      75.921   0.027  18.863  1.00  0.00    -0.075 N 
HETATM    9  H   UNL     1      76.380  -0.844  19.131  1.00  0.00     0.274 HD
HETATM   10  H   UNL     1      75.193  -0.169  18.177  1.00  0.00     0.274 HD
HETATM   11  H   UNL     1      75.503   0.459  19.688  1.00  0.00     0.274 HD
ENDBRANCH   7   8
ENDBRANCH   1   7
BRANCH   2  12
HETATM   12  O   UNL     1      74.203   1.285  16.563  1.00  0.00    -0.355 OA
HETATM   13  C   UNL     1      74.398   0.555  15.372  1.00  0.00     0.210 C 
ENDBRANCH   2  12
BRANCH   5  14
HETATM   14  O   UNL     1      77.311   5.688  17.866  1.00  0.00    -0.356 OA
HETATM   15  C   UNL     1      76.868   6.980  17.469  1.00  0.00     0.210 C 
ENDBRANCH   5  14
TORSDOF 4
ENDMDL
MODEL 4
REMARK VINA RESULT:      -4.3      1.433      4.181
REMARK  4 active torsions:
REMARK  status: ('A' for Active; 'I' for Inactive)
REMARK    1  A    between atoms: C_1  and  C_8 
REMARK    2  A    between atoms: C_2  and  O_9 
REMARK    3  A    between atoms: C_5  and  O_10 
REMARK    4  A    between atoms: N_7  and  C_8 
ROOT
HETATM    1  C   UNL     1      62.755   9.554   3.952  1.00  0.00     0.003 A 
HETATM    2  C   UNL     1      62.717   8.397   3.160  1.00  0.00     0.076 A 
HETATM    3  C   UNL     1      63.755   9.637   4.957  1.00  0.00     0.048 A 
HETATM    4  C   UNL     1      63.681   7.393   3.384  1.00  0.00     0.040 A 
HETATM    5  C   UNL     1      64.712   8.639   5.160  1.00  0.00     0.069 A 
HETATM    6  C   UNL     1      64.668   7.507   4.365  1.00  0.00     0.039 A 
ENDROOT
BRANCH   1   7
HETATM    7  C   UNL     1      61.821  10.735   3.882  1.00  0.00     0.271 C 
BRANCH   7   8
HETATM    8  N   UNL     1      61.585  11.164   2.509  1.00  0.00    -0.075 N 
HETATM    9  H   UNL     1      62.438  11.581   2.133  1.00  0.00     0.274 HD
HETATM   10  H   UNL     1      60.834  11.853   2.492  1.00  0.00     0.274 HD
HETATM   11  H   UNL     1      61.322  10.358   1.942  1.00  0.00     0.274 HD
ENDBRANCH   7   8
ENDBRANCH   1   7
BRANCH   2  12
HETATM   12  O   UNL     1      61.873   8.017   2.158  1.00  0.00    -0.355 OA
HETATM   13  C   UNL     1      62.265   8.011   0.803  1.00  0.00     0.210 C 
ENDBRANCH   2  12
BRANCH   5  14
HETATM   14  O   UNL     1      65.617   8.899   6.151  1.00  0.00    -0.356 OA
HETATM   15  C   UNL     1      66.643   7.936   6.351  1.00  0.00     0.210 C 
ENDBRANCH   5  14
TORSDOF 4
ENDMDL
MODEL 5
REMARK VINA RESULT:      -4.2      1.495      3.772
REMARK  4 active torsions:
REMARK  status: ('A' for Active; 'I' for Inactive)
REMARK    1  A    between atoms: C_1  and  C_8 
REMARK    2  A    between atoms: C_2  and  O_9 
REMARK    3  A    between atoms: C_5  and  O_10 
REMARK    4  A    between atoms: N_7  and  C_8 
ROOT
HETATM    1  C   UNL     1      62.999   9.923   4.652  1.00  0.00     0.003 A 
HETATM    2  C   UNL     1      62.430   9.606   3.409  1.00  0.00     0.076 A 
HETATM    3  C   UNL     1      63.904   8.991   5.224  1.00  0.00     0.048 A 
HETATM    4  C   UNL     1      62.802   8.398   2.784  1.00  0.00     0.040 A 
HETATM    5  C   UNL     1      64.272   7.802   4.587  1.00  0.00     0.069 A 
HETATM    6  C   UNL     1      63.711   7.506   3.357  1.00  0.00     0.039 A 
ENDROOT
BRANCH   1   7
HETATM    7  C   UNL     1      62.735  11.151   5.486  1.00  0.00     0.271 C 
BRANCH   7   8
HETATM    8  N   UNL     1      63.863  11.475   6.351  1.00  0.00    -0.075 N 
HETATM    9  H   UNL     1      64.254  12.376   6.075  1.00  0.00     0.274 HD
HETATM   10  H   UNL     1      64.577  10.753   6.264  1.00  0.00     0.274 HD
HETATM   11  H   UNL     1      63.545  11.525   7.319  1.00  0.00     0.274 HD
ENDBRANCH   7   8
ENDBRANCH   1   7
BRANCH   2  12
HETATM   12  O   UNL     1      61.522  10.270   2.637  1.00  0.00    -0.355 OA
HETATM   13  C   UNL     1      61.817  11.500   2.013  1.00  0.00     0.210 C 
ENDBRANCH   2  12
BRANCH   5  14
HETATM   14  O   UNL     1      65.178   7.038   5.270  1.00  0.00    -0.356 OA
HETATM   15  C   UNL     1      64.852   6.705   6.614  1.00  0.00     0.210 C 
ENDBRANCH   5  14
TORSDOF 4
ENDMDL
MODEL 6
REMARK VINA RESULT:      -4.1      4.164      7.319
REMARK  4 active torsions:
REMARK  status: ('A' for Active; 'I' for Inactive)
REMARK    1  A    between atoms: C_1  and  C_8 
REMARK    2  A    between atoms: C_2  and  O_9 
REMARK    3  A    between atoms: C_5  and  O_10 
REMARK    4  A    between atoms: N_7  and  C_8 
ROOT
HETATM    1  C   UNL     1      67.445   5.898   6.510  1.00  0.00     0.003 A 
HETATM    2  C   UNL     1      66.555   6.668   7.274  1.00  0.00     0.076 A 
HETATM    3  C   UNL     1      68.511   5.250   7.188  1.00  0.00     0.048 A 
HETATM    4  C   UNL     1      66.748   6.739   8.669  1.00  0.00     0.040 A 
HETATM    5  C   UNL     1      68.684   5.321   8.573  1.00  0.00     0.069 A 
HETATM    6  C   UNL     1      67.794   6.076   9.316  1.00  0.00     0.039 A 
ENDROOT
BRANCH   1   7
HETATM    7  C   UNL     1      67.421   5.694   5.016  1.00  0.00     0.271 C 
BRANCH   7   8
HETATM    8  N   UNL     1      67.418   6.960   4.294  1.00  0.00    -0.075 N 
HETATM    9  H   UNL     1      67.111   6.802   3.334  1.00  0.00     0.274 HD
HETATM   10  H   UNL     1      68.359   7.351   4.290  1.00  0.00     0.274 HD
HETATM   11  H   UNL     1      66.780   7.612   4.751  1.00  0.00     0.274 HD
ENDBRANCH   7   8
ENDBRANCH   1   7
BRANCH   2  12
HETATM   12  O   UNL     1      65.474   7.419   6.914  1.00  0.00    -0.355 OA
HETATM   13  C   UNL     1      64.250   6.840   6.519  1.00  0.00     0.210 C 
ENDBRANCH   2  12
BRANCH   5  14
HETATM   14  O   UNL     1      69.747   4.612   9.059  1.00  0.00    -0.356 OA
HETATM   15  C   UNL     1      69.455   3.569   9.982  1.00  0.00     0.210 C 
ENDBRANCH   5  14
TORSDOF 4
ENDMDL
MODEL 7
REMARK VINA RESULT:      -4.1      4.934      7.013
REMARK  4 active torsions:
REMARK  status: ('A' for Active; 'I' for Inactive)
REMARK    1  A    between atoms: C_1  and  C_8 
REMARK    2  A    between atoms: C_2  and  O_9 
REMARK    3  A    between atoms: C_5  and  O_10 
REMARK    4  A    between atoms: N_7  and  C_8 
ROOT
HETATM    1  C   UNL     1      67.646   4.719   7.132  1.00  0.00     0.003 A 
HETATM    2  C   UNL     1      68.417   4.974   8.276  1.00  0.00     0.076 A 
HETATM    3  C   UNL     1      66.437   5.446   6.973  1.00  0.00     0.048 A 
HETATM    4  C   UNL     1      67.969   5.948   9.191  1.00  0.00     0.040 A 
HETATM    5  C   UNL     1      66.010   6.418   7.882  1.00  0.00     0.069 A 
HETATM    6  C   UNL     1      66.785   6.665   9.002  1.00  0.00     0.039 A 
ENDROOT
BRANCH   1   7
HETATM    7  C   UNL     1      67.940   3.722   6.041  1.00  0.00     0.271 C 
BRANCH   7   8
HETATM    8  N   UNL     1      68.789   2.634   6.509  1.00  0.00    -0.075 N 
HETATM    9  H   UNL     1      69.421   2.984   7.230  1.00  0.00     0.274 HD
HETATM   10  H   UNL     1      69.333   2.267   5.730  1.00  0.00     0.274 HD
HETATM   11  H   UNL     1      68.208   1.892   6.899  1.00  0.00     0.274 HD
ENDBRANCH   7   8
ENDBRANCH   1   7
BRANCH   2  12
HETATM   12  O   UNL     1      69.586   4.425   8.717  1.00  0.00    -0.355 OA
HETATM   13  C   UNL     1      69.674   3.709   9.929  1.00  0.00     0.210 C 
ENDBRANCH   2  12
BRANCH   5  14
HETATM   14  O   UNL     1      64.837   7.039   7.555  1.00  0.00    -0.356 OA
HETATM   15  C   UNL     1      64.416   6.943   6.200  1.00  0.00     0.210 C 
ENDBRANCH   5  14
TORSDOF 4
ENDMDL
MODEL 8
REMARK VINA RESULT:      -4.0      2.502      4.616
REMARK  4 active torsions:
REMARK  status: ('A' for Active; 'I' for Inactive)
REMARK    1  A    between atoms: C_1  and  C_8 
REMARK    2  A    between atoms: C_2  and  O_9 
REMARK    3  A    between atoms: C_5  and  O_10 
REMARK    4  A    between atoms: N_7  and  C_8 
ROOT
HETATM    1  C   UNL     1      62.433   8.925   3.044  1.00  0.00     0.003 A 
HETATM    2  C   UNL     1      62.167  10.196   3.576  1.00  0.00     0.076 A 
HETATM    3  C   UNL     1      63.358   8.098   3.734  1.00  0.00     0.048 A 
HETATM    4  C   UNL     1      62.807  10.574   4.774  1.00  0.00     0.040 A 
HETATM    5  C   UNL     1      63.977   8.481   4.926  1.00  0.00     0.069 A 
HETATM    6  C   UNL     1      63.698   9.734   5.446  1.00  0.00     0.039 A 
ENDROOT
BRANCH   1   7
HETATM    7  C   UNL     1      61.864   8.331   1.780  1.00  0.00     0.271 C 
BRANCH   7   8
HETATM    8  N   UNL     1      60.449   8.640   1.621  1.00  0.00    -0.075 N 
HETATM    9  H   UNL     1      60.119   9.153   2.440  1.00  0.00     0.274 HD
HETATM   10  H   UNL     1      59.920   7.774   1.527  1.00  0.00     0.274 HD
HETATM   11  H   UNL     1      60.317   9.213   0.787  1.00  0.00     0.274 HD
ENDBRANCH   7   8
ENDBRANCH   1   7
BRANCH   2  12
HETATM   12  O   UNL     1      61.368  11.210   3.135  1.00  0.00    -0.355 OA
HETATM   13  C   UNL     1      61.708  12.010   2.024  1.00  0.00     0.210 C 
ENDBRANCH   2  12
BRANCH   5  14
HETATM   14  O   UNL     1      64.815   7.548   5.469  1.00  0.00    -0.356 OA
HETATM   15  C   UNL     1      66.068   8.015   5.953  1.00  0.00     0.210 C 
ENDBRANCH   5  14
TORSDOF 4
ENDMDL
MODEL 9
REMARK VINA RESULT:      -3.9      3.889      5.762
REMARK  4 active torsions:
REMARK  status: ('A' for Active; 'I' for Inactive)
REMARK    1  A    between atoms: C_1  and  C_8 
REMARK    2  A    between atoms: C_2  and  O_9 
REMARK    3  A    between atoms: C_5  and  O_10 
REMARK    4  A    between atoms: N_7  and  C_8 
ROOT
HETATM    1  C   UNL     1      67.411   6.180   7.692  1.00  0.00     0.003 A 
HETATM    2  C   UNL     1      67.754   5.311   6.646  1.00  0.00     0.076 A 
HETATM    3  C   UNL     1      66.721   7.376   7.362  1.00  0.00     0.048 A 
HETATM    4  C   UNL     1      67.377   5.654   5.332  1.00  0.00     0.040 A 
HETATM    5  C   UNL     1      66.343   7.698   6.055  1.00  0.00     0.069 A 
HETATM    6  C   UNL     1      66.679   6.827   5.033  1.00  0.00     0.039 A 
ENDROOT
BRANCH   1   7
HETATM    7  C   UNL     1      67.722   6.007   9.158  1.00  0.00     0.271 C 
BRANCH   7   8
HETATM    8  N   UNL     1      68.680   4.934   9.389  1.00  0.00    -0.075 N 
HETATM    9  H   UNL     1      69.298   4.850   8.581  1.00  0.00     0.274 HD
HETATM   10  H   UNL     1      68.181   4.056   9.527  1.00  0.00     0.274 HD
HETATM   11  H   UNL     1      69.234   5.145  10.219  1.00  0.00     0.274 HD
ENDBRANCH   7   8
ENDBRANCH   1   7
BRANCH   2  12
HETATM   12  O   UNL     1      68.433   4.127   6.642  1.00  0.00    -0.355 OA
HETATM   13  C   UNL     1      67.784   2.886   6.479  1.00  0.00     0.210 C 
ENDBRANCH   2  12
BRANCH   5  14
HETATM   14  O   UNL     1      65.659   8.874   5.925  1.00  0.00    -0.356 OA
HETATM   15  C   UNL     1      64.488   8.849   5.117  1.00  0.00     0.210 C 
ENDBRANCH   5  14
TORSDOF 4
ENDMDL
