MODEL 1
REMARK VINA RESULT:      -5.0      0.000      0.000
REMARK  2 active torsions:
REMARK  status: ('A' for Active; 'I' for Inactive)
REMARK    1  A    between atoms: C_1  and  C_3 
REMARK    2  A    between atoms: C_1  and  O_7 
ROOT
HETATM    1  N   UNL     1      63.466   6.130   2.714  1.00  0.00    -0.191 NA
HETATM    2  C   UNL     1      62.921   9.368   4.115  1.00  0.00     0.060 A 
HETATM    3  C   UNL     1      63.194   7.256   2.829  1.00  0.00     0.100 C 
HETATM    4  C   UNL     1      62.812   8.630   2.928  1.00  0.00     0.060 A 
HETATM    5  C   UNL     1      62.407  10.679   4.145  1.00  0.00     0.019 A 
HETATM    6  C   UNL     1      62.239   9.223   1.784  1.00  0.00     0.024 A 
HETATM    7  C   UNL     1      61.821  11.251   3.010  1.00  0.00     0.001 A 
HETATM    8  C   UNL     1      61.748  10.528   1.826  1.00  0.00     0.002 A 
ENDROOT
BRANCH   2   9
HETATM    9  C   UNL     1      63.492   8.847   5.394  1.00  0.00     0.294 C 
HETATM   10  O   UNL     1      62.808   8.273   6.227  1.00  0.00    -0.259 OA
BRANCH   9  11
HETATM   11  O   UNL     1      64.803   9.151   5.526  1.00  0.00    -0.322 OA
HETATM   12  C   UNL     1      65.673   8.047   5.822  1.00  0.00     0.213 C 
ENDBRANCH   9  11
ENDBRANCH   2   9
TORSDOF 2
ENDMDL
MODEL 2
REMARK VINA RESULT:      -4.9     18.609     20.059
REMARK  2 active torsions:
REMARK  status: ('A' for Active; 'I' for Inactive)
REMARK    1  A    between atoms: C_1  and  C_3 
REMARK    2  A    between atoms: C_1  and  O_7 
ROOT
HETATM    1  N   UNL     1      78.112   0.899  18.828  1.00  0.00    -0.191 NA
HETATM    2  C   UNL     1      75.118   2.305  17.484  1.00  0.00     0.060 A 
HETATM    3  C   UNL     1      77.337   1.657  18.405  1.00  0.00     0.100 C 
HETATM    4  C   UNL     1      76.433   2.619  17.856  1.00  0.00     0.060 A 
HETATM    5  C   UNL     1      74.344   3.290  16.841  1.00  0.00     0.019 A 
HETATM    6  C   UNL     1      76.936   3.916  17.624  1.00  0.00     0.024 A 
HETATM    7  C   UNL     1      74.859   4.568  16.596  1.00  0.00     0.001 A 
HETATM    8  C   UNL     1      76.151   4.885  16.998  1.00  0.00     0.002 A 
ENDROOT
BRANCH   2   9
HETATM    9  C   UNL     1      74.478   0.966  17.662  1.00  0.00     0.294 C 
HETATM   10  O   UNL     1      74.134   0.277  16.714  1.00  0.00    -0.259 OA
BRANCH   9  11
HETATM   11  O   UNL     1      74.279   0.667  18.966  1.00  0.00    -0.322 OA
HETATM   12  C   UNL     1      74.196  -0.732  19.279  1.00  0.00     0.213 C 
ENDBRANCH   9  11
ENDBRANCH   2   9
TORSDOF 2
ENDMDL
MODEL 3
REMARK VINA RESULT:      -4.6      4.301      7.129
REMARK  2 active torsions:
REMARK  status: ('A' for Active; 'I' for Inactive)
REMARK    1  A    between atoms: C_1  and  C_3 
REMARK    2  A    between atoms: C_1  and  O_7 
ROOT
HETATM    1  N   UNL     1      67.105   5.225   4.208  1.00  0.00    -0.191 NA
HETATM    2  C   UNL     1      67.226   6.122   7.662  1.00  0.00     0.060 A 
HETATM    3  C   UNL     1      67.336   5.212   5.349  1.00  0.00     0.100 C 
HETATM    4  C   UNL     1      67.679   5.171   6.736  1.00  0.00     0.060 A 
HETATM    5  C   UNL     1      67.715   6.067   8.981  1.00  0.00     0.019 A 
HETATM    6  C   UNL     1      68.571   4.160   7.150  1.00  0.00     0.024 A 
HETATM    7  C   UNL     1      68.616   5.072   9.377  1.00  0.00     0.001 A 
HETATM    8  C   UNL     1      69.034   4.111   8.465  1.00  0.00     0.002 A 
ENDROOT
BRANCH   2   9
HETATM    9  C   UNL     1      66.297   7.248   7.342  1.00  0.00     0.294 C 
HETATM   10  O   UNL     1      66.698   8.330   6.943  1.00  0.00    -0.259 OA
BRANCH   9  11
HETATM   11  O   UNL     1      65.009   6.937   7.613  1.00  0.00    -0.322 OA
HETATM   12  C   UNL     1      64.160   6.745   6.470  1.00  0.00     0.213 C 
ENDBRANCH   9  11
ENDBRANCH   2   9
TORSDOF 2
ENDMDL
MODEL 4
REMARK VINA RESULT:      -4.3      8.680     10.109
REMARK  2 active torsions:
REMARK  status: ('A' for Active; 'I' for Inactive)
REMARK    1  A    between atoms: C_1  and  C_3 
REMARK    2  A    between atoms: C_1  and  O_7 
ROOT
HETATM    1  N   UNL     1      68.478   0.483   6.743  1.00  0.00    -0.191 NA
HETATM    2  C   UNL     1      69.081   2.955   9.247  1.00  0.00     0.060 A 
HETATM    3  C   UNL     1      68.625   1.507   7.276  1.00  0.00     0.100 C 
HETATM    4  C   UNL     1      68.760   2.790   7.892  1.00  0.00     0.060 A 
HETATM    5  C   UNL     1      69.072   4.254   9.790  1.00  0.00     0.019 A 
HETATM    6  C   UNL     1      68.484   3.920   7.095  1.00  0.00     0.024 A 
HETATM    7  C   UNL     1      68.776   5.368   8.996  1.00  0.00     0.001 A 
HETATM    8  C   UNL     1      68.494   5.202   7.645  1.00  0.00     0.002 A 
ENDROOT
BRANCH   2   9
HETATM    9  C   UNL     1      69.376   1.839  10.196  1.00  0.00     0.294 C 
HETATM   10  O   UNL     1      68.512   1.331  10.893  1.00  0.00    -0.259 OA
BRANCH   9  11
HETATM   11  O   UNL     1      70.692   1.530  10.224  1.00  0.00    -0.322 OA
HETATM   12  C   UNL     1      71.018   0.161   9.939  1.00  0.00     0.213 C 
ENDBRANCH   9  11
ENDBRANCH   2   9
TORSDOF 2
ENDMDL
MODEL 5
REMARK VINA RESULT:      -4.1      2.531      3.632
REMARK  2 active torsions:
REMARK  status: ('A' for Active; 'I' for Inactive)
REMARK    1  A    between atoms: C_1  and  C_3 
REMARK    2  A    between atoms: C_1  and  O_7 
ROOT
HETATM    1  N   UNL     1      63.253   6.183   3.456  1.00  0.00    -0.191 NA
HETATM    2  C   UNL     1      61.924   9.426   2.777  1.00  0.00     0.060 A 
HETATM    3  C   UNL     1      62.930   7.295   3.574  1.00  0.00     0.100 C 
HETATM    4  C   UNL     1      62.587   8.671   3.755  1.00  0.00     0.060 A 
HETATM    5  C   UNL     1      61.737  10.804   2.999  1.00  0.00     0.019 A 
HETATM    6  C   UNL     1      63.009   9.289   4.950  1.00  0.00     0.024 A 
HETATM    7  C   UNL     1      62.178  11.412   4.179  1.00  0.00     0.001 A 
HETATM    8  C   UNL     1      62.803  10.652   5.161  1.00  0.00     0.002 A 
ENDROOT
BRANCH   2   9
HETATM    9  C   UNL     1      61.444   8.891   1.466  1.00  0.00     0.294 C 
HETATM   10  O   UNL     1      60.316   8.449   1.317  1.00  0.00    -0.259 OA
BRANCH   9  11
HETATM   11  O   UNL     1      62.417   8.901   0.527  1.00  0.00    -0.322 OA
HETATM   12  C   UNL     1      62.552   7.697  -0.244  1.00  0.00     0.213 C 
ENDBRANCH   9  11
ENDBRANCH   2   9
TORSDOF 2
ENDMDL
MODEL 6
REMARK VINA RESULT:      -4.0      4.957      6.302
REMARK  2 active torsions:
REMARK  status: ('A' for Active; 'I' for Inactive)
REMARK    1  A    between atoms: C_1  and  C_3 
REMARK    2  A    between atoms: C_1  and  O_7 
ROOT
HETATM    1  N   UNL     1      66.162   8.849   6.397  1.00  0.00    -0.191 NA
HETATM    2  C   UNL     1      66.968   5.372   6.328  1.00  0.00     0.060 A 
HETATM    3  C   UNL     1      66.371   7.767   6.021  1.00  0.00     0.100 C 
HETATM    4  C   UNL     1      66.654   6.464   5.506  1.00  0.00     0.060 A 
HETATM    5  C   UNL     1      67.350   4.159   5.723  1.00  0.00     0.019 A 
HETATM    6  C   UNL     1      66.681   6.316   4.104  1.00  0.00     0.024 A 
HETATM    7  C   UNL     1      67.393   4.028   4.330  1.00  0.00     0.001 A 
HETATM    8  C   UNL     1      67.047   5.104   3.520  1.00  0.00     0.002 A 
ENDROOT
BRANCH   2   9
HETATM    9  C   UNL     1      66.990   5.407   7.822  1.00  0.00     0.294 C 
HETATM   10  O   UNL     1      66.014   5.115   8.495  1.00  0.00    -0.259 OA
BRANCH   9  11
HETATM   11  O   UNL     1      68.172   5.856   8.302  1.00  0.00    -0.322 OA
HETATM   12  C   UNL     1      68.977   4.884   8.988  1.00  0.00     0.213 C 
ENDBRANCH   9  11
ENDBRANCH   2   9
TORSDOF 2
ENDMDL
MODEL 7
REMARK VINA RESULT:      -3.9      2.169      3.180
REMARK  2 active torsions:
REMARK  status: ('A' for Active; 'I' for Inactive)
REMARK    1  A    between atoms: C_1  and  C_3 
REMARK    2  A    between atoms: C_1  and  O_7 
ROOT
HETATM    1  N   UNL     1      64.352   7.499   6.454  1.00  0.00    -0.191 NA
HETATM    2  C   UNL     1      62.516   8.508   3.564  1.00  0.00     0.060 A 
HETATM    3  C   UNL     1      63.735   8.135   5.700  1.00  0.00     0.100 C 
HETATM    4  C   UNL     1      63.012   8.970   4.791  1.00  0.00     0.060 A 
HETATM    5  C   UNL     1      61.923   9.435   2.684  1.00  0.00     0.019 A 
HETATM    6  C   UNL     1      62.868  10.329   5.140  1.00  0.00     0.024 A 
HETATM    7  C   UNL     1      61.803  10.785   3.030  1.00  0.00     0.001 A 
HETATM    8  C   UNL     1      62.265  11.230   4.263  1.00  0.00     0.002 A 
ENDROOT
BRANCH   2   9
HETATM    9  C   UNL     1      62.622   7.100   3.076  1.00  0.00     0.294 C 
HETATM   10  O   UNL     1      62.020   6.180   3.607  1.00  0.00    -0.259 OA
BRANCH   9  11
HETATM   11  O   UNL     1      63.496   6.981   2.051  1.00  0.00    -0.322 OA
HETATM   12  C   UNL     1      63.755   5.641   1.603  1.00  0.00     0.213 C 
ENDBRANCH   9  11
ENDBRANCH   2   9
TORSDOF 2
ENDMDL
MODEL 8
REMARK VINA RESULT:      -3.9      3.176      4.303
REMARK  2 active torsions:
REMARK  status: ('A' for Active; 'I' for Inactive)
REMARK    1  A    between atoms: C_1  and  C_3 
REMARK    2  A    between atoms: C_1  and  O_7 
ROOT
HETATM    1  N   UNL     1      67.911   8.179   5.227  1.00  0.00    -0.191 NA
HETATM    2  C   UNL     1      64.806   6.889   6.427  1.00  0.00     0.060 A 
HETATM    3  C   UNL     1      66.772   8.032   5.420  1.00  0.00     0.100 C 
HETATM    4  C   UNL     1      65.363   7.871   5.596  1.00  0.00     0.060 A 
HETATM    5  C   UNL     1      63.407   6.731   6.442  1.00  0.00     0.019 A 
HETATM    6  C   UNL     1      64.518   8.704   4.833  1.00  0.00     0.024 A 
HETATM    7  C   UNL     1      62.578   7.548   5.665  1.00  0.00     0.001 A 
HETATM    8  C   UNL     1      63.134   8.544   4.870  1.00  0.00     0.002 A 
ENDROOT
BRANCH   2   9
HETATM    9  C   UNL     1      65.593   5.937   7.269  1.00  0.00     0.294 C 
HETATM   10  O   UNL     1      65.901   4.823   6.877  1.00  0.00    -0.259 OA
BRANCH   9  11
HETATM   11  O   UNL     1      65.844   6.436   8.501  1.00  0.00    -0.322 OA
HETATM   12  C   UNL     1      67.231   6.540   8.860  1.00  0.00     0.213 C 
ENDBRANCH   9  11
ENDBRANCH   2   9
TORSDOF 2
ENDMDL
MODEL 9
REMARK VINA RESULT:      -3.9      5.522      8.500
REMARK  2 active torsions:
REMARK  status: ('A' for Active; 'I' for Inactive)
REMARK    1  A    between atoms: C_1  and  C_3 
REMARK    2  A    between atoms: C_1  and  O_7 
ROOT
HETATM    1  N   UNL     1      65.847   2.496   6.648  1.00  0.00    -0.191 NA
HETATM    2  C   UNL     1      68.268   4.844   7.820  1.00  0.00     0.060 A 
HETATM    3  C   UNL     1      66.719   2.984   7.246  1.00  0.00     0.100 C 
HETATM    4  C   UNL     1      67.819   3.525   7.980  1.00  0.00     0.060 A 
HETATM    5  C   UNL     1      69.434   5.248   8.499  1.00  0.00     0.019 A 
HETATM    6  C   UNL     1      68.509   2.651   8.846  1.00  0.00     0.024 A 
HETATM    7  C   UNL     1      70.123   4.367   9.339  1.00  0.00     0.001 A 
HETATM    8  C   UNL     1      69.654   3.071   9.522  1.00  0.00     0.002 A 
ENDROOT
BRANCH   2   9
HETATM    9  C   UNL     1      67.634   5.858   6.923  1.00  0.00     0.294 C 
HETATM   10  O   UNL     1      67.888   5.921   5.730  1.00  0.00    -0.259 OA
BRANCH   9  11
HETATM   11  O   UNL     1      66.828   6.704   7.603  1.00  0.00    -0.322 OA
HETATM   12  C   UNL     1      65.421   6.561   7.352  1.00  0.00     0.213 C 
ENDBRANCH   9  11
ENDBRANCH   2   9
TORSDOF 2
ENDMDL
