MODEL 1
REMARK VINA RESULT:      -5.3      0.000      0.000
REMARK  1 active torsions:
REMARK  status: ('A' for Active; 'I' for Inactive)
REMARK    1  A    between atoms: N_1  and  C_2 
REMARK       I    between atoms: N_1  and  C_3 
ROOT
HETATM    1  C   UNL     1      76.019   3.711  17.640  1.00  0.00     0.040 A 
HETATM    2  C   UNL     1      74.850   3.345  16.955  1.00  0.00    -0.034 A 
HETATM    3  C   UNL     1      74.741   2.032  16.464  1.00  0.00     0.032 A 
HETATM    4  C   UNL     1      77.025   2.761  17.875  1.00  0.00     0.032 A 
HETATM    5  C   UNL     1      75.750   1.097  16.690  1.00  0.00     0.034 A 
HETATM    6  C   UNL     1      76.888   1.455  17.407  1.00  0.00     0.026 A 
HETATM    7 CL   UNL     1      75.592  -0.500  16.076  1.00  0.00    -0.084 Cl
HETATM    8  C   UNL     1      73.745   4.311  16.625  1.00  0.00     0.050 C 
ENDROOT
BRANCH   1   9
HETATM    9  N   UNL     1      76.159   5.008  18.156  1.00  0.00    -0.327 N 
HETATM   10  C   UNL     1      76.645   6.114  17.513  1.00  0.00     0.218 C 
HETATM   11  O   UNL     1      76.736   7.180  18.125  1.00  0.00    -0.274 OA
HETATM   12  C   UNL     1      76.963   6.025  16.044  1.00  0.00     0.117 C 
HETATM   13  H   UNL     1      75.874   5.137  19.089  1.00  0.00     0.169 HD
ENDBRANCH   1   9
TORSDOF 1
ENDMDL
MODEL 2
REMARK VINA RESULT:      -5.0     17.718     19.243
REMARK  1 active torsions:
REMARK  status: ('A' for Active; 'I' for Inactive)
REMARK    1  A    between atoms: N_1  and  C_2 
REMARK       I    between atoms: N_1  and  C_3 
ROOT
HETATM    1  C   UNL     1      62.863   9.000   5.039  1.00  0.00     0.040 A 
HETATM    2  C   UNL     1      62.603   8.556   3.733  1.00  0.00    -0.034 A 
HETATM    3  C   UNL     1      62.179   9.494   2.775  1.00  0.00     0.032 A 
HETATM    4  C   UNL     1      62.754  10.362   5.355  1.00  0.00     0.032 A 
HETATM    5  C   UNL     1      62.061  10.845   3.100  1.00  0.00     0.034 A 
HETATM    6  C   UNL     1      62.361  11.284   4.386  1.00  0.00     0.026 A 
HETATM    7 CL   UNL     1      61.537  11.969   1.911  1.00  0.00    -0.084 Cl
HETATM    8  C   UNL     1      62.655   7.109   3.322  1.00  0.00     0.050 C 
ENDROOT
BRANCH   1   9
HETATM    9  N   UNL     1      63.301   8.096   6.018  1.00  0.00    -0.327 N 
HETATM   10  C   UNL     1      64.573   7.631   6.216  1.00  0.00     0.218 C 
HETATM   11  O   UNL     1      64.785   6.804   7.105  1.00  0.00    -0.274 OA
HETATM   12  C   UNL     1      65.699   8.215   5.406  1.00  0.00     0.117 C 
HETATM   13  H   UNL     1      62.613   7.757   6.635  1.00  0.00     0.169 HD
ENDBRANCH   1   9
TORSDOF 1
ENDMDL
MODEL 3
REMARK VINA RESULT:      -4.8     11.745     12.933
REMARK  1 active torsions:
REMARK  status: ('A' for Active; 'I' for Inactive)
REMARK    1  A    between atoms: N_1  and  C_2 
REMARK       I    between atoms: N_1  and  C_3 
ROOT
HETATM    1  C   UNL     1      68.170   5.724   7.433  1.00  0.00     0.040 A 
HETATM    2  C   UNL     1      67.989   4.606   6.604  1.00  0.00    -0.034 A 
HETATM    3  C   UNL     1      68.374   3.342   7.084  1.00  0.00     0.032 A 
HETATM    4  C   UNL     1      68.672   5.563   8.733  1.00  0.00     0.032 A 
HETATM    5  C   UNL     1      68.885   3.191   8.373  1.00  0.00     0.034 A 
HETATM    6  C   UNL     1      69.022   4.299   9.205  1.00  0.00     0.026 A 
HETATM    7 CL   UNL     1      69.352   1.636   8.933  1.00  0.00    -0.084 Cl
HETATM    8  C   UNL     1      67.497   4.696   5.185  1.00  0.00     0.050 C 
ENDROOT
BRANCH   1   9
HETATM    9  N   UNL     1      67.784   6.999   6.993  1.00  0.00    -0.327 N 
HETATM   10  C   UNL     1      66.518   7.516   6.942  1.00  0.00     0.218 C 
HETATM   11  O   UNL     1      66.344   8.650   6.491  1.00  0.00    -0.274 OA
HETATM   12  C   UNL     1      65.380   6.725   7.529  1.00  0.00     0.117 C 
HETATM   13  H   UNL     1      68.509   7.590   6.687  1.00  0.00     0.169 HD
ENDBRANCH   1   9
TORSDOF 1
ENDMDL
MODEL 4
REMARK VINA RESULT:      -4.8     10.606     12.018
REMARK  1 active torsions:
REMARK  status: ('A' for Active; 'I' for Inactive)
REMARK    1  A    between atoms: N_1  and  C_2 
REMARK       I    between atoms: N_1  and  C_3 
ROOT
HETATM    1  C   UNL     1      69.088   3.950   8.861  1.00  0.00     0.040 A 
HETATM    2  C   UNL     1      68.680   3.805   7.526  1.00  0.00    -0.034 A 
HETATM    3  C   UNL     1      67.852   4.793   6.963  1.00  0.00     0.032 A 
HETATM    4  C   UNL     1      68.717   5.089   9.591  1.00  0.00     0.032 A 
HETATM    5  C   UNL     1      67.477   5.916   7.700  1.00  0.00     0.034 A 
HETATM    6  C   UNL     1      67.919   6.074   9.010  1.00  0.00     0.026 A 
HETATM    7 CL   UNL     1      66.461   7.105   6.990  1.00  0.00    -0.084 Cl
HETATM    8  C   UNL     1      68.998   2.596   6.687  1.00  0.00     0.050 C 
ENDROOT
BRANCH   1   9
HETATM    9  N   UNL     1      69.925   2.992   9.452  1.00  0.00    -0.327 N 
HETATM   10  C   UNL     1      69.558   1.932  10.236  1.00  0.00     0.218 C 
HETATM   11  O   UNL     1      70.427   1.199  10.711  1.00  0.00    -0.274 OA
HETATM   12  C   UNL     1      68.095   1.630  10.419  1.00  0.00     0.117 C 
HETATM   13  H   UNL     1      70.889   3.094   9.281  1.00  0.00     0.169 HD
ENDBRANCH   1   9
TORSDOF 1
ENDMDL
MODEL 5
REMARK VINA RESULT:      -4.6      8.885     10.459
REMARK  1 active torsions:
REMARK  status: ('A' for Active; 'I' for Inactive)
REMARK    1  A    between atoms: N_1  and  C_2 
REMARK       I    between atoms: N_1  and  C_3 
ROOT
HETATM    1  C   UNL     1      77.919  12.108  20.642  1.00  0.00     0.040 A 
HETATM    2  C   UNL     1      79.029  11.302  20.345  1.00  0.00    -0.034 A 
HETATM    3  C   UNL     1      80.199  11.457  21.110  1.00  0.00     0.032 A 
HETATM    4  C   UNL     1      77.969  13.006  21.719  1.00  0.00     0.032 A 
HETATM    5  C   UNL     1      80.245  12.362  22.170  1.00  0.00     0.034 A 
HETATM    6  C   UNL     1      79.127  13.128  22.486  1.00  0.00     0.026 A 
HETATM    7 CL   UNL     1      81.689  12.535  23.086  1.00  0.00    -0.084 Cl
HETATM    8  C   UNL     1      79.073  10.345  19.184  1.00  0.00     0.050 C 
ENDROOT
BRANCH   1   9
HETATM    9  N   UNL     1      76.731  11.972  19.910  1.00  0.00    -0.327 N 
HETATM   10  C   UNL     1      76.181  12.870  19.036  1.00  0.00     0.218 C 
HETATM   11  O   UNL     1      75.104  12.610  18.497  1.00  0.00    -0.274 OA
HETATM   12  C   UNL     1      76.956  14.110  18.678  1.00  0.00     0.117 C 
HETATM   13  H   UNL     1      76.235  11.132  20.040  1.00  0.00     0.169 HD
ENDBRANCH   1   9
TORSDOF 1
ENDMDL
MODEL 6
REMARK VINA RESULT:      -4.6     12.686     14.076
REMARK  1 active torsions:
REMARK  status: ('A' for Active; 'I' for Inactive)
REMARK    1  A    between atoms: N_1  and  C_2 
REMARK       I    between atoms: N_1  and  C_3 
ROOT
HETATM    1  C   UNL     1      66.573   6.753   7.539  1.00  0.00     0.040 A 
HETATM    2  C   UNL     1      67.501   6.206   6.639  1.00  0.00    -0.034 A 
HETATM    3  C   UNL     1      68.596   5.489   7.155  1.00  0.00     0.032 A 
HETATM    4  C   UNL     1      66.713   6.534   8.917  1.00  0.00     0.032 A 
HETATM    5  C   UNL     1      68.736   5.287   8.527  1.00  0.00     0.034 A 
HETATM    6  C   UNL     1      67.789   5.796   9.411  1.00  0.00     0.026 A 
HETATM    7 CL   UNL     1      70.085   4.411   9.131  1.00  0.00    -0.084 Cl
HETATM    8  C   UNL     1      67.447   6.428   5.152  1.00  0.00     0.050 C 
ENDROOT
BRANCH   1   9
HETATM    9  N   UNL     1      65.461   7.462   7.061  1.00  0.00    -0.327 N 
HETATM   10  C   UNL     1      64.302   6.948   6.544  1.00  0.00     0.218 C 
HETATM   11  O   UNL     1      63.430   7.715   6.132  1.00  0.00    -0.274 OA
HETATM   12  C   UNL     1      64.080   5.460   6.585  1.00  0.00     0.117 C 
HETATM   13  H   UNL     1      65.522   8.444   7.102  1.00  0.00     0.169 HD
ENDBRANCH   1   9
TORSDOF 1
ENDMDL
MODEL 7
REMARK VINA RESULT:      -4.6     11.434     12.805
REMARK  1 active torsions:
REMARK  status: ('A' for Active; 'I' for Inactive)
REMARK    1  A    between atoms: N_1  and  C_2 
REMARK       I    between atoms: N_1  and  C_3 
ROOT
HETATM    1  C   UNL     1      67.867   4.919   8.417  1.00  0.00     0.040 A 
HETATM    2  C   UNL     1      67.794   4.649   7.042  1.00  0.00    -0.034 A 
HETATM    3  C   UNL     1      67.204   5.607   6.198  1.00  0.00     0.032 A 
HETATM    4  C   UNL     1      67.409   6.146   8.919  1.00  0.00     0.032 A 
HETATM    5  C   UNL     1      66.739   6.819   6.706  1.00  0.00     0.034 A 
HETATM    6  C   UNL     1      66.853   7.098   8.065  1.00  0.00     0.026 A 
HETATM    7 CL   UNL     1      66.019   7.970   5.653  1.00  0.00    -0.084 Cl
HETATM    8  C   UNL     1      68.223   3.344   6.428  1.00  0.00     0.050 C 
ENDROOT
BRANCH   1   9
HETATM    9  N   UNL     1      68.461   3.993   9.288  1.00  0.00    -0.327 N 
HETATM   10  C   UNL     1      69.792   3.850   9.571  1.00  0.00     0.218 C 
HETATM   11  O   UNL     1      70.155   2.956  10.338  1.00  0.00    -0.274 OA
HETATM   12  C   UNL     1      70.770   4.850   9.017  1.00  0.00     0.117 C 
HETATM   13  H   UNL     1      67.848   3.376   9.749  1.00  0.00     0.169 HD
ENDBRANCH   1   9
TORSDOF 1
ENDMDL
MODEL 8
REMARK VINA RESULT:      -4.5     12.535     13.689
REMARK  1 active torsions:
REMARK  status: ('A' for Active; 'I' for Inactive)
REMARK    1  A    between atoms: N_1  and  C_2 
REMARK       I    between atoms: N_1  and  C_3 
ROOT
HETATM    1  C   UNL     1      67.097   5.467   6.723  1.00  0.00     0.040 A 
HETATM    2  C   UNL     1      68.018   5.052   7.698  1.00  0.00    -0.034 A 
HETATM    3  C   UNL     1      68.648   3.804   7.542  1.00  0.00     0.032 A 
HETATM    4  C   UNL     1      66.863   4.671   5.592  1.00  0.00     0.032 A 
HETATM    5  C   UNL     1      68.400   3.013   6.422  1.00  0.00     0.034 A 
HETATM    6  C   UNL     1      67.518   3.449   5.438  1.00  0.00     0.026 A 
HETATM    7 CL   UNL     1      69.180   1.491   6.258  1.00  0.00    -0.084 Cl
HETATM    8  C   UNL     1      68.296   5.824   8.960  1.00  0.00     0.050 C 
ENDROOT
BRANCH   1   9
HETATM    9  N   UNL     1      66.459   6.711   6.838  1.00  0.00    -0.327 N 
HETATM   10  C   UNL     1      66.819   7.891   6.245  1.00  0.00     0.218 C 
HETATM   11  O   UNL     1      66.168   8.910   6.481  1.00  0.00    -0.274 OA
HETATM   12  C   UNL     1      67.941   7.893   5.243  1.00  0.00     0.117 C 
HETATM   13  H   UNL     1      65.660   6.737   7.412  1.00  0.00     0.169 HD
ENDBRANCH   1   9
TORSDOF 1
ENDMDL
MODEL 9
REMARK VINA RESULT:      -4.4     10.672     12.198
REMARK  1 active torsions:
REMARK  status: ('A' for Active; 'I' for Inactive)
REMARK    1  A    between atoms: N_1  and  C_2 
REMARK       I    between atoms: N_1  and  C_3 
ROOT
HETATM    1  C   UNL     1      79.863  11.964  23.078  1.00  0.00     0.040 A 
HETATM    2  C   UNL     1      80.963  12.773  23.405  1.00  0.00    -0.034 A 
HETATM    3  C   UNL     1      81.219  13.046  24.761  1.00  0.00     0.032 A 
HETATM    4  C   UNL     1      79.079  11.399  24.094  1.00  0.00     0.032 A 
HETATM    5  C   UNL     1      80.426  12.491  25.764  1.00  0.00     0.034 A 
HETATM    6  C   UNL     1      79.363  11.655  25.435  1.00  0.00     0.026 A 
HETATM    7 CL   UNL     1      80.759  12.844  27.413  1.00  0.00    -0.084 Cl
HETATM    8  C   UNL     1      81.828  13.452  22.378  1.00  0.00     0.050 C 
ENDROOT
BRANCH   1   9
HETATM    9  N   UNL     1      79.585  11.659  21.738  1.00  0.00    -0.327 N 
HETATM   10  C   UNL     1      78.597  12.186  20.950  1.00  0.00     0.218 C 
HETATM   11  O   UNL     1      78.463  11.780  19.794  1.00  0.00    -0.274 OA
HETATM   12  C   UNL     1      77.763  13.319  21.483  1.00  0.00     0.117 C 
HETATM   13  H   UNL     1      80.168  10.988  21.315  1.00  0.00     0.169 HD
ENDBRANCH   1   9
TORSDOF 1
ENDMDL
