MODEL 1
REMARK VINA RESULT:      -6.0      0.000      0.000
REMARK  2 active torsions:
REMARK  status: ('A' for Active; 'I' for Inactive)
REMARK    1  A    between atoms: C_1  and  C_2 
REMARK    2  A    between atoms: C_1  and  O_10 
ROOT
HETATM    1  C   UNL     1      76.793   6.440  16.831  1.00  0.00     0.041 A 
HETATM    2  C   UNL     1      77.346   8.802  16.947  1.00  0.00     0.041 A 
HETATM    3  C   UNL     1      77.031   7.596  17.583  1.00  0.00     0.042 A 
HETATM    4  C   UNL     1      77.442   8.881  15.549  1.00  0.00    -0.040 A 
HETATM    5  C   UNL     1      76.863   6.517  15.433  1.00  0.00     0.018 A 
HETATM    6  C   UNL     1      77.189   7.722  14.799  1.00  0.00     0.009 A 
HETATM    7 CL   UNL     1      77.603  10.190  17.945  1.00  0.00    -0.084 Cl
HETATM    8  C   UNL     1      77.803  10.163  14.849  1.00  0.00     0.050 C 
ENDROOT
BRANCH   1   9
HETATM    9  C   UNL     1      76.466   5.127  17.469  1.00  0.00     0.293 C 
HETATM   10  O   UNL     1      76.957   4.751  18.518  1.00  0.00    -0.259 OA
BRANCH   9  11
HETATM   11  O   UNL     1      75.566   4.442  16.718  1.00  0.00    -0.323 OA
HETATM   12  C   UNL     1      75.342   3.075  17.086  1.00  0.00     0.213 C 
ENDBRANCH   9  11
ENDBRANCH   1   9
TORSDOF 2
ENDMDL
MODEL 2
REMARK VINA RESULT:      -5.4      3.168      5.563
REMARK  2 active torsions:
REMARK  status: ('A' for Active; 'I' for Inactive)
REMARK    1  A    between atoms: C_1  and  C_2 
REMARK    2  A    between atoms: C_1  and  O_10 
ROOT
HETATM    1  C   UNL     1      76.224   5.095  17.108  1.00  0.00     0.041 A 
HETATM    2  C   UNL     1      76.525   2.819  17.899  1.00  0.00     0.041 A 
HETATM    3  C   UNL     1      77.006   4.124  17.742  1.00  0.00     0.042 A 
HETATM    4  C   UNL     1      75.250   2.456  17.436  1.00  0.00    -0.040 A 
HETATM    5  C   UNL     1      74.960   4.734  16.621  1.00  0.00     0.018 A 
HETATM    6  C   UNL     1      74.476   3.430  16.787  1.00  0.00     0.009 A 
HETATM    7 CL   UNL     1      77.560   1.671  18.673  1.00  0.00    -0.084 Cl
HETATM    8  C   UNL     1      74.707   1.064  17.615  1.00  0.00     0.050 C 
ENDROOT
BRANCH   1   9
HETATM    9  C   UNL     1      76.693   6.504  16.930  1.00  0.00     0.293 C 
HETATM   10  O   UNL     1      76.981   6.983  15.848  1.00  0.00    -0.259 OA
BRANCH   9  11
HETATM   11  O   UNL     1      76.745   7.145  18.126  1.00  0.00    -0.323 OA
HETATM   12  C   UNL     1      77.169   8.515  18.095  1.00  0.00     0.213 C 
ENDBRANCH   9  11
ENDBRANCH   1   9
TORSDOF 2
ENDMDL
MODEL 3
REMARK VINA RESULT:      -5.3     18.347     19.129
REMARK  2 active torsions:
REMARK  status: ('A' for Active; 'I' for Inactive)
REMARK    1  A    between atoms: C_1  and  C_2 
REMARK    2  A    between atoms: C_1  and  O_10 
ROOT
HETATM    1  C   UNL     1      62.896   8.889   4.800  1.00  0.00     0.041 A 
HETATM    2  C   UNL     1      62.235   9.511   2.547  1.00  0.00     0.041 A 
HETATM    3  C   UNL     1      62.651   8.541   3.467  1.00  0.00     0.042 A 
HETATM    4  C   UNL     1      62.043  10.845   2.937  1.00  0.00    -0.040 A 
HETATM    5  C   UNL     1      62.730  10.225   5.191  1.00  0.00     0.018 A 
HETATM    6  C   UNL     1      62.304  11.192   4.272  1.00  0.00     0.009 A 
HETATM    7 CL   UNL     1      61.976   9.006   0.914  1.00  0.00    -0.084 Cl
HETATM    8  C   UNL     1      61.575  11.897   1.968  1.00  0.00     0.050 C 
ENDROOT
BRANCH   1   9
HETATM    9  C   UNL     1      63.329   7.884   5.819  1.00  0.00     0.293 C 
HETATM   10  O   UNL     1      62.732   7.689   6.863  1.00  0.00    -0.259 OA
BRANCH   9  11
HETATM   11  O   UNL     1      64.456   7.246   5.413  1.00  0.00    -0.323 OA
HETATM   12  C   UNL     1      65.679   7.987   5.519  1.00  0.00     0.213 C 
ENDBRANCH   9  11
ENDBRANCH   1   9
TORSDOF 2
ENDMDL
MODEL 4
REMARK VINA RESULT:      -4.8      4.078      6.530
REMARK  2 active torsions:
REMARK  status: ('A' for Active; 'I' for Inactive)
REMARK    1  A    between atoms: C_1  and  C_2 
REMARK    2  A    between atoms: C_1  and  O_10 
ROOT
HETATM    1  C   UNL     1      76.295   2.774  17.878  1.00  0.00     0.041 A 
HETATM    2  C   UNL     1      76.493   0.649  16.720  1.00  0.00     0.041 A 
HETATM    3  C   UNL     1      77.025   1.619  17.577  1.00  0.00     0.042 A 
HETATM    4  C   UNL     1      75.219   0.802  16.153  1.00  0.00    -0.040 A 
HETATM    5  C   UNL     1      75.032   2.947  17.295  1.00  0.00     0.018 A 
HETATM    6  C   UNL     1      74.497   1.970  16.446  1.00  0.00     0.009 A 
HETATM    7 CL   UNL     1      77.467  -0.739  16.381  1.00  0.00    -0.084 Cl
HETATM    8  C   UNL     1      74.622  -0.240  15.248  1.00  0.00     0.050 C 
ENDROOT
BRANCH   1   9
HETATM    9  C   UNL     1      76.818   3.831  18.798  1.00  0.00     0.293 C 
HETATM   10  O   UNL     1      77.443   3.585  19.814  1.00  0.00    -0.259 OA
BRANCH   9  11
HETATM   11  O   UNL     1      76.497   5.067  18.338  1.00  0.00    -0.323 OA
HETATM   12  C   UNL     1      77.221   5.525  17.188  1.00  0.00     0.213 C 
ENDBRANCH   9  11
ENDBRANCH   1   9
TORSDOF 2
ENDMDL
MODEL 5
REMARK VINA RESULT:      -4.8     13.129     14.104
REMARK  2 active torsions:
REMARK  status: ('A' for Active; 'I' for Inactive)
REMARK    1  A    between atoms: C_1  and  C_2 
REMARK    2  A    between atoms: C_1  and  O_10 
ROOT
HETATM    1  C   UNL     1      66.951   6.643   7.229  1.00  0.00     0.041 A 
HETATM    2  C   UNL     1      68.266   4.618   7.489  1.00  0.00     0.041 A 
HETATM    3  C   UNL     1      67.527   5.492   6.682  1.00  0.00     0.042 A 
HETATM    4  C   UNL     1      68.456   4.878   8.854  1.00  0.00    -0.040 A 
HETATM    5  C   UNL     1      67.115   6.897   8.598  1.00  0.00     0.018 A 
HETATM    6  C   UNL     1      67.864   6.027   9.401  1.00  0.00     0.009 A 
HETATM    7 CL   UNL     1      68.926   3.205   6.742  1.00  0.00    -0.084 Cl
HETATM    8  C   UNL     1      69.265   3.963   9.732  1.00  0.00     0.050 C 
ENDROOT
BRANCH   1   9
HETATM    9  C   UNL     1      66.165   7.611   6.402  1.00  0.00     0.293 C 
HETATM   10  O   UNL     1      66.656   8.289   5.517  1.00  0.00    -0.259 OA
BRANCH   9  11
HETATM   11  O   UNL     1      64.862   7.616   6.782  1.00  0.00    -0.323 OA
HETATM   12  C   UNL     1      64.020   6.625   6.179  1.00  0.00     0.213 C 
ENDBRANCH   9  11
ENDBRANCH   1   9
TORSDOF 2
ENDMDL
MODEL 6
REMARK VINA RESULT:      -4.7     17.519     18.325
REMARK  2 active torsions:
REMARK  status: ('A' for Active; 'I' for Inactive)
REMARK    1  A    between atoms: C_1  and  C_2 
REMARK    2  A    between atoms: C_1  and  O_10 
ROOT
HETATM    1  C   UNL     1      63.875   7.834   4.797  1.00  0.00     0.041 A 
HETATM    2  C   UNL     1      62.639   9.555   3.610  1.00  0.00     0.041 A 
HETATM    3  C   UNL     1      63.303   9.110   4.759  1.00  0.00     0.042 A 
HETATM    4  C   UNL     1      62.540   8.742   2.471  1.00  0.00    -0.040 A 
HETATM    5  C   UNL     1      63.758   7.007   3.671  1.00  0.00     0.018 A 
HETATM    6  C   UNL     1      63.102   7.457   2.518  1.00  0.00     0.009 A 
HETATM    7 CL   UNL     1      61.940  11.135   3.651  1.00  0.00    -0.084 Cl
HETATM    8  C   UNL     1      61.850   9.211   1.219  1.00  0.00     0.050 C 
ENDROOT
BRANCH   1   9
HETATM    9  C   UNL     1      64.605   7.322   5.999  1.00  0.00     0.293 C 
HETATM   10  O   UNL     1      64.105   7.256   7.108  1.00  0.00    -0.259 OA
BRANCH   9  11
HETATM   11  O   UNL     1      65.870   6.957   5.670  1.00  0.00    -0.323 OA
HETATM   12  C   UNL     1      66.891   7.941   5.884  1.00  0.00     0.213 C 
ENDBRANCH   9  11
ENDBRANCH   1   9
TORSDOF 2
ENDMDL
MODEL 7
REMARK VINA RESULT:      -4.5      4.020      7.016
REMARK  2 active torsions:
REMARK  status: ('A' for Active; 'I' for Inactive)
REMARK    1  A    between atoms: C_1  and  C_2 
REMARK    2  A    between atoms: C_1  and  O_10 
ROOT
HETATM    1  C   UNL     1      76.601   2.275  17.863  1.00  0.00     0.041 A 
HETATM    2  C   UNL     1      75.530   0.678  16.380  1.00  0.00     0.041 A 
HETATM    3  C   UNL     1      75.613   1.966  16.922  1.00  0.00     0.042 A 
HETATM    4  C   UNL     1      76.435  -0.326  16.755  1.00  0.00    -0.040 A 
HETATM    5  C   UNL     1      77.494   1.271  18.261  1.00  0.00     0.018 A 
HETATM    6  C   UNL     1      77.416  -0.015  17.710  1.00  0.00     0.009 A 
HETATM    7 CL   UNL     1      74.266   0.370  15.240  1.00  0.00    -0.084 Cl
HETATM    8  C   UNL     1      76.376  -1.709  16.166  1.00  0.00     0.050 C 
ENDROOT
BRANCH   1   9
HETATM    9  C   UNL     1      76.735   3.641  18.458  1.00  0.00     0.293 C 
HETATM   10  O   UNL     1      77.152   3.842  19.585  1.00  0.00    -0.259 OA
BRANCH   9  11
HETATM   11  O   UNL     1      76.331   4.590  17.575  1.00  0.00    -0.323 OA
HETATM   12  C   UNL     1      77.118   5.788  17.527  1.00  0.00     0.213 C 
ENDBRANCH   9  11
ENDBRANCH   1   9
TORSDOF 2
ENDMDL
MODEL 8
REMARK VINA RESULT:      -4.5     17.615     18.424
REMARK  2 active torsions:
REMARK  status: ('A' for Active; 'I' for Inactive)
REMARK    1  A    between atoms: C_1  and  C_2 
REMARK    2  A    between atoms: C_1  and  O_10 
ROOT
HETATM    1  C   UNL     1      64.241   8.263   4.635  1.00  0.00     0.041 A 
HETATM    2  C   UNL     1      63.181   7.554   2.569  1.00  0.00     0.041 A 
HETATM    3  C   UNL     1      64.141   7.363   3.569  1.00  0.00     0.042 A 
HETATM    4  C   UNL     1      62.293   8.639   2.615  1.00  0.00    -0.040 A 
HETATM    5  C   UNL     1      63.374   9.364   4.674  1.00  0.00     0.018 A 
HETATM    6  C   UNL     1      62.407   9.548   3.678  1.00  0.00     0.009 A 
HETATM    7 CL   UNL     1      63.136   6.410   1.273  1.00  0.00    -0.084 Cl
HETATM    8  C   UNL     1      61.239   8.848   1.561  1.00  0.00     0.050 C 
ENDROOT
BRANCH   1   9
HETATM    9  C   UNL     1      65.243   8.091   5.732  1.00  0.00     0.293 C 
HETATM   10  O   UNL     1      66.387   8.506   5.666  1.00  0.00    -0.259 OA
BRANCH   9  11
HETATM   11  O   UNL     1      64.697   7.421   6.779  1.00  0.00    -0.323 OA
HETATM   12  C   UNL     1      65.552   6.487   7.452  1.00  0.00     0.213 C 
ENDBRANCH   9  11
ENDBRANCH   1   9
TORSDOF 2
ENDMDL
MODEL 9
REMARK VINA RESULT:      -4.4     16.964     17.926
REMARK  2 active torsions:
REMARK  status: ('A' for Active; 'I' for Inactive)
REMARK    1  A    between atoms: C_1  and  C_2 
REMARK    2  A    between atoms: C_1  and  O_10 
ROOT
HETATM    1  C   UNL     1      63.935   8.688   4.638  1.00  0.00     0.041 A 
HETATM    2  C   UNL     1      66.085   7.584   4.880  1.00  0.00     0.041 A 
HETATM    3  C   UNL     1      65.197   8.607   5.235  1.00  0.00     0.042 A 
HETATM    4  C   UNL     1      65.729   6.613   3.932  1.00  0.00    -0.040 A 
HETATM    5  C   UNL     1      63.583   7.736   3.671  1.00  0.00     0.018 A 
HETATM    6  C   UNL     1      64.467   6.707   3.325  1.00  0.00     0.009 A 
HETATM    7 CL   UNL     1      67.634   7.567   5.647  1.00  0.00    -0.084 Cl
HETATM    8  C   UNL     1      66.661   5.493   3.554  1.00  0.00     0.050 C 
ENDROOT
BRANCH   1   9
HETATM    9  C   UNL     1      62.950   9.756   4.995  1.00  0.00     0.293 C 
HETATM   10  O   UNL     1      63.044  10.445   5.995  1.00  0.00    -0.259 OA
BRANCH   9  11
HETATM   11  O   UNL     1      61.968   9.832   4.061  1.00  0.00    -0.323 OA
HETATM   12  C   UNL     1      61.899  11.053   3.312  1.00  0.00     0.213 C 
ENDBRANCH   9  11
ENDBRANCH   1   9
TORSDOF 2
ENDMDL
