MODEL 1
REMARK VINA RESULT:      -5.3      0.000      0.000
REMARK  2 active torsions:
REMARK  status: ('A' for Active; 'I' for Inactive)
REMARK    1  A    between atoms: C_1  and  C_3 
REMARK    2  A    between atoms: C_2  and  N_7 
ROOT
HETATM    1  C   UNL     1      62.378  10.149   3.521  1.00  0.00     0.067 A 
HETATM    2  C   UNL     1      61.939  10.562   2.246  1.00  0.00     0.043 A 
HETATM    3  C   UNL     1      62.752   8.810   3.733  1.00  0.00     0.021 A 
HETATM    4  C   UNL     1      61.937   9.624   1.203  1.00  0.00     0.037 A 
HETATM    5  C   UNL     1      62.704   7.885   2.688  1.00  0.00     0.008 A 
HETATM    6  C   UNL     1      62.293   8.283   1.415  1.00  0.00    -0.060 A 
HETATM    7  C   UNL     1      62.230   7.306   0.279  1.00  0.00     0.048 C 
ENDROOT
BRANCH   1   8
HETATM    8  C   UNL     1      62.390  11.115   4.655  1.00  0.00     0.211 C 
HETATM    9  O   UNL     1      61.880  12.222   4.668  1.00  0.00    -0.644 OA
HETATM   10  O   UNL     1      63.000  10.633   5.755  1.00  0.00    -0.644 OA
ENDBRANCH   1   8
BRANCH   2  11
HETATM   11  N   UNL     1      61.717  11.913   1.917  1.00  0.00    -0.398 N 
HETATM   12  H   UNL     1      61.053  12.438   2.418  1.00  0.00     0.156 HD
HETATM   13  H   UNL     1      62.226  12.330   1.185  1.00  0.00     0.156 HD
ENDBRANCH   2  11
TORSDOF 2
ENDMDL
MODEL 2
REMARK VINA RESULT:      -5.1      2.560      3.491
REMARK  2 active torsions:
REMARK  status: ('A' for Active; 'I' for Inactive)
REMARK    1  A    between atoms: C_1  and  C_3 
REMARK    2  A    between atoms: C_2  and  N_7 
ROOT
HETATM    1  C   UNL     1      62.959   9.018   4.726  1.00  0.00     0.067 A 
HETATM    2  C   UNL     1      62.709  10.347   5.124  1.00  0.00     0.043 A 
HETATM    3  C   UNL     1      62.714   8.628   3.398  1.00  0.00     0.021 A 
HETATM    4  C   UNL     1      62.266  11.264   4.158  1.00  0.00     0.037 A 
HETATM    5  C   UNL     1      62.236   9.549   2.462  1.00  0.00     0.008 A 
HETATM    6  C   UNL     1      62.005  10.873   2.836  1.00  0.00    -0.060 A 
HETATM    7  C   UNL     1      61.487  11.879   1.851  1.00  0.00     0.048 C 
ENDROOT
BRANCH   1   8
HETATM    8  C   UNL     1      63.426   8.016   5.724  1.00  0.00     0.211 C 
HETATM    9  O   UNL     1      64.428   7.328   5.645  1.00  0.00    -0.644 OA
HETATM   10  O   UNL     1      62.640   7.952   6.817  1.00  0.00    -0.644 OA
ENDBRANCH   1   8
BRANCH   2  11
HETATM   11  N   UNL     1      63.092  10.851   6.382  1.00  0.00    -0.398 N 
HETATM   12  H   UNL     1      62.511  10.714   7.164  1.00  0.00     0.156 HD
HETATM   13  H   UNL     1      63.940  11.341   6.478  1.00  0.00     0.156 HD
ENDBRANCH   2  11
TORSDOF 2
ENDMDL
MODEL 3
REMARK VINA RESULT:      -5.0      1.535      2.320
REMARK  2 active torsions:
REMARK  status: ('A' for Active; 'I' for Inactive)
REMARK    1  A    between atoms: C_1  and  C_3 
REMARK    2  A    between atoms: C_2  and  N_7 
ROOT
HETATM    1  C   UNL     1      62.389  10.156   3.708  1.00  0.00     0.067 A 
HETATM    2  C   UNL     1      62.822   8.821   3.845  1.00  0.00     0.043 A 
HETATM    3  C   UNL     1      61.930  10.619   2.463  1.00  0.00     0.021 A 
HETATM    4  C   UNL     1      62.732   7.971   2.732  1.00  0.00     0.037 A 
HETATM    5  C   UNL     1      61.887   9.764   1.359  1.00  0.00     0.008 A 
HETATM    6  C   UNL     1      62.291   8.435   1.484  1.00  0.00    -0.060 A 
HETATM    7  C   UNL     1      62.257   7.499   0.311  1.00  0.00     0.048 C 
ENDROOT
BRANCH   1   8
HETATM    8  C   UNL     1      62.473  11.089   4.866  1.00  0.00     0.211 C 
HETATM    9  O   UNL     1      63.061  10.892   5.915  1.00  0.00    -0.644 OA
HETATM   10  O   UNL     1      61.856  12.266   4.644  1.00  0.00    -0.644 OA
ENDBRANCH   1   8
BRANCH   2  11
HETATM   11  N   UNL     1      63.127   8.242   5.092  1.00  0.00    -0.398 N 
HETATM   12  H   UNL     1      62.430   7.762   5.595  1.00  0.00     0.156 HD
HETATM   13  H   UNL     1      64.036   8.318   5.460  1.00  0.00     0.156 HD
ENDBRANCH   2  11
TORSDOF 2
ENDMDL
MODEL 4
REMARK VINA RESULT:      -4.9      2.573      3.243
REMARK  2 active torsions:
REMARK  status: ('A' for Active; 'I' for Inactive)
REMARK    1  A    between atoms: C_1  and  C_3 
REMARK    2  A    between atoms: C_2  and  N_7 
ROOT
HETATM    1  C   UNL     1      63.929   8.449   4.820  1.00  0.00     0.067 A 
HETATM    2  C   UNL     1      63.129   9.610   4.802  1.00  0.00     0.043 A 
HETATM    3  C   UNL     1      63.887   7.553   3.737  1.00  0.00     0.021 A 
HETATM    4  C   UNL     1      62.343   9.863   3.667  1.00  0.00     0.037 A 
HETATM    5  C   UNL     1      63.068   7.807   2.635  1.00  0.00     0.008 A 
HETATM    6  C   UNL     1      62.286   8.962   2.593  1.00  0.00    -0.060 A 
HETATM    7  C   UNL     1      61.395   9.254   1.422  1.00  0.00     0.048 C 
ENDROOT
BRANCH   1   8
HETATM    8  C   UNL     1      64.773   8.144   6.009  1.00  0.00     0.211 C 
HETATM    9  O   UNL     1      64.606   7.234   6.801  1.00  0.00    -0.644 OA
HETATM   10  O   UNL     1      65.834   8.967   6.130  1.00  0.00    -0.644 OA
ENDBRANCH   1   8
BRANCH   2  11
HETATM   11  N   UNL     1      63.247  10.633   5.761  1.00  0.00    -0.398 N 
HETATM   12  H   UNL     1      62.656  11.419   5.717  1.00  0.00     0.156 HD
HETATM   13  H   UNL     1      63.920  10.562   6.475  1.00  0.00     0.156 HD
ENDBRANCH   2  11
TORSDOF 2
ENDMDL
MODEL 5
REMARK VINA RESULT:      -4.8      2.345      3.213
REMARK  2 active torsions:
REMARK  status: ('A' for Active; 'I' for Inactive)
REMARK    1  A    between atoms: C_1  and  C_3 
REMARK    2  A    between atoms: C_2  and  N_7 
ROOT
HETATM    1  C   UNL     1      62.078  10.059   3.983  1.00  0.00     0.067 A 
HETATM    2  C   UNL     1      62.974   9.803   5.041  1.00  0.00     0.043 A 
HETATM    3  C   UNL     1      61.325   9.007   3.434  1.00  0.00     0.021 A 
HETATM    4  C   UNL     1      63.050   8.499   5.553  1.00  0.00     0.037 A 
HETATM    5  C   UNL     1      61.446   7.708   3.935  1.00  0.00     0.008 A 
HETATM    6  C   UNL     1      62.312   7.443   4.996  1.00  0.00    -0.060 A 
HETATM    7  C   UNL     1      62.463   6.056   5.548  1.00  0.00     0.048 C 
ENDROOT
BRANCH   1   8
HETATM    8  C   UNL     1      61.973  11.430   3.410  1.00  0.00     0.211 C 
HETATM    9  O   UNL     1      62.003  11.725   2.229  1.00  0.00    -0.644 OA
HETATM   10  O   UNL     1      61.779  12.381   4.345  1.00  0.00    -0.644 OA
ENDBRANCH   1   8
BRANCH   2  11
HETATM   11  N   UNL     1      63.627  10.827   5.752  1.00  0.00    -0.398 N 
HETATM   12  H   UNL     1      64.296  10.601   6.439  1.00  0.00     0.156 HD
HETATM   13  H   UNL     1      63.416  11.769   5.563  1.00  0.00     0.156 HD
ENDBRANCH   2  11
TORSDOF 2
ENDMDL
MODEL 6
REMARK VINA RESULT:      -4.7      7.071      8.240
REMARK  2 active torsions:
REMARK  status: ('A' for Active; 'I' for Inactive)
REMARK    1  A    between atoms: C_1  and  C_3 
REMARK    2  A    between atoms: C_2  and  N_7 
ROOT
HETATM    1  C   UNL     1      66.777   6.746   7.417  1.00  0.00     0.067 A 
HETATM    2  C   UNL     1      67.525   5.868   6.605  1.00  0.00     0.043 A 
HETATM    3  C   UNL     1      66.992   6.768   8.806  1.00  0.00     0.021 A 
HETATM    4  C   UNL     1      68.509   5.071   7.210  1.00  0.00     0.037 A 
HETATM    5  C   UNL     1      67.950   5.937   9.391  1.00  0.00     0.008 A 
HETATM    6  C   UNL     1      68.713   5.080   8.598  1.00  0.00    -0.060 A 
HETATM    7  C   UNL     1      69.745   4.175   9.204  1.00  0.00     0.048 C 
ENDROOT
BRANCH   1   8
HETATM    8  C   UNL     1      65.721   7.604   6.811  1.00  0.00     0.211 C 
HETATM    9  O   UNL     1      65.897   8.560   6.076  1.00  0.00    -0.644 OA
HETATM   10  O   UNL     1      64.471   7.196   7.109  1.00  0.00    -0.644 OA
ENDBRANCH   1   8
BRANCH   2  11
HETATM   11  N   UNL     1      67.489   5.914   5.198  1.00  0.00    -0.398 N 
HETATM   12  H   UNL     1      66.786   5.429   4.708  1.00  0.00     0.156 HD
HETATM   13  H   UNL     1      68.167   6.429   4.705  1.00  0.00     0.156 HD
ENDBRANCH   2  11
TORSDOF 2
ENDMDL
MODEL 7
REMARK VINA RESULT:      -4.7     10.170     11.327
REMARK  2 active torsions:
REMARK  status: ('A' for Active; 'I' for Inactive)
REMARK    1  A    between atoms: C_1  and  C_3 
REMARK    2  A    between atoms: C_2  and  N_7 
ROOT
HETATM    1  C   UNL     1      68.734   2.977   9.527  1.00  0.00     0.067 A 
HETATM    2  C   UNL     1      67.687   2.831   8.594  1.00  0.00     0.043 A 
HETATM    3  C   UNL     1      69.490   4.161   9.550  1.00  0.00     0.021 A 
HETATM    4  C   UNL     1      67.396   3.906   7.741  1.00  0.00     0.037 A 
HETATM    5  C   UNL     1      69.207   5.204   8.664  1.00  0.00     0.008 A 
HETATM    6  C   UNL     1      68.160   5.083   7.750  1.00  0.00    -0.060 A 
HETATM    7  C   UNL     1      67.840   6.187   6.786  1.00  0.00     0.048 C 
ENDROOT
BRANCH   1   8
HETATM    8  C   UNL     1      69.075   1.855  10.446  1.00  0.00     0.211 C 
HETATM    9  O   UNL     1      70.185   1.398  10.651  1.00  0.00    -0.644 OA
HETATM   10  O   UNL     1      68.009   1.380  11.120  1.00  0.00    -0.644 OA
ENDBRANCH   1   8
BRANCH   2  11
HETATM   11  N   UNL     1      66.781   1.754   8.626  1.00  0.00    -0.398 N 
HETATM   12  H   UNL     1      65.812   1.927   8.634  1.00  0.00     0.156 HD
HETATM   13  H   UNL     1      67.116   0.829   8.642  1.00  0.00     0.156 HD
ENDBRANCH   2  11
TORSDOF 2
ENDMDL
MODEL 8
REMARK VINA RESULT:      -4.4      2.893      3.506
REMARK  2 active torsions:
REMARK  status: ('A' for Active; 'I' for Inactive)
REMARK    1  A    between atoms: C_1  and  C_3 
REMARK    2  A    between atoms: C_2  and  N_7 
ROOT
HETATM    1  C   UNL     1      63.842   8.455   4.563  1.00  0.00     0.067 A 
HETATM    2  C   UNL     1      63.891   7.493   3.532  1.00  0.00     0.043 A 
HETATM    3  C   UNL     1      62.974   9.555   4.453  1.00  0.00     0.021 A 
HETATM    4  C   UNL     1      63.022   7.640   2.439  1.00  0.00     0.037 A 
HETATM    5  C   UNL     1      62.147   9.700   3.337  1.00  0.00     0.008 A 
HETATM    6  C   UNL     1      62.167   8.746   2.320  1.00  0.00    -0.060 A 
HETATM    7  C   UNL     1      61.291   8.883   1.109  1.00  0.00     0.048 C 
ENDROOT
BRANCH   1   8
HETATM    8  C   UNL     1      64.752   8.335   5.736  1.00  0.00     0.211 C 
HETATM    9  O   UNL     1      65.718   9.037   5.979  1.00  0.00    -0.644 OA
HETATM   10  O   UNL     1      64.382   7.366   6.596  1.00  0.00    -0.644 OA
ENDBRANCH   1   8
BRANCH   2  11
HETATM   11  N   UNL     1      64.601   6.284   3.650  1.00  0.00    -0.398 N 
HETATM   12  H   UNL     1      64.137   5.426   3.513  1.00  0.00     0.156 HD
HETATM   13  H   UNL     1      65.560   6.296   3.869  1.00  0.00     0.156 HD
ENDBRANCH   2  11
TORSDOF 2
ENDMDL
MODEL 9
REMARK VINA RESULT:      -4.3     10.283     11.428
REMARK  2 active torsions:
REMARK  status: ('A' for Active; 'I' for Inactive)
REMARK    1  A    between atoms: C_1  and  C_3 
REMARK    2  A    between atoms: C_2  and  N_7 
ROOT
HETATM    1  C   UNL     1      68.035   2.524   9.440  1.00  0.00     0.067 A 
HETATM    2  C   UNL     1      68.930   3.590   9.669  1.00  0.00     0.043 A 
HETATM    3  C   UNL     1      67.137   2.585   8.360  1.00  0.00     0.021 A 
HETATM    4  C   UNL     1      68.930   4.668   8.770  1.00  0.00     0.037 A 
HETATM    5  C   UNL     1      67.129   3.686   7.501  1.00  0.00     0.008 A 
HETATM    6  C   UNL     1      68.023   4.739   7.702  1.00  0.00    -0.060 A 
HETATM    7  C   UNL     1      68.031   5.934   6.796  1.00  0.00     0.048 C 
ENDROOT
BRANCH   1   8
HETATM    8  C   UNL     1      68.002   1.365  10.374  1.00  0.00     0.211 C 
HETATM    9  O   UNL     1      67.116   1.099  11.167  1.00  0.00    -0.644 OA
HETATM   10  O   UNL     1      69.065   0.547  10.241  1.00  0.00    -0.644 OA
ENDBRANCH   1   8
BRANCH   2  11
HETATM   11  N   UNL     1      69.968   3.524  10.617  1.00  0.00    -0.398 N 
HETATM   12  H   UNL     1      70.885   3.774  10.360  1.00  0.00     0.156 HD
HETATM   13  H   UNL     1      69.777   3.227  11.535  1.00  0.00     0.156 HD
ENDBRANCH   2  11
TORSDOF 2
ENDMDL
