MODEL 1
REMARK VINA RESULT:      -4.8      0.000      0.000
REMARK  4 active torsions:
REMARK  status: ('A' for Active; 'I' for Inactive)
REMARK    1  A    between atoms: C_1  and  C_4 
REMARK    2  A    between atoms: C_1  and  O_6 
REMARK    3  A    between atoms: S_2  and  C_4 
REMARK    4  A    between atoms: S_2  and  C_5 
ROOT
HETATM    1  C   UNL     1      62.517   9.226   3.881  1.00  0.00     0.001 A 
HETATM    2  C   UNL     1      62.274  10.558   4.233  1.00  0.00     0.018 A 
HETATM    3  C   UNL     1      62.409   8.838   2.543  1.00  0.00     0.018 A 
HETATM    4  C   UNL     1      61.911  11.488   3.255  1.00  0.00     0.001 A 
HETATM    5  C   UNL     1      62.049   9.768   1.565  1.00  0.00     0.001 A 
HETATM    6  C   UNL     1      61.800  11.093   1.922  1.00  0.00     0.000 A 
ENDROOT
BRANCH   1   7
HETATM    7  S   UNL     1      62.983   8.035   5.121  1.00  0.00    -0.120 SA
BRANCH   7   8
HETATM    8  C   UNL     1      64.750   7.867   4.702  1.00  0.00     0.190 C 
BRANCH   8   9
HETATM    9  C   UNL     1      65.621   7.926   5.942  1.00  0.00     0.268 C 
HETATM   10  O   UNL     1      66.690   8.506   6.050  1.00  0.00    -0.264 OA
BRANCH   9  11
HETATM   11  O   UNL     1      64.992   7.283   6.976  1.00  0.00    -0.326 OA
HETATM   12  C   UNL     1      65.883   6.575   7.843  1.00  0.00     0.213 C 
ENDBRANCH   9  11
ENDBRANCH   8   9
ENDBRANCH   7   8
ENDBRANCH   1   7
TORSDOF 4
ENDMDL
MODEL 2
REMARK VINA RESULT:      -4.3      2.615      6.797
REMARK  4 active torsions:
REMARK  status: ('A' for Active; 'I' for Inactive)
REMARK    1  A    between atoms: C_1  and  C_4 
REMARK    2  A    between atoms: C_1  and  O_6 
REMARK    3  A    between atoms: S_2  and  C_4 
REMARK    4  A    between atoms: S_2  and  C_5 
ROOT
HETATM    1  C   UNL     1      66.297   6.152   7.445  1.00  0.00     0.001 A 
HETATM    2  C   UNL     1      67.134   5.309   6.707  1.00  0.00     0.018 A 
HETATM    3  C   UNL     1      66.670   6.533   8.737  1.00  0.00     0.018 A 
HETATM    4  C   UNL     1      68.327   4.842   7.264  1.00  0.00     0.001 A 
HETATM    5  C   UNL     1      67.864   6.068   9.292  1.00  0.00     0.001 A 
HETATM    6  C   UNL     1      68.691   5.221   8.556  1.00  0.00     0.000 A 
ENDROOT
BRANCH   1   7
HETATM    7  S   UNL     1      64.776   6.755   6.741  1.00  0.00    -0.120 SA
BRANCH   7   8
HETATM    8  C   UNL     1      65.472   7.890   5.494  1.00  0.00     0.190 C 
BRANCH   8   9
HETATM    9  C   UNL     1      64.406   8.803   4.921  1.00  0.00     0.268 C 
HETATM   10  O   UNL     1      63.696   8.571   3.954  1.00  0.00    -0.264 OA
BRANCH   9  11
HETATM   11  O   UNL     1      64.291   9.924   5.701  1.00  0.00    -0.326 OA
HETATM   12  C   UNL     1      63.069  10.641   5.507  1.00  0.00     0.213 C 
ENDBRANCH   9  11
ENDBRANCH   8   9
ENDBRANCH   7   8
ENDBRANCH   1   7
TORSDOF 4
ENDMDL
MODEL 3
REMARK VINA RESULT:      -4.3      3.094      7.617
REMARK  4 active torsions:
REMARK  status: ('A' for Active; 'I' for Inactive)
REMARK    1  A    between atoms: C_1  and  C_4 
REMARK    2  A    between atoms: C_1  and  O_6 
REMARK    3  A    between atoms: S_2  and  C_4 
REMARK    4  A    between atoms: S_2  and  C_5 
ROOT
HETATM    1  C   UNL     1      67.546   4.853   7.477  1.00  0.00     0.001 A 
HETATM    2  C   UNL     1      68.351   5.614   8.330  1.00  0.00     0.018 A 
HETATM    3  C   UNL     1      67.835   3.499   7.286  1.00  0.00     0.018 A 
HETATM    4  C   UNL     1      69.444   5.028   8.974  1.00  0.00     0.001 A 
HETATM    5  C   UNL     1      68.926   2.912   7.932  1.00  0.00     0.001 A 
HETATM    6  C   UNL     1      69.730   3.677   8.775  1.00  0.00     0.000 A 
ENDROOT
BRANCH   1   7
HETATM    7  S   UNL     1      66.150   5.592   6.655  1.00  0.00    -0.120 SA
BRANCH   7   8
HETATM    8  C   UNL     1      66.416   7.327   7.150  1.00  0.00     0.190 C 
BRANCH   8   9
HETATM    9  C   UNL     1      66.479   8.243   5.944  1.00  0.00     0.268 C 
HETATM   10  O   UNL     1      67.304   8.202   5.044  1.00  0.00    -0.264 OA
BRANCH   9  11
HETATM   11  O   UNL     1      65.410   9.101   5.962  1.00  0.00    -0.326 OA
HETATM   12  C   UNL     1      64.400   8.786   4.999  1.00  0.00     0.213 C 
ENDBRANCH   9  11
ENDBRANCH   8   9
ENDBRANCH   7   8
ENDBRANCH   1   7
TORSDOF 4
ENDMDL
MODEL 4
REMARK VINA RESULT:      -4.2      1.247      1.509
REMARK  4 active torsions:
REMARK  status: ('A' for Active; 'I' for Inactive)
REMARK    1  A    between atoms: C_1  and  C_4 
REMARK    2  A    between atoms: C_1  and  O_6 
REMARK    3  A    between atoms: S_2  and  C_4 
REMARK    4  A    between atoms: S_2  and  C_5 
ROOT
HETATM    1  C   UNL     1      62.972   8.618   3.706  1.00  0.00     0.001 A 
HETATM    2  C   UNL     1      62.958   9.552   4.747  1.00  0.00     0.018 A 
HETATM    3  C   UNL     1      62.442   8.968   2.461  1.00  0.00     0.018 A 
HETATM    4  C   UNL     1      62.405  10.820   4.546  1.00  0.00     0.001 A 
HETATM    5  C   UNL     1      61.893  10.236   2.260  1.00  0.00     0.001 A 
HETATM    6  C   UNL     1      61.873  11.161   3.302  1.00  0.00     0.000 A 
ENDROOT
BRANCH   1   7
HETATM    7  S   UNL     1      63.677   7.001   3.953  1.00  0.00    -0.120 SA
BRANCH   7   8
HETATM    8  C   UNL     1      63.596   6.933   5.774  1.00  0.00     0.190 C 
BRANCH   8   9
HETATM    9  C   UNL     1      64.890   6.412   6.367  1.00  0.00     0.268 C 
HETATM   10  O   UNL     1      65.603   5.538   5.897  1.00  0.00    -0.264 OA
BRANCH   9  11
HETATM   11  O   UNL     1      65.201   7.126   7.494  1.00  0.00    -0.326 OA
HETATM   12  C   UNL     1      66.163   6.486   8.337  1.00  0.00     0.213 C 
ENDBRANCH   9  11
ENDBRANCH   8   9
ENDBRANCH   7   8
ENDBRANCH   1   7
TORSDOF 4
ENDMDL
MODEL 5
REMARK VINA RESULT:      -4.0      3.951      7.477
REMARK  4 active torsions:
REMARK  status: ('A' for Active; 'I' for Inactive)
REMARK    1  A    between atoms: C_1  and  C_4 
REMARK    2  A    between atoms: C_1  and  O_6 
REMARK    3  A    between atoms: S_2  and  C_4 
REMARK    4  A    between atoms: S_2  and  C_5 
ROOT
HETATM    1  C   UNL     1      67.785   5.530   7.879  1.00  0.00     0.001 A 
HETATM    2  C   UNL     1      67.593   4.678   6.787  1.00  0.00     0.018 A 
HETATM    3  C   UNL     1      68.733   5.201   8.851  1.00  0.00     0.018 A 
HETATM    4  C   UNL     1      68.336   3.499   6.678  1.00  0.00     0.001 A 
HETATM    5  C   UNL     1      69.477   4.024   8.739  1.00  0.00     0.001 A 
HETATM    6  C   UNL     1      69.278   3.174   7.653  1.00  0.00     0.000 A 
ENDROOT
BRANCH   1   7
HETATM    7  S   UNL     1      66.844   7.036   8.024  1.00  0.00    -0.120 SA
BRANCH   7   8
HETATM    8  C   UNL     1      66.751   7.482   6.259  1.00  0.00     0.190 C 
BRANCH   8   9
HETATM    9  C   UNL     1      65.399   8.074   5.908  1.00  0.00     0.268 C 
HETATM   10  O   UNL     1      65.172   8.894   5.032  1.00  0.00    -0.264 OA
BRANCH   9  11
HETATM   11  O   UNL     1      64.428   7.491   6.679  1.00  0.00    -0.326 OA
HETATM   12  C   UNL     1      63.677   6.483   5.998  1.00  0.00     0.213 C 
ENDBRANCH   9  11
ENDBRANCH   8   9
ENDBRANCH   7   8
ENDBRANCH   1   7
TORSDOF 4
ENDMDL
MODEL 6
REMARK VINA RESULT:      -3.9      3.429      7.094
REMARK  4 active torsions:
REMARK  status: ('A' for Active; 'I' for Inactive)
REMARK    1  A    between atoms: C_1  and  C_4 
REMARK    2  A    between atoms: C_1  and  O_6 
REMARK    3  A    between atoms: S_2  and  C_4 
REMARK    4  A    between atoms: S_2  and  C_5 
ROOT
HETATM    1  C   UNL     1      67.003   6.489   7.337  1.00  0.00     0.001 A 
HETATM    2  C   UNL     1      67.806   5.491   6.776  1.00  0.00     0.018 A 
HETATM    3  C   UNL     1      67.073   6.737   8.711  1.00  0.00     0.018 A 
HETATM    4  C   UNL     1      68.660   4.738   7.587  1.00  0.00     0.001 A 
HETATM    5  C   UNL     1      67.929   5.986   9.520  1.00  0.00     0.001 A 
HETATM    6  C   UNL     1      68.721   4.987   8.958  1.00  0.00     0.000 A 
ENDROOT
BRANCH   1   7
HETATM    7  S   UNL     1      65.914   7.455   6.310  1.00  0.00    -0.120 SA
BRANCH   7   8
HETATM    8  C   UNL     1      64.519   6.285   6.200  1.00  0.00     0.190 C 
BRANCH   8   9
HETATM    9  C   UNL     1      63.196   7.013   6.068  1.00  0.00     0.268 C 
HETATM   10  O   UNL     1      62.686   7.747   6.902  1.00  0.00    -0.264 OA
BRANCH   9  11
HETATM   11  O   UNL     1      62.669   6.790   4.823  1.00  0.00    -0.326 OA
HETATM   12  C   UNL     1      61.255   6.989   4.749  1.00  0.00     0.213 C 
ENDBRANCH   9  11
ENDBRANCH   8   9
ENDBRANCH   7   8
ENDBRANCH   1   7
TORSDOF 4
ENDMDL
MODEL 7
REMARK VINA RESULT:      -3.8      3.387      4.233
REMARK  4 active torsions:
REMARK  status: ('A' for Active; 'I' for Inactive)
REMARK    1  A    between atoms: C_1  and  C_4 
REMARK    2  A    between atoms: C_1  and  O_6 
REMARK    3  A    between atoms: S_2  and  C_4 
REMARK    4  A    between atoms: S_2  and  C_5 
ROOT
HETATM    1  C   UNL     1      62.028   8.842   3.577  1.00  0.00     0.001 A 
HETATM    2  C   UNL     1      62.102   8.660   2.193  1.00  0.00     0.018 A 
HETATM    3  C   UNL     1      61.913  10.135   4.096  1.00  0.00     0.018 A 
HETATM    4  C   UNL     1      62.075   9.764   1.336  1.00  0.00     0.001 A 
HETATM    5  C   UNL     1      61.883  11.238   3.239  1.00  0.00     0.001 A 
HETATM    6  C   UNL     1      61.965  11.052   1.860  1.00  0.00     0.000 A 
ENDROOT
BRANCH   1   7
HETATM    7  S   UNL     1      62.058   7.440   4.675  1.00  0.00    -0.120 SA
BRANCH   7   8
HETATM    8  C   UNL     1      60.485   6.660   4.181  1.00  0.00     0.190 C 
BRANCH   8   9
HETATM    9  C   UNL     1      59.691   6.201   5.389  1.00  0.00     0.268 C 
HETATM   10  O   UNL     1      58.492   6.353   5.569  1.00  0.00    -0.264 OA
BRANCH   9  11
HETATM   11  O   UNL     1      60.510   5.508   6.241  1.00  0.00    -0.326 OA
HETATM   12  C   UNL     1      60.062   5.507   7.599  1.00  0.00     0.213 C 
ENDBRANCH   9  11
ENDBRANCH   8   9
ENDBRANCH   7   8
ENDBRANCH   1   7
TORSDOF 4
ENDMDL
MODEL 8
REMARK VINA RESULT:      -3.7      6.802      8.499
REMARK  4 active torsions:
REMARK  status: ('A' for Active; 'I' for Inactive)
REMARK    1  A    between atoms: C_1  and  C_4 
REMARK    2  A    between atoms: C_1  and  O_6 
REMARK    3  A    between atoms: S_2  and  C_4 
REMARK    4  A    between atoms: S_2  and  C_5 
ROOT
HETATM    1  C   UNL     1      67.851   4.365   8.090  1.00  0.00     0.001 A 
HETATM    2  C   UNL     1      68.168   5.374   9.005  1.00  0.00     0.018 A 
HETATM    3  C   UNL     1      66.680   4.465   7.335  1.00  0.00     0.018 A 
HETATM    4  C   UNL     1      67.312   6.465   9.172  1.00  0.00     0.001 A 
HETATM    5  C   UNL     1      65.825   5.557   7.500  1.00  0.00     0.001 A 
HETATM    6  C   UNL     1      66.141   6.556   8.419  1.00  0.00     0.000 A 
ENDROOT
BRANCH   1   7
HETATM    7  S   UNL     1      68.940   2.972   7.869  1.00  0.00    -0.120 SA
BRANCH   7   8
HETATM    8  C   UNL     1      69.366   2.667   9.615  1.00  0.00     0.190 C 
BRANCH   8   9
HETATM    9  C   UNL     1      68.510   1.565  10.209  1.00  0.00     0.268 C 
HETATM   10  O   UNL     1      67.333   1.651  10.525  1.00  0.00    -0.264 OA
BRANCH   9  11
HETATM   11  O   UNL     1      69.236   0.404  10.277  1.00  0.00    -0.326 OA
HETATM   12  C   UNL     1      68.817  -0.594   9.342  1.00  0.00     0.213 C 
ENDBRANCH   9  11
ENDBRANCH   8   9
ENDBRANCH   7   8
ENDBRANCH   1   7
TORSDOF 4
ENDMDL
MODEL 9
REMARK VINA RESULT:      -3.7      2.181      2.916
REMARK  4 active torsions:
REMARK  status: ('A' for Active; 'I' for Inactive)
REMARK    1  A    between atoms: C_1  and  C_4 
REMARK    2  A    between atoms: C_1  and  O_6 
REMARK    3  A    between atoms: S_2  and  C_4 
REMARK    4  A    between atoms: S_2  and  C_5 
ROOT
HETATM    1  C   UNL     1      65.002   7.372   4.227  1.00  0.00     0.001 A 
HETATM    2  C   UNL     1      64.874   8.516   5.021  1.00  0.00     0.018 A 
HETATM    3  C   UNL     1      63.982   7.039   3.332  1.00  0.00     0.018 A 
HETATM    4  C   UNL     1      63.729   9.311   4.929  1.00  0.00     0.001 A 
HETATM    5  C   UNL     1      62.838   7.835   3.238  1.00  0.00     0.001 A 
HETATM    6  C   UNL     1      62.712   8.970   4.038  1.00  0.00     0.000 A 
ENDROOT
BRANCH   1   7
HETATM    7  S   UNL     1      66.461   6.356   4.337  1.00  0.00    -0.120 SA
BRANCH   7   8
HETATM    8  C   UNL     1      67.370   7.302   5.603  1.00  0.00     0.190 C 
BRANCH   8   9
HETATM    9  C   UNL     1      67.450   6.541   6.912  1.00  0.00     0.268 C 
HETATM   10  O   UNL     1      68.216   5.626   7.173  1.00  0.00    -0.264 OA
BRANCH   9  11
HETATM   11  O   UNL     1      66.573   7.085   7.814  1.00  0.00    -0.326 OA
HETATM   12  C   UNL     1      66.444   6.329   9.021  1.00  0.00     0.213 C 
ENDBRANCH   9  11
ENDBRANCH   8   9
ENDBRANCH   7   8
ENDBRANCH   1   7
TORSDOF 4
ENDMDL
