MODEL 1
REMARK VINA RESULT:      -5.8      0.000      0.000
REMARK  1 active torsions:
REMARK  status: ('A' for Active; 'I' for Inactive)
REMARK       I    between atoms: C_5  and  N_6 
REMARK    1  A    between atoms: N_6  and  C_8 
ROOT
HETATM    1  C   UNL     1      67.002   6.867   7.121  1.00  0.00     0.016 A 
HETATM    2  C   UNL     1      67.474   5.760   6.432  1.00  0.00    -0.042 A 
HETATM    3  C   UNL     1      66.656   7.905   6.162  1.00  0.00     0.160 A 
HETATM    4  C   UNL     1      66.908   6.906   8.495  1.00  0.00     0.018 A 
HETATM    5  C   UNL     1      67.877   4.628   7.137  1.00  0.00     0.037 A 
HETATM    6  C   UNL     1      67.800   4.629   8.544  1.00  0.00     0.035 A 
HETATM    7  C   UNL     1      67.468   5.976   4.950  1.00  0.00     0.047 A 
HETATM    8  C   UNL     1      66.948   7.414   4.768  1.00  0.00     0.088 A 
HETATM    9  O   UNL     1      66.207   8.997   6.462  1.00  0.00    -0.292 OA
HETATM   10  C   UNL     1      67.313   5.773   9.205  1.00  0.00     0.030 A 
ENDROOT
BRANCH   6  11
HETATM   11  N   UNL     1      68.228   3.466   9.227  1.00  0.00    -0.328 N 
HETATM   12  C   UNL     1      69.493   3.225   9.745  1.00  0.00     0.218 C 
HETATM   13  O   UNL     1      70.459   3.978   9.708  1.00  0.00    -0.274 OA
HETATM   14  C   UNL     1      69.611   1.874  10.402  1.00  0.00     0.117 C 
HETATM   15  H   UNL     1      67.559   2.754   9.348  1.00  0.00     0.169 HD
ENDBRANCH   6  11
TORSDOF 1
ENDMDL
MODEL 2
REMARK VINA RESULT:      -5.7      1.878      5.583
REMARK  1 active torsions:
REMARK  status: ('A' for Active; 'I' for Inactive)
REMARK       I    between atoms: C_5  and  N_6 
REMARK    1  A    between atoms: N_6  and  C_8 
ROOT
HETATM    1  C   UNL     1      69.165   3.194   9.273  1.00  0.00     0.016 A 
HETATM    2  C   UNL     1      68.777   3.005   7.955  1.00  0.00    -0.042 A 
HETATM    3  C   UNL     1      69.567   1.911   9.832  1.00  0.00     0.160 A 
HETATM    4  C   UNL     1      69.142   4.426   9.889  1.00  0.00     0.018 A 
HETATM    5  C   UNL     1      68.341   4.093   7.201  1.00  0.00     0.037 A 
HETATM    6  C   UNL     1      68.299   5.371   7.796  1.00  0.00     0.035 A 
HETATM    7  C   UNL     1      68.902   1.575   7.531  1.00  0.00     0.047 A 
HETATM    8  C   UNL     1      69.404   0.838   8.786  1.00  0.00     0.088 A 
HETATM    9  O   UNL     1      69.965   1.752  10.972  1.00  0.00    -0.292 OA
HETATM   10  C   UNL     1      68.704   5.518   9.136  1.00  0.00     0.030 A 
ENDROOT
BRANCH   6  11
HETATM   11  N   UNL     1      67.842   6.450   7.004  1.00  0.00    -0.328 N 
HETATM   12  C   UNL     1      66.624   7.106   7.118  1.00  0.00     0.218 C 
HETATM   13  O   UNL     1      65.735   6.872   7.929  1.00  0.00    -0.274 OA
HETATM   14  C   UNL     1      66.452   8.207   6.104  1.00  0.00     0.117 C 
HETATM   15  H   UNL     1      68.450   6.770   6.299  1.00  0.00     0.169 HD
ENDBRANCH   6  11
TORSDOF 1
ENDMDL
MODEL 3
REMARK VINA RESULT:      -5.6      1.864      5.339
REMARK  1 active torsions:
REMARK  status: ('A' for Active; 'I' for Inactive)
REMARK       I    between atoms: C_5  and  N_6 
REMARK    1  A    between atoms: N_6  and  C_8 
ROOT
HETATM    1  C   UNL     1      68.262   4.827   8.680  1.00  0.00     0.016 A 
HETATM    2  C   UNL     1      67.716   4.434   7.466  1.00  0.00    -0.042 A 
HETATM    3  C   UNL     1      69.185   3.797   9.134  1.00  0.00     0.160 A 
HETATM    4  C   UNL     1      67.933   6.013   9.297  1.00  0.00     0.018 A 
HETATM    5  C   UNL     1      66.792   5.258   6.827  1.00  0.00     0.037 A 
HETATM    6  C   UNL     1      66.425   6.479   7.428  1.00  0.00     0.035 A 
HETATM    7  C   UNL     1      68.245   3.109   7.014  1.00  0.00     0.047 A 
HETATM    8  C   UNL     1      69.206   2.669   8.134  1.00  0.00     0.088 A 
HETATM    9  O   UNL     1      69.827   3.856  10.167  1.00  0.00    -0.292 OA
HETATM   10  C   UNL     1      67.005   6.840   8.659  1.00  0.00     0.030 A 
ENDROOT
BRANCH   6  11
HETATM   11  N   UNL     1      65.477   7.285   6.755  1.00  0.00    -0.328 N 
HETATM   12  C   UNL     1      65.719   8.138   5.688  1.00  0.00     0.218 C 
HETATM   13  O   UNL     1      66.795   8.339   5.135  1.00  0.00    -0.274 OA
HETATM   14  C   UNL     1      64.482   8.859   5.218  1.00  0.00     0.117 C 
HETATM   15  H   UNL     1      64.548   7.235   7.078  1.00  0.00     0.169 HD
ENDBRANCH   6  11
TORSDOF 1
ENDMDL
MODEL 4
REMARK VINA RESULT:      -5.5      4.599      6.544
REMARK  1 active torsions:
REMARK  status: ('A' for Active; 'I' for Inactive)
REMARK       I    between atoms: C_5  and  N_6 
REMARK    1  A    between atoms: N_6  and  C_8 
ROOT
HETATM    1  C   UNL     1      62.751   8.874   3.008  1.00  0.00     0.016 A 
HETATM    2  C   UNL     1      62.878   9.669   4.139  1.00  0.00    -0.042 A 
HETATM    3  C   UNL     1      61.959   9.589   2.019  1.00  0.00     0.160 A 
HETATM    4  C   UNL     1      63.310   7.619   2.913  1.00  0.00     0.018 A 
HETATM    5  C   UNL     1      63.595   9.198   5.236  1.00  0.00     0.037 A 
HETATM    6  C   UNL     1      64.179   7.916   5.180  1.00  0.00     0.035 A 
HETATM    7  C   UNL     1      62.182  10.985   3.981  1.00  0.00     0.047 A 
HETATM    8  C   UNL     1      61.547  10.926   2.579  1.00  0.00     0.088 A 
HETATM    9  O   UNL     1      61.679   9.153   0.916  1.00  0.00    -0.292 OA
HETATM   10  C   UNL     1      64.028   7.144   4.012  1.00  0.00     0.030 A 
ENDROOT
BRANCH   6  11
HETATM   11  N   UNL     1      64.891   7.467   6.317  1.00  0.00    -0.328 N 
HETATM   12  C   UNL     1      66.230   7.695   6.602  1.00  0.00     0.218 C 
HETATM   13  O   UNL     1      67.030   8.330   5.924  1.00  0.00    -0.274 OA
HETATM   14  C   UNL     1      66.672   7.060   7.895  1.00  0.00     0.117 C 
HETATM   15  H   UNL     1      64.384   6.938   6.974  1.00  0.00     0.169 HD
ENDBRANCH   6  11
TORSDOF 1
ENDMDL
MODEL 5
REMARK VINA RESULT:      -5.4      4.830      6.625
REMARK  1 active torsions:
REMARK  status: ('A' for Active; 'I' for Inactive)
REMARK       I    between atoms: C_5  and  N_6 
REMARK    1  A    between atoms: N_6  and  C_8 
ROOT
HETATM    1  C   UNL     1      62.453   9.809   3.226  1.00  0.00     0.016 A 
HETATM    2  C   UNL     1      62.800   8.485   2.999  1.00  0.00    -0.042 A 
HETATM    3  C   UNL     1      61.888  10.362   2.005  1.00  0.00     0.160 A 
HETATM    4  C   UNL     1      62.647  10.433   4.439  1.00  0.00     0.018 A 
HETATM    5  C   UNL     1      63.371   7.735   4.025  1.00  0.00     0.037 A 
HETATM    6  C   UNL     1      63.589   8.338   5.280  1.00  0.00     0.035 A 
HETATM    7  C   UNL     1      62.481   8.052   1.602  1.00  0.00     0.047 A 
HETATM    8  C   UNL     1      61.896   9.308   0.928  1.00  0.00     0.088 A 
HETATM    9  O   UNL     1      61.483  11.506   1.890  1.00  0.00    -0.292 OA
HETATM   10  C   UNL     1      63.220   9.684   5.469  1.00  0.00     0.030 A 
ENDROOT
BRANCH   6  11
HETATM   11  N   UNL     1      64.180   7.549   6.296  1.00  0.00    -0.328 N 
HETATM   12  C   UNL     1      65.532   7.454   6.591  1.00  0.00     0.218 C 
HETATM   13  O   UNL     1      66.452   8.041   6.032  1.00  0.00    -0.274 OA
HETATM   14  C   UNL     1      65.819   6.509   7.730  1.00  0.00     0.117 C 
HETATM   15  H   UNL     1      63.568   7.013   6.850  1.00  0.00     0.169 HD
ENDBRANCH   6  11
TORSDOF 1
ENDMDL
MODEL 6
REMARK VINA RESULT:      -5.4      5.401      6.997
REMARK  1 active torsions:
REMARK  status: ('A' for Active; 'I' for Inactive)
REMARK       I    between atoms: C_5  and  N_6 
REMARK    1  A    between atoms: N_6  and  C_8 
ROOT
HETATM    1  C   UNL     1      62.512   9.970   3.916  1.00  0.00     0.016 A 
HETATM    2  C   UNL     1      62.517   9.244   2.733  1.00  0.00    -0.042 A 
HETATM    3  C   UNL     1      61.980  11.298   3.649  1.00  0.00     0.160 A 
HETATM    4  C   UNL     1      62.958   9.451   5.111  1.00  0.00     0.018 A 
HETATM    5  C   UNL     1      62.989   7.934   2.730  1.00  0.00     0.037 A 
HETATM    6  C   UNL     1      63.458   7.367   3.932  1.00  0.00     0.035 A 
HETATM    7  C   UNL     1      61.976  10.038   1.585  1.00  0.00     0.047 A 
HETATM    8  C   UNL     1      61.641  11.415   2.185  1.00  0.00     0.088 A 
HETATM    9  O   UNL     1      61.845  12.167   4.492  1.00  0.00    -0.292 OA
HETATM   10  C   UNL     1      63.434   8.138   5.110  1.00  0.00     0.030 A 
ENDROOT
BRANCH   6  11
HETATM   11  N   UNL     1      63.941   6.037   3.889  1.00  0.00    -0.328 N 
HETATM   12  C   UNL     1      65.262   5.638   3.749  1.00  0.00     0.218 C 
HETATM   13  O   UNL     1      66.244   6.364   3.646  1.00  0.00    -0.274 OA
HETATM   14  C   UNL     1      65.424   4.140   3.728  1.00  0.00     0.117 C 
HETATM   15  H   UNL     1      63.269   5.322   3.966  1.00  0.00     0.169 HD
ENDBRANCH   6  11
TORSDOF 1
ENDMDL
MODEL 7
REMARK VINA RESULT:      -5.3      7.603      9.256
REMARK  1 active torsions:
REMARK  status: ('A' for Active; 'I' for Inactive)
REMARK       I    between atoms: C_5  and  N_6 
REMARK    1  A    between atoms: N_6  and  C_8 
ROOT
HETATM    1  C   UNL     1      62.265   9.833   2.939  1.00  0.00     0.016 A 
HETATM    2  C   UNL     1      62.872   8.672   3.395  1.00  0.00    -0.042 A 
HETATM    3  C   UNL     1      62.301  10.830   3.999  1.00  0.00     0.160 A 
HETATM    4  C   UNL     1      61.733   9.948   1.673  1.00  0.00     0.018 A 
HETATM    5  C   UNL     1      62.957   7.563   2.557  1.00  0.00     0.037 A 
HETATM    6  C   UNL     1      62.421   7.638   1.256  1.00  0.00     0.035 A 
HETATM    7  C   UNL     1      63.370   8.813   4.800  1.00  0.00     0.047 A 
HETATM    8  C   UNL     1      62.969  10.241   5.215  1.00  0.00     0.088 A 
HETATM    9  O   UNL     1      61.851  11.957   3.899  1.00  0.00    -0.292 OA
HETATM   10  C   UNL     1      61.815   8.837   0.832  1.00  0.00     0.030 A 
ENDROOT
BRANCH   6  11
HETATM   11  N   UNL     1      62.516   6.489   0.437  1.00  0.00    -0.328 N 
HETATM   12  C   UNL     1      63.075   6.417  -0.831  1.00  0.00     0.218 C 
HETATM   13  O   UNL     1      63.591   7.333  -1.462  1.00  0.00    -0.274 OA
HETATM   14  C   UNL     1      62.999   5.036  -1.430  1.00  0.00     0.117 C 
HETATM   15  H   UNL     1      62.148   5.653   0.804  1.00  0.00     0.169 HD
ENDBRANCH   6  11
TORSDOF 1
ENDMDL
MODEL 8
REMARK VINA RESULT:      -5.2      5.088      8.097
REMARK  1 active torsions:
REMARK  status: ('A' for Active; 'I' for Inactive)
REMARK       I    between atoms: C_5  and  N_6 
REMARK    1  A    between atoms: N_6  and  C_8 
ROOT
HETATM    1  C   UNL     1      64.765   8.294   4.923  1.00  0.00     0.016 A 
HETATM    2  C   UNL     1      64.697   7.293   3.965  1.00  0.00    -0.042 A 
HETATM    3  C   UNL     1      66.019   8.163   5.650  1.00  0.00     0.160 A 
HETATM    4  C   UNL     1      63.765   9.225   5.101  1.00  0.00     0.018 A 
HETATM    5  C   UNL     1      63.580   7.204   3.138  1.00  0.00     0.037 A 
HETATM    6  C   UNL     1      62.533   8.136   3.291  1.00  0.00     0.035 A 
HETATM    7  C   UNL     1      65.914   6.420   3.976  1.00  0.00     0.047 A 
HETATM    8  C   UNL     1      66.785   6.982   5.115  1.00  0.00     0.088 A 
HETATM    9  O   UNL     1      66.371   8.903   6.552  1.00  0.00    -0.292 OA
HETATM   10  C   UNL     1      62.643   9.137   4.274  1.00  0.00     0.030 A 
ENDROOT
BRANCH   6  11
HETATM   11  N   UNL     1      61.409   8.008   2.440  1.00  0.00    -0.328 N 
HETATM   12  C   UNL     1      61.299   8.468   1.135  1.00  0.00     0.218 C 
HETATM   13  O   UNL     1      62.157   9.057   0.487  1.00  0.00    -0.274 OA
HETATM   14  C   UNL     1      59.955   8.175   0.520  1.00  0.00     0.117 C 
HETATM   15  H   UNL     1      60.624   7.546   2.812  1.00  0.00     0.169 HD
ENDBRANCH   6  11
TORSDOF 1
ENDMDL
MODEL 9
REMARK VINA RESULT:      -5.1      2.595      5.884
REMARK  1 active torsions:
REMARK  status: ('A' for Active; 'I' for Inactive)
REMARK       I    between atoms: C_5  and  N_6 
REMARK    1  A    between atoms: N_6  and  C_8 
ROOT
HETATM    1  C   UNL     1      67.804   5.170   7.017  1.00  0.00     0.016 A 
HETATM    2  C   UNL     1      67.313   6.184   7.827  1.00  0.00    -0.042 A 
HETATM    3  C   UNL     1      68.702   4.337   7.802  1.00  0.00     0.160 A 
HETATM    4  C   UNL     1      67.457   5.040   5.690  1.00  0.00     0.018 A 
HETATM    5  C   UNL     1      66.429   7.122   7.298  1.00  0.00     0.037 A 
HETATM    6  C   UNL     1      66.051   7.027   5.943  1.00  0.00     0.035 A 
HETATM    7  C   UNL     1      67.842   6.094   9.224  1.00  0.00     0.047 A 
HETATM    8  C   UNL     1      68.788   4.879   9.206  1.00  0.00     0.088 A 
HETATM    9  O   UNL     1      69.287   3.359   7.371  1.00  0.00    -0.292 OA
HETATM   10  C   UNL     1      66.573   5.981   5.157  1.00  0.00     0.030 A 
ENDROOT
BRANCH   6  11
HETATM   11  N   UNL     1      65.161   8.003   5.437  1.00  0.00    -0.328 N 
HETATM   12  C   UNL     1      63.834   8.183   5.799  1.00  0.00     0.218 C 
HETATM   13  O   UNL     1      63.201   7.535   6.624  1.00  0.00    -0.274 OA
HETATM   14  C   UNL     1      63.169   9.312   5.053  1.00  0.00     0.117 C 
HETATM   15  H   UNL     1      65.521   8.619   4.758  1.00  0.00     0.169 HD
ENDBRANCH   6  11
TORSDOF 1
ENDMDL
