MODEL 1
REMARK VINA RESULT:      -5.7      0.000      0.000
REMARK  3 active torsions:
REMARK  status: ('A' for Active; 'I' for Inactive)
REMARK    1  A    between atoms: C_1  and  C_2 
REMARK    2  A    between atoms: C_8  and  C_10 
REMARK    3  A    between atoms: C_10  and  C_11 
ROOT
HETATM    1  C   UNL     1      75.204   2.421  17.486  1.00  0.00     0.009 A 
HETATM    2  C   UNL     1      76.437   2.744  18.066  1.00  0.00     0.015 A 
HETATM    3  C   UNL     1      74.505   3.401  16.771  1.00  0.00     0.015 A 
HETATM    4  C   UNL     1      75.050   4.674  16.600  1.00  0.00     0.008 A 
HETATM    5  C   UNL     1      76.980   4.021  17.893  1.00  0.00     0.008 A 
HETATM    6  C   UNL     1      76.301   4.992  17.143  1.00  0.00    -0.058 A 
ENDROOT
BRANCH   1   7
HETATM    7  C   UNL     1      74.593   1.069  17.608  1.00  0.00     0.155 C 
HETATM    8  O   UNL     1      74.392   0.596  18.726  1.00  0.00    -0.293 OA
HETATM    9  C   UNL     1      74.162   0.324  16.369  1.00  0.00     0.096 C 
ENDBRANCH   1   7
BRANCH   6  10
HETATM   10  C   UNL     1      76.889   6.367  16.942  1.00  0.00     0.038 C 
BRANCH  10  11
HETATM   11  C   UNL     1      76.485   7.401  18.000  1.00  0.00     0.000 C 
HETATM   12  C   UNL     1      77.195   8.739  17.847  1.00  0.00     0.005 C 
ENDBRANCH  10  11
ENDBRANCH   6  10
TORSDOF 3
ENDMDL
MODEL 2
REMARK VINA RESULT:      -5.7      3.988      6.717
REMARK  3 active torsions:
REMARK  status: ('A' for Active; 'I' for Inactive)
REMARK    1  A    between atoms: C_1  and  C_2 
REMARK    2  A    between atoms: C_8  and  C_10 
REMARK    3  A    between atoms: C_10  and  C_11 
ROOT
HETATM    1  C   UNL     1      77.427   8.853  15.451  1.00  0.00     0.009 A 
HETATM    2  C   UNL     1      77.460   8.990  16.844  1.00  0.00     0.015 A 
HETATM    3  C   UNL     1      77.145   7.601  14.892  1.00  0.00     0.015 A 
HETATM    4  C   UNL     1      76.855   6.510  15.713  1.00  0.00     0.008 A 
HETATM    5  C   UNL     1      77.170   7.895  17.663  1.00  0.00     0.008 A 
HETATM    6  C   UNL     1      76.847   6.650  17.106  1.00  0.00    -0.058 A 
ENDROOT
BRANCH   1   7
HETATM    7  C   UNL     1      77.694   9.990  14.528  1.00  0.00     0.155 C 
HETATM    8  O   UNL     1      77.803  11.127  14.986  1.00  0.00    -0.293 OA
HETATM    9  C   UNL     1      77.896   9.733  13.056  1.00  0.00     0.096 C 
ENDBRANCH   1   7
BRANCH   6  10
HETATM   10  C   UNL     1      76.521   5.468  17.986  1.00  0.00     0.038 C 
BRANCH  10  11
HETATM   11  C   UNL     1      76.341   4.141  17.241  1.00  0.00     0.000 C 
HETATM   12  C   UNL     1      76.866   2.935  18.009  1.00  0.00     0.005 C 
ENDBRANCH  10  11
ENDBRANCH   6  10
TORSDOF 3
ENDMDL
MODEL 3
REMARK VINA RESULT:      -5.6      5.694      8.688
REMARK  3 active torsions:
REMARK  status: ('A' for Active; 'I' for Inactive)
REMARK    1  A    between atoms: C_1  and  C_2 
REMARK    2  A    between atoms: C_8  and  C_10 
REMARK    3  A    between atoms: C_10  and  C_11 
ROOT
HETATM    1  C   UNL     1      77.807  10.567  18.625  1.00  0.00     0.009 A 
HETATM    2  C   UNL     1      76.925  11.569  19.047  1.00  0.00     0.015 A 
HETATM    3  C   UNL     1      79.029  10.405  19.288  1.00  0.00     0.015 A 
HETATM    4  C   UNL     1      79.347  11.204  20.387  1.00  0.00     0.008 A 
HETATM    5  C   UNL     1      77.248  12.367  20.149  1.00  0.00     0.008 A 
HETATM    6  C   UNL     1      78.453  12.181  20.839  1.00  0.00    -0.058 A 
ENDROOT
BRANCH   1   7
HETATM    7  C   UNL     1      77.503   9.664  17.481  1.00  0.00     0.155 C 
HETATM    8  O   UNL     1      77.689  10.062  16.331  1.00  0.00    -0.293 OA
HETATM    9  C   UNL     1      77.038   8.253  17.739  1.00  0.00     0.096 C 
ENDBRANCH   1   7
BRANCH   6  10
HETATM   10  C   UNL     1      78.799  13.032  22.037  1.00  0.00     0.038 C 
BRANCH  10  11
HETATM   11  C   UNL     1      79.543  12.295  23.157  1.00  0.00     0.000 C 
HETATM   12  C   UNL     1      80.984  12.754  23.337  1.00  0.00     0.005 C 
ENDBRANCH  10  11
ENDBRANCH   6  10
TORSDOF 3
ENDMDL
MODEL 4
REMARK VINA RESULT:      -5.6      6.195      8.035
REMARK  3 active torsions:
REMARK  status: ('A' for Active; 'I' for Inactive)
REMARK    1  A    between atoms: C_1  and  C_2 
REMARK    2  A    between atoms: C_8  and  C_10 
REMARK    3  A    between atoms: C_10  and  C_11 
ROOT
HETATM    1  C   UNL     1      77.753  10.082  17.921  1.00  0.00     0.009 A 
HETATM    2  C   UNL     1      78.807   9.935  18.830  1.00  0.00     0.015 A 
HETATM    3  C   UNL     1      76.820  11.109  18.112  1.00  0.00     0.015 A 
HETATM    4  C   UNL     1      76.964  12.005  19.172  1.00  0.00     0.008 A 
HETATM    5  C   UNL     1      78.947  10.835  19.892  1.00  0.00     0.008 A 
HETATM    6  C   UNL     1      78.038  11.888  20.062  1.00  0.00    -0.058 A 
ENDROOT
BRANCH   1   7
HETATM    7  C   UNL     1      77.572   9.177  16.753  1.00  0.00     0.155 C 
HETATM    8  O   UNL     1      77.160   8.032  16.935  1.00  0.00    -0.293 OA
HETATM    9  C   UNL     1      77.826   9.690  15.357  1.00  0.00     0.096 C 
ENDBRANCH   1   7
BRANCH   6  10
HETATM   10  C   UNL     1      78.192  12.869  21.199  1.00  0.00     0.038 C 
BRANCH  10  11
HETATM   11  C   UNL     1      79.550  12.824  21.908  1.00  0.00     0.000 C 
HETATM   12  C   UNL     1      79.480  12.269  23.324  1.00  0.00     0.005 C 
ENDBRANCH  10  11
ENDBRANCH   6  10
TORSDOF 3
ENDMDL
MODEL 5
REMARK VINA RESULT:      -5.2      3.984      7.243
REMARK  3 active torsions:
REMARK  status: ('A' for Active; 'I' for Inactive)
REMARK    1  A    between atoms: C_1  and  C_2 
REMARK    2  A    between atoms: C_8  and  C_10 
REMARK    3  A    between atoms: C_10  and  C_11 
ROOT
HETATM    1  C   UNL     1      77.322   9.990  18.055  1.00  0.00     0.009 A 
HETATM    2  C   UNL     1      76.923   8.844  18.753  1.00  0.00     0.015 A 
HETATM    3  C   UNL     1      77.613   9.895  16.689  1.00  0.00     0.015 A 
HETATM    4  C   UNL     1      77.465   8.680  16.019  1.00  0.00     0.008 A 
HETATM    5  C   UNL     1      76.776   7.628  18.077  1.00  0.00     0.008 A 
HETATM    6  C   UNL     1      77.028   7.539  16.702  1.00  0.00    -0.058 A 
ENDROOT
BRANCH   1   7
HETATM    7  C   UNL     1      77.464  11.318  18.712  1.00  0.00     0.155 C 
HETATM    8  O   UNL     1      78.430  11.530  19.444  1.00  0.00    -0.293 OA
HETATM    9  C   UNL     1      76.465  12.410  18.424  1.00  0.00     0.096 C 
ENDBRANCH   1   7
BRANCH   6  10
HETATM   10  C   UNL     1      76.857   6.232  15.966  1.00  0.00     0.038 C 
BRANCH  10  11
HETATM   11  C   UNL     1      75.942   5.217  16.660  1.00  0.00     0.000 C 
HETATM   12  C   UNL     1      76.692   4.204  17.515  1.00  0.00     0.005 C 
ENDBRANCH  10  11
ENDBRANCH   6  10
TORSDOF 3
ENDMDL
MODEL 6
REMARK VINA RESULT:      -5.2      2.183      5.286
REMARK  3 active torsions:
REMARK  status: ('A' for Active; 'I' for Inactive)
REMARK    1  A    between atoms: C_1  and  C_2 
REMARK    2  A    between atoms: C_8  and  C_10 
REMARK    3  A    between atoms: C_10  and  C_11 
ROOT
HETATM    1  C   UNL     1      76.221   4.864  17.153  1.00  0.00     0.009 A 
HETATM    2  C   UNL     1      76.937   3.873  17.834  1.00  0.00     0.015 A 
HETATM    3  C   UNL     1      74.977   4.548  16.594  1.00  0.00     0.015 A 
HETATM    4  C   UNL     1      74.435   3.272  16.752  1.00  0.00     0.008 A 
HETATM    5  C   UNL     1      76.391   2.595  17.991  1.00  0.00     0.008 A 
HETATM    6  C   UNL     1      75.128   2.288  17.467  1.00  0.00    -0.058 A 
ENDROOT
BRANCH   1   7
HETATM    7  C   UNL     1      76.736   6.250  16.984  1.00  0.00     0.155 C 
HETATM    8  O   UNL     1      77.050   6.903  17.979  1.00  0.00    -0.293 OA
HETATM    9  C   UNL     1      76.934   6.816  15.600  1.00  0.00     0.096 C 
ENDBRANCH   1   7
BRANCH   6  10
HETATM   10  C   UNL     1      74.528   0.914  17.644  1.00  0.00     0.038 C 
BRANCH  10  11
HETATM   11  C   UNL     1      74.159   0.200  16.339  1.00  0.00     0.000 C 
HETATM   12  C   UNL     1      75.344  -0.019  15.408  1.00  0.00     0.005 C 
ENDBRANCH  10  11
ENDBRANCH   6  10
TORSDOF 3
ENDMDL
MODEL 7
REMARK VINA RESULT:      -5.2      3.257      6.369
REMARK  3 active torsions:
REMARK  status: ('A' for Active; 'I' for Inactive)
REMARK    1  A    between atoms: C_1  and  C_2 
REMARK    2  A    between atoms: C_8  and  C_10 
REMARK    3  A    between atoms: C_10  and  C_11 
ROOT
HETATM    1  C   UNL     1      77.172   8.238  16.987  1.00  0.00     0.009 A 
HETATM    2  C   UNL     1      76.675   7.552  18.102  1.00  0.00     0.015 A 
HETATM    3  C   UNL     1      77.189   7.601  15.741  1.00  0.00     0.015 A 
HETATM    4  C   UNL     1      76.677   6.310  15.601  1.00  0.00     0.008 A 
HETATM    5  C   UNL     1      76.163   6.258  17.957  1.00  0.00     0.008 A 
HETATM    6  C   UNL     1      76.142   5.633  16.703  1.00  0.00    -0.058 A 
ENDROOT
BRANCH   1   7
HETATM    7  C   UNL     1      77.698   9.628  17.073  1.00  0.00     0.155 C 
HETATM    8  O   UNL     1      78.052  10.204  16.045  1.00  0.00    -0.293 OA
HETATM    9  C   UNL     1      77.730  10.340  18.402  1.00  0.00     0.096 C 
ENDBRANCH   1   7
BRANCH   6  10
HETATM   10  C   UNL     1      75.578   4.242  16.540  1.00  0.00     0.038 C 
BRANCH  10  11
HETATM   11  C   UNL     1      76.088   3.217  17.559  1.00  0.00     0.000 C 
HETATM   12  C   UNL     1      75.193   1.992  17.692  1.00  0.00     0.005 C 
ENDBRANCH  10  11
ENDBRANCH   6  10
TORSDOF 3
ENDMDL
MODEL 8
REMARK VINA RESULT:      -5.1      2.246      3.753
REMARK  3 active torsions:
REMARK  status: ('A' for Active; 'I' for Inactive)
REMARK    1  A    between atoms: C_1  and  C_2 
REMARK    2  A    between atoms: C_8  and  C_10 
REMARK    3  A    between atoms: C_10  and  C_11 
ROOT
HETATM    1  C   UNL     1      76.336   5.544  16.945  1.00  0.00     0.009 A 
HETATM    2  C   UNL     1      76.483   6.465  17.989  1.00  0.00     0.015 A 
HETATM    3  C   UNL     1      76.600   5.950  15.632  1.00  0.00     0.015 A 
HETATM    4  C   UNL     1      77.048   7.245  15.369  1.00  0.00     0.008 A 
HETATM    5  C   UNL     1      76.932   7.762  17.722  1.00  0.00     0.008 A 
HETATM    6  C   UNL     1      77.236   8.159  16.412  1.00  0.00    -0.058 A 
ENDROOT
BRANCH   1   7
HETATM    7  C   UNL     1      75.895   4.141  17.172  1.00  0.00     0.155 C 
HETATM    8  O   UNL     1      74.818   3.765  16.711  1.00  0.00    -0.293 OA
HETATM    9  C   UNL     1      76.797   3.177  17.901  1.00  0.00     0.096 C 
ENDBRANCH   1   7
BRANCH   6  10
HETATM   10  C   UNL     1      77.733   9.554  16.120  1.00  0.00     0.038 C 
BRANCH  10  11
HETATM   11  C   UNL     1      78.508   9.699  14.806  1.00  0.00     0.000 C 
HETATM   12  C   UNL     1      77.649  10.174  13.641  1.00  0.00     0.005 C 
ENDBRANCH  10  11
ENDBRANCH   6  10
TORSDOF 3
ENDMDL
MODEL 9
REMARK VINA RESULT:      -5.0      2.166      5.409
REMARK  3 active torsions:
REMARK  status: ('A' for Active; 'I' for Inactive)
REMARK    1  A    between atoms: C_1  and  C_2 
REMARK    2  A    between atoms: C_8  and  C_10 
REMARK    3  A    between atoms: C_10  and  C_11 
ROOT
HETATM    1  C   UNL     1      76.406   2.705  17.696  1.00  0.00     0.009 A 
HETATM    2  C   UNL     1      77.208   1.563  17.583  1.00  0.00     0.015 A 
HETATM    3  C   UNL     1      75.183   2.754  17.016  1.00  0.00     0.015 A 
HETATM    4  C   UNL     1      74.747   1.659  16.268  1.00  0.00     0.008 A 
HETATM    5  C   UNL     1      76.767   0.468  16.833  1.00  0.00     0.008 A 
HETATM    6  C   UNL     1      75.526   0.499  16.183  1.00  0.00    -0.058 A 
ENDROOT
BRANCH   1   7
HETATM    7  C   UNL     1      76.806   3.887  18.508  1.00  0.00     0.155 C 
HETATM    8  O   UNL     1      77.131   3.729  19.684  1.00  0.00    -0.293 OA
HETATM    9  C   UNL     1      76.876   5.250  17.867  1.00  0.00     0.096 C 
ENDBRANCH   1   7
BRANCH   6  10
HETATM   10  C   UNL     1      75.040  -0.685  15.383  1.00  0.00     0.038 C 
BRANCH  10  11
HETATM   11  C   UNL     1      74.871  -0.421  13.882  1.00  0.00     0.000 C 
HETATM   12  C   UNL     1      76.163  -0.020  13.184  1.00  0.00     0.005 C 
ENDBRANCH  10  11
ENDBRANCH   6  10
TORSDOF 3
ENDMDL
