MODEL 1
REMARK VINA RESULT:      -5.9      0.000      0.000
REMARK  4 active torsions:
REMARK  status: ('A' for Active; 'I' for Inactive)
REMARK    1  A    between atoms: C_1  and  O_2 
REMARK    2  A    between atoms: O_2  and  C_6 
REMARK    3  A    between atoms: C_7  and  C_13 
REMARK    4  A    between atoms: O_12  and  C_13 
ROOT
HETATM    1  C   UNL     1      76.944   6.899  17.166  1.00  0.00     0.078 A 
HETATM    2  C   UNL     1      77.505   8.994  15.365  1.00  0.00    -0.035 A 
HETATM    3  C   UNL     1      76.842   6.686  15.794  1.00  0.00     0.037 A 
HETATM    4  C   UNL     1      77.270   8.177  17.633  1.00  0.00     0.037 A 
HETATM    5  C   UNL     1      77.137   7.723  14.898  1.00  0.00     0.012 A 
HETATM    6  C   UNL     1      77.553   9.217  16.743  1.00  0.00     0.012 A 
ENDROOT
BRANCH   1   7
HETATM    7  O   UNL     1      76.735   5.987  18.153  1.00  0.00    -0.255 OA
BRANCH   7   8
HETATM    8  C   UNL     1      76.616   4.610  17.830  1.00  0.00     0.530 C 
HETATM    9  F   UNL     1      77.578   4.158  16.999  1.00  0.00    -0.144 F 
HETATM   10  F   UNL     1      75.407   4.374  17.280  1.00  0.00    -0.144 F 
HETATM   11  F   UNL     1      76.702   3.898  18.978  1.00  0.00    -0.144 F 
ENDBRANCH   7   8
ENDBRANCH   1   7
BRANCH   2  12
HETATM   12  C   UNL     1      77.838  10.096  14.395  1.00  0.00     0.202 C 
BRANCH  12  13
HETATM   13  O   UNL     1      77.530  11.365  14.956  1.00  0.00    -0.396 OA
HETATM   14  H   UNL     1      77.035  11.242  15.781  1.00  0.00     0.209 HD
ENDBRANCH  12  13
ENDBRANCH   2  12
TORSDOF 4
ENDMDL
MODEL 2
REMARK VINA RESULT:      -5.6      3.053      5.813
REMARK  4 active torsions:
REMARK  status: ('A' for Active; 'I' for Inactive)
REMARK    1  A    between atoms: C_1  and  O_2 
REMARK    2  A    between atoms: O_2  and  C_6 
REMARK    3  A    between atoms: C_7  and  C_13 
REMARK    4  A    between atoms: O_12  and  C_13 
ROOT
HETATM    1  C   UNL     1      76.728   5.065  17.612  1.00  0.00     0.078 A 
HETATM    2  C   UNL     1      75.328   2.624  17.436  1.00  0.00    -0.035 A 
HETATM    3  C   UNL     1      75.655   4.937  16.735  1.00  0.00     0.037 A 
HETATM    4  C   UNL     1      77.133   3.951  18.356  1.00  0.00     0.037 A 
HETATM    5  C   UNL     1      74.948   3.729  16.659  1.00  0.00     0.012 A 
HETATM    6  C   UNL     1      76.439   2.741  18.275  1.00  0.00     0.012 A 
ENDROOT
BRANCH   1   7
HETATM    7  O   UNL     1      77.479   6.178  17.829  1.00  0.00    -0.255 OA
BRANCH   7   8
HETATM    8  C   UNL     1      76.876   7.461  17.770  1.00  0.00     0.530 C 
HETATM    9  F   UNL     1      77.500   8.394  18.520  1.00  0.00    -0.144 F 
HETATM   10  F   UNL     1      75.585   7.375  18.152  1.00  0.00    -0.144 F 
HETATM   11  F   UNL     1      76.908   7.883  16.485  1.00  0.00    -0.144 F 
ENDBRANCH   7   8
ENDBRANCH   1   7
BRANCH   2  12
HETATM   12  C   UNL     1      74.552   1.336  17.362  1.00  0.00     0.202 C 
BRANCH  12  13
HETATM   13  O   UNL     1      74.357   0.796  18.662  1.00  0.00    -0.396 OA
HETATM   14  H   UNL     1      75.155   0.941  19.195  1.00  0.00     0.209 HD
ENDBRANCH  12  13
ENDBRANCH   2  12
TORSDOF 4
ENDMDL
MODEL 3
REMARK VINA RESULT:      -5.3     19.578     20.603
REMARK  4 active torsions:
REMARK  status: ('A' for Active; 'I' for Inactive)
REMARK    1  A    between atoms: C_1  and  O_2 
REMARK    2  A    between atoms: O_2  and  C_6 
REMARK    3  A    between atoms: C_7  and  C_13 
REMARK    4  A    between atoms: O_12  and  C_13 
ROOT
HETATM    1  C   UNL     1      62.351   9.081   2.538  1.00  0.00     0.078 A 
HETATM    2  C   UNL     1      62.802  10.551   4.901  1.00  0.00    -0.035 A 
HETATM    3  C   UNL     1      63.121   8.537   3.563  1.00  0.00     0.037 A 
HETATM    4  C   UNL     1      61.858  10.383   2.677  1.00  0.00     0.037 A 
HETATM    5  C   UNL     1      63.331   9.261   4.744  1.00  0.00     0.012 A 
HETATM    6  C   UNL     1      62.075  11.113   3.848  1.00  0.00     0.012 A 
ENDROOT
BRANCH   1   7
HETATM    7  O   UNL     1      62.023   8.488   1.358  1.00  0.00    -0.255 OA
BRANCH   7   8
HETATM    8  C   UNL     1      60.745   7.893   1.197  1.00  0.00     0.530 C 
HETATM    9  F   UNL     1      59.834   8.702   0.616  1.00  0.00    -0.144 F 
HETATM   10  F   UNL     1      60.277   7.487   2.396  1.00  0.00    -0.144 F 
HETATM   11  F   UNL     1      60.883   6.802   0.408  1.00  0.00    -0.144 F 
ENDBRANCH   7   8
ENDBRANCH   1   7
BRANCH   2  12
HETATM   12  C   UNL     1      63.017  11.314   6.181  1.00  0.00     0.202 C 
BRANCH  12  13
HETATM   13  O   UNL     1      64.405  11.508   6.420  1.00  0.00    -0.396 OA
HETATM   14  H   UNL     1      64.918  11.030   5.749  1.00  0.00     0.209 HD
ENDBRANCH  12  13
ENDBRANCH   2  12
TORSDOF 4
ENDMDL
MODEL 4
REMARK VINA RESULT:      -5.2     11.906     13.211
REMARK  4 active torsions:
REMARK  status: ('A' for Active; 'I' for Inactive)
REMARK    1  A    between atoms: C_1  and  O_2 
REMARK    2  A    between atoms: O_2  and  C_6 
REMARK    3  A    between atoms: C_7  and  C_13 
REMARK    4  A    between atoms: O_12  and  C_13 
ROOT
HETATM    1  C   UNL     1      68.207   5.256   7.944  1.00  0.00     0.078 A 
HETATM    2  C   UNL     1      69.050   3.008   9.423  1.00  0.00    -0.035 A 
HETATM    3  C   UNL     1      69.439   5.269   8.594  1.00  0.00     0.037 A 
HETATM    4  C   UNL     1      67.377   4.139   8.086  1.00  0.00     0.037 A 
HETATM    5  C   UNL     1      69.865   4.145   9.315  1.00  0.00     0.012 A 
HETATM    6  C   UNL     1      67.792   3.021   8.814  1.00  0.00     0.012 A 
ENDROOT
BRANCH   1   7
HETATM    7  O   UNL     1      67.678   6.246   7.176  1.00  0.00    -0.255 OA
BRANCH   7   8
HETATM    8  C   UNL     1      66.736   7.148   7.734  1.00  0.00     0.530 C 
HETATM    9  F   UNL     1      65.456   6.725   7.649  1.00  0.00    -0.144 F 
HETATM   10  F   UNL     1      66.847   8.351   7.135  1.00  0.00    -0.144 F 
HETATM   11  F   UNL     1      67.027   7.303   9.047  1.00  0.00    -0.144 F 
ENDBRANCH   7   8
ENDBRANCH   1   7
BRANCH   2  12
HETATM   12  C   UNL     1      69.524   1.798  10.182  1.00  0.00     0.202 C 
BRANCH  12  13
HETATM   13  O   UNL     1      69.979   2.168  11.477  1.00  0.00    -0.396 OA
HETATM   14  H   UNL     1      70.036   1.379  12.038  1.00  0.00     0.209 HD
ENDBRANCH  12  13
ENDBRANCH   2  12
TORSDOF 4
ENDMDL
MODEL 5
REMARK VINA RESULT:      -5.2     11.917     13.226
REMARK  4 active torsions:
REMARK  status: ('A' for Active; 'I' for Inactive)
REMARK    1  A    between atoms: C_1  and  O_2 
REMARK    2  A    between atoms: O_2  and  C_6 
REMARK    3  A    between atoms: C_7  and  C_13 
REMARK    4  A    between atoms: O_12  and  C_13 
ROOT
HETATM    1  C   UNL     1      68.174   5.217   7.928  1.00  0.00     0.078 A 
HETATM    2  C   UNL     1      69.107   2.988   9.383  1.00  0.00    -0.035 A 
HETATM    3  C   UNL     1      69.421   5.258   8.547  1.00  0.00     0.037 A 
HETATM    4  C   UNL     1      67.374   4.080   8.090  1.00  0.00     0.037 A 
HETATM    5  C   UNL     1      69.892   4.144   9.256  1.00  0.00     0.012 A 
HETATM    6  C   UNL     1      67.834   2.971   8.805  1.00  0.00     0.012 A 
ENDROOT
BRANCH   1   7
HETATM    7  O   UNL     1      67.602   6.193   7.174  1.00  0.00    -0.255 OA
BRANCH   7   8
HETATM    8  C   UNL     1      66.729   7.134   7.780  1.00  0.00     0.530 C 
HETATM    9  F   UNL     1      66.958   7.324   9.097  1.00  0.00    -0.144 F 
HETATM   10  F   UNL     1      65.449   6.748   7.602  1.00  0.00    -0.144 F 
HETATM   11  F   UNL     1      66.899   8.326   7.161  1.00  0.00    -0.144 F 
ENDBRANCH   7   8
ENDBRANCH   1   7
BRANCH   2  12
HETATM   12  C   UNL     1      69.628   1.790  10.129  1.00  0.00     0.202 C 
BRANCH  12  13
HETATM   13  O   UNL     1      69.954   2.139  11.468  1.00  0.00    -0.396 OA
HETATM   14  H   UNL     1      69.801   3.087  11.601  1.00  0.00     0.209 HD
ENDBRANCH  12  13
ENDBRANCH   2  12
TORSDOF 4
ENDMDL
MODEL 6
REMARK VINA RESULT:      -5.1      3.058      6.229
REMARK  4 active torsions:
REMARK  status: ('A' for Active; 'I' for Inactive)
REMARK    1  A    between atoms: C_1  and  O_2 
REMARK    2  A    between atoms: O_2  and  C_6 
REMARK    3  A    between atoms: C_7  and  C_13 
REMARK    4  A    between atoms: O_12  and  C_13 
ROOT
HETATM    1  C   UNL     1      75.988   4.512  16.913  1.00  0.00     0.078 A 
HETATM    2  C   UNL     1      75.312   1.873  17.642  1.00  0.00    -0.035 A 
HETATM    3  C   UNL     1      76.861   3.757  17.692  1.00  0.00     0.037 A 
HETATM    4  C   UNL     1      74.753   3.962  16.551  1.00  0.00     0.037 A 
HETATM    5  C   UNL     1      76.532   2.440  18.040  1.00  0.00     0.012 A 
HETATM    6  C   UNL     1      74.416   2.653  16.906  1.00  0.00     0.012 A 
ENDROOT
BRANCH   1   7
HETATM    7  O   UNL     1      76.183   5.780  16.460  1.00  0.00    -0.255 OA
BRANCH   7   8
HETATM    8  C   UNL     1      76.685   6.775  17.339  1.00  0.00     0.530 C 
HETATM    9  F   UNL     1      75.854   7.071  18.361  1.00  0.00    -0.144 F 
HETATM   10  F   UNL     1      76.954   7.900  16.646  1.00  0.00    -0.144 F 
HETATM   11  F   UNL     1      77.843   6.322  17.873  1.00  0.00    -0.144 F 
ENDBRANCH   7   8
ENDBRANCH   1   7
BRANCH   2  12
HETATM   12  C   UNL     1      74.976   0.451  18.004  1.00  0.00     0.202 C 
BRANCH  12  13
HETATM   13  O   UNL     1      74.265   0.404  19.234  1.00  0.00    -0.396 OA
HETATM   14  H   UNL     1      74.087   1.307  19.539  1.00  0.00     0.209 HD
ENDBRANCH  12  13
ENDBRANCH   2  12
TORSDOF 4
ENDMDL
MODEL 7
REMARK VINA RESULT:      -5.0     17.460     18.297
REMARK  4 active torsions:
REMARK  status: ('A' for Active; 'I' for Inactive)
REMARK    1  A    between atoms: C_1  and  O_2 
REMARK    2  A    between atoms: O_2  and  C_6 
REMARK    3  A    between atoms: C_7  and  C_13 
REMARK    4  A    between atoms: O_12  and  C_13 
ROOT
HETATM    1  C   UNL     1      63.356   8.389   5.070  1.00  0.00     0.078 A 
HETATM    2  C   UNL     1      62.258   9.909   2.964  1.00  0.00    -0.035 A 
HETATM    3  C   UNL     1      63.177   7.815   3.814  1.00  0.00     0.037 A 
HETATM    4  C   UNL     1      62.930   9.705   5.282  1.00  0.00     0.037 A 
HETATM    5  C   UNL     1      62.647   8.575   2.763  1.00  0.00     0.012 A 
HETATM    6  C   UNL     1      62.390  10.463   4.239  1.00  0.00     0.012 A 
ENDROOT
BRANCH   1   7
HETATM    7  O   UNL     1      63.894   7.798   6.171  1.00  0.00    -0.255 OA
BRANCH   7   8
HETATM    8  C   UNL     1      65.282   7.505   6.208  1.00  0.00     0.530 C 
HETATM    9  F   UNL     1      66.070   8.541   5.848  1.00  0.00    -0.144 F 
HETATM   10  F   UNL     1      65.547   6.449   5.413  1.00  0.00    -0.144 F 
HETATM   11  F   UNL     1      65.608   7.168   7.478  1.00  0.00    -0.144 F 
ENDBRANCH   7   8
ENDBRANCH   1   7
BRANCH   2  12
HETATM   12  C   UNL     1      61.708  10.723   1.824  1.00  0.00     0.202 C 
BRANCH  12  13
HETATM   13  O   UNL     1      62.115  12.080   1.938  1.00  0.00    -0.396 OA
HETATM   14  H   UNL     1      62.996  12.188   1.546  1.00  0.00     0.209 HD
ENDBRANCH  12  13
ENDBRANCH   2  12
TORSDOF 4
ENDMDL
MODEL 8
REMARK VINA RESULT:      -5.0     13.200     14.032
REMARK  4 active torsions:
REMARK  status: ('A' for Active; 'I' for Inactive)
REMARK    1  A    between atoms: C_1  and  O_2 
REMARK    2  A    between atoms: O_2  and  C_6 
REMARK    3  A    between atoms: C_7  and  C_13 
REMARK    4  A    between atoms: O_12  and  C_13 
ROOT
HETATM    1  C   UNL     1      67.335   5.927   6.994  1.00  0.00     0.078 A 
HETATM    2  C   UNL     1      65.577   7.726   5.720  1.00  0.00    -0.035 A 
HETATM    3  C   UNL     1      65.983   5.937   7.327  1.00  0.00     0.037 A 
HETATM    4  C   UNL     1      67.812   6.858   6.065  1.00  0.00     0.037 A 
HETATM    5  C   UNL     1      65.106   6.819   6.682  1.00  0.00     0.012 A 
HETATM    6  C   UNL     1      66.943   7.748   5.428  1.00  0.00     0.012 A 
ENDROOT
BRANCH   1   7
HETATM    7  O   UNL     1      68.295   5.105   7.497  1.00  0.00    -0.255 OA
BRANCH   7   8
HETATM    8  C   UNL     1      68.888   5.397   8.753  1.00  0.00     0.530 C 
HETATM    9  F   UNL     1      68.278   6.394   9.428  1.00  0.00    -0.144 F 
HETATM   10  F   UNL     1      70.190   5.709   8.580  1.00  0.00    -0.144 F 
HETATM   11  F   UNL     1      68.821   4.284   9.520  1.00  0.00    -0.144 F 
ENDBRANCH   7   8
ENDBRANCH   1   7
BRANCH   2  12
HETATM   12  C   UNL     1      64.625   8.656   5.018  1.00  0.00     0.202 C 
BRANCH  12  13
HETATM   13  O   UNL     1      64.514   9.884   5.725  1.00  0.00    -0.396 OA
HETATM   14  H   UNL     1      63.689  10.329   5.474  1.00  0.00     0.209 HD
ENDBRANCH  12  13
ENDBRANCH   2  12
TORSDOF 4
ENDMDL
MODEL 9
REMARK VINA RESULT:      -5.0      3.715      6.793
REMARK  4 active torsions:
REMARK  status: ('A' for Active; 'I' for Inactive)
REMARK    1  A    between atoms: C_1  and  O_2 
REMARK    2  A    between atoms: O_2  and  C_6 
REMARK    3  A    between atoms: C_7  and  C_13 
REMARK    4  A    between atoms: O_12  and  C_13 
ROOT
HETATM    1  C   UNL     1      76.607   3.149  18.049  1.00  0.00     0.078 A 
HETATM    2  C   UNL     1      78.275   1.287  19.353  1.00  0.00    -0.035 A 
HETATM    3  C   UNL     1      77.243   3.494  19.239  1.00  0.00     0.037 A 
HETATM    4  C   UNL     1      76.763   1.852  17.547  1.00  0.00     0.037 A 
HETATM    5  C   UNL     1      78.085   2.574  19.878  1.00  0.00     0.012 A 
HETATM    6  C   UNL     1      77.592   0.928  18.188  1.00  0.00     0.012 A 
ENDROOT
BRANCH   1   7
HETATM    7  O   UNL     1      75.800   3.942  17.293  1.00  0.00    -0.255 OA
BRANCH   7   8
HETATM    8  C   UNL     1      76.234   5.240  16.918  1.00  0.00     0.530 C 
HETATM    9  F   UNL     1      77.571   5.345  16.760  1.00  0.00    -0.144 F 
HETATM   10  F   UNL     1      75.823   6.140  17.835  1.00  0.00    -0.144 F 
HETATM   11  F   UNL     1      75.658   5.552  15.734  1.00  0.00    -0.144 F 
ENDBRANCH   7   8
ENDBRANCH   1   7
BRANCH   2  12
HETATM   12  C   UNL     1      79.196   0.312  20.036  1.00  0.00     0.202 C 
BRANCH  12  13
HETATM   13  O   UNL     1      79.596  -0.712  19.135  1.00  0.00    -0.396 OA
HETATM   14  H   UNL     1      79.313  -1.574  19.479  1.00  0.00     0.209 HD
ENDBRANCH  12  13
ENDBRANCH   2  12
TORSDOF 4
ENDMDL
