MODEL 1
REMARK VINA RESULT:      -5.0      0.000      0.000
REMARK  3 active torsions:
REMARK  status: ('A' for Active; 'I' for Inactive)
REMARK    1  A    between atoms: C_1  and  C_2 
REMARK    2  A    between atoms: C_1  and  O_6 
REMARK    3  A    between atoms: C_5  and  N_7 
ROOT
HETATM    1  C   UNL     1      76.236   4.883  17.184  1.00  0.00     0.041 A 
HETATM    2  C   UNL     1      76.980   3.972  17.949  1.00  0.00     0.046 A 
HETATM    3  C   UNL     1      76.506   2.673  18.171  1.00  0.00     0.026 A 
HETATM    4  C   UNL     1      75.029   4.472  16.603  1.00  0.00     0.018 A 
HETATM    5  C   UNL     1      74.579   3.165  16.775  1.00  0.00     0.003 A 
HETATM    6  C   UNL     1      75.327   2.267  17.538  1.00  0.00     0.029 A 
ENDROOT
BRANCH   1   7
HETATM    7  C   UNL     1      76.685   6.279  16.932  1.00  0.00     0.293 C 
HETATM    8  O   UNL     1      76.904   6.717  15.813  1.00  0.00    -0.259 OA
BRANCH   7   9
HETATM    9  O   UNL     1      76.803   6.972  18.092  1.00  0.00    -0.323 OA
HETATM   10  C   UNL     1      77.072   8.370  17.941  1.00  0.00     0.213 C 
ENDBRANCH   7   9
ENDBRANCH   1   7
BRANCH   3  11
HETATM   11  N   UNL     1      77.312   1.728  18.816  1.00  0.00    -0.399 N 
HETATM   12  H   UNL     1      76.942   0.848  19.058  1.00  0.00     0.156 HD
HETATM   13  H   UNL     1      78.250   1.941  19.026  1.00  0.00     0.156 HD
ENDBRANCH   3  11
TORSDOF 3
ENDMDL
MODEL 2
REMARK VINA RESULT:      -4.8     18.908     20.010
REMARK  3 active torsions:
REMARK  status: ('A' for Active; 'I' for Inactive)
REMARK    1  A    between atoms: C_1  and  C_2 
REMARK    2  A    between atoms: C_1  and  O_6 
REMARK    3  A    between atoms: C_5  and  N_7 
ROOT
HETATM    1  C   UNL     1      62.844   9.459   4.197  1.00  0.00     0.041 A 
HETATM    2  C   UNL     1      62.765   8.772   2.977  1.00  0.00     0.046 A 
HETATM    3  C   UNL     1      62.169   9.370   1.859  1.00  0.00     0.026 A 
HETATM    4  C   UNL     1      62.360  10.771   4.283  1.00  0.00     0.018 A 
HETATM    5  C   UNL     1      61.816  11.391   3.160  1.00  0.00     0.003 A 
HETATM    6  C   UNL     1      61.743  10.698   1.951  1.00  0.00     0.029 A 
ENDROOT
BRANCH   1   7
HETATM    7  C   UNL     1      63.450   8.864   5.419  1.00  0.00     0.293 C 
HETATM    8  O   UNL     1      62.831   8.142   6.185  1.00  0.00    -0.259 OA
BRANCH   7   9
HETATM    9  O   UNL     1      64.751   9.225   5.546  1.00  0.00    -0.323 OA
HETATM   10  C   UNL     1      65.671   8.140   5.704  1.00  0.00     0.213 C 
ENDBRANCH   7   9
ENDBRANCH   1   7
BRANCH   3  11
HETATM   11  N   UNL     1      62.217   8.737   0.611  1.00  0.00    -0.399 N 
HETATM   12  H   UNL     1      63.053   8.319   0.302  1.00  0.00     0.156 HD
HETATM   13  H   UNL     1      61.414   8.710   0.041  1.00  0.00     0.156 HD
ENDBRANCH   3  11
TORSDOF 3
ENDMDL
MODEL 3
REMARK VINA RESULT:      -4.7      2.063      2.800
REMARK  3 active torsions:
REMARK  status: ('A' for Active; 'I' for Inactive)
REMARK    1  A    between atoms: C_1  and  C_2 
REMARK    2  A    between atoms: C_1  and  O_6 
REMARK    3  A    between atoms: C_5  and  N_7 
ROOT
HETATM    1  C   UNL     1      76.409   2.543  17.686  1.00  0.00     0.041 A 
HETATM    2  C   UNL     1      77.234   1.422  17.510  1.00  0.00     0.046 A 
HETATM    3  C   UNL     1      76.748   0.271  16.878  1.00  0.00     0.026 A 
HETATM    4  C   UNL     1      75.100   2.520  17.188  1.00  0.00     0.018 A 
HETATM    5  C   UNL     1      74.628   1.398  16.510  1.00  0.00     0.003 A 
HETATM    6  C   UNL     1      75.458   0.290  16.339  1.00  0.00     0.029 A 
ENDROOT
BRANCH   1   7
HETATM    7  C   UNL     1      76.869   3.783  18.366  1.00  0.00     0.293 C 
HETATM    8  O   UNL     1      77.033   3.860  19.574  1.00  0.00    -0.259 OA
BRANCH   7   9
HETATM    9  O   UNL     1      77.081   4.782  17.473  1.00  0.00    -0.323 OA
HETATM   10  C   UNL     1      76.362   5.992  17.732  1.00  0.00     0.213 C 
ENDBRANCH   7   9
ENDBRANCH   1   7
BRANCH   3  11
HETATM   11  N   UNL     1      77.613  -0.789  16.580  1.00  0.00    -0.399 N 
HETATM   12  H   UNL     1      77.324  -1.718  16.734  1.00  0.00     0.156 HD
HETATM   13  H   UNL     1      78.509  -0.607  16.215  1.00  0.00     0.156 HD
ENDBRANCH   3  11
TORSDOF 3
ENDMDL
MODEL 4
REMARK VINA RESULT:      -4.4      3.165      4.333
REMARK  3 active torsions:
REMARK  status: ('A' for Active; 'I' for Inactive)
REMARK    1  A    between atoms: C_1  and  C_2 
REMARK    2  A    between atoms: C_1  and  O_6 
REMARK    3  A    between atoms: C_5  and  N_7 
ROOT
HETATM    1  C   UNL     1      76.547   2.709  17.751  1.00  0.00     0.041 A 
HETATM    2  C   UNL     1      77.002   4.034  17.835  1.00  0.00     0.046 A 
HETATM    3  C   UNL     1      76.251   5.082  17.289  1.00  0.00     0.026 A 
HETATM    4  C   UNL     1      75.310   2.441  17.151  1.00  0.00     0.018 A 
HETATM    5  C   UNL     1      74.533   3.485  16.654  1.00  0.00     0.003 A 
HETATM    6  C   UNL     1      74.994   4.799  16.744  1.00  0.00     0.029 A 
ENDROOT
BRANCH   1   7
HETATM    7  C   UNL     1      77.314   1.558  18.299  1.00  0.00     0.293 C 
HETATM    8  O   UNL     1      77.467   0.510  17.691  1.00  0.00    -0.259 OA
BRANCH   7   9
HETATM    9  O   UNL     1      77.809   1.840  19.530  1.00  0.00    -0.323 OA
HETATM   10  C   UNL     1      78.816   0.938  20.002  1.00  0.00     0.213 C 
ENDBRANCH   7   9
ENDBRANCH   1   7
BRANCH   3  11
HETATM   11  N   UNL     1      76.637   6.411  17.497  1.00  0.00    -0.399 N 
HETATM   12  H   UNL     1      76.822   6.996  16.727  1.00  0.00     0.156 HD
HETATM   13  H   UNL     1      76.724   6.762  18.412  1.00  0.00     0.156 HD
ENDBRANCH   3  11
TORSDOF 3
ENDMDL
MODEL 5
REMARK VINA RESULT:      -4.4     18.428     19.540
REMARK  3 active torsions:
REMARK  status: ('A' for Active; 'I' for Inactive)
REMARK    1  A    between atoms: C_1  and  C_2 
REMARK    2  A    between atoms: C_1  and  O_6 
REMARK    3  A    between atoms: C_5  and  N_7 
ROOT
HETATM    1  C   UNL     1      62.986   8.513   4.498  1.00  0.00     0.041 A 
HETATM    2  C   UNL     1      62.498   9.794   4.202  1.00  0.00     0.046 A 
HETATM    3  C   UNL     1      62.133  10.134   2.893  1.00  0.00     0.026 A 
HETATM    4  C   UNL     1      63.068   7.554   3.480  1.00  0.00     0.018 A 
HETATM    5  C   UNL     1      62.655   7.868   2.188  1.00  0.00     0.003 A 
HETATM    6  C   UNL     1      62.171   9.146   1.904  1.00  0.00     0.029 A 
ENDROOT
BRANCH   1   7
HETATM    7  C   UNL     1      63.405   8.107   5.867  1.00  0.00     0.293 C 
HETATM    8  O   UNL     1      62.610   7.829   6.752  1.00  0.00    -0.259 OA
BRANCH   7   9
HETATM    9  O   UNL     1      64.756   8.083   5.979  1.00  0.00    -0.323 OA
HETATM   10  C   UNL     1      65.290   6.942   6.659  1.00  0.00     0.213 C 
ENDBRANCH   7   9
ENDBRANCH   1   7
BRANCH   3  11
HETATM   11  N   UNL     1      61.518  11.363   2.628  1.00  0.00    -0.399 N 
HETATM   12  H   UNL     1      62.067  12.154   2.424  1.00  0.00     0.156 HD
HETATM   13  H   UNL     1      60.537  11.436   2.644  1.00  0.00     0.156 HD
ENDBRANCH   3  11
TORSDOF 3
ENDMDL
MODEL 6
REMARK VINA RESULT:      -4.3     11.252     12.413
REMARK  3 active torsions:
REMARK  status: ('A' for Active; 'I' for Inactive)
REMARK    1  A    between atoms: C_1  and  C_2 
REMARK    2  A    between atoms: C_1  and  O_6 
REMARK    3  A    between atoms: C_5  and  N_7 
ROOT
HETATM    1  C   UNL     1      67.718   4.636   8.639  1.00  0.00     0.041 A 
HETATM    2  C   UNL     1      68.049   3.565   9.482  1.00  0.00     0.046 A 
HETATM    3  C   UNL     1      69.382   3.322   9.837  1.00  0.00     0.026 A 
HETATM    4  C   UNL     1      68.728   5.493   8.183  1.00  0.00     0.018 A 
HETATM    5  C   UNL     1      70.049   5.289   8.577  1.00  0.00     0.003 A 
HETATM    6  C   UNL     1      70.366   4.221   9.417  1.00  0.00     0.029 A 
ENDROOT
BRANCH   1   7
HETATM    7  C   UNL     1      66.321   4.927   8.217  1.00  0.00     0.293 C 
HETATM    8  O   UNL     1      65.515   4.054   7.934  1.00  0.00    -0.259 OA
BRANCH   7   9
HETATM    9  O   UNL     1      66.082   6.262   8.201  1.00  0.00    -0.323 OA
HETATM   10  C   UNL     1      65.346   6.735   7.068  1.00  0.00     0.213 C 
ENDBRANCH   7   9
ENDBRANCH   1   7
BRANCH   3  11
HETATM   11  N   UNL     1      69.692   2.341  10.787  1.00  0.00    -0.399 N 
HETATM   12  H   UNL     1      70.457   2.469  11.394  1.00  0.00     0.156 HD
HETATM   13  H   UNL     1      69.147   1.525  10.848  1.00  0.00     0.156 HD
ENDBRANCH   3  11
TORSDOF 3
ENDMDL
MODEL 7
REMARK VINA RESULT:      -4.2     10.796     11.947
REMARK  3 active torsions:
REMARK  status: ('A' for Active; 'I' for Inactive)
REMARK    1  A    between atoms: C_1  and  C_2 
REMARK    2  A    between atoms: C_1  and  O_6 
REMARK    3  A    between atoms: C_5  and  N_7 
ROOT
HETATM    1  C   UNL     1      68.985   3.120   9.609  1.00  0.00     0.041 A 
HETATM    2  C   UNL     1      67.757   3.404   8.995  1.00  0.00     0.046 A 
HETATM    3  C   UNL     1      67.577   4.591   8.274  1.00  0.00     0.026 A 
HETATM    4  C   UNL     1      70.053   4.015   9.464  1.00  0.00     0.018 A 
HETATM    5  C   UNL     1      69.897   5.172   8.703  1.00  0.00     0.003 A 
HETATM    6  C   UNL     1      68.670   5.443   8.095  1.00  0.00     0.029 A 
ENDROOT
BRANCH   1   7
HETATM    7  C   UNL     1      69.224   1.883  10.401  1.00  0.00     0.293 C 
HETATM    8  O   UNL     1      68.334   1.285  10.987  1.00  0.00    -0.259 OA
BRANCH   7   9
HETATM    9  O   UNL     1      70.531   1.525  10.370  1.00  0.00    -0.323 OA
HETATM   10  C   UNL     1      70.793   0.221   9.840  1.00  0.00     0.213 C 
ENDBRANCH   7   9
ENDBRANCH   1   7
BRANCH   3  11
HETATM   11  N   UNL     1      66.400   4.805   7.547  1.00  0.00    -0.399 N 
HETATM   12  H   UNL     1      66.420   5.347   6.726  1.00  0.00     0.156 HD
HETATM   13  H   UNL     1      65.551   4.413   7.857  1.00  0.00     0.156 HD
ENDBRANCH   3  11
TORSDOF 3
ENDMDL
MODEL 8
REMARK VINA RESULT:      -4.2     18.116     19.301
REMARK  3 active torsions:
REMARK  status: ('A' for Active; 'I' for Inactive)
REMARK    1  A    between atoms: C_1  and  C_2 
REMARK    2  A    between atoms: C_1  and  O_6 
REMARK    3  A    between atoms: C_5  and  N_7 
ROOT
HETATM    1  C   UNL     1      63.394   8.565   4.045  1.00  0.00     0.041 A 
HETATM    2  C   UNL     1      63.737   9.380   5.134  1.00  0.00     0.046 A 
HETATM    3  C   UNL     1      63.198  10.666   5.260  1.00  0.00     0.026 A 
HETATM    4  C   UNL     1      62.472   9.031   3.099  1.00  0.00     0.018 A 
HETATM    5  C   UNL     1      61.891  10.289   3.248  1.00  0.00     0.003 A 
HETATM    6  C   UNL     1      62.239  11.090   4.336  1.00  0.00     0.029 A 
ENDROOT
BRANCH   1   7
HETATM    7  C   UNL     1      63.951   7.199   3.854  1.00  0.00     0.293 C 
HETATM    8  O   UNL     1      64.150   6.709   2.753  1.00  0.00    -0.259 OA
BRANCH   7   9
HETATM    9  O   UNL     1      64.204   6.602   5.045  1.00  0.00    -0.323 OA
HETATM   10  C   UNL     1      63.196   5.691   5.496  1.00  0.00     0.213 C 
ENDBRANCH   7   9
ENDBRANCH   1   7
BRANCH   3  11
HETATM   11  N   UNL     1      63.433  11.420   6.417  1.00  0.00    -0.399 N 
HETATM   12  H   UNL     1      64.219  11.229   6.977  1.00  0.00     0.156 HD
HETATM   13  H   UNL     1      62.813  12.142   6.668  1.00  0.00     0.156 HD
ENDBRANCH   3  11
TORSDOF 3
ENDMDL
MODEL 9
REMARK VINA RESULT:      -4.2      3.203      4.671
REMARK  3 active torsions:
REMARK  status: ('A' for Active; 'I' for Inactive)
REMARK    1  A    between atoms: C_1  and  C_2 
REMARK    2  A    between atoms: C_1  and  O_6 
REMARK    3  A    between atoms: C_5  and  N_7 
ROOT
HETATM    1  C   UNL     1      75.215   2.261  17.209  1.00  0.00     0.041 A 
HETATM    2  C   UNL     1      76.204   2.209  18.203  1.00  0.00     0.046 A 
HETATM    3  C   UNL     1      76.949   3.349  18.528  1.00  0.00     0.026 A 
HETATM    4  C   UNL     1      74.946   3.477  16.568  1.00  0.00     0.018 A 
HETATM    5  C   UNL     1      75.646   4.627  16.925  1.00  0.00     0.003 A 
HETATM    6  C   UNL     1      76.627   4.564  17.916  1.00  0.00     0.029 A 
ENDROOT
BRANCH   1   7
HETATM    7  C   UNL     1      74.408   1.076  16.813  1.00  0.00     0.293 C 
HETATM    8  O   UNL     1      73.913   0.307  17.621  1.00  0.00    -0.259 OA
BRANCH   7   9
HETATM    9  O   UNL     1      74.301   0.985  15.464  1.00  0.00    -0.323 OA
HETATM   10  C   UNL     1      75.367   0.285  14.814  1.00  0.00     0.213 C 
ENDBRANCH   7   9
ENDBRANCH   1   7
BRANCH   3  11
HETATM   11  N   UNL     1      77.834   3.329  19.613  1.00  0.00    -0.399 N 
HETATM   12  H   UNL     1      78.274   4.160  19.905  1.00  0.00     0.156 HD
HETATM   13  H   UNL     1      78.016   2.484  20.084  1.00  0.00     0.156 HD
ENDBRANCH   3  11
TORSDOF 3
ENDMDL
