MODEL 1
REMARK VINA RESULT:      -5.1      0.000      0.000
REMARK  0 active torsions:
REMARK  status: ('A' for Active; 'I' for Inactive)
ROOT
HETATM    1  N   UNL     1      80.237  10.100  19.775  1.00  0.00    -0.191 NA
HETATM    2  C   UNL     1      78.139  11.635  19.821  1.00  0.00     0.056 A 
HETATM    3  C   UNL     1      79.298  10.781  19.800  1.00  0.00     0.100 C 
HETATM    4  C   UNL     1      78.018  12.641  20.807  1.00  0.00    -0.041 A 
HETATM    5  C   UNL     1      77.126  11.481  18.847  1.00  0.00    -0.041 A 
HETATM    6  C   UNL     1      75.916  13.355  19.815  1.00  0.00     0.001 A 
HETATM    7  C   UNL     1      76.894  13.485  20.795  1.00  0.00     0.008 A 
HETATM    8  C   UNL     1      76.031  12.360  18.849  1.00  0.00     0.008 A 
HETATM    9  C   UNL     1      77.141  10.400  17.797  1.00  0.00     0.050 C 
HETATM   10  C   UNL     1      79.023  12.844  21.912  1.00  0.00     0.050 C 
ENDROOT
TORSDOF 0
ENDMDL
MODEL 2
REMARK VINA RESULT:      -5.0     21.160     22.831
REMARK  0 active torsions:
REMARK  status: ('A' for Active; 'I' for Inactive)
ROOT
HETATM    1  N   UNL     1      62.963  10.922   5.830  1.00  0.00    -0.191 NA
HETATM    2  C   UNL     1      62.662   9.579   3.623  1.00  0.00     0.056 A 
HETATM    3  C   UNL     1      62.835  10.324   4.843  1.00  0.00     0.100 C 
HETATM    4  C   UNL     1      63.042   8.218   3.564  1.00  0.00    -0.041 A 
HETATM    5  C   UNL     1      62.097  10.201   2.487  1.00  0.00    -0.041 A 
HETATM    6  C   UNL     1      62.251   8.102   1.268  1.00  0.00     0.001 A 
HETATM    7  C   UNL     1      62.839   7.499   2.374  1.00  0.00     0.008 A 
HETATM    8  C   UNL     1      61.883   9.443   1.323  1.00  0.00     0.008 A 
HETATM    9  C   UNL     1      61.719  11.659   2.439  1.00  0.00     0.050 C 
HETATM   10  C   UNL     1      63.697   7.490   4.710  1.00  0.00     0.050 C 
ENDROOT
TORSDOF 0
ENDMDL
MODEL 3
REMARK VINA RESULT:      -4.9     20.895     22.429
REMARK  0 active torsions:
REMARK  status: ('A' for Active; 'I' for Inactive)
ROOT
HETATM    1  N   UNL     1      63.805   7.871   5.807  1.00  0.00    -0.191 NA
HETATM    2  C   UNL     1      62.773   9.289   3.887  1.00  0.00     0.056 A 
HETATM    3  C   UNL     1      63.338   8.503   4.952  1.00  0.00     0.100 C 
HETATM    4  C   UNL     1      62.435  10.644   4.109  1.00  0.00    -0.041 A 
HETATM    5  C   UNL     1      62.568   8.714   2.612  1.00  0.00    -0.041 A 
HETATM    6  C   UNL     1      61.743  10.847   1.787  1.00  0.00     0.001 A 
HETATM    7  C   UNL     1      61.911  11.405   3.050  1.00  0.00     0.008 A 
HETATM    8  C   UNL     1      62.068   9.512   1.570  1.00  0.00     0.008 A 
HETATM    9  C   UNL     1      62.842   7.265   2.301  1.00  0.00     0.050 C 
HETATM   10  C   UNL     1      62.572  11.324   5.447  1.00  0.00     0.050 C 
ENDROOT
TORSDOF 0
ENDMDL
MODEL 4
REMARK VINA RESULT:      -4.8     21.332     22.946
REMARK  0 active torsions:
REMARK  status: ('A' for Active; 'I' for Inactive)
ROOT
HETATM    1  N   UNL     1      63.668   6.173   2.687  1.00  0.00    -0.191 NA
HETATM    2  C   UNL     1      62.745   8.598   2.874  1.00  0.00     0.056 A 
HETATM    3  C   UNL     1      63.250   7.253   2.772  1.00  0.00     0.100 C 
HETATM    4  C   UNL     1      62.729   9.255   4.126  1.00  0.00    -0.041 A 
HETATM    5  C   UNL     1      62.277   9.269   1.721  1.00  0.00    -0.041 A 
HETATM    6  C   UNL     1      61.832  11.249   3.061  1.00  0.00     0.001 A 
HETATM    7  C   UNL     1      62.259  10.578   4.201  1.00  0.00     0.008 A 
HETATM    8  C   UNL     1      61.841  10.600   1.830  1.00  0.00     0.008 A 
HETATM    9  C   UNL     1      62.201   8.627   0.360  1.00  0.00     0.050 C 
HETATM   10  C   UNL     1      63.159   8.599   5.413  1.00  0.00     0.050 C 
ENDROOT
TORSDOF 0
ENDMDL
MODEL 5
REMARK VINA RESULT:      -4.7     21.378     23.127
REMARK  0 active torsions:
REMARK  status: ('A' for Active; 'I' for Inactive)
ROOT
HETATM    1  N   UNL     1      63.085   6.122   2.985  1.00  0.00    -0.191 NA
HETATM    2  C   UNL     1      62.553   8.667   2.981  1.00  0.00     0.056 A 
HETATM    3  C   UNL     1      62.854   7.259   2.981  1.00  0.00     0.100 C 
HETATM    4  C   UNL     1      62.203   9.316   1.774  1.00  0.00    -0.041 A 
HETATM    5  C   UNL     1      62.591   9.402   4.188  1.00  0.00    -0.041 A 
HETATM    6  C   UNL     1      61.888  11.398   2.990  1.00  0.00     0.001 A 
HETATM    7  C   UNL     1      61.884  10.685   1.797  1.00  0.00     0.008 A 
HETATM    8  C   UNL     1      62.239  10.762   4.177  1.00  0.00     0.008 A 
HETATM    9  C   UNL     1      63.011   8.808   5.508  1.00  0.00     0.050 C 
HETATM   10  C   UNL     1      62.186   8.624   0.435  1.00  0.00     0.050 C 
ENDROOT
TORSDOF 0
ENDMDL
MODEL 6
REMARK VINA RESULT:      -4.1     16.088     18.213
REMARK  0 active torsions:
REMARK  status: ('A' for Active; 'I' for Inactive)
ROOT
HETATM    1  N   UNL     1      66.458   8.595   6.617  1.00  0.00    -0.191 NA
HETATM    2  C   UNL     1      67.296   6.137   6.748  1.00  0.00     0.056 A 
HETATM    3  C   UNL     1      66.825   7.496   6.676  1.00  0.00     0.100 C 
HETATM    4  C   UNL     1      67.387   5.356   5.572  1.00  0.00    -0.041 A 
HETATM    5  C   UNL     1      67.682   5.585   7.990  1.00  0.00    -0.041 A 
HETATM    6  C   UNL     1      68.288   3.511   6.875  1.00  0.00     0.001 A 
HETATM    7  C   UNL     1      67.876   4.041   5.657  1.00  0.00     0.008 A 
HETATM    8  C   UNL     1      68.192   4.276   8.032  1.00  0.00     0.008 A 
HETATM    9  C   UNL     1      67.563   6.321   9.300  1.00  0.00     0.050 C 
HETATM   10  C   UNL     1      66.950   5.845   4.215  1.00  0.00     0.050 C 
ENDROOT
TORSDOF 0
ENDMDL
MODEL 7
REMARK VINA RESULT:      -4.0     16.142     17.639
REMARK  0 active torsions:
REMARK  status: ('A' for Active; 'I' for Inactive)
ROOT
HETATM    1  N   UNL     1      66.780   4.835   4.613  1.00  0.00    -0.191 NA
HETATM    2  C   UNL     1      67.894   4.663   6.957  1.00  0.00     0.056 A 
HETATM    3  C   UNL     1      67.282   4.762   5.657  1.00  0.00     0.100 C 
HETATM    4  C   UNL     1      67.707   5.693   7.907  1.00  0.00    -0.041 A 
HETATM    5  C   UNL     1      68.669   3.530   7.292  1.00  0.00    -0.041 A 
HETATM    6  C   UNL     1      69.020   4.435   9.521  1.00  0.00     0.001 A 
HETATM    7  C   UNL     1      68.287   5.566   9.181  1.00  0.00     0.008 A 
HETATM    8  C   UNL     1      69.210   3.424   8.584  1.00  0.00     0.008 A 
HETATM    9  C   UNL     1      68.971   2.414   6.324  1.00  0.00     0.050 C 
HETATM   10  C   UNL     1      66.939   6.958   7.620  1.00  0.00     0.050 C 
ENDROOT
TORSDOF 0
ENDMDL
MODEL 8
REMARK VINA RESULT:      -4.0     21.019     22.756
REMARK  0 active torsions:
REMARK  status: ('A' for Active; 'I' for Inactive)
ROOT
HETATM    1  N   UNL     1      61.286   8.577   0.637  1.00  0.00    -0.191 NA
HETATM    2  C   UNL     1      62.734   8.437   2.792  1.00  0.00     0.056 A 
HETATM    3  C   UNL     1      61.937   8.518   1.596  1.00  0.00     0.100 C 
HETATM    4  C   UNL     1      62.695   9.484   3.742  1.00  0.00    -0.041 A 
HETATM    5  C   UNL     1      63.546   7.304   3.028  1.00  0.00    -0.041 A 
HETATM    6  C   UNL     1      64.228   8.244   5.164  1.00  0.00     0.001 A 
HETATM    7  C   UNL     1      63.457   9.374   4.918  1.00  0.00     0.008 A 
HETATM    8  C   UNL     1      64.273   7.217   4.227  1.00  0.00     0.008 A 
HETATM    9  C   UNL     1      63.697   6.171   2.046  1.00  0.00     0.050 C 
HETATM   10  C   UNL     1      61.898  10.749   3.549  1.00  0.00     0.050 C 
ENDROOT
TORSDOF 0
ENDMDL
MODEL 9
REMARK VINA RESULT:      -3.8     16.093     17.826
REMARK  0 active torsions:
REMARK  status: ('A' for Active; 'I' for Inactive)
ROOT
HETATM    1  N   UNL     1      67.191   3.853   4.466  1.00  0.00    -0.191 NA
HETATM    2  C   UNL     1      68.153   4.127   6.867  1.00  0.00     0.056 A 
HETATM    3  C   UNL     1      67.615   3.973   5.540  1.00  0.00     0.100 C 
HETATM    4  C   UNL     1      68.785   3.035   7.506  1.00  0.00    -0.041 A 
HETATM    5  C   UNL     1      68.064   5.372   7.529  1.00  0.00    -0.041 A 
HETATM    6  C   UNL     1      69.273   4.447   9.424  1.00  0.00     0.001 A 
HETATM    7  C   UNL     1      69.330   3.211   8.790  1.00  0.00     0.008 A 
HETATM    8  C   UNL     1      68.645   5.520   8.799  1.00  0.00     0.008 A 
HETATM    9  C   UNL     1      67.357   6.572   6.951  1.00  0.00     0.050 C 
HETATM   10  C   UNL     1      68.880   1.659   6.897  1.00  0.00     0.050 C 
ENDROOT
TORSDOF 0
ENDMDL
