MODEL 1
REMARK VINA RESULT:      -5.1      0.000      0.000
REMARK  2 active torsions:
REMARK  status: ('A' for Active; 'I' for Inactive)
REMARK    1  A    between atoms: C_1  and  O_3 
REMARK    2  A    between atoms: O_3  and  C_6 
ROOT
HETATM    1  N   UNL     1      61.878  11.842   4.333  1.00  0.00    -0.191 NA
HETATM    2  C   UNL     1      62.042  10.912   3.661  1.00  0.00     0.102 C 
HETATM    3  C   UNL     1      62.251   9.764   2.825  1.00  0.00     0.078 A 
HETATM    4  C   UNL     1      62.636   8.515   3.338  1.00  0.00     0.099 A 
HETATM    5  C   UNL     1      61.976   9.898   1.455  1.00  0.00     0.025 A 
HETATM    6  C   UNL     1      62.662   7.406   2.481  1.00  0.00     0.039 A 
HETATM    7  C   UNL     1      62.035   8.793   0.606  1.00  0.00     0.002 A 
HETATM    8  C   UNL     1      62.357   7.543   1.125  1.00  0.00     0.003 A 
ENDROOT
BRANCH   4   9
HETATM    9  O   UNL     1      62.868   8.233   4.653  1.00  0.00    -0.254 OA
BRANCH   9  10
HETATM   10  C   UNL     1      64.216   8.313   5.117  1.00  0.00     0.530 C 
HETATM   11  F   UNL     1      65.120   7.849   4.230  1.00  0.00    -0.144 F 
HETATM   12  F   UNL     1      64.335   7.591   6.252  1.00  0.00    -0.144 F 
HETATM   13  F   UNL     1      64.496   9.601   5.404  1.00  0.00    -0.144 F 
ENDBRANCH   9  10
ENDBRANCH   4   9
TORSDOF 2
ENDMDL
MODEL 2
REMARK VINA RESULT:      -4.7      1.842      2.930
REMARK  2 active torsions:
REMARK  status: ('A' for Active; 'I' for Inactive)
REMARK    1  A    between atoms: C_1  and  O_3 
REMARK    2  A    between atoms: O_3  and  C_6 
ROOT
HETATM    1  N   UNL     1      62.906   6.597   1.253  1.00  0.00    -0.191 NA
HETATM    2  C   UNL     1      62.644   7.614   1.744  1.00  0.00     0.102 C 
HETATM    3  C   UNL     1      62.313   8.873   2.347  1.00  0.00     0.078 A 
HETATM    4  C   UNL     1      62.363   9.084   3.734  1.00  0.00     0.099 A 
HETATM    5  C   UNL     1      62.009   9.945   1.492  1.00  0.00     0.025 A 
HETATM    6  C   UNL     1      62.183  10.382   4.233  1.00  0.00     0.039 A 
HETATM    7  C   UNL     1      61.801  11.226   2.002  1.00  0.00     0.002 A 
HETATM    8  C   UNL     1      61.910  11.447   3.372  1.00  0.00     0.003 A 
ENDROOT
BRANCH   4   9
HETATM    9  O   UNL     1      62.709   8.150   4.668  1.00  0.00    -0.254 OA
BRANCH   9  10
HETATM   10  C   UNL     1      64.090   8.048   5.016  1.00  0.00     0.530 C 
HETATM   11  F   UNL     1      64.301   7.500   6.231  1.00  0.00    -0.144 F 
HETATM   12  F   UNL     1      64.636   9.283   5.015  1.00  0.00    -0.144 F 
HETATM   13  F   UNL     1      64.717   7.307   4.080  1.00  0.00    -0.144 F 
ENDBRANCH   9  10
ENDBRANCH   4   9
TORSDOF 2
ENDMDL
MODEL 3
REMARK VINA RESULT:      -4.6      4.527      5.489
REMARK  2 active torsions:
REMARK  status: ('A' for Active; 'I' for Inactive)
REMARK    1  A    between atoms: C_1  and  O_3 
REMARK    2  A    between atoms: O_3  and  C_6 
ROOT
HETATM    1  N   UNL     1      62.960   7.527   6.783  1.00  0.00    -0.191 NA
HETATM    2  C   UNL     1      63.954   7.091   6.378  1.00  0.00     0.102 C 
HETATM    3  C   UNL     1      65.189   6.559   5.873  1.00  0.00     0.078 A 
HETATM    4  C   UNL     1      66.107   5.878   6.687  1.00  0.00     0.099 A 
HETATM    5  C   UNL     1      65.428   6.666   4.494  1.00  0.00     0.025 A 
HETATM    6  C   UNL     1      67.209   5.248   6.091  1.00  0.00     0.039 A 
HETATM    7  C   UNL     1      66.544   6.062   3.916  1.00  0.00     0.002 A 
HETATM    8  C   UNL     1      67.422   5.335   4.714  1.00  0.00     0.003 A 
ENDROOT
BRANCH   4   9
HETATM    9  O   UNL     1      65.964   5.645   8.025  1.00  0.00    -0.254 OA
BRANCH   9  10
HETATM   10  C   UNL     1      66.715   6.465   8.920  1.00  0.00     0.530 C 
HETATM   11  F   UNL     1      67.075   7.653   8.392  1.00  0.00    -0.144 F 
HETATM   12  F   UNL     1      67.840   5.810   9.278  1.00  0.00    -0.144 F 
HETATM   13  F   UNL     1      65.979   6.678  10.030  1.00  0.00    -0.144 F 
ENDBRANCH   9  10
ENDBRANCH   4   9
TORSDOF 2
ENDMDL
MODEL 4
REMARK VINA RESULT:      -4.4      5.463      6.743
REMARK  2 active torsions:
REMARK  status: ('A' for Active; 'I' for Inactive)
REMARK    1  A    between atoms: C_1  and  O_3 
REMARK    2  A    between atoms: O_3  and  C_6 
ROOT
HETATM    1  N   UNL     1      64.820   3.683   7.566  1.00  0.00    -0.191 NA
HETATM    2  C   UNL     1      65.344   4.581   7.055  1.00  0.00     0.102 C 
HETATM    3  C   UNL     1      65.987   5.699   6.426  1.00  0.00     0.078 A 
HETATM    4  C   UNL     1      67.370   5.922   6.513  1.00  0.00     0.099 A 
HETATM    5  C   UNL     1      65.196   6.544   5.632  1.00  0.00     0.025 A 
HETATM    6  C   UNL     1      67.946   6.940   5.740  1.00  0.00     0.039 A 
HETATM    7  C   UNL     1      65.775   7.574   4.891  1.00  0.00     0.002 A 
HETATM    8  C   UNL     1      67.154   7.757   4.930  1.00  0.00     0.003 A 
ENDROOT
BRANCH   4   9
HETATM    9  O   UNL     1      68.261   5.141   7.192  1.00  0.00    -0.254 OA
BRANCH   9  10
HETATM   10  C   UNL     1      68.544   5.490   8.547  1.00  0.00     0.530 C 
HETATM   11  F   UNL     1      67.891   6.593   8.968  1.00  0.00    -0.144 F 
HETATM   12  F   UNL     1      69.869   5.714   8.676  1.00  0.00    -0.144 F 
HETATM   13  F   UNL     1      68.212   4.449   9.338  1.00  0.00    -0.144 F 
ENDBRANCH   9  10
ENDBRANCH   4   9
TORSDOF 2
ENDMDL
MODEL 5
REMARK VINA RESULT:      -4.3      7.051      9.004
REMARK  2 active torsions:
REMARK  status: ('A' for Active; 'I' for Inactive)
REMARK    1  A    between atoms: C_1  and  O_3 
REMARK    2  A    between atoms: O_3  and  C_6 
ROOT
HETATM    1  N   UNL     1      67.430   3.249   5.064  1.00  0.00    -0.191 NA
HETATM    2  C   UNL     1      67.927   3.374   6.103  1.00  0.00     0.102 C 
HETATM    3  C   UNL     1      68.550   3.526   7.388  1.00  0.00     0.078 A 
HETATM    4  C   UNL     1      68.660   4.768   8.032  1.00  0.00     0.099 A 
HETATM    5  C   UNL     1      68.986   2.363   8.042  1.00  0.00     0.025 A 
HETATM    6  C   UNL     1      69.134   4.812   9.351  1.00  0.00     0.039 A 
HETATM    7  C   UNL     1      69.484   2.422   9.343  1.00  0.00     0.002 A 
HETATM    8  C   UNL     1      69.537   3.646  10.004  1.00  0.00     0.003 A 
ENDROOT
BRANCH   4   9
HETATM    9  O   UNL     1      68.217   5.962   7.539  1.00  0.00    -0.254 OA
BRANCH   9  10
HETATM   10  C   UNL     1      66.963   6.448   8.018  1.00  0.00     0.530 C 
HETATM   11  F   UNL     1      66.164   5.481   8.515  1.00  0.00    -0.144 F 
HETATM   12  F   UNL     1      66.308   7.051   7.003  1.00  0.00    -0.144 F 
HETATM   13  F   UNL     1      67.195   7.368   8.977  1.00  0.00    -0.144 F 
ENDBRANCH   9  10
ENDBRANCH   4   9
TORSDOF 2
ENDMDL
MODEL 6
REMARK VINA RESULT:      -4.2      4.472      5.777
REMARK  2 active torsions:
REMARK  status: ('A' for Active; 'I' for Inactive)
REMARK    1  A    between atoms: C_1  and  O_3 
REMARK    2  A    between atoms: O_3  and  C_6 
ROOT
HETATM    1  N   UNL     1      64.677   3.623   7.558  1.00  0.00    -0.191 NA
HETATM    2  C   UNL     1      65.166   4.541   7.047  1.00  0.00     0.102 C 
HETATM    3  C   UNL     1      65.771   5.674   6.406  1.00  0.00     0.078 A 
HETATM    4  C   UNL     1      65.189   6.951   6.423  1.00  0.00     0.099 A 
HETATM    5  C   UNL     1      67.031   5.492   5.815  1.00  0.00     0.025 A 
HETATM    6  C   UNL     1      65.917   8.038   5.917  1.00  0.00     0.039 A 
HETATM    7  C   UNL     1      67.733   6.575   5.287  1.00  0.00     0.002 A 
HETATM    8  C   UNL     1      67.183   7.851   5.358  1.00  0.00     0.003 A 
ENDROOT
BRANCH   4   9
HETATM    9  O   UNL     1      64.005   7.279   7.019  1.00  0.00    -0.254 OA
BRANCH   9  10
HETATM   10  C   UNL     1      62.856   7.399   6.180  1.00  0.00     0.530 C 
HETATM   11  F   UNL     1      61.725   6.925   6.742  1.00  0.00    -0.144 F 
HETATM   12  F   UNL     1      63.073   6.715   5.036  1.00  0.00    -0.144 F 
HETATM   13  F   UNL     1      62.686   8.700   5.868  1.00  0.00    -0.144 F 
ENDBRANCH   9  10
ENDBRANCH   4   9
TORSDOF 2
ENDMDL
MODEL 7
REMARK VINA RESULT:      -4.2      6.153      7.260
REMARK  2 active torsions:
REMARK  status: ('A' for Active; 'I' for Inactive)
REMARK    1  A    between atoms: C_1  and  O_3 
REMARK    2  A    between atoms: O_3  and  C_6 
ROOT
HETATM    1  N   UNL     1      68.443   2.328   6.701  1.00  0.00    -0.191 NA
HETATM    2  C   UNL     1      68.099   3.343   6.261  1.00  0.00     0.102 C 
HETATM    3  C   UNL     1      67.664   4.598   5.714  1.00  0.00     0.078 A 
HETATM    4  C   UNL     1      67.828   5.815   6.393  1.00  0.00     0.099 A 
HETATM    5  C   UNL     1      67.131   4.592   4.415  1.00  0.00     0.025 A 
HETATM    6  C   UNL     1      67.527   7.012   5.727  1.00  0.00     0.039 A 
HETATM    7  C   UNL     1      66.806   5.787   3.774  1.00  0.00     0.002 A 
HETATM    8  C   UNL     1      67.026   6.998   4.424  1.00  0.00     0.003 A 
ENDROOT
BRANCH   4   9
HETATM    9  O   UNL     1      68.392   5.968   7.627  1.00  0.00    -0.254 OA
BRANCH   9  10
HETATM   10  C   UNL     1      67.511   6.065   8.746  1.00  0.00     0.530 C 
HETATM   11  F   UNL     1      66.367   5.366   8.595  1.00  0.00    -0.144 F 
HETATM   12  F   UNL     1      67.185   7.362   8.939  1.00  0.00    -0.144 F 
HETATM   13  F   UNL     1      68.159   5.625   9.844  1.00  0.00    -0.144 F 
ENDBRANCH   9  10
ENDBRANCH   4   9
TORSDOF 2
ENDMDL
MODEL 8
REMARK VINA RESULT:      -4.2      9.111     10.359
REMARK  2 active torsions:
REMARK  status: ('A' for Active; 'I' for Inactive)
REMARK    1  A    between atoms: C_1  and  O_3 
REMARK    2  A    between atoms: O_3  and  C_6 
ROOT
HETATM    1  N   UNL     1      70.122   1.450  10.925  1.00  0.00    -0.191 NA
HETATM    2  C   UNL     1      69.655   2.275  10.258  1.00  0.00     0.102 C 
HETATM    3  C   UNL     1      69.084   3.296   9.427  1.00  0.00     0.078 A 
HETATM    4  C   UNL     1      67.769   3.226   8.939  1.00  0.00     0.099 A 
HETATM    5  C   UNL     1      69.860   4.438   9.171  1.00  0.00     0.025 A 
HETATM    6  C   UNL     1      67.230   4.335   8.271  1.00  0.00     0.039 A 
HETATM    7  C   UNL     1      69.323   5.523   8.478  1.00  0.00     0.002 A 
HETATM    8  C   UNL     1      68.001   5.478   8.048  1.00  0.00     0.003 A 
ENDROOT
BRANCH   4   9
HETATM    9  O   UNL     1      66.889   2.208   9.170  1.00  0.00    -0.254 OA
BRANCH   9  10
HETATM   10  C   UNL     1      66.847   1.145   8.218  1.00  0.00     0.530 C 
HETATM   11  F   UNL     1      67.707   1.305   7.191  1.00  0.00    -0.144 F 
HETATM   12  F   UNL     1      65.599   1.060   7.709  1.00  0.00    -0.144 F 
HETATM   13  F   UNL     1      67.124  -0.012   8.853  1.00  0.00    -0.144 F 
ENDBRANCH   9  10
ENDBRANCH   4   9
TORSDOF 2
ENDMDL
MODEL 9
REMARK VINA RESULT:      -4.2      3.405      4.547
REMARK  2 active torsions:
REMARK  status: ('A' for Active; 'I' for Inactive)
REMARK    1  A    between atoms: C_1  and  O_3 
REMARK    2  A    between atoms: O_3  and  C_6 
ROOT
HETATM    1  N   UNL     1      64.208   6.269   3.847  1.00  0.00    -0.191 NA
HETATM    2  C   UNL     1      63.761   7.337   3.800  1.00  0.00     0.102 C 
HETATM    3  C   UNL     1      63.216   8.663   3.744  1.00  0.00     0.078 A 
HETATM    4  C   UNL     1      62.532   9.152   2.620  1.00  0.00     0.099 A 
HETATM    5  C   UNL     1      63.311   9.456   4.899  1.00  0.00     0.025 A 
HETATM    6  C   UNL     1      61.888  10.396   2.702  1.00  0.00     0.039 A 
HETATM    7  C   UNL     1      62.693  10.705   4.958  1.00  0.00     0.002 A 
HETATM    8  C   UNL     1      61.964  11.164   3.865  1.00  0.00     0.003 A 
ENDROOT
BRANCH   4   9
HETATM    9  O   UNL     1      62.309   8.463   1.463  1.00  0.00    -0.254 OA
BRANCH   9  10
HETATM   10  C   UNL     1      61.023   7.867   1.288  1.00  0.00     0.530 C 
HETATM   11  F   UNL     1      60.110   8.701   0.750  1.00  0.00    -0.144 F 
HETATM   12  F   UNL     1      60.560   7.460   2.490  1.00  0.00    -0.144 F 
HETATM   13  F   UNL     1      61.155   6.782   0.497  1.00  0.00    -0.144 F 
ENDBRANCH   9  10
ENDBRANCH   4   9
TORSDOF 2
ENDMDL
