MODEL 1
REMARK VINA RESULT:      -5.8      0.000      0.000
REMARK  2 active torsions:
REMARK  status: ('A' for Active; 'I' for Inactive)
REMARK    1  A    between atoms: C_1  and  C_7 
REMARK    2  A    between atoms: C_4  and  N_8 
ROOT
HETATM    1  C   UNL     1      75.697   4.618  16.973  1.00  0.00     0.093 A 
HETATM    2  N   UNL     1      74.427   4.377  16.597  1.00  0.00    -0.258 N 
ATOM      3  HN  UNL     1      73.783   5.040  16.167  1.00  0.00     0.195 HD
HETATM    4  C   UNL     1      76.260   3.438  17.553  1.00  0.00     0.087 A 
HETATM    5  C   UNL     1      75.264   2.497  17.479  1.00  0.00     0.101 A 
HETATM    6  O   UNL     1      74.168   3.060  16.907  1.00  0.00    -0.240 OA
HETATM    7  C   UNL     1      75.132   1.090  17.893  1.00  0.00     0.081 C 
ENDROOT
BRANCH   1   8
HETATM    8  C   UNL     1      76.291   5.944  16.785  1.00  0.00    -0.005 A 
HETATM    9  C   UNL     1      76.519   6.776  17.893  1.00  0.00     0.014 A 
HETATM   10  C   UNL     1      77.091   8.040  17.733  1.00  0.00     0.001 A 
HETATM   11  C   UNL     1      77.440   8.489  16.461  1.00  0.00     0.000 A 
HETATM   12  C   UNL     1      77.212   7.680  15.350  1.00  0.00     0.001 A 
HETATM   13  C   UNL     1      76.633   6.418  15.510  1.00  0.00     0.014 A 
ENDBRANCH   1   8
BRANCH   4  14
HETATM   14  N   UNL     1      77.486   3.246  18.092  1.00  0.00    -0.395 N 
HETATM   15  H   UNL     1      78.191   2.806  17.565  1.00  0.00     0.156 HD
HETATM   16  H   UNL     1      77.672   3.547  19.010  1.00  0.00     0.156 HD
ENDBRANCH   4  14
TORSDOF 2
ENDMDL
MODEL 2
REMARK VINA RESULT:      -5.6      2.917      4.306
REMARK  2 active torsions:
REMARK  status: ('A' for Active; 'I' for Inactive)
REMARK    1  A    between atoms: C_1  and  C_7 
REMARK    2  A    between atoms: C_4  and  N_8 
ROOT
HETATM    1  C   UNL     1      77.459   2.208  18.741  1.00  0.00     0.093 A 
HETATM    2  N   UNL     1      78.034   2.663  19.871  1.00  0.00    -0.258 N 
ATOM      3  HN  UNL     1      77.910   3.584  20.289  1.00  0.00     0.195 HD
HETATM    4  C   UNL     1      77.901   0.873  18.480  1.00  0.00     0.087 A 
HETATM    5  C   UNL     1      78.743   0.568  19.519  1.00  0.00     0.101 A 
HETATM    6  O   UNL     1      78.822   1.639  20.350  1.00  0.00    -0.240 OA
HETATM    7  C   UNL     1      79.556  -0.603  19.888  1.00  0.00     0.081 C 
ENDROOT
BRANCH   1   8
HETATM    8  C   UNL     1      76.553   3.063  17.970  1.00  0.00    -0.005 A 
HETATM    9  C   UNL     1      75.339   2.548  17.491  1.00  0.00     0.014 A 
HETATM   10  C   UNL     1      74.459   3.351  16.761  1.00  0.00     0.001 A 
HETATM   11  C   UNL     1      74.786   4.681  16.499  1.00  0.00     0.000 A 
HETATM   12  C   UNL     1      75.992   5.204  16.960  1.00  0.00     0.001 A 
HETATM   13  C   UNL     1      76.875   4.398  17.684  1.00  0.00     0.014 A 
ENDBRANCH   1   8
BRANCH   4  14
HETATM   14  N   UNL     1      77.604   0.058  17.442  1.00  0.00    -0.395 N 
HETATM   15  H   UNL     1      77.522   0.429  16.534  1.00  0.00     0.156 HD
HETATM   16  H   UNL     1      77.471  -0.905  17.594  1.00  0.00     0.156 HD
ENDBRANCH   4  14
TORSDOF 2
ENDMDL
MODEL 3
REMARK VINA RESULT:      -5.5     17.349     18.291
REMARK  2 active torsions:
REMARK  status: ('A' for Active; 'I' for Inactive)
REMARK    1  A    between atoms: C_1  and  C_7 
REMARK    2  A    between atoms: C_4  and  N_8 
ROOT
HETATM    1  C   UNL     1      63.439   8.289   5.145  1.00  0.00     0.093 A 
HETATM    2  N   UNL     1      62.720   8.056   6.259  1.00  0.00    -0.258 N 
ATOM      3  HN  UNL     1      61.768   8.370   6.447  1.00  0.00     0.195 HD
HETATM    4  C   UNL     1      64.734   7.696   5.275  1.00  0.00     0.087 A 
HETATM    5  C   UNL     1      64.726   7.093   6.508  1.00  0.00     0.101 A 
HETATM    6  O   UNL     1      63.521   7.309   7.095  1.00  0.00    -0.240 OA
HETATM    7  C   UNL     1      65.706   6.326   7.295  1.00  0.00     0.081 C 
ENDROOT
BRANCH   1   8
HETATM    8  C   UNL     1      62.873   9.071   4.044  1.00  0.00    -0.005 A 
HETATM    9  C   UNL     1      62.435  10.386   4.268  1.00  0.00     0.014 A 
HETATM   10  C   UNL     1      61.899  11.149   3.227  1.00  0.00     0.001 A 
HETATM   11  C   UNL     1      61.793  10.604   1.949  1.00  0.00     0.000 A 
HETATM   12  C   UNL     1      62.214   9.297   1.712  1.00  0.00     0.001 A 
HETATM   13  C   UNL     1      62.743   8.532   2.755  1.00  0.00     0.014 A 
ENDBRANCH   1   8
BRANCH   4  14
HETATM   14  N   UNL     1      65.778   7.717   4.416  1.00  0.00    -0.395 N 
HETATM   15  H   UNL     1      66.611   8.180   4.665  1.00  0.00     0.156 HD
HETATM   16  H   UNL     1      65.706   7.270   3.543  1.00  0.00     0.156 HD
ENDBRANCH   4  14
TORSDOF 2
ENDMDL
MODEL 4
REMARK VINA RESULT:      -5.3     13.216     14.446
REMARK  2 active torsions:
REMARK  status: ('A' for Active; 'I' for Inactive)
REMARK    1  A    between atoms: C_1  and  C_7 
REMARK    2  A    between atoms: C_4  and  N_8 
ROOT
HETATM    1  C   UNL     1      66.685   6.982   6.789  1.00  0.00     0.093 A 
HETATM    2  N   UNL     1      66.913   8.280   7.065  1.00  0.00    -0.258 N 
ATOM      3  HN  UNL     1      67.627   8.653   7.691  1.00  0.00     0.195 HD
HETATM    4  C   UNL     1      65.586   6.870   5.880  1.00  0.00     0.087 A 
HETATM    5  C   UNL     1      65.201   8.162   5.628  1.00  0.00     0.101 A 
HETATM    6  O   UNL     1      65.995   9.005   6.338  1.00  0.00    -0.240 OA
HETATM    7  C   UNL     1      64.146   8.792   4.816  1.00  0.00     0.081 C 
ENDROOT
BRANCH   1   8
HETATM    8  C   UNL     1      67.496   5.934   7.412  1.00  0.00    -0.005 A 
HETATM    9  C   UNL     1      67.850   6.032   8.767  1.00  0.00     0.014 A 
HETATM   10  C   UNL     1      68.617   5.038   9.380  1.00  0.00     0.001 A 
HETATM   11  C   UNL     1      69.040   3.933   8.644  1.00  0.00     0.000 A 
HETATM   12  C   UNL     1      68.705   3.825   7.296  1.00  0.00     0.001 A 
HETATM   13  C   UNL     1      67.943   4.824   6.681  1.00  0.00     0.014 A 
ENDBRANCH   1   8
BRANCH   4  14
HETATM   14  N   UNL     1      65.002   5.761   5.371  1.00  0.00    -0.395 N 
HETATM   15  H   UNL     1      65.545   5.098   4.887  1.00  0.00     0.156 HD
HETATM   16  H   UNL     1      64.036   5.617   5.486  1.00  0.00     0.156 HD
ENDBRANCH   4  14
TORSDOF 2
ENDMDL
MODEL 5
REMARK VINA RESULT:      -5.3     13.245     14.533
REMARK  2 active torsions:
REMARK  status: ('A' for Active; 'I' for Inactive)
REMARK    1  A    between atoms: C_1  and  C_7 
REMARK    2  A    between atoms: C_4  and  N_8 
ROOT
HETATM    1  C   UNL     1      66.652   7.022   6.790  1.00  0.00     0.093 A 
HETATM    2  N   UNL     1      66.889   8.322   7.048  1.00  0.00    -0.258 N 
ATOM      3  HN  UNL     1      67.609   8.699   7.664  1.00  0.00     0.195 HD
HETATM    4  C   UNL     1      65.547   6.903   5.889  1.00  0.00     0.087 A 
HETATM    5  C   UNL     1      65.167   8.194   5.623  1.00  0.00     0.101 A 
HETATM    6  O   UNL     1      65.970   9.042   6.316  1.00  0.00    -0.240 OA
HETATM    7  C   UNL     1      64.110   8.819   4.809  1.00  0.00     0.081 C 
ENDROOT
BRANCH   1   8
HETATM    8  C   UNL     1      67.461   5.977   7.422  1.00  0.00    -0.005 A 
HETATM    9  C   UNL     1      67.890   4.870   6.673  1.00  0.00     0.014 A 
HETATM   10  C   UNL     1      68.668   3.868   7.258  1.00  0.00     0.001 A 
HETATM   11  C   UNL     1      69.026   3.962   8.602  1.00  0.00     0.000 A 
HETATM   12  C   UNL     1      68.601   5.049   9.361  1.00  0.00     0.001 A 
HETATM   13  C   UNL     1      67.816   6.048   8.778  1.00  0.00     0.014 A 
ENDBRANCH   1   8
BRANCH   4  14
HETATM   14  N   UNL     1      64.954   5.791   5.399  1.00  0.00    -0.395 N 
HETATM   15  H   UNL     1      63.994   5.637   5.553  1.00  0.00     0.156 HD
HETATM   16  H   UNL     1      65.481   5.136   4.888  1.00  0.00     0.156 HD
ENDBRANCH   4  14
TORSDOF 2
ENDMDL
MODEL 6
REMARK VINA RESULT:      -5.2      1.597      5.589
REMARK  2 active torsions:
REMARK  status: ('A' for Active; 'I' for Inactive)
REMARK    1  A    between atoms: C_1  and  C_7 
REMARK    2  A    between atoms: C_4  and  N_8 
ROOT
HETATM    1  C   UNL     1      75.149   2.917  17.100  1.00  0.00     0.093 A 
HETATM    2  N   UNL     1      74.351   3.897  16.635  1.00  0.00    -0.258 N 
ATOM      3  HN  UNL     1      73.417   3.786  16.240  1.00  0.00     0.195 HD
HETATM    4  C   UNL     1      76.385   3.478  17.553  1.00  0.00     0.087 A 
HETATM    5  C   UNL     1      76.259   4.828  17.345  1.00  0.00     0.101 A 
HETATM    6  O   UNL     1      75.042   5.078  16.796  1.00  0.00    -0.240 OA
HETATM    7  C   UNL     1      77.130   5.997  17.557  1.00  0.00     0.081 C 
ENDROOT
BRANCH   1   8
HETATM    8  C   UNL     1      74.709   1.521  17.068  1.00  0.00    -0.005 A 
HETATM    9  C   UNL     1      74.489   0.826  18.268  1.00  0.00     0.014 A 
HETATM   10  C   UNL     1      74.063  -0.504  18.257  1.00  0.00     0.001 A 
HETATM   11  C   UNL     1      73.853  -1.157  17.043  1.00  0.00     0.000 A 
HETATM   12  C   UNL     1      74.077  -0.485  15.844  1.00  0.00     0.001 A 
HETATM   13  C   UNL     1      74.511   0.844  15.856  1.00  0.00     0.014 A 
ENDBRANCH   1   8
BRANCH   4  14
HETATM   14  N   UNL     1      77.475   2.857  18.058  1.00  0.00    -0.395 N 
HETATM   15  H   UNL     1      77.685   1.934  17.787  1.00  0.00     0.156 HD
HETATM   16  H   UNL     1      78.059   3.328  18.694  1.00  0.00     0.156 HD
ENDBRANCH   4  14
TORSDOF 2
ENDMDL
MODEL 7
REMARK VINA RESULT:      -4.7     12.193     13.121
REMARK  2 active torsions:
REMARK  status: ('A' for Active; 'I' for Inactive)
REMARK    1  A    between atoms: C_1  and  C_7 
REMARK    2  A    between atoms: C_4  and  N_8 
ROOT
HETATM    1  C   UNL     1      68.184   5.382   7.772  1.00  0.00     0.093 A 
HETATM    2  N   UNL     1      69.382   5.746   8.266  1.00  0.00    -0.258 N 
ATOM      3  HN  UNL     1      69.910   6.585   8.026  1.00  0.00     0.195 HD
HETATM    4  C   UNL     1      67.787   4.132   8.344  1.00  0.00     0.087 A 
HETATM    5  C   UNL     1      68.802   3.799   9.205  1.00  0.00     0.101 A 
HETATM    6  O   UNL     1      69.756   4.765   9.157  1.00  0.00    -0.240 OA
HETATM    7  C   UNL     1      69.072   2.661  10.101  1.00  0.00     0.081 C 
ENDROOT
BRANCH   1   8
HETATM    8  C   UNL     1      67.501   6.217   6.781  1.00  0.00    -0.005 A 
HETATM    9  C   UNL     1      67.594   5.904   5.415  1.00  0.00     0.014 A 
HETATM   10  C   UNL     1      66.944   6.685   4.457  1.00  0.00     0.001 A 
HETATM   11  C   UNL     1      66.193   7.791   4.853  1.00  0.00     0.000 A 
HETATM   12  C   UNL     1      66.100   8.120   6.204  1.00  0.00     0.001 A 
HETATM   13  C   UNL     1      66.756   7.342   7.162  1.00  0.00     0.014 A 
ENDBRANCH   1   8
BRANCH   4  14
HETATM   14  N   UNL     1      66.682   3.390   8.105  1.00  0.00    -0.395 N 
HETATM   15  H   UNL     1      66.492   2.599   8.659  1.00  0.00     0.156 HD
HETATM   16  H   UNL     1      66.068   3.642   7.379  1.00  0.00     0.156 HD
ENDBRANCH   4  14
TORSDOF 2
ENDMDL
MODEL 8
REMARK VINA RESULT:      -4.7      2.342      6.533
REMARK  2 active torsions:
REMARK  status: ('A' for Active; 'I' for Inactive)
REMARK    1  A    between atoms: C_1  and  C_7 
REMARK    2  A    between atoms: C_4  and  N_8 
ROOT
HETATM    1  C   UNL     1      75.449   1.451  17.899  1.00  0.00     0.093 A 
HETATM    2  N   UNL     1      76.676   1.338  18.443  1.00  0.00    -0.258 N 
ATOM      3  HN  UNL     1      77.081   0.502  18.862  1.00  0.00     0.195 HD
HETATM    4  C   UNL     1      75.249   2.790  17.437  1.00  0.00     0.087 A 
HETATM    5  C   UNL     1      76.423   3.442  17.721  1.00  0.00     0.101 A 
HETATM    6  O   UNL     1      77.275   2.573  18.323  1.00  0.00    -0.240 OA
HETATM    7  C   UNL     1      76.915   4.819  17.545  1.00  0.00     0.081 C 
ENDROOT
BRANCH   1   8
HETATM    8  C   UNL     1      74.539   0.304  17.870  1.00  0.00    -0.005 A 
HETATM    9  C   UNL     1      74.159  -0.323  19.067  1.00  0.00     0.014 A 
HETATM   10  C   UNL     1      73.286  -1.413  19.059  1.00  0.00     0.001 A 
HETATM   11  C   UNL     1      72.783  -1.891  17.850  1.00  0.00     0.000 A 
HETATM   12  C   UNL     1      73.157  -1.286  16.652  1.00  0.00     0.001 A 
HETATM   13  C   UNL     1      74.036  -0.200  16.661  1.00  0.00     0.014 A 
ENDBRANCH   1   8
BRANCH   4  14
HETATM   14  N   UNL     1      74.158   3.347  16.863  1.00  0.00    -0.395 N 
HETATM   15  H   UNL     1      74.241   3.818  16.003  1.00  0.00     0.156 HD
HETATM   16  H   UNL     1      73.282   3.281  17.306  1.00  0.00     0.156 HD
ENDBRANCH   4  14
TORSDOF 2
ENDMDL
MODEL 9
REMARK VINA RESULT:      -4.6      4.400      6.974
REMARK  2 active torsions:
REMARK  status: ('A' for Active; 'I' for Inactive)
REMARK    1  A    between atoms: C_1  and  C_7 
REMARK    2  A    between atoms: C_4  and  N_8 
ROOT
HETATM    1  C   UNL     1      78.219   1.498  19.540  1.00  0.00     0.093 A 
HETATM    2  N   UNL     1      78.073   2.653  20.215  1.00  0.00    -0.258 N 
ATOM      3  HN  UNL     1      78.460   2.876  21.132  1.00  0.00     0.195 HD
HETATM    4  C   UNL     1      77.508   1.571  18.300  1.00  0.00     0.087 A 
HETATM    5  C   UNL     1      76.959   2.828  18.281  1.00  0.00     0.101 A 
HETATM    6  O   UNL     1      77.297   3.474  19.427  1.00  0.00    -0.240 OA
HETATM    7  C   UNL     1      76.103   3.573  17.342  1.00  0.00     0.081 C 
ENDROOT
BRANCH   1   8
HETATM    8  C   UNL     1      78.996   0.394  20.110  1.00  0.00    -0.005 A 
HETATM    9  C   UNL     1      79.214   0.332  21.496  1.00  0.00     0.014 A 
HETATM   10  C   UNL     1      79.946  -0.717  22.058  1.00  0.00     0.001 A 
HETATM   11  C   UNL     1      80.471  -1.716  21.239  1.00  0.00     0.000 A 
HETATM   12  C   UNL     1      80.271  -1.663  19.862  1.00  0.00     0.001 A 
HETATM   13  C   UNL     1      79.544  -0.610  19.299  1.00  0.00     0.014 A 
ENDBRANCH   1   8
BRANCH   4  14
HETATM   14  N   UNL     1      77.359   0.632  17.339  1.00  0.00    -0.395 N 
HETATM   15  H   UNL     1      77.213   0.904  16.404  1.00  0.00     0.156 HD
HETATM   16  H   UNL     1      77.396  -0.323  17.574  1.00  0.00     0.156 HD
ENDBRANCH   4  14
TORSDOF 2
ENDMDL
