MODEL 1
REMARK VINA RESULT:      -6.1      0.000      0.000
REMARK  2 active torsions:
REMARK  status: ('A' for Active; 'I' for Inactive)
REMARK    1  A    between atoms: S_1  and  C_2 
REMARK    2  A    between atoms: S_1  and  N_10 
ROOT
HETATM    1  C   UNL     1      77.625   9.077  16.805  1.00  0.00     0.084 A 
HETATM    2  C   UNL     1      77.082   7.773  16.734  1.00  0.00    -0.017 A 
HETATM    3  C   UNL     1      76.887   7.219  15.449  1.00  0.00     0.044 A 
HETATM    4  C   UNL     1      77.980   9.769  15.637  1.00  0.00     0.067 A 
HETATM    5  C   UNL     1      77.231   7.916  14.291  1.00  0.00     0.066 A 
HETATM    6  C   UNL     1      77.780   9.181  14.397  1.00  0.00     0.119 A 
HETATM    7 CL   UNL     1      76.195   5.644  15.233  1.00  0.00    -0.084 Cl
HETATM    8  F   UNL     1      78.111   9.852  13.287  1.00  0.00    -0.206 F 
HETATM    9  C   UNL     1      76.687   6.960  17.941  1.00  0.00     0.052 C 
ENDROOT
BRANCH   1  10
HETATM   10  S   UNL     1      77.828   9.961  18.332  1.00  0.00     0.240 S 
HETATM   11  O   UNL     1      77.358   9.128  19.413  1.00  0.00    -0.206 OA
HETATM   12  O   UNL     1      77.375  11.322  18.159  1.00  0.00    -0.206 OA
BRANCH  10  13
HETATM   13  N   UNL     1      79.494  10.089  18.500  1.00  0.00    -0.225 NA
HETATM   14  H   UNL     1      79.879   9.185  18.777  1.00  0.00     0.136 HD
HETATM   15  H   UNL     1      79.713  10.784  19.214  1.00  0.00     0.136 HD
ENDBRANCH  10  13
ENDBRANCH   1  10
TORSDOF 2
ENDMDL
MODEL 2
REMARK VINA RESULT:      -6.0     19.171     19.791
REMARK  2 active torsions:
REMARK  status: ('A' for Active; 'I' for Inactive)
REMARK    1  A    between atoms: S_1  and  C_2 
REMARK    2  A    between atoms: S_1  and  N_10 
ROOT
HETATM    1  C   UNL     1      62.906   9.469   3.912  1.00  0.00     0.084 A 
HETATM    2  C   UNL     1      62.980   8.383   3.009  1.00  0.00    -0.017 A 
HETATM    3  C   UNL     1      62.415   8.565   1.727  1.00  0.00     0.044 A 
HETATM    4  C   UNL     1      62.319  10.684   3.526  1.00  0.00     0.067 A 
HETATM    5  C   UNL     1      61.822   9.771   1.352  1.00  0.00     0.066 A 
HETATM    6  C   UNL     1      61.786  10.820   2.253  1.00  0.00     0.119 A 
HETATM    7 CL   UNL     1      62.410   7.296   0.546  1.00  0.00    -0.084 Cl
HETATM    8  F   UNL     1      61.219  11.978   1.896  1.00  0.00    -0.206 F 
HETATM    9  C   UNL     1      63.604   7.053   3.343  1.00  0.00     0.052 C 
ENDROOT
BRANCH   1  10
HETATM   10  S   UNL     1      63.465   9.368   5.596  1.00  0.00     0.240 S 
HETATM   11  O   UNL     1      64.907   9.338   5.601  1.00  0.00    -0.206 OA
HETATM   12  O   UNL     1      62.673   8.388   6.303  1.00  0.00    -0.206 OA
BRANCH  10  13
HETATM   13  N   UNL     1      63.003  10.842   6.258  1.00  0.00    -0.225 NA
HETATM   14  H   UNL     1      62.088  11.108   5.891  1.00  0.00     0.136 HD
HETATM   15  H   UNL     1      63.688  11.556   6.013  1.00  0.00     0.136 HD
ENDBRANCH  10  13
ENDBRANCH   1  10
TORSDOF 2
ENDMDL
MODEL 3
REMARK VINA RESULT:      -5.9     18.382     18.997
REMARK  2 active torsions:
REMARK  status: ('A' for Active; 'I' for Inactive)
REMARK    1  A    between atoms: S_1  and  C_2 
REMARK    2  A    between atoms: S_1  and  N_10 
ROOT
HETATM    1  C   UNL     1      63.528   8.868   4.617  1.00  0.00     0.084 A 
HETATM    2  C   UNL     1      63.036   8.491   3.345  1.00  0.00    -0.017 A 
HETATM    3  C   UNL     1      62.208   9.415   2.670  1.00  0.00     0.044 A 
HETATM    4  C   UNL     1      63.221  10.125   5.161  1.00  0.00     0.067 A 
HETATM    5  C   UNL     1      61.897  10.659   3.220  1.00  0.00     0.066 A 
HETATM    6  C   UNL     1      62.412  11.003   4.457  1.00  0.00     0.119 A 
HETATM    7 CL   UNL     1      61.515   9.053   1.123  1.00  0.00    -0.084 Cl
HETATM    8  F   UNL     1      62.115  12.196   4.986  1.00  0.00    -0.206 F 
HETATM    9  C   UNL     1      63.330   7.167   2.689  1.00  0.00     0.052 C 
ENDROOT
BRANCH   1  10
HETATM   10  S   UNL     1      64.487   7.782   5.645  1.00  0.00     0.240 S 
HETATM   11  O   UNL     1      65.103   6.780   4.809  1.00  0.00    -0.206 OA
HETATM   12  O   UNL     1      63.720   7.436   6.820  1.00  0.00    -0.206 OA
BRANCH  10  13
HETATM   13  N   UNL     1      65.721   8.766   6.222  1.00  0.00    -0.225 NA
HETATM   14  H   UNL     1      65.419   9.740   6.196  1.00  0.00     0.136 HD
HETATM   15  H   UNL     1      66.550   8.651   5.639  1.00  0.00     0.136 HD
ENDBRANCH  10  13
ENDBRANCH   1  10
TORSDOF 2
ENDMDL
MODEL 4
REMARK VINA RESULT:      -5.8     18.944     19.574
REMARK  2 active torsions:
REMARK  status: ('A' for Active; 'I' for Inactive)
REMARK    1  A    between atoms: S_1  and  C_2 
REMARK    2  A    between atoms: S_1  and  N_10 
ROOT
HETATM    1  C   UNL     1      63.111   8.628   4.097  1.00  0.00     0.084 A 
HETATM    2  C   UNL     1      62.616   9.935   3.875  1.00  0.00    -0.017 A 
HETATM    3  C   UNL     1      62.131  10.234   2.583  1.00  0.00     0.044 A 
HETATM    4  C   UNL     1      63.087   7.669   3.073  1.00  0.00     0.067 A 
HETATM    5  C   UNL     1      62.120   9.280   1.565  1.00  0.00     0.066 A 
HETATM    6  C   UNL     1      62.593   8.006   1.822  1.00  0.00     0.119 A 
HETATM    7 CL   UNL     1      61.534  11.810   2.178  1.00  0.00    -0.084 Cl
HETATM    8  F   UNL     1      62.583   7.089   0.847  1.00  0.00    -0.206 F 
HETATM    9  C   UNL     1      62.595  11.015   4.925  1.00  0.00     0.052 C 
ENDROOT
BRANCH   1  10
HETATM   10  S   UNL     1      63.858   8.123   5.628  1.00  0.00     0.240 S 
HETATM   11  O   UNL     1      62.828   8.022   6.632  1.00  0.00    -0.206 OA
HETATM   12  O   UNL     1      65.068   8.884   5.841  1.00  0.00    -0.206 OA
BRANCH  10  13
HETATM   13  N   UNL     1      64.392   6.561   5.314  1.00  0.00    -0.225 NA
HETATM   14  H   UNL     1      63.897   5.904   5.918  1.00  0.00     0.136 HD
HETATM   15  H   UNL     1      65.394   6.500   5.495  1.00  0.00     0.136 HD
ENDBRANCH  10  13
ENDBRANCH   1  10
TORSDOF 2
ENDMDL
MODEL 5
REMARK VINA RESULT:      -5.4     14.284     14.910
REMARK  2 active torsions:
REMARK  status: ('A' for Active; 'I' for Inactive)
REMARK    1  A    between atoms: S_1  and  C_2 
REMARK    2  A    between atoms: S_1  and  N_10 
ROOT
HETATM    1  C   UNL     1      66.752   6.094   6.726  1.00  0.00     0.084 A 
HETATM    2  C   UNL     1      67.356   5.864   7.984  1.00  0.00    -0.017 A 
HETATM    3  C   UNL     1      68.168   4.716   8.115  1.00  0.00     0.044 A 
HETATM    4  C   UNL     1      66.985   5.224   5.650  1.00  0.00     0.067 A 
HETATM    5  C   UNL     1      68.387   3.847   7.045  1.00  0.00     0.066 A 
HETATM    6  C   UNL     1      67.798   4.114   5.822  1.00  0.00     0.119 A 
HETATM    7 CL   UNL     1      68.931   4.307   9.617  1.00  0.00    -0.084 Cl
HETATM    8  F   UNL     1      68.006   3.283   4.793  1.00  0.00    -0.206 F 
HETATM    9  C   UNL     1      67.167   6.757   9.184  1.00  0.00     0.052 C 
ENDROOT
BRANCH   1  10
HETATM   10  S   UNL     1      65.616   7.426   6.426  1.00  0.00     0.240 S 
HETATM   11  O   UNL     1      66.334   8.674   6.517  1.00  0.00    -0.206 OA
HETATM   12  O   UNL     1      64.396   7.187   7.163  1.00  0.00    -0.206 OA
BRANCH  10  13
HETATM   13  N   UNL     1      65.181   7.225   4.816  1.00  0.00    -0.225 NA
HETATM   14  H   UNL     1      64.165   7.251   4.732  1.00  0.00     0.136 HD
HETATM   15  H   UNL     1      65.528   6.327   4.479  1.00  0.00     0.136 HD
ENDBRANCH  10  13
ENDBRANCH   1  10
TORSDOF 2
ENDMDL
MODEL 6
REMARK VINA RESULT:      -5.3     14.057     14.770
REMARK  2 active torsions:
REMARK  status: ('A' for Active; 'I' for Inactive)
REMARK    1  A    between atoms: S_1  and  C_2 
REMARK    2  A    between atoms: S_1  and  N_10 
ROOT
HETATM    1  C   UNL     1      67.338   6.211   6.506  1.00  0.00     0.084 A 
HETATM    2  C   UNL     1      67.527   5.034   5.745  1.00  0.00    -0.017 A 
HETATM    3  C   UNL     1      68.095   3.920   6.403  1.00  0.00     0.044 A 
HETATM    4  C   UNL     1      67.678   6.247   7.868  1.00  0.00     0.067 A 
HETATM    5  C   UNL     1      68.442   3.965   7.753  1.00  0.00     0.066 A 
HETATM    6  C   UNL     1      68.224   5.125   8.473  1.00  0.00     0.119 A 
HETATM    7 CL   UNL     1      68.410   2.435   5.567  1.00  0.00    -0.084 Cl
HETATM    8  F   UNL     1      68.555   5.170   9.769  1.00  0.00    -0.206 F 
HETATM    9  C   UNL     1      67.176   4.912   4.285  1.00  0.00     0.052 C 
ENDROOT
BRANCH   1  10
HETATM   10  S   UNL     1      66.741   7.732   5.807  1.00  0.00     0.240 S 
HETATM   11  O   UNL     1      65.332   7.590   5.530  1.00  0.00    -0.206 OA
HETATM   12  O   UNL     1      67.677   8.196   4.809  1.00  0.00    -0.206 OA
BRANCH  10  13
HETATM   13  N   UNL     1      66.886   8.834   7.067  1.00  0.00    -0.225 NA
HETATM   14  H   UNL     1      66.342   9.670   6.851  1.00  0.00     0.136 HD
HETATM   15  H   UNL     1      67.866   9.087   7.188  1.00  0.00     0.136 HD
ENDBRANCH  10  13
ENDBRANCH   1  10
TORSDOF 2
ENDMDL
MODEL 7
REMARK VINA RESULT:      -5.3     12.955     13.577
REMARK  2 active torsions:
REMARK  status: ('A' for Active; 'I' for Inactive)
REMARK    1  A    between atoms: S_1  and  C_2 
REMARK    2  A    between atoms: S_1  and  N_10 
ROOT
HETATM    1  C   UNL     1      68.477   2.810   9.059  1.00  0.00     0.084 A 
HETATM    2  C   UNL     1      67.475   2.894   8.064  1.00  0.00    -0.017 A 
HETATM    3  C   UNL     1      67.432   4.072   7.284  1.00  0.00     0.044 A 
HETATM    4  C   UNL     1      69.404   3.849   9.232  1.00  0.00     0.067 A 
HETATM    5  C   UNL     1      68.349   5.107   7.468  1.00  0.00     0.066 A 
HETATM    6  C   UNL     1      69.329   4.982   8.436  1.00  0.00     0.119 A 
HETATM    7 CL   UNL     1      66.228   4.308   6.060  1.00  0.00    -0.084 Cl
HETATM    8  F   UNL     1      70.210   5.973   8.615  1.00  0.00    -0.206 F 
HETATM    9  C   UNL     1      66.452   1.818   7.807  1.00  0.00     0.052 C 
ENDROOT
BRANCH   1  10
HETATM   10  S   UNL     1      68.599   1.452  10.197  1.00  0.00     0.240 S 
HETATM   11  O   UNL     1      69.082   0.294   9.484  1.00  0.00    -0.206 OA
HETATM   12  O   UNL     1      67.409   1.408  11.016  1.00  0.00    -0.206 OA
BRANCH  10  13
HETATM   13  N   UNL     1      69.819   1.924  11.252  1.00  0.00    -0.225 NA
HETATM   14  H   UNL     1      70.140   2.860  11.003  1.00  0.00     0.136 HD
HETATM   15  H   UNL     1      70.598   1.269  11.187  1.00  0.00     0.136 HD
ENDBRANCH  10  13
ENDBRANCH   1  10
TORSDOF 2
ENDMDL
MODEL 8
REMARK VINA RESULT:      -4.9     18.657     19.340
REMARK  2 active torsions:
REMARK  status: ('A' for Active; 'I' for Inactive)
REMARK    1  A    between atoms: S_1  and  C_2 
REMARK    2  A    between atoms: S_1  and  N_10 
ROOT
HETATM    1  C   UNL     1      63.171   8.671   3.682  1.00  0.00     0.084 A 
HETATM    2  C   UNL     1      63.426   7.476   2.970  1.00  0.00    -0.017 A 
HETATM    3  C   UNL     1      64.538   6.704   3.374  1.00  0.00     0.044 A 
HETATM    4  C   UNL     1      63.981   9.047   4.765  1.00  0.00     0.067 A 
HETATM    5  C   UNL     1      65.348   7.088   4.443  1.00  0.00     0.066 A 
HETATM    6  C   UNL     1      65.057   8.252   5.131  1.00  0.00     0.119 A 
HETATM    7 CL   UNL     1      64.974   5.240   2.555  1.00  0.00    -0.084 Cl
HETATM    8  F   UNL     1      65.832   8.623   6.158  1.00  0.00    -0.206 F 
HETATM    9  C   UNL     1      62.596   6.998   1.807  1.00  0.00     0.052 C 
ENDROOT
BRANCH   1  10
HETATM   10  S   UNL     1      61.884   9.811   3.234  1.00  0.00     0.240 S 
HETATM   11  O   UNL     1      62.008  10.116   1.829  1.00  0.00    -0.206 OA
HETATM   12  O   UNL     1      61.791  10.844   4.239  1.00  0.00    -0.206 OA
BRANCH  10  13
HETATM   13  N   UNL     1      60.475   8.914   3.418  1.00  0.00    -0.225 NA
HETATM   14  H   UNL     1      60.710   7.972   3.732  1.00  0.00     0.136 HD
HETATM   15  H   UNL     1      59.983   8.864   2.526  1.00  0.00     0.136 HD
ENDBRANCH  10  13
ENDBRANCH   1  10
TORSDOF 2
ENDMDL
MODEL 9
REMARK VINA RESULT:      -4.7      8.768      9.438
REMARK  2 active torsions:
REMARK  status: ('A' for Active; 'I' for Inactive)
REMARK    1  A    between atoms: S_1  and  C_2 
REMARK    2  A    between atoms: S_1  and  N_10 
ROOT
HETATM    1  C   UNL     1      75.611   0.392  17.287  1.00  0.00     0.084 A 
HETATM    2  C   UNL     1      75.613   1.803  17.384  1.00  0.00    -0.017 A 
HETATM    3  C   UNL     1      76.708   2.407  18.043  1.00  0.00     0.044 A 
HETATM    4  C   UNL     1      76.676  -0.363  17.803  1.00  0.00     0.067 A 
HETATM    5  C   UNL     1      77.758   1.651  18.564  1.00  0.00     0.066 A 
HETATM    6  C   UNL     1      77.734   0.274  18.433  1.00  0.00     0.119 A 
HETATM    7 CL   UNL     1      76.805   4.124  18.259  1.00  0.00    -0.084 Cl
HETATM    8  F   UNL     1      78.740  -0.455  18.931  1.00  0.00    -0.206 F 
HETATM    9  C   UNL     1      74.516   2.685  16.846  1.00  0.00     0.052 C 
ENDROOT
BRANCH   1  10
HETATM   10  S   UNL     1      74.261  -0.529  16.592  1.00  0.00     0.240 S 
HETATM   11  O   UNL     1      74.009  -0.041  15.257  1.00  0.00    -0.206 OA
HETATM   12  O   UNL     1      73.210  -0.650  17.576  1.00  0.00    -0.206 OA
BRANCH  10  13
HETATM   13  N   UNL     1      74.876  -2.084  16.437  1.00  0.00    -0.225 NA
HETATM   14  H   UNL     1      75.091  -2.270  15.457  1.00  0.00     0.136 HD
HETATM   15  H   UNL     1      74.186  -2.759  16.768  1.00  0.00     0.136 HD
ENDBRANCH  10  13
ENDBRANCH   1  10
TORSDOF 2
ENDMDL
