MODEL 1
REMARK VINA RESULT:      -4.6      0.000      0.000
REMARK  3 active torsions:
REMARK  status: ('A' for Active; 'I' for Inactive)
REMARK    1  A    between atoms: C_1  and  C_7 
REMARK    2  A    between atoms: C_7  and  C_8 
REMARK    3  A    between atoms: C_8  and  O_10 
ROOT
HETATM    1  C   UNL     1      63.630   8.482   5.188  1.00  0.00     0.032 A 
HETATM    2  N   UNL     1      64.992   8.746   5.108  1.00  0.00    -0.356 N 
ATOM      3  HN  UNL     1      65.404   9.542   4.622  1.00  0.00     0.166 HD
HETATM    4  S   UNL     1      64.734   6.607   6.511  1.00  0.00    -0.080 SA
HETATM    5  C   UNL     1      63.304   7.364   5.944  1.00  0.00     0.004 A 
HETATM    6  C   UNL     1      65.674   7.822   5.750  1.00  0.00     0.047 A 
HETATM    7  C   UNL     1      61.976   6.775   6.264  1.00  0.00     0.058 C 
HETATM    8  C   UNL     1      67.158   7.780   5.849  1.00  0.00     0.076 C 
ENDROOT
BRANCH   1   9
HETATM    9  C   UNL     1      62.688   9.420   4.501  1.00  0.00     0.169 C 
BRANCH   9  10
HETATM   10  C   UNL     1      62.703  10.806   5.104  1.00  0.00     0.264 C 
HETATM   11  O   UNL     1      63.311  11.157   6.108  1.00  0.00    -0.265 OA
BRANCH  10  12
HETATM   12  O   UNL     1      61.954  11.652   4.334  1.00  0.00    -0.326 OA
HETATM   13  C   UNL     1      61.846  11.230   2.972  1.00  0.00     0.213 C 
ENDBRANCH  10  12
ENDBRANCH   9  10
ENDBRANCH   1   9
TORSDOF 3
ENDMDL
MODEL 2
REMARK VINA RESULT:      -4.3      3.526      4.933
REMARK  3 active torsions:
REMARK  status: ('A' for Active; 'I' for Inactive)
REMARK    1  A    between atoms: C_1  and  C_7 
REMARK    2  A    between atoms: C_7  and  C_8 
REMARK    3  A    between atoms: C_8  and  O_10 
ROOT
HETATM    1  C   UNL     1      67.616   6.250   6.155  1.00  0.00     0.032 A 
HETATM    2  N   UNL     1      68.077   6.321   7.465  1.00  0.00    -0.356 N 
ATOM      3  HN  UNL     1      68.139   7.178   8.016  1.00  0.00     0.166 HD
HETATM    4  S   UNL     1      68.185   3.847   6.776  1.00  0.00    -0.080 SA
HETATM    5  C   UNL     1      67.579   4.967   5.628  1.00  0.00     0.004 A 
HETATM    6  C   UNL     1      68.420   5.126   7.893  1.00  0.00     0.047 A 
HETATM    7  C   UNL     1      67.145   4.492   4.286  1.00  0.00     0.058 C 
HETATM    8  C   UNL     1      68.976   4.837   9.243  1.00  0.00     0.076 C 
ENDROOT
BRANCH   1   9
HETATM    9  C   UNL     1      67.191   7.519   5.487  1.00  0.00     0.169 C 
BRANCH   9  10
HETATM   10  C   UNL     1      65.979   8.145   6.140  1.00  0.00     0.264 C 
HETATM   11  O   UNL     1      65.572   9.289   5.975  1.00  0.00    -0.265 OA
BRANCH  10  12
HETATM   12  O   UNL     1      65.357   7.222   6.934  1.00  0.00    -0.326 OA
HETATM   13  C   UNL     1      64.085   6.807   6.429  1.00  0.00     0.213 C 
ENDBRANCH  10  12
ENDBRANCH   9  10
ENDBRANCH   1   9
TORSDOF 3
ENDMDL
MODEL 3
REMARK VINA RESULT:      -4.3      3.000      4.660
REMARK  3 active torsions:
REMARK  status: ('A' for Active; 'I' for Inactive)
REMARK    1  A    between atoms: C_1  and  C_7 
REMARK    2  A    between atoms: C_7  and  C_8 
REMARK    3  A    between atoms: C_8  and  O_10 
ROOT
HETATM    1  C   UNL     1      64.243   8.186   4.630  1.00  0.00     0.032 A 
HETATM    2  N   UNL     1      64.065   9.354   5.364  1.00  0.00    -0.356 N 
ATOM      3  HN  UNL     1      64.625   9.625   6.172  1.00  0.00     0.166 HD
HETATM    4  S   UNL     1      62.316   9.389   3.481  1.00  0.00    -0.080 SA
HETATM    5  C   UNL     1      63.390   8.054   3.544  1.00  0.00     0.004 A 
HETATM    6  C   UNL     1      63.073  10.058   4.866  1.00  0.00     0.047 A 
HETATM    7  C   UNL     1      63.283   6.968   2.533  1.00  0.00     0.058 C 
HETATM    8  C   UNL     1      62.593  11.354   5.418  1.00  0.00     0.076 C 
ENDROOT
BRANCH   1   9
HETATM    9  C   UNL     1      65.323   7.242   5.057  1.00  0.00     0.169 C 
BRANCH   9  10
HETATM   10  C   UNL     1      66.032   7.697   6.313  1.00  0.00     0.264 C 
HETATM   11  O   UNL     1      66.989   8.459   6.372  1.00  0.00    -0.265 OA
BRANCH  10  12
HETATM   12  O   UNL     1      65.420   7.157   7.409  1.00  0.00    -0.326 OA
HETATM   13  C   UNL     1      66.329   6.521   8.310  1.00  0.00     0.213 C 
ENDBRANCH  10  12
ENDBRANCH   9  10
ENDBRANCH   1   9
TORSDOF 3
ENDMDL
MODEL 4
REMARK VINA RESULT:      -4.2      2.942      4.843
REMARK  3 active torsions:
REMARK  status: ('A' for Active; 'I' for Inactive)
REMARK    1  A    between atoms: C_1  and  C_7 
REMARK    2  A    between atoms: C_7  and  C_8 
REMARK    3  A    between atoms: C_8  and  O_10 
ROOT
HETATM    1  C   UNL     1      62.949   9.089   4.204  1.00  0.00     0.032 A 
HETATM    2  N   UNL     1      62.749   8.410   3.008  1.00  0.00    -0.356 N 
ATOM      3  HN  UNL     1      62.996   7.434   2.843  1.00  0.00     0.166 HD
HETATM    4  S   UNL     1      61.854  10.795   2.664  1.00  0.00    -0.080 SA
HETATM    5  C   UNL     1      62.491  10.399   4.206  1.00  0.00     0.004 A 
HETATM    6  C   UNL     1      62.196   9.207   2.119  1.00  0.00     0.047 A 
HETATM    7  C   UNL     1      62.517  11.424   5.284  1.00  0.00     0.058 C 
HETATM    8  C   UNL     1      61.863   8.816   0.722  1.00  0.00     0.076 C 
ENDROOT
BRANCH   1   9
HETATM    9  C   UNL     1      63.586   8.348   5.338  1.00  0.00     0.169 C 
BRANCH   9  10
HETATM   10  C   UNL     1      65.063   8.108   5.121  1.00  0.00     0.264 C 
HETATM   11  O   UNL     1      65.565   7.365   4.286  1.00  0.00    -0.265 OA
BRANCH  10  12
HETATM   12  O   UNL     1      65.787   8.883   5.983  1.00  0.00    -0.326 OA
HETATM   13  C   UNL     1      66.749   8.143   6.738  1.00  0.00     0.213 C 
ENDBRANCH  10  12
ENDBRANCH   9  10
ENDBRANCH   1   9
TORSDOF 3
ENDMDL
MODEL 5
REMARK VINA RESULT:      -4.1      2.466      3.439
REMARK  3 active torsions:
REMARK  status: ('A' for Active; 'I' for Inactive)
REMARK    1  A    between atoms: C_1  and  C_7 
REMARK    2  A    between atoms: C_7  and  C_8 
REMARK    3  A    between atoms: C_8  and  O_10 
ROOT
HETATM    1  C   UNL     1      65.288   6.802   5.977  1.00  0.00     0.032 A 
HETATM    2  N   UNL     1      65.277   6.947   7.360  1.00  0.00    -0.356 N 
ATOM      3  HN  UNL     1      64.474   7.260   7.907  1.00  0.00     0.166 HD
HETATM    4  S   UNL     1      67.619   6.099   6.724  1.00  0.00    -0.080 SA
HETATM    5  C   UNL     1      66.481   6.318   5.460  1.00  0.00     0.004 A 
HETATM    6  C   UNL     1      66.449   6.624   7.861  1.00  0.00     0.047 A 
HETATM    7  C   UNL     1      66.869   6.025   4.053  1.00  0.00     0.058 C 
HETATM    8  C   UNL     1      66.798   6.685   9.307  1.00  0.00     0.076 C 
ENDROOT
BRANCH   1   9
HETATM    9  C   UNL     1      64.041   7.139   5.222  1.00  0.00     0.169 C 
BRANCH   9  10
HETATM   10  C   UNL     1      62.925   7.617   6.124  1.00  0.00     0.264 C 
HETATM   11  O   UNL     1      62.123   6.913   6.725  1.00  0.00    -0.265 OA
BRANCH  10  12
HETATM   12  O   UNL     1      62.956   8.981   6.211  1.00  0.00    -0.326 OA
HETATM   13  C   UNL     1      63.043   9.628   4.939  1.00  0.00     0.213 C 
ENDBRANCH  10  12
ENDBRANCH   9  10
ENDBRANCH   1   9
TORSDOF 3
ENDMDL
MODEL 6
REMARK VINA RESULT:      -4.1      6.231      8.105
REMARK  3 active torsions:
REMARK  status: ('A' for Active; 'I' for Inactive)
REMARK    1  A    between atoms: C_1  and  C_7 
REMARK    2  A    between atoms: C_7  and  C_8 
REMARK    3  A    between atoms: C_8  and  O_10 
ROOT
HETATM    1  C   UNL     1      68.102   5.071   7.656  1.00  0.00     0.032 A 
HETATM    2  N   UNL     1      68.206   6.399   7.259  1.00  0.00    -0.356 N 
ATOM      3  HN  UNL     1      68.532   7.162   7.853  1.00  0.00     0.166 HD
HETATM    4  S   UNL     1      67.350   5.083   5.224  1.00  0.00    -0.080 SA
HETATM    5  C   UNL     1      67.676   4.204   6.659  1.00  0.00     0.004 A 
HETATM    6  C   UNL     1      67.824   6.531   6.007  1.00  0.00     0.047 A 
HETATM    7  C   UNL     1      67.456   2.733   6.696  1.00  0.00     0.058 C 
HETATM    8  C   UNL     1      67.785   7.821   5.266  1.00  0.00     0.076 C 
ENDROOT
BRANCH   1   9
HETATM    9  C   UNL     1      68.479   4.723   9.062  1.00  0.00     0.169 C 
BRANCH   9  10
HETATM   10  C   UNL     1      69.967   4.514   9.231  1.00  0.00     0.264 C 
HETATM   11  O   UNL     1      70.859   5.134   8.664  1.00  0.00    -0.265 OA
BRANCH  10  12
HETATM   12  O   UNL     1      70.192   3.534  10.158  1.00  0.00    -0.326 OA
HETATM   13  C   UNL     1      69.280   2.438  10.056  1.00  0.00     0.213 C 
ENDBRANCH  10  12
ENDBRANCH   9  10
ENDBRANCH   1   9
TORSDOF 3
ENDMDL
MODEL 7
REMARK VINA RESULT:      -4.0      3.540      5.051
REMARK  3 active torsions:
REMARK  status: ('A' for Active; 'I' for Inactive)
REMARK    1  A    between atoms: C_1  and  C_7 
REMARK    2  A    between atoms: C_7  and  C_8 
REMARK    3  A    between atoms: C_8  and  O_10 
ROOT
HETATM    1  C   UNL     1      67.238   5.908   6.958  1.00  0.00     0.032 A 
HETATM    2  N   UNL     1      66.983   5.360   5.706  1.00  0.00    -0.356 N 
ATOM      3  HN  UNL     1      66.447   5.816   4.967  1.00  0.00     0.166 HD
HETATM    4  S   UNL     1      68.409   3.648   6.988  1.00  0.00    -0.080 SA
HETATM    5  C   UNL     1      68.029   5.120   7.781  1.00  0.00     0.004 A 
HETATM    6  C   UNL     1      67.534   4.169   5.610  1.00  0.00     0.047 A 
HETATM    7  C   UNL     1      68.518   5.365   9.165  1.00  0.00     0.058 C 
HETATM    8  C   UNL     1      67.441   3.287   4.415  1.00  0.00     0.076 C 
ENDROOT
BRANCH   1   9
HETATM    9  C   UNL     1      66.676   7.261   7.262  1.00  0.00     0.169 C 
BRANCH   9  10
HETATM   10  C   UNL     1      66.712   8.189   6.069  1.00  0.00     0.264 C 
HETATM   11  O   UNL     1      67.574   8.223   5.199  1.00  0.00    -0.265 OA
BRANCH  10  12
HETATM   12  O   UNL     1      65.600   8.985   6.070  1.00  0.00    -0.326 OA
HETATM   13  C   UNL     1      64.649   8.629   5.064  1.00  0.00     0.213 C 
ENDBRANCH  10  12
ENDBRANCH   9  10
ENDBRANCH   1   9
TORSDOF 3
ENDMDL
MODEL 8
REMARK VINA RESULT:      -4.0      2.886      4.559
REMARK  3 active torsions:
REMARK  status: ('A' for Active; 'I' for Inactive)
REMARK    1  A    between atoms: C_1  and  C_7 
REMARK    2  A    between atoms: C_7  and  C_8 
REMARK    3  A    between atoms: C_8  and  O_10 
ROOT
HETATM    1  C   UNL     1      63.307   7.963   3.848  1.00  0.00     0.032 A 
HETATM    2  N   UNL     1      62.997   9.233   4.320  1.00  0.00    -0.356 N 
ATOM      3  HN  UNL     1      63.228   9.583   5.250  1.00  0.00     0.166 HD
HETATM    4  S   UNL     1      62.131   9.109   1.903  1.00  0.00    -0.080 SA
HETATM    5  C   UNL     1      62.932   7.731   2.532  1.00  0.00     0.004 A 
HETATM    6  C   UNL     1      62.365   9.921   3.394  1.00  0.00     0.047 A 
HETATM    7  C   UNL     1      63.098   6.518   1.686  1.00  0.00     0.058 C 
HETATM    8  C   UNL     1      61.865  11.312   3.566  1.00  0.00     0.076 C 
ENDROOT
BRANCH   1   9
HETATM    9  C   UNL     1      64.018   7.022   4.769  1.00  0.00     0.169 C 
BRANCH   9  10
HETATM   10  C   UNL     1      63.887   7.419   6.223  1.00  0.00     0.264 C 
HETATM   11  O   UNL     1      62.851   7.719   6.805  1.00  0.00    -0.265 OA
BRANCH  10  12
HETATM   12  O   UNL     1      65.110   7.359   6.829  1.00  0.00    -0.326 OA
HETATM   13  C   UNL     1      66.140   8.023   6.093  1.00  0.00     0.213 C 
ENDBRANCH  10  12
ENDBRANCH   9  10
ENDBRANCH   1   9
TORSDOF 3
ENDMDL
MODEL 9
REMARK VINA RESULT:      -4.0      8.047      9.786
REMARK  3 active torsions:
REMARK  status: ('A' for Active; 'I' for Inactive)
REMARK    1  A    between atoms: C_1  and  C_7 
REMARK    2  A    between atoms: C_7  and  C_8 
REMARK    3  A    between atoms: C_8  and  O_10 
ROOT
HETATM    1  C   UNL     1      68.861   3.701   8.735  1.00  0.00     0.032 A 
HETATM    2  N   UNL     1      68.974   2.707   7.771  1.00  0.00    -0.356 N 
ATOM      3  HN  UNL     1      69.419   1.800   7.917  1.00  0.00     0.166 HD
HETATM    4  S   UNL     1      67.718   4.662   6.673  1.00  0.00    -0.080 SA
HETATM    5  C   UNL     1      68.174   4.832   8.317  1.00  0.00     0.004 A 
HETATM    6  C   UNL     1      68.426   3.102   6.642  1.00  0.00     0.047 A 
HETATM    7  C   UNL     1      67.845   6.083   9.052  1.00  0.00     0.058 C 
HETATM    8  C   UNL     1      68.388   2.296   5.392  1.00  0.00     0.076 C 
ENDROOT
BRANCH   1   9
HETATM    9  C   UNL     1      69.443   3.441  10.089  1.00  0.00     0.169 C 
BRANCH   9  10
HETATM   10  C   UNL     1      69.441   1.973  10.452  1.00  0.00     0.264 C 
HETATM   11  O   UNL     1      68.477   1.316  10.825  1.00  0.00    -0.265 OA
BRANCH  10  12
HETATM   12  O   UNL     1      70.691   1.451  10.266  1.00  0.00    -0.326 OA
HETATM   13  C   UNL     1      70.677   0.118   9.752  1.00  0.00     0.213 C 
ENDBRANCH  10  12
ENDBRANCH   9  10
ENDBRANCH   1   9
TORSDOF 3
ENDMDL
