MODEL 1
REMARK VINA RESULT:      -5.4      0.000      0.000
REMARK  3 active torsions:
REMARK  status: ('A' for Active; 'I' for Inactive)
REMARK    1  A    between atoms: C_1  and  O_6 
REMARK    2  A    between atoms: C_5  and  O_10 
REMARK    3  A    between atoms: O_6  and  C_8 
ROOT
HETATM    1  C   UNL     1      63.142   9.250   4.596  1.00  0.00     0.091 A 
HETATM    2  C   UNL     1      62.841   8.691   3.324  1.00  0.00    -0.019 A 
HETATM    3  C   UNL     1      62.170   9.484   2.356  1.00  0.00    -0.020 A 
HETATM    4  C   UNL     1      62.785  10.566   4.925  1.00  0.00    -0.025 A 
HETATM    5  C   UNL     1      61.864  10.812   2.686  1.00  0.00     0.072 A 
HETATM    6  C   UNL     1      62.178  11.346   3.933  1.00  0.00     0.046 A 
HETATM    7  C   UNL     1      63.210   7.262   3.008  1.00  0.00     0.052 C 
HETATM    8  C   UNL     1      61.755   8.931   1.017  1.00  0.00     0.052 C 
HETATM    9  C   UNL     1      63.018  11.203   6.263  1.00  0.00     0.051 C 
ENDROOT
BRANCH   1  10
HETATM   10  O   UNL     1      63.679   8.343   5.553  1.00  0.00    -0.278 OA
BRANCH  10  11
HETATM   11  C   UNL     1      65.031   8.196   5.865  1.00  0.00     0.260 C 
HETATM   12  O   UNL     1      65.865   9.083   5.970  1.00  0.00    -0.265 OA
HETATM   13  C   UNL     1      65.345   6.731   5.989  1.00  0.00     0.126 C 
ENDBRANCH  10  11
ENDBRANCH   1  10
BRANCH   5  14
HETATM   14  O   UNL     1      61.221  11.667   1.835  1.00  0.00    -0.360 OA
HETATM   15  H   UNL     1      60.494  11.365   1.327  1.00  0.00     0.217 HD
ENDBRANCH   5  14
TORSDOF 3
ENDMDL
MODEL 2
REMARK VINA RESULT:      -5.3      1.996      3.099
REMARK  3 active torsions:
REMARK  status: ('A' for Active; 'I' for Inactive)
REMARK    1  A    between atoms: C_1  and  O_6 
REMARK    2  A    between atoms: C_5  and  O_10 
REMARK    3  A    between atoms: O_6  and  C_8 
ROOT
HETATM    1  C   UNL     1      62.611   8.323   3.246  1.00  0.00     0.091 A 
HETATM    2  C   UNL     1      62.259   9.357   2.336  1.00  0.00    -0.019 A 
HETATM    3  C   UNL     1      62.068  10.677   2.823  1.00  0.00    -0.020 A 
HETATM    4  C   UNL     1      62.767   8.571   4.618  1.00  0.00    -0.025 A 
HETATM    5  C   UNL     1      62.274  10.915   4.189  1.00  0.00     0.072 A 
HETATM    6  C   UNL     1      62.631   9.892   5.063  1.00  0.00     0.046 A 
HETATM    7  C   UNL     1      62.068   9.056   0.870  1.00  0.00     0.052 C 
HETATM    8  C   UNL     1      61.622  11.804   1.927  1.00  0.00     0.052 C 
HETATM    9  C   UNL     1      63.080   7.521   5.643  1.00  0.00     0.051 C 
ENDROOT
BRANCH   1  10
HETATM   10  O   UNL     1      62.636   7.008   2.700  1.00  0.00    -0.278 OA
BRANCH  10  11
HETATM   11  C   UNL     1      63.782   6.301   2.335  1.00  0.00     0.260 C 
HETATM   12  O   UNL     1      64.839   6.242   2.947  1.00  0.00    -0.265 OA
HETATM   13  C   UNL     1      63.549   5.655   0.998  1.00  0.00     0.126 C 
ENDBRANCH  10  11
ENDBRANCH   1  10
BRANCH   5  14
HETATM   14  O   UNL     1      62.121  12.144   4.768  1.00  0.00    -0.360 OA
HETATM   15  H   UNL     1      61.471  12.272   5.431  1.00  0.00     0.217 HD
ENDBRANCH   5  14
TORSDOF 3
ENDMDL
MODEL 3
REMARK VINA RESULT:      -4.9      1.143      2.725
REMARK  3 active torsions:
REMARK  status: ('A' for Active; 'I' for Inactive)
REMARK    1  A    between atoms: C_1  and  O_6 
REMARK    2  A    between atoms: C_5  and  O_10 
REMARK    3  A    between atoms: O_6  and  C_8 
ROOT
HETATM    1  C   UNL     1      63.147   8.444   4.905  1.00  0.00     0.091 A 
HETATM    2  C   UNL     1      62.828   9.806   4.653  1.00  0.00    -0.019 A 
HETATM    3  C   UNL     1      62.099  10.146   3.484  1.00  0.00    -0.020 A 
HETATM    4  C   UNL     1      62.765   7.423   4.022  1.00  0.00    -0.025 A 
HETATM    5  C   UNL     1      61.685   9.107   2.637  1.00  0.00     0.072 A 
HETATM    6  C   UNL     1      61.995   7.777   2.907  1.00  0.00     0.046 A 
HETATM    7  C   UNL     1      63.278  10.887   5.605  1.00  0.00     0.052 C 
HETATM    8  C   UNL     1      61.793  11.576   3.118  1.00  0.00     0.052 C 
HETATM    9  C   UNL     1      63.114   5.974   4.192  1.00  0.00     0.051 C 
ENDROOT
BRANCH   1  10
HETATM   10  O   UNL     1      64.006   8.210   6.016  1.00  0.00    -0.278 OA
BRANCH  10  11
HETATM   11  C   UNL     1      65.383   7.991   5.947  1.00  0.00     0.260 C 
HETATM   12  O   UNL     1      66.184   8.558   5.220  1.00  0.00    -0.265 OA
HETATM   13  C   UNL     1      65.743   6.868   6.879  1.00  0.00     0.126 C 
ENDBRANCH  10  11
ENDBRANCH   1  10
BRANCH   5  14
HETATM   14  O   UNL     1      60.977   9.315   1.486  1.00  0.00    -0.360 OA
HETATM   15  H   UNL     1      61.065  10.124   1.021  1.00  0.00     0.217 HD
ENDBRANCH   5  14
TORSDOF 3
ENDMDL
MODEL 4
REMARK VINA RESULT:      -4.9      1.797      3.461
REMARK  3 active torsions:
REMARK  status: ('A' for Active; 'I' for Inactive)
REMARK    1  A    between atoms: C_1  and  O_6 
REMARK    2  A    between atoms: C_5  and  O_10 
REMARK    3  A    between atoms: O_6  and  C_8 
ROOT
HETATM    1  C   UNL     1      62.546   8.055   2.796  1.00  0.00     0.091 A 
HETATM    2  C   UNL     1      62.598   8.894   3.942  1.00  0.00    -0.019 A 
HETATM    3  C   UNL     1      62.352  10.285   3.799  1.00  0.00    -0.020 A 
HETATM    4  C   UNL     1      62.265   8.567   1.520  1.00  0.00    -0.025 A 
HETATM    5  C   UNL     1      62.027  10.771   2.524  1.00  0.00     0.072 A 
HETATM    6  C   UNL     1      61.968   9.932   1.415  1.00  0.00     0.046 A 
HETATM    7  C   UNL     1      62.932   8.321   5.297  1.00  0.00     0.052 C 
HETATM    8  C   UNL     1      62.464  11.241   4.958  1.00  0.00     0.052 C 
HETATM    9  C   UNL     1      62.251   7.754   0.260  1.00  0.00     0.051 C 
ENDROOT
BRANCH   1  10
HETATM   10  O   UNL     1      62.951   6.706   3.004  1.00  0.00    -0.278 OA
BRANCH  10  11
HETATM   11  C   UNL     1      64.244   6.209   2.831  1.00  0.00     0.260 C 
HETATM   12  O   UNL     1      65.266   6.610   3.367  1.00  0.00    -0.265 OA
HETATM   13  C   UNL     1      64.210   5.116   1.800  1.00  0.00     0.126 C 
ENDBRANCH  10  11
ENDBRANCH   1  10
BRANCH   5  14
HETATM   14  O   UNL     1      61.770  12.089   2.268  1.00  0.00    -0.360 OA
HETATM   15  H   UNL     1      61.156  12.559   2.797  1.00  0.00     0.217 HD
ENDBRANCH   5  14
TORSDOF 3
ENDMDL
MODEL 5
REMARK VINA RESULT:      -4.7      5.092      8.011
REMARK  3 active torsions:
REMARK  status: ('A' for Active; 'I' for Inactive)
REMARK    1  A    between atoms: C_1  and  O_6 
REMARK    2  A    between atoms: C_5  and  O_10 
REMARK    3  A    between atoms: O_6  and  C_8 
ROOT
HETATM    1  C   UNL     1      67.092   5.486   7.083  1.00  0.00     0.091 A 
HETATM    2  C   UNL     1      67.581   4.404   6.302  1.00  0.00    -0.019 A 
HETATM    3  C   UNL     1      68.432   3.439   6.903  1.00  0.00    -0.020 A 
HETATM    4  C   UNL     1      67.436   5.632   8.436  1.00  0.00    -0.025 A 
HETATM    5  C   UNL     1      68.726   3.575   8.268  1.00  0.00     0.072 A 
HETATM    6  C   UNL     1      68.228   4.635   9.020  1.00  0.00     0.046 A 
HETATM    7  C   UNL     1      67.219   4.288   4.842  1.00  0.00     0.052 C 
HETATM    8  C   UNL     1      69.044   2.310   6.115  1.00  0.00     0.052 C 
HETATM    9  C   UNL     1      67.006   6.776   9.306  1.00  0.00     0.051 C 
ENDROOT
BRANCH   1  10
HETATM   10  O   UNL     1      66.372   6.484   6.368  1.00  0.00    -0.278 OA
BRANCH  10  11
HETATM   11  C   UNL     1      66.803   7.791   6.139  1.00  0.00     0.260 C 
HETATM   12  O   UNL     1      66.260   8.823   6.506  1.00  0.00    -0.265 OA
HETATM   13  C   UNL     1      68.041   7.752   5.287  1.00  0.00     0.126 C 
ENDBRANCH  10  11
ENDBRANCH   1  10
BRANCH   5  14
HETATM   14  O   UNL     1      69.531   2.707   8.951  1.00  0.00    -0.360 OA
HETATM   15  H   UNL     1      70.460   2.737   8.833  1.00  0.00     0.217 HD
ENDBRANCH   5  14
TORSDOF 3
ENDMDL
MODEL 6
REMARK VINA RESULT:      -4.7     18.305     21.013
REMARK  3 active torsions:
REMARK  status: ('A' for Active; 'I' for Inactive)
REMARK    1  A    between atoms: C_1  and  O_6 
REMARK    2  A    between atoms: C_5  and  O_10 
REMARK    3  A    between atoms: O_6  and  C_8 
ROOT
HETATM    1  C   UNL     1      76.317   1.257  17.126  1.00  0.00     0.091 A 
HETATM    2  C   UNL     1      77.293   0.568  17.896  1.00  0.00    -0.019 A 
HETATM    3  C   UNL     1      77.939   1.242  18.965  1.00  0.00    -0.020 A 
HETATM    4  C   UNL     1      75.980   2.593  17.389  1.00  0.00    -0.025 A 
HETATM    5  C   UNL     1      77.555   2.562  19.244  1.00  0.00     0.072 A 
HETATM    6  C   UNL     1      76.588   3.217  18.486  1.00  0.00     0.046 A 
HETATM    7  C   UNL     1      77.657  -0.860  17.572  1.00  0.00     0.052 C 
HETATM    8  C   UNL     1      79.034   0.596  19.774  1.00  0.00     0.052 C 
HETATM    9  C   UNL     1      75.004   3.400  16.584  1.00  0.00     0.051 C 
ENDROOT
BRANCH   1  10
HETATM   10  O   UNL     1      75.830   0.558  15.985  1.00  0.00    -0.278 OA
BRANCH  10  11
HETATM   11  C   UNL     1      74.497   0.222  15.745  1.00  0.00     0.260 C 
HETATM   12  O   UNL     1      73.866   0.397  14.713  1.00  0.00    -0.265 OA
HETATM   13  C   UNL     1      73.904  -0.342  17.006  1.00  0.00     0.126 C 
ENDBRANCH  10  11
ENDBRANCH   1  10
BRANCH   5  14
HETATM   14  O   UNL     1      78.107   3.307  20.248  1.00  0.00    -0.360 OA
HETATM   15  H   UNL     1      77.557   3.700  20.898  1.00  0.00     0.217 HD
ENDBRANCH   5  14
TORSDOF 3
ENDMDL
MODEL 7
REMARK VINA RESULT:      -4.6      6.246     10.039
REMARK  3 active torsions:
REMARK  status: ('A' for Active; 'I' for Inactive)
REMARK    1  A    between atoms: C_1  and  O_6 
REMARK    2  A    between atoms: C_5  and  O_10 
REMARK    3  A    between atoms: O_6  and  C_8 
ROOT
HETATM    1  C   UNL     1      68.563   3.701   7.685  1.00  0.00     0.091 A 
HETATM    2  C   UNL     1      68.883   2.316   7.699  1.00  0.00    -0.019 A 
HETATM    3  C   UNL     1      69.343   1.719   8.902  1.00  0.00    -0.020 A 
HETATM    4  C   UNL     1      68.699   4.499   8.831  1.00  0.00    -0.025 A 
HETATM    5  C   UNL     1      69.427   2.522  10.049  1.00  0.00     0.072 A 
HETATM    6  C   UNL     1      69.098   3.875  10.019  1.00  0.00     0.046 A 
HETATM    7  C   UNL     1      68.756   1.488   6.444  1.00  0.00     0.052 C 
HETATM    8  C   UNL     1      69.769   0.275   8.967  1.00  0.00     0.052 C 
HETATM    9  C   UNL     1      68.436   5.976   8.876  1.00  0.00     0.051 C 
ENDROOT
BRANCH   1  10
HETATM   10  O   UNL     1      68.254   4.247   6.407  1.00  0.00    -0.278 OA
BRANCH  10  11
HETATM   11  C   UNL     1      66.985   4.635   5.974  1.00  0.00     0.260 C 
HETATM   12  O   UNL     1      65.919   4.103   6.243  1.00  0.00    -0.265 OA
HETATM   13  C   UNL     1      67.128   5.802   5.038  1.00  0.00     0.126 C 
ENDBRANCH  10  11
ENDBRANCH   1  10
BRANCH   5  14
HETATM   14  O   UNL     1      69.855   2.057  11.260  1.00  0.00    -0.360 OA
HETATM   15  H   UNL     1      69.528   2.436  12.051  1.00  0.00     0.217 HD
ENDBRANCH   5  14
TORSDOF 3
ENDMDL
MODEL 8
REMARK VINA RESULT:      -4.6      1.992      4.628
REMARK  3 active torsions:
REMARK  status: ('A' for Active; 'I' for Inactive)
REMARK    1  A    between atoms: C_1  and  O_6 
REMARK    2  A    between atoms: C_5  and  O_10 
REMARK    3  A    between atoms: O_6  and  C_8 
ROOT
HETATM    1  C   UNL     1      62.971   8.150   3.157  1.00  0.00     0.091 A 
HETATM    2  C   UNL     1      64.001   7.187   3.332  1.00  0.00    -0.019 A 
HETATM    3  C   UNL     1      64.967   7.379   4.354  1.00  0.00    -0.020 A 
HETATM    4  C   UNL     1      62.887   9.294   3.966  1.00  0.00    -0.025 A 
HETATM    5  C   UNL     1      64.840   8.503   5.183  1.00  0.00     0.072 A 
HETATM    6  C   UNL     1      63.816   9.429   5.005  1.00  0.00     0.046 A 
HETATM    7  C   UNL     1      64.085   5.982   2.428  1.00  0.00     0.052 C 
HETATM    8  C   UNL     1      66.128   6.436   4.545  1.00  0.00     0.052 C 
HETATM    9  C   UNL     1      61.864  10.379   3.803  1.00  0.00     0.051 C 
ENDROOT
BRANCH   1  10
HETATM   10  O   UNL     1      62.138   7.959   2.018  1.00  0.00    -0.278 OA
BRANCH  10  11
HETATM   11  C   UNL     1      60.792   7.590   2.049  1.00  0.00     0.260 C 
HETATM   12  O   UNL     1      60.249   6.842   2.849  1.00  0.00    -0.265 OA
HETATM   13  C   UNL     1      60.092   8.211   0.872  1.00  0.00     0.126 C 
ENDBRANCH  10  11
ENDBRANCH   1  10
BRANCH   5  14
HETATM   14  O   UNL     1      65.709   8.787   6.199  1.00  0.00    -0.360 OA
HETATM   15  H   UNL     1      65.386   8.934   7.066  1.00  0.00     0.217 HD
ENDBRANCH   5  14
TORSDOF 3
ENDMDL
MODEL 9
REMARK VINA RESULT:      -4.6      4.951      8.267
REMARK  3 active torsions:
REMARK  status: ('A' for Active; 'I' for Inactive)
REMARK    1  A    between atoms: C_1  and  O_6 
REMARK    2  A    between atoms: C_5  and  O_10 
REMARK    3  A    between atoms: O_6  and  C_8 
ROOT
HETATM    1  C   UNL     1      67.095   5.511   6.743  1.00  0.00     0.091 A 
HETATM    2  C   UNL     1      67.692   5.388   8.028  1.00  0.00    -0.019 A 
HETATM    3  C   UNL     1      68.436   4.220   8.341  1.00  0.00    -0.020 A 
HETATM    4  C   UNL     1      67.216   4.501   5.776  1.00  0.00    -0.025 A 
HETATM    5  C   UNL     1      68.586   3.244   7.345  1.00  0.00     0.072 A 
HETATM    6  C   UNL     1      68.005   3.387   6.088  1.00  0.00     0.046 A 
HETATM    7  C   UNL     1      67.521   6.475   9.059  1.00  0.00     0.052 C 
HETATM    8  C   UNL     1      69.032   3.993   9.706  1.00  0.00     0.052 C 
HETATM    9  C   UNL     1      66.567   4.536   4.424  1.00  0.00     0.051 C 
ENDROOT
BRANCH   1  10
HETATM   10  O   UNL     1      66.245   6.639   6.567  1.00  0.00    -0.278 OA
BRANCH  10  11
HETATM   11  C   UNL     1      66.657   7.913   6.173  1.00  0.00     0.260 C 
HETATM   12  O   UNL     1      66.113   8.977   6.429  1.00  0.00    -0.265 OA
HETATM   13  C   UNL     1      67.872   7.781   5.297  1.00  0.00     0.126 C 
ENDBRANCH  10  11
ENDBRANCH   1  10
BRANCH   5  14
HETATM   14  O   UNL     1      69.281   2.082   7.533  1.00  0.00    -0.360 OA
HETATM   15  H   UNL     1      70.105   2.095   7.979  1.00  0.00     0.217 HD
ENDBRANCH   5  14
TORSDOF 3
ENDMDL
