MODEL 1
REMARK VINA RESULT:      -3.6      0.000      0.000
REMARK  1 active torsions:
REMARK  status: ('A' for Active; 'I' for Inactive)
REMARK    1  A    between atoms: C_4  and  C_7 
ROOT
HETATM    1  N   UNL     1      65.382   7.356   7.064  1.00  0.00    -0.348 N 
ATOM      2  HN  UNL     1      64.439   7.260   7.442  1.00  0.00     0.167 HD
HETATM    3  N   UNL     1      67.579   7.260   6.826  1.00  0.00    -0.354 N 
HETATM    4  C   UNL     1      66.506   6.978   7.635  1.00  0.00     0.080 A 
HETATM    5  C   UNL     1      65.736   7.906   5.855  1.00  0.00     0.022 A 
HETATM    6  C   UNL     1      67.102   7.851   5.690  1.00  0.00     0.114 A 
HETATM    7  C   UNL     1      64.705   8.455   4.950  1.00  0.00     0.069 C 
HETATM    8  H   UNL     1      68.523   7.070   7.029  1.00  0.00     0.166 HD
ENDROOT
BRANCH   4   9
HETATM    9  C   UNL     1      66.649   6.340   8.972  1.00  0.00     0.072 C 
HETATM   10  C   UNL     1      68.066   5.836   9.195  1.00  0.00     0.013 C 
ENDBRANCH   4   9
TORSDOF 1
ENDMDL
MODEL 2
REMARK VINA RESULT:      -3.6      5.673      7.656
REMARK  1 active torsions:
REMARK  status: ('A' for Active; 'I' for Inactive)
REMARK    1  A    between atoms: C_4  and  C_7 
ROOT
HETATM    1  N   UNL     1      62.473   9.406   3.211  1.00  0.00    -0.348 N 
ATOM      2  HN  UNL     1      62.852   8.500   3.485  1.00  0.00     0.167 HD
HETATM    3  N   UNL     1      61.538  11.035   2.043  1.00  0.00    -0.354 N 
HETATM    4  C   UNL     1      61.954   9.727   2.045  1.00  0.00     0.080 A 
HETATM    5  C   UNL     1      62.399  10.540   3.984  1.00  0.00     0.022 A 
HETATM    6  C   UNL     1      61.816  11.564   3.272  1.00  0.00     0.114 A 
HETATM    7  C   UNL     1      62.914  10.538   5.370  1.00  0.00     0.069 C 
HETATM    8  H   UNL     1      61.116  11.509   1.289  1.00  0.00     0.166 HD
ENDROOT
BRANCH   4   9
HETATM    9  C   UNL     1      61.824   8.838   0.859  1.00  0.00     0.072 C 
HETATM   10  C   UNL     1      60.415   8.277   0.740  1.00  0.00     0.013 C 
ENDBRANCH   4   9
TORSDOF 1
ENDMDL
MODEL 3
REMARK VINA RESULT:      -3.4      3.583      5.136
REMARK  1 active torsions:
REMARK  status: ('A' for Active; 'I' for Inactive)
REMARK    1  A    between atoms: C_4  and  C_7 
ROOT
HETATM    1  N   UNL     1      62.731   9.462   3.637  1.00  0.00    -0.348 N 
ATOM      2  HN  UNL     1      62.717   8.841   2.828  1.00  0.00     0.167 HD
HETATM    3  N   UNL     1      63.055  10.270   5.671  1.00  0.00    -0.354 N 
HETATM    4  C   UNL     1      63.195   9.188   4.838  1.00  0.00     0.080 A 
HETATM    5  C   UNL     1      62.270  10.756   3.695  1.00  0.00     0.022 A 
HETATM    6  C   UNL     1      62.468  11.275   4.956  1.00  0.00     0.114 A 
HETATM    7  C   UNL     1      61.661  11.390   2.507  1.00  0.00     0.069 C 
HETATM    8  H   UNL     1      63.329  10.313   6.616  1.00  0.00     0.166 HD
ENDROOT
BRANCH   4   9
HETATM    9  C   UNL     1      63.787   7.897   5.284  1.00  0.00     0.072 C 
HETATM   10  C   UNL     1      65.300   7.994   5.401  1.00  0.00     0.013 C 
ENDBRANCH   4   9
TORSDOF 1
ENDMDL
MODEL 4
REMARK VINA RESULT:      -3.3      5.712      7.098
REMARK  1 active torsions:
REMARK  status: ('A' for Active; 'I' for Inactive)
REMARK    1  A    between atoms: C_4  and  C_7 
ROOT
HETATM    1  N   UNL     1      60.711   8.988   3.513  1.00  0.00    -0.348 N 
ATOM      2  HN  UNL     1      59.757   9.343   3.568  1.00  0.00     0.167 HD
HETATM    3  N   UNL     1      62.917   8.879   3.393  1.00  0.00    -0.354 N 
HETATM    4  C   UNL     1      61.817   9.698   3.447  1.00  0.00     0.080 A 
HETATM    5  C   UNL     1      61.104   7.671   3.494  1.00  0.00     0.022 A 
HETATM    6  C   UNL     1      62.477   7.586   3.422  1.00  0.00     0.114 A 
HETATM    7  C   UNL     1      60.100   6.588   3.540  1.00  0.00     0.069 C 
HETATM    8  H   UNL     1      63.856   9.171   3.342  1.00  0.00     0.166 HD
ENDROOT
BRANCH   4   9
HETATM    9  C   UNL     1      61.916  11.183   3.419  1.00  0.00     0.072 C 
HETATM   10  C   UNL     1      61.780  11.720   2.003  1.00  0.00     0.013 C 
ENDBRANCH   4   9
TORSDOF 1
ENDMDL
MODEL 5
REMARK VINA RESULT:      -3.2      2.534      4.903
REMARK  1 active torsions:
REMARK  status: ('A' for Active; 'I' for Inactive)
REMARK    1  A    between atoms: C_4  and  C_7 
ROOT
HETATM    1  N   UNL     1      64.470   9.150   5.507  1.00  0.00    -0.348 N 
ATOM      2  HN  UNL     1      64.451   9.932   6.160  1.00  0.00     0.167 HD
HETATM    3  N   UNL     1      63.956   7.761   3.864  1.00  0.00    -0.354 N 
HETATM    4  C   UNL     1      63.604   8.897   4.550  1.00  0.00     0.080 A 
HETATM    5  C   UNL     1      65.407   8.145   5.446  1.00  0.00     0.022 A 
HETATM    6  C   UNL     1      65.102   7.273   4.425  1.00  0.00     0.114 A 
HETATM    7  C   UNL     1      66.533   8.111   6.403  1.00  0.00     0.069 C 
HETATM    8  H   UNL     1      63.469   7.367   3.104  1.00  0.00     0.166 HD
ENDROOT
BRANCH   4   9
HETATM    9  C   UNL     1      62.389   9.692   4.222  1.00  0.00     0.072 C 
HETATM   10  C   UNL     1      62.477  11.097   4.797  1.00  0.00     0.013 C 
ENDBRANCH   4   9
TORSDOF 1
ENDMDL
MODEL 6
REMARK VINA RESULT:      -3.1      0.984      3.739
REMARK  1 active torsions:
REMARK  status: ('A' for Active; 'I' for Inactive)
REMARK    1  A    between atoms: C_4  and  C_7 
ROOT
HETATM    1  N   UNL     1      65.210   7.409   6.990  1.00  0.00    -0.348 N 
ATOM      2  HN  UNL     1      64.337   7.500   7.510  1.00  0.00     0.167 HD
HETATM    3  N   UNL     1      66.746   7.557   5.406  1.00  0.00    -0.354 N 
HETATM    4  C   UNL     1      65.459   7.857   5.778  1.00  0.00     0.080 A 
HETATM    5  C   UNL     1      66.365   6.795   7.413  1.00  0.00     0.022 A 
HETATM    6  C   UNL     1      67.334   6.881   6.438  1.00  0.00     0.114 A 
HETATM    7  C   UNL     1      66.432   6.160   8.746  1.00  0.00     0.069 C 
HETATM    8  H   UNL     1      67.170   7.788   4.547  1.00  0.00     0.166 HD
ENDROOT
BRANCH   4   9
HETATM    9  C   UNL     1      64.511   8.581   4.889  1.00  0.00     0.072 C 
HETATM   10  C   UNL     1      63.883   7.643   3.870  1.00  0.00     0.013 C 
ENDBRANCH   4   9
TORSDOF 1
ENDMDL
MODEL 7
REMARK VINA RESULT:      -3.0      2.075      3.149
REMARK  1 active torsions:
REMARK  status: ('A' for Active; 'I' for Inactive)
REMARK    1  A    between atoms: C_4  and  C_7 
ROOT
HETATM    1  N   UNL     1      64.391   9.299   5.534  1.00  0.00    -0.348 N 
ATOM      2  HN  UNL     1      64.442  10.065   6.204  1.00  0.00     0.167 HD
HETATM    3  N   UNL     1      64.827   7.439   4.418  1.00  0.00    -0.354 N 
HETATM    4  C   UNL     1      65.216   8.278   5.433  1.00  0.00     0.080 A 
HETATM    5  C   UNL     1      63.445   9.120   4.552  1.00  0.00     0.022 A 
HETATM    6  C   UNL     1      63.701   7.964   3.850  1.00  0.00     0.114 A 
HETATM    7  C   UNL     1      62.358  10.106   4.369  1.00  0.00     0.069 C 
HETATM    8  H   UNL     1      65.280   6.607   4.148  1.00  0.00     0.166 HD
ENDROOT
BRANCH   4   9
HETATM    9  C   UNL     1      66.422   8.029   6.268  1.00  0.00     0.072 C 
HETATM   10  C   UNL     1      66.147   6.986   7.339  1.00  0.00     0.013 C 
ENDBRANCH   4   9
TORSDOF 1
ENDMDL
MODEL 8
REMARK VINA RESULT:      -3.0      6.017      6.911
REMARK  1 active torsions:
REMARK  status: ('A' for Active; 'I' for Inactive)
REMARK    1  A    between atoms: C_4  and  C_7 
ROOT
HETATM    1  N   UNL     1      61.185   9.515   3.106  1.00  0.00    -0.348 N 
ATOM      2  HN  UNL     1      60.764   9.922   3.941  1.00  0.00     0.167 HD
HETATM    3  N   UNL     1      61.913   8.062   1.606  1.00  0.00    -0.354 N 
HETATM    4  C   UNL     1      61.299   8.236   2.821  1.00  0.00     0.080 A 
HETATM    5  C   UNL     1      61.749  10.191   2.050  1.00  0.00     0.022 A 
HETATM    6  C   UNL     1      62.205   9.300   1.104  1.00  0.00     0.114 A 
HETATM    7  C   UNL     1      61.806  11.668   2.049  1.00  0.00     0.069 C 
HETATM    8  H   UNL     1      62.109   7.200   1.172  1.00  0.00     0.166 HD
ENDROOT
BRANCH   4   9
HETATM    9  C   UNL     1      60.851   7.097   3.668  1.00  0.00     0.072 C 
HETATM   10  C   UNL     1      61.690   6.985   4.931  1.00  0.00     0.013 C 
ENDBRANCH   4   9
TORSDOF 1
ENDMDL
MODEL 9
REMARK VINA RESULT:      -3.0     11.479     12.532
REMARK  1 active torsions:
REMARK  status: ('A' for Active; 'I' for Inactive)
REMARK    1  A    between atoms: C_4  and  C_7 
ROOT
HETATM    1  N   UNL     1      56.974   1.745  14.269  1.00  0.00    -0.348 N 
ATOM      2  HN  UNL     1      57.044   1.350  15.207  1.00  0.00     0.167 HD
HETATM    3  N   UNL     1      57.486   2.489  12.250  1.00  0.00    -0.354 N 
HETATM    4  C   UNL     1      57.958   1.949  13.420  1.00  0.00     0.080 A 
HETATM    5  C   UNL     1      55.831   2.173  13.635  1.00  0.00     0.022 A 
HETATM    6  C   UNL     1      56.133   2.637  12.374  1.00  0.00     0.114 A 
HETATM    7  C   UNL     1      54.522   2.101  14.319  1.00  0.00     0.069 C 
HETATM    8  H   UNL     1      58.025   2.728  11.462  1.00  0.00     0.166 HD
ENDROOT
BRANCH   4   9
HETATM    9  C   UNL     1      59.400   1.662  13.651  1.00  0.00     0.072 C 
HETATM   10  C   UNL     1      59.937   0.671  12.631  1.00  0.00     0.013 C 
ENDBRANCH   4   9
TORSDOF 1
ENDMDL
