MODEL 1
REMARK VINA RESULT:      -4.3      0.000      0.000
REMARK  1 active torsions:
REMARK  status: ('A' for Active; 'I' for Inactive)
REMARK    1  A    between atoms: C_1  and  C_3 
ROOT
HETATM    1  C   UNL     1      62.521  10.195   4.091  1.00  0.00     0.081 A 
HETATM    2  S   UNL     1      62.736   8.742   3.210  1.00  0.00    -0.088 SA
HETATM    3  C   UNL     1      61.969  11.182   3.296  1.00  0.00     0.027 A 
HETATM    4  C   UNL     1      62.104   9.427   1.775  1.00  0.00    -0.020 A 
HETATM    5  C   UNL     1      61.727  10.739   1.963  1.00  0.00     0.015 A 
HETATM    6  C   UNL     1      62.020   8.610   0.530  1.00  0.00     0.056 C 
ENDROOT
BRANCH   1   7
HETATM    7  C   UNL     1      62.912  10.251   5.480  1.00  0.00     0.216 C 
HETATM    8  O   UNL     1      63.134  11.229   6.180  1.00  0.00    -0.643 OA
HETATM    9  O   UNL     1      63.028   9.012   6.013  1.00  0.00    -0.643 OA
ENDBRANCH   1   7
TORSDOF 1
ENDMDL
MODEL 2
REMARK VINA RESULT:      -4.2      1.170      1.632
REMARK  1 active torsions:
REMARK  status: ('A' for Active; 'I' for Inactive)
REMARK    1  A    between atoms: C_1  and  C_3 
ROOT
HETATM    1  C   UNL     1      62.347  10.086   3.498  1.00  0.00     0.081 A 
HETATM    2  S   UNL     1      62.848   8.448   3.481  1.00  0.00    -0.088 SA
HETATM    3  C   UNL     1      61.877  10.475   2.257  1.00  0.00     0.027 A 
HETATM    4  C   UNL     1      62.448   8.261   1.828  1.00  0.00    -0.020 A 
HETATM    5  C   UNL     1      61.934   9.424   1.297  1.00  0.00     0.015 A 
HETATM    6  C   UNL     1      62.673   6.954   1.148  1.00  0.00     0.056 C 
ENDROOT
BRANCH   1   7
HETATM    7  C   UNL     1      62.458  10.854   4.716  1.00  0.00     0.216 C 
HETATM    8  O   UNL     1      62.956  10.534   5.787  1.00  0.00    -0.643 OA
HETATM    9  O   UNL     1      61.914  12.086   4.578  1.00  0.00    -0.643 OA
ENDBRANCH   1   7
TORSDOF 1
ENDMDL
MODEL 3
REMARK VINA RESULT:      -4.2      0.355      1.099
REMARK  1 active torsions:
REMARK  status: ('A' for Active; 'I' for Inactive)
REMARK    1  A    between atoms: C_1  and  C_3 
ROOT
HETATM    1  C   UNL     1      62.552   9.790   4.021  1.00  0.00     0.081 A 
HETATM    2  S   UNL     1      62.806   8.414   3.033  1.00  0.00    -0.088 SA
HETATM    3  C   UNL     1      62.004  10.830   3.293  1.00  0.00     0.027 A 
HETATM    4  C   UNL     1      62.199   9.204   1.642  1.00  0.00    -0.020 A 
HETATM    5  C   UNL     1      61.800  10.492   1.924  1.00  0.00     0.015 A 
HETATM    6  C   UNL     1      62.154   8.487   0.335  1.00  0.00     0.056 C 
ENDROOT
BRANCH   1   7
HETATM    7  C   UNL     1      62.909   9.740   5.419  1.00  0.00     0.216 C 
HETATM    8  O   UNL     1      63.015   8.768   6.154  1.00  0.00    -0.643 OA
HETATM    9  O   UNL     1      63.145  10.977   5.915  1.00  0.00    -0.643 OA
ENDBRANCH   1   7
TORSDOF 1
ENDMDL
MODEL 4
REMARK VINA RESULT:      -4.0      1.984      2.513
REMARK  1 active torsions:
REMARK  status: ('A' for Active; 'I' for Inactive)
REMARK    1  A    between atoms: C_1  and  C_3 
ROOT
HETATM    1  C   UNL     1      63.193   9.754   4.734  1.00  0.00     0.081 A 
HETATM    2  S   UNL     1      62.304   9.311   3.338  1.00  0.00    -0.088 SA
HETATM    3  C   UNL     1      64.159   8.808   5.029  1.00  0.00     0.027 A 
HETATM    4  C   UNL     1      63.195   7.865   3.134  1.00  0.00    -0.020 A 
HETATM    5  C   UNL     1      64.160   7.722   4.107  1.00  0.00     0.015 A 
HETATM    6  C   UNL     1      62.877   6.944   2.004  1.00  0.00     0.056 C 
ENDROOT
BRANCH   1   7
HETATM    7  C   UNL     1      62.873  10.981   5.424  1.00  0.00     0.216 C 
HETATM    8  O   UNL     1      63.219  11.353   6.537  1.00  0.00    -0.643 OA
HETATM    9  O   UNL     1      62.078  11.779   4.674  1.00  0.00    -0.643 OA
ENDBRANCH   1   7
TORSDOF 1
ENDMDL
MODEL 5
REMARK VINA RESULT:      -4.0      2.497      3.533
REMARK  1 active torsions:
REMARK  status: ('A' for Active; 'I' for Inactive)
REMARK    1  A    between atoms: C_1  and  C_3 
ROOT
HETATM    1  C   UNL     1      62.011   9.950   3.829  1.00  0.00     0.081 A 
HETATM    2  S   UNL     1      63.073   9.571   5.119  1.00  0.00    -0.088 SA
HETATM    3  C   UNL     1      61.316   8.830   3.412  1.00  0.00     0.027 A 
HETATM    4  C   UNL     1      62.615   7.923   5.115  1.00  0.00    -0.020 A 
HETATM    5  C   UNL     1      61.663   7.664   4.153  1.00  0.00     0.015 A 
HETATM    6  C   UNL     1      63.237   6.971   6.080  1.00  0.00     0.056 C 
ENDROOT
BRANCH   1   7
HETATM    7  C   UNL     1      61.948  11.305   3.332  1.00  0.00     0.216 C 
HETATM    8  O   UNL     1      61.981  11.704   2.176  1.00  0.00    -0.643 OA
HETATM    9  O   UNL     1      61.837  12.199   4.342  1.00  0.00    -0.643 OA
ENDBRANCH   1   7
TORSDOF 1
ENDMDL
MODEL 6
REMARK VINA RESULT:      -3.9      1.915      2.497
REMARK  1 active torsions:
REMARK  status: ('A' for Active; 'I' for Inactive)
REMARK    1  A    between atoms: C_1  and  C_3 
ROOT
HETATM    1  C   UNL     1      62.825   9.091   4.971  1.00  0.00     0.081 A 
HETATM    2  S   UNL     1      62.386   9.077   3.316  1.00  0.00    -0.088 SA
HETATM    3  C   UNL     1      62.761  10.370   5.492  1.00  0.00     0.027 A 
HETATM    4  C   UNL     1      62.121  10.767   3.291  1.00  0.00    -0.020 A 
HETATM    5  C   UNL     1      62.354  11.334   4.525  1.00  0.00     0.015 A 
HETATM    6  C   UNL     1      61.691  11.438   2.031  1.00  0.00     0.056 C 
ENDROOT
BRANCH   1   7
HETATM    7  C   UNL     1      63.198   7.856   5.621  1.00  0.00     0.216 C 
HETATM    8  O   UNL     1      63.181   7.576   6.812  1.00  0.00    -0.643 OA
HETATM    9  O   UNL     1      63.611   6.929   4.725  1.00  0.00    -0.643 OA
ENDBRANCH   1   7
TORSDOF 1
ENDMDL
MODEL 7
REMARK VINA RESULT:      -3.9      2.290      3.030
REMARK  1 active torsions:
REMARK  status: ('A' for Active; 'I' for Inactive)
REMARK    1  A    between atoms: C_1  and  C_3 
ROOT
HETATM    1  C   UNL     1      61.852   9.781   2.194  1.00  0.00     0.081 A 
HETATM    2  S   UNL     1      61.410   8.542   3.292  1.00  0.00    -0.088 SA
HETATM    3  C   UNL     1      62.197   9.255   0.963  1.00  0.00     0.027 A 
HETATM    4  C   UNL     1      61.684   7.312   2.135  1.00  0.00    -0.020 A 
HETATM    5  C   UNL     1      62.098   7.834   0.929  1.00  0.00     0.015 A 
HETATM    6  C   UNL     1      61.469   5.882   2.500  1.00  0.00     0.056 C 
ENDROOT
BRANCH   1   7
HETATM    7  C   UNL     1      61.830  11.159   2.627  1.00  0.00     0.216 C 
HETATM    8  O   UNL     1      61.883  12.179   1.954  1.00  0.00    -0.643 OA
HETATM    9  O   UNL     1      61.735  11.254   3.974  1.00  0.00    -0.643 OA
ENDBRANCH   1   7
TORSDOF 1
ENDMDL
MODEL 8
REMARK VINA RESULT:      -3.4      2.633      3.887
REMARK  1 active torsions:
REMARK  status: ('A' for Active; 'I' for Inactive)
REMARK    1  A    between atoms: C_1  and  C_3 
ROOT
HETATM    1  C   UNL     1      62.361   9.877   3.256  1.00  0.00     0.081 A 
HETATM    2  S   UNL     1      62.962   8.284   3.441  1.00  0.00    -0.088 SA
HETATM    3  C   UNL     1      62.413  10.570   4.452  1.00  0.00     0.027 A 
HETATM    4  C   UNL     1      63.281   8.514   5.106  1.00  0.00    -0.020 A 
HETATM    5  C   UNL     1      62.944   9.785   5.516  1.00  0.00     0.015 A 
HETATM    6  C   UNL     1      63.855   7.402   5.918  1.00  0.00     0.056 C 
ENDROOT
BRANCH   1   7
HETATM    7  C   UNL     1      61.888  10.316   1.965  1.00  0.00     0.216 C 
HETATM    8  O   UNL     1      61.445   9.650   1.038  1.00  0.00    -0.643 OA
HETATM    9  O   UNL     1      61.975  11.661   1.834  1.00  0.00    -0.643 OA
ENDBRANCH   1   7
TORSDOF 1
ENDMDL
MODEL 9
REMARK VINA RESULT:      -3.3      5.629      6.309
REMARK  1 active torsions:
REMARK  status: ('A' for Active; 'I' for Inactive)
REMARK    1  A    between atoms: C_1  and  C_3 
ROOT
HETATM    1  C   UNL     1      66.453   7.083   5.442  1.00  0.00     0.081 A 
HETATM    2  S   UNL     1      66.893   5.904   6.604  1.00  0.00    -0.088 SA
HETATM    3  C   UNL     1      66.635   6.607   4.157  1.00  0.00     0.027 A 
HETATM    4  C   UNL     1      67.331   4.769   5.401  1.00  0.00    -0.020 A 
HETATM    5  C   UNL     1      67.139   5.274   4.134  1.00  0.00     0.015 A 
HETATM    6  C   UNL     1      67.847   3.426   5.793  1.00  0.00     0.056 C 
ENDROOT
BRANCH   1   7
HETATM    7  C   UNL     1      65.971   8.372   5.880  1.00  0.00     0.216 C 
HETATM    8  O   UNL     1      65.027   9.027   5.460  1.00  0.00    -0.643 OA
HETATM    9  O   UNL     1      66.717   8.860   6.900  1.00  0.00    -0.643 OA
ENDBRANCH   1   7
TORSDOF 1
ENDMDL
