MODEL 1
REMARK VINA RESULT:      -4.9      0.000      0.000
REMARK  3 active torsions:
REMARK  status: ('A' for Active; 'I' for Inactive)
REMARK    1  A    between atoms: C_1  and  C_6 
REMARK    2  A    between atoms: C_6  and  N_9 
REMARK    3  A    between atoms: C_10  and  O_12 
ROOT
HETATM    1  C   UNL     1      63.317   6.988   3.337  1.00  0.00    -0.005 A 
HETATM    2  C   UNL     1      62.850   8.336   3.180  1.00  0.00     0.003 A 
HETATM    3  N   UNL     1      62.701   7.301   1.213  1.00  0.00    -0.365 N 
HETATM    4  C   UNL     1      63.223   6.391   2.091  1.00  0.00     0.098 A 
HETATM    5  C   UNL     1      62.464   8.495   1.850  1.00  0.00     0.043 A 
HETATM    6  C   UNL     1      62.692   9.429   4.057  1.00  0.00     0.051 A 
HETATM    7  C   UNL     1      61.930   9.691   1.356  1.00  0.00     0.033 A 
HETATM    8  C   UNL     1      62.168  10.641   3.587  1.00  0.00     0.069 A 
HETATM    9  C   UNL     1      61.791  10.762   2.251  1.00  0.00     0.039 A 
HETATM   10  H   UNL     1      62.522   7.126   0.261  1.00  0.00     0.165 HD
ENDROOT
BRANCH   1  11
HETATM   11  C   UNL     1      63.781   6.329   4.604  1.00  0.00     0.274 C 
BRANCH  11  12
HETATM   12  N   UNL     1      64.884   7.086   5.219  1.00  0.00    -0.075 N 
HETATM   13  C   UNL     1      65.059   6.741   6.632  1.00  0.00     0.269 C 
HETATM   14  C   UNL     1      66.132   6.847   4.494  1.00  0.00     0.269 C 
HETATM   15  H   UNL     1      64.640   8.075   5.162  1.00  0.00     0.279 HD
ENDBRANCH  11  12
ENDBRANCH   1  11
BRANCH   8  16
HETATM   16  O   UNL     1      62.076  11.622   4.538  1.00  0.00    -0.356 OA
HETATM   17  C   UNL     1      62.773  11.405   5.756  1.00  0.00     0.210 C 
ENDBRANCH   8  16
TORSDOF 3
ENDMDL
MODEL 2
REMARK VINA RESULT:      -4.8      2.269      3.481
REMARK  3 active torsions:
REMARK  status: ('A' for Active; 'I' for Inactive)
REMARK    1  A    between atoms: C_1  and  C_6 
REMARK    2  A    between atoms: C_6  and  N_9 
REMARK    3  A    between atoms: C_10  and  O_12 
ROOT
HETATM    1  C   UNL     1      63.114   8.608   4.907  1.00  0.00    -0.005 A 
HETATM    2  C   UNL     1      62.761   8.567   3.516  1.00  0.00     0.003 A 
HETATM    3  N   UNL     1      62.344  10.612   4.294  1.00  0.00    -0.365 N 
HETATM    4  C   UNL     1      62.822   9.886   5.350  1.00  0.00     0.098 A 
HETATM    5  C   UNL     1      62.296   9.833   3.163  1.00  0.00     0.043 A 
HETATM    6  C   UNL     1      62.823   7.575   2.516  1.00  0.00     0.051 A 
HETATM    7  C   UNL     1      61.891  10.154   1.863  1.00  0.00     0.033 A 
HETATM    8  C   UNL     1      62.416   7.867   1.206  1.00  0.00     0.069 A 
HETATM    9  C   UNL     1      61.959   9.145   0.891  1.00  0.00     0.039 A 
HETATM   10  H   UNL     1      62.072  11.557   4.337  1.00  0.00     0.165 HD
ENDROOT
BRANCH   1  11
HETATM   11  C   UNL     1      63.718   7.501   5.723  1.00  0.00     0.274 C 
BRANCH  11  12
HETATM   12  N   UNL     1      65.065   7.865   6.190  1.00  0.00    -0.075 N 
HETATM   13  C   UNL     1      65.565   6.924   7.196  1.00  0.00     0.269 C 
HETATM   14  C   UNL     1      65.997   7.922   5.063  1.00  0.00     0.269 C 
HETATM   15  H   UNL     1      64.997   8.785   6.624  1.00  0.00     0.279 HD
ENDBRANCH  11  12
ENDBRANCH   1  11
BRANCH   8  16
HETATM   16  O   UNL     1      62.519   6.815   0.336  1.00  0.00    -0.356 OA
HETATM   17  C   UNL     1      63.437   5.785   0.676  1.00  0.00     0.210 C 
ENDBRANCH   8  16
TORSDOF 3
ENDMDL
MODEL 3
REMARK VINA RESULT:      -4.7      2.164      3.904
REMARK  3 active torsions:
REMARK  status: ('A' for Active; 'I' for Inactive)
REMARK    1  A    between atoms: C_1  and  C_6 
REMARK    2  A    between atoms: C_6  and  N_9 
REMARK    3  A    between atoms: C_10  and  O_12 
ROOT
HETATM    1  C   UNL     1      62.207   8.310   1.694  1.00  0.00    -0.005 A 
HETATM    2  C   UNL     1      62.637   8.844   2.956  1.00  0.00     0.003 A 
HETATM    3  N   UNL     1      61.289  10.325   1.983  1.00  0.00    -0.365 N 
HETATM    4  C   UNL     1      61.389   9.268   1.120  1.00  0.00     0.098 A 
HETATM    5  C   UNL     1      62.039  10.094   3.109  1.00  0.00     0.043 A 
HETATM    6  C   UNL     1      63.459   8.363   3.996  1.00  0.00     0.051 A 
HETATM    7  C   UNL     1      62.223  10.883   4.250  1.00  0.00     0.033 A 
HETATM    8  C   UNL     1      63.667   9.138   5.146  1.00  0.00     0.069 A 
HETATM    9  C   UNL     1      63.050  10.382   5.265  1.00  0.00     0.039 A 
HETATM   10  H   UNL     1      60.755  11.136   1.819  1.00  0.00     0.165 HD
ENDROOT
BRANCH   1  11
HETATM   11  C   UNL     1      62.539   6.965   1.117  1.00  0.00     0.274 C 
BRANCH  11  12
HETATM   12  N   UNL     1      61.425   6.020   1.304  1.00  0.00    -0.075 N 
HETATM   13  C   UNL     1      61.337   5.057   0.204  1.00  0.00     0.269 C 
HETATM   14  C   UNL     1      61.570   5.308   2.574  1.00  0.00     0.269 C 
HETATM   15  H   UNL     1      60.564   6.567   1.315  1.00  0.00     0.279 HD
ENDBRANCH  11  12
ENDBRANCH   1  11
BRANCH   8  16
HETATM   16  O   UNL     1      64.491   8.559   6.074  1.00  0.00    -0.356 OA
HETATM   17  C   UNL     1      65.773   8.144   5.625  1.00  0.00     0.210 C 
ENDBRANCH   8  16
TORSDOF 3
ENDMDL
MODEL 4
REMARK VINA RESULT:      -4.5      2.130      3.165
REMARK  3 active torsions:
REMARK  status: ('A' for Active; 'I' for Inactive)
REMARK    1  A    between atoms: C_1  and  C_6 
REMARK    2  A    between atoms: C_6  and  N_9 
REMARK    3  A    between atoms: C_10  and  O_12 
ROOT
HETATM    1  C   UNL     1      64.496   7.492   4.375  1.00  0.00    -0.005 A 
HETATM    2  C   UNL     1      63.517   8.357   3.780  1.00  0.00     0.003 A 
HETATM    3  N   UNL     1      64.106   9.205   5.754  1.00  0.00    -0.365 N 
HETATM    4  C   UNL     1      64.818   8.046   5.602  1.00  0.00     0.098 A 
HETATM    5  C   UNL     1      63.306   9.419   4.658  1.00  0.00     0.043 A 
HETATM    6  C   UNL     1      62.813   8.350   2.558  1.00  0.00     0.051 A 
HETATM    7  C   UNL     1      62.427  10.470   4.374  1.00  0.00     0.033 A 
HETATM    8  C   UNL     1      61.920   9.386   2.252  1.00  0.00     0.069 A 
HETATM    9  C   UNL     1      61.737  10.432   3.154  1.00  0.00     0.039 A 
HETATM   10  H   UNL     1      64.160   9.800   6.536  1.00  0.00     0.165 HD
ENDROOT
BRANCH   1  11
HETATM   11  C   UNL     1      65.090   6.249   3.779  1.00  0.00     0.274 C 
BRANCH  11  12
HETATM   12  N   UNL     1      65.867   5.502   4.782  1.00  0.00    -0.075 N 
HETATM   13  C   UNL     1      65.181   4.277   5.200  1.00  0.00     0.269 C 
HETATM   14  C   UNL     1      67.192   5.171   4.257  1.00  0.00     0.269 C 
HETATM   15  H   UNL     1      65.964   6.105   5.600  1.00  0.00     0.279 HD
ENDBRANCH  11  12
ENDBRANCH   1  11
BRANCH   8  16
HETATM   16  O   UNL     1      61.296   9.253   1.041  1.00  0.00    -0.356 OA
HETATM   17  C   UNL     1      60.259   8.285   0.953  1.00  0.00     0.210 C 
ENDBRANCH   8  16
TORSDOF 3
ENDMDL
MODEL 5
REMARK VINA RESULT:      -4.4      2.538      5.437
REMARK  3 active torsions:
REMARK  status: ('A' for Active; 'I' for Inactive)
REMARK    1  A    between atoms: C_1  and  C_6 
REMARK    2  A    between atoms: C_6  and  N_9 
REMARK    3  A    between atoms: C_10  and  O_12 
ROOT
HETATM    1  C   UNL     1      62.674   8.834   4.175  1.00  0.00    -0.005 A 
HETATM    2  C   UNL     1      63.870   8.042   4.136  1.00  0.00     0.003 A 
HETATM    3  N   UNL     1      64.135   9.651   5.654  1.00  0.00    -0.365 N 
HETATM    4  C   UNL     1      62.889   9.827   5.115  1.00  0.00     0.098 A 
HETATM    5  C   UNL     1      64.755   8.570   5.075  1.00  0.00     0.043 A 
HETATM    6  C   UNL     1      64.272   6.904   3.406  1.00  0.00     0.051 A 
HETATM    7  C   UNL     1      66.017   8.016   5.320  1.00  0.00     0.033 A 
HETATM    8  C   UNL     1      65.533   6.334   3.625  1.00  0.00     0.069 A 
HETATM    9  C   UNL     1      66.389   6.889   4.575  1.00  0.00     0.039 A 
HETATM   10  H   UNL     1      64.530  10.217   6.355  1.00  0.00     0.165 HD
ENDROOT
BRANCH   1  11
HETATM   11  C   UNL     1      61.415   8.616   3.387  1.00  0.00     0.274 C 
BRANCH  11  12
HETATM   12  N   UNL     1      61.646   8.842   1.950  1.00  0.00    -0.075 N 
HETATM   13  C   UNL     1      60.523   8.366   1.137  1.00  0.00     0.269 C 
HETATM   14  C   UNL     1      61.878  10.262   1.689  1.00  0.00     0.269 C 
HETATM   15  H   UNL     1      62.474   8.306   1.690  1.00  0.00     0.279 HD
ENDBRANCH  11  12
ENDBRANCH   1  11
BRANCH   8  16
HETATM   16  O   UNL     1      65.800   5.240   2.845  1.00  0.00    -0.356 OA
HETATM   17  C   UNL     1      67.079   4.640   2.995  1.00  0.00     0.210 C 
ENDBRANCH   8  16
TORSDOF 3
ENDMDL
MODEL 6
REMARK VINA RESULT:      -4.1      2.354      2.787
REMARK  3 active torsions:
REMARK  status: ('A' for Active; 'I' for Inactive)
REMARK    1  A    between atoms: C_1  and  C_6 
REMARK    2  A    between atoms: C_6  and  N_9 
REMARK    3  A    between atoms: C_10  and  O_12 
ROOT
HETATM    1  C   UNL     1      60.517   6.857   3.269  1.00  0.00    -0.005 A 
HETATM    2  C   UNL     1      61.058   8.160   3.008  1.00  0.00     0.003 A 
HETATM    3  N   UNL     1      60.977   7.030   1.090  1.00  0.00    -0.365 N 
HETATM    4  C   UNL     1      60.502   6.187   2.057  1.00  0.00     0.098 A 
HETATM    5  C   UNL     1      61.323   8.240   1.642  1.00  0.00     0.043 A 
HETATM    6  C   UNL     1      61.320   9.292   3.806  1.00  0.00     0.051 A 
HETATM    7  C   UNL     1      61.835   9.393   1.037  1.00  0.00     0.033 A 
HETATM    8  C   UNL     1      61.841  10.459   3.228  1.00  0.00     0.069 A 
HETATM    9  C   UNL     1      62.090  10.501   1.858  1.00  0.00     0.039 A 
HETATM   10  H   UNL     1      61.059   6.803   0.136  1.00  0.00     0.165 HD
ENDROOT
BRANCH   1  11
HETATM   11  C   UNL     1      60.024   6.324   4.583  1.00  0.00     0.274 C 
BRANCH  11  12
HETATM   12  N   UNL     1      60.850   5.194   5.038  1.00  0.00    -0.075 N 
HETATM   13  C   UNL     1      62.041   5.647   5.761  1.00  0.00     0.269 C 
HETATM   14  C   UNL     1      60.066   4.300   5.890  1.00  0.00     0.269 C 
HETATM   15  H   UNL     1      61.158   4.690   4.206  1.00  0.00     0.279 HD
ENDBRANCH  11  12
ENDBRANCH   1  11
BRANCH   8  16
HETATM   16  O   UNL     1      62.056  11.480   4.115  1.00  0.00    -0.356 OA
HETATM   17  C   UNL     1      62.693  11.145   5.340  1.00  0.00     0.210 C 
ENDBRANCH   8  16
TORSDOF 3
ENDMDL
MODEL 7
REMARK VINA RESULT:      -4.1      3.653      4.481
REMARK  3 active torsions:
REMARK  status: ('A' for Active; 'I' for Inactive)
REMARK    1  A    between atoms: C_1  and  C_6 
REMARK    2  A    between atoms: C_6  and  N_9 
REMARK    3  A    between atoms: C_10  and  O_12 
ROOT
HETATM    1  C   UNL     1      60.263   6.696   4.529  1.00  0.00    -0.005 A 
HETATM    2  C   UNL     1      61.546   7.310   4.727  1.00  0.00     0.003 A 
HETATM    3  N   UNL     1      60.471   8.417   3.121  1.00  0.00    -0.365 N 
HETATM    4  C   UNL     1      59.641   7.403   3.514  1.00  0.00     0.098 A 
HETATM    5  C   UNL     1      61.639   8.384   3.843  1.00  0.00     0.043 A 
HETATM    6  C   UNL     1      62.626   7.067   5.600  1.00  0.00     0.051 A 
HETATM    7  C   UNL     1      62.756   9.225   3.791  1.00  0.00     0.033 A 
HETATM    8  C   UNL     1      63.762   7.888   5.563  1.00  0.00     0.069 A 
HETATM    9  C   UNL     1      63.817   8.955   4.667  1.00  0.00     0.039 A 
HETATM   10  H   UNL     1      60.261   9.077   2.421  1.00  0.00     0.165 HD
ENDROOT
BRANCH   1  11
HETATM   11  C   UNL     1      59.683   5.540   5.290  1.00  0.00     0.274 C 
BRANCH  11  12
HETATM   12  N   UNL     1      59.066   5.992   6.548  1.00  0.00    -0.075 N 
HETATM   13  C   UNL     1      57.669   5.564   6.654  1.00  0.00     0.269 C 
HETATM   14  C   UNL     1      59.824   5.493   7.696  1.00  0.00     0.269 C 
HETATM   15  H   UNL     1      59.085   7.013   6.544  1.00  0.00     0.279 HD
ENDBRANCH  11  12
ENDBRANCH   1  11
BRANCH   8  16
HETATM   16  O   UNL     1      64.740   7.538   6.455  1.00  0.00    -0.356 OA
HETATM   17  C   UNL     1      66.062   7.967   6.162  1.00  0.00     0.210 C 
ENDBRANCH   8  16
TORSDOF 3
ENDMDL
MODEL 8
REMARK VINA RESULT:      -4.1      2.170      4.760
REMARK  3 active torsions:
REMARK  status: ('A' for Active; 'I' for Inactive)
REMARK    1  A    between atoms: C_1  and  C_6 
REMARK    2  A    between atoms: C_6  and  N_9 
REMARK    3  A    between atoms: C_10  and  O_12 
ROOT
HETATM    1  C   UNL     1      63.236   7.202   3.133  1.00  0.00    -0.005 A 
HETATM    2  C   UNL     1      64.387   7.053   3.977  1.00  0.00     0.003 A 
HETATM    3  N   UNL     1      64.610   5.693   2.227  1.00  0.00    -0.365 N 
HETATM    4  C   UNL     1      63.408   6.329   2.073  1.00  0.00     0.098 A 
HETATM    5  C   UNL     1      65.228   6.115   3.379  1.00  0.00     0.043 A 
HETATM    6  C   UNL     1      64.806   7.653   5.182  1.00  0.00     0.051 A 
HETATM    7  C   UNL     1      66.463   5.749   3.926  1.00  0.00     0.033 A 
HETATM    8  C   UNL     1      66.035   7.299   5.757  1.00  0.00     0.069 A 
HETATM    9  C   UNL     1      66.850   6.359   5.128  1.00  0.00     0.039 A 
HETATM   10  H   UNL     1      64.978   5.028   1.602  1.00  0.00     0.165 HD
ENDROOT
BRANCH   1  11
HETATM   11  C   UNL     1      62.083   8.144   3.329  1.00  0.00     0.274 C 
BRANCH  11  12
HETATM   12  N   UNL     1      62.451   9.517   2.946  1.00  0.00    -0.075 N 
HETATM   13  C   UNL     1      61.871   9.895   1.655  1.00  0.00     0.269 C 
HETATM   14  C   UNL     1      62.025  10.465   3.975  1.00  0.00     0.269 C 
HETATM   15  H   UNL     1      63.467   9.543   2.856  1.00  0.00     0.279 HD
ENDBRANCH  11  12
ENDBRANCH   1  11
BRANCH   8  16
HETATM   16  O   UNL     1      66.317   7.949   6.929  1.00  0.00    -0.356 OA
HETATM   17  C   UNL     1      66.809   7.157   8.001  1.00  0.00     0.210 C 
ENDBRANCH   8  16
TORSDOF 3
ENDMDL
MODEL 9
REMARK VINA RESULT:      -4.1      2.763      4.390
REMARK  3 active torsions:
REMARK  status: ('A' for Active; 'I' for Inactive)
REMARK    1  A    between atoms: C_1  and  C_6 
REMARK    2  A    between atoms: C_6  and  N_9 
REMARK    3  A    between atoms: C_10  and  O_12 
ROOT
HETATM    1  C   UNL     1      66.551   6.729   5.306  1.00  0.00    -0.005 A 
HETATM    2  C   UNL     1      65.369   7.194   4.638  1.00  0.00     0.003 A 
HETATM    3  N   UNL     1      65.826   8.582   6.319  1.00  0.00    -0.365 N 
HETATM    4  C   UNL     1      66.786   7.608   6.350  1.00  0.00     0.098 A 
HETATM    5  C   UNL     1      64.949   8.355   5.286  1.00  0.00     0.043 A 
HETATM    6  C   UNL     1      64.633   6.749   3.521  1.00  0.00     0.051 A 
HETATM    7  C   UNL     1      63.833   9.091   4.871  1.00  0.00     0.033 A 
HETATM    8  C   UNL     1      63.506   7.462   3.089  1.00  0.00     0.069 A 
HETATM    9  C   UNL     1      63.119   8.620   3.760  1.00  0.00     0.039 A 
HETATM   10  H   UNL     1      65.771   9.338   6.947  1.00  0.00     0.165 HD
ENDROOT
BRANCH   1  11
HETATM   11  C   UNL     1      67.398   5.546   4.935  1.00  0.00     0.274 C 
BRANCH  11  12
HETATM   12  N   UNL     1      66.947   4.333   5.636  1.00  0.00    -0.075 N 
HETATM   13  C   UNL     1      66.376   3.350   4.711  1.00  0.00     0.269 C 
HETATM   14  C   UNL     1      68.056   3.729   6.375  1.00  0.00     0.269 C 
HETATM   15  H   UNL     1      66.215   4.615   6.289  1.00  0.00     0.279 HD
ENDBRANCH  11  12
ENDBRANCH   1  11
BRANCH   8  16
HETATM   16  O   UNL     1      62.878   6.918   2.000  1.00  0.00    -0.356 OA
HETATM   17  C   UNL     1      61.619   6.300   2.224  1.00  0.00     0.210 C 
ENDBRANCH   8  16
TORSDOF 3
ENDMDL
