MODEL 1
REMARK VINA RESULT:      -5.6      0.000      0.000
REMARK  1 active torsions:
REMARK  status: ('A' for Active; 'I' for Inactive)
REMARK    1  A    between atoms: C_3  and  O_8 
ROOT
HETATM    1  N   UNL     1      61.847  10.866   2.930  1.00  0.00    -0.336 N 
ATOM      2  HN  UNL     1      61.360  11.565   2.368  1.00  0.00     0.168 HD
HETATM    3  C   UNL     1      62.222  11.129   4.190  1.00  0.00     0.140 A 
HETATM    4  C   UNL     1      62.131   9.654   2.432  1.00  0.00     0.044 A 
HETATM    5  C   UNL     1      63.233   8.986   4.481  1.00  0.00    -0.045 A 
HETATM    6  C   UNL     1      62.821   8.660   3.167  1.00  0.00    -0.003 A 
HETATM    7  C   UNL     1      62.913  10.246   4.998  1.00  0.00     0.063 A 
HETATM    8  C   UNL     1      64.000   8.018   5.338  1.00  0.00     0.049 C 
HETATM    9  C   UNL     1      61.711   9.358   1.141  1.00  0.00     0.030 A 
HETATM   10  C   UNL     1      63.048   7.401   2.567  1.00  0.00     0.014 A 
HETATM   11  C   UNL     1      61.920   8.104   0.565  1.00  0.00     0.002 A 
HETATM   12  C   UNL     1      62.586   7.121   1.281  1.00  0.00     0.001 A 
ENDROOT
BRANCH   3  13
HETATM   13  O   UNL     1      61.856  12.360   4.649  1.00  0.00    -0.346 OA
HETATM   14  H   UNL     1      62.159  12.658   5.484  1.00  0.00     0.219 HD
ENDBRANCH   3  13
TORSDOF 1
ENDMDL
MODEL 2
REMARK VINA RESULT:      -5.6      2.095      3.398
REMARK  1 active torsions:
REMARK  status: ('A' for Active; 'I' for Inactive)
REMARK    1  A    between atoms: C_3  and  O_8 
ROOT
HETATM    1  N   UNL     1      62.941   9.177   5.568  1.00  0.00    -0.336 N 
ATOM      2  HN  UNL     1      62.909   9.772   6.397  1.00  0.00     0.168 HD
HETATM    3  C   UNL     1      63.298   7.888   5.654  1.00  0.00     0.140 A 
HETATM    4  C   UNL     1      62.628   9.661   4.357  1.00  0.00     0.044 A 
HETATM    5  C   UNL     1      63.092   7.532   3.303  1.00  0.00    -0.045 A 
HETATM    6  C   UNL     1      62.676   8.879   3.178  1.00  0.00    -0.003 A 
HETATM    7  C   UNL     1      63.396   7.032   4.573  1.00  0.00     0.063 A 
HETATM    8  C   UNL     1      63.210   6.622   2.112  1.00  0.00     0.049 C 
HETATM    9  C   UNL     1      62.218  10.985   4.263  1.00  0.00     0.030 A 
HETATM   10  C   UNL     1      62.297   9.469   1.951  1.00  0.00     0.014 A 
HETATM   11  C   UNL     1      61.825  11.553   3.050  1.00  0.00     0.002 A 
HETATM   12  C   UNL     1      61.859  10.793   1.892  1.00  0.00     0.001 A 
ENDROOT
BRANCH   3  13
HETATM   13  O   UNL     1      63.553   7.450   6.921  1.00  0.00    -0.346 OA
HETATM   14  H   UNL     1      63.895   8.042   7.561  1.00  0.00     0.219 HD
ENDBRANCH   3  13
TORSDOF 1
ENDMDL
MODEL 3
REMARK VINA RESULT:      -5.4      1.003      2.992
REMARK  1 active torsions:
REMARK  status: ('A' for Active; 'I' for Inactive)
REMARK    1  A    between atoms: C_3  and  O_8 
ROOT
HETATM    1  N   UNL     1      62.922  10.219   4.907  1.00  0.00    -0.336 N 
ATOM      2  HN  UNL     1      63.168  10.517   5.852  1.00  0.00     0.168 HD
HETATM    3  C   UNL     1      62.229  11.021   4.087  1.00  0.00     0.140 A 
HETATM    4  C   UNL     1      63.281   9.012   4.447  1.00  0.00     0.044 A 
HETATM    5  C   UNL     1      62.183   9.410   2.326  1.00  0.00    -0.045 A 
HETATM    6  C   UNL     1      62.946   8.549   3.151  1.00  0.00    -0.003 A 
HETATM    7  C   UNL     1      61.832  10.674   2.809  1.00  0.00     0.063 A 
HETATM    8  C   UNL     1      61.745   9.006   0.945  1.00  0.00     0.049 C 
HETATM    9  C   UNL     1      64.034   8.189   5.275  1.00  0.00     0.030 A 
HETATM   10  C   UNL     1      63.397   7.274   2.744  1.00  0.00     0.014 A 
HETATM   11  C   UNL     1      64.494   6.939   4.856  1.00  0.00     0.002 A 
HETATM   12  C   UNL     1      64.179   6.482   3.586  1.00  0.00     0.001 A 
ENDROOT
BRANCH   3  13
HETATM   13  O   UNL     1      61.941  12.252   4.601  1.00  0.00    -0.346 OA
HETATM   14  H   UNL     1      61.207  12.360   5.172  1.00  0.00     0.219 HD
ENDBRANCH   3  13
TORSDOF 1
ENDMDL
MODEL 4
REMARK VINA RESULT:      -5.0      2.066      2.901
REMARK  1 active torsions:
REMARK  status: ('A' for Active; 'I' for Inactive)
REMARK    1  A    between atoms: C_3  and  O_8 
ROOT
HETATM    1  N   UNL     1      63.394   7.333   4.223  1.00  0.00    -0.336 N 
ATOM      2  HN  UNL     1      63.712   6.367   4.312  1.00  0.00     0.168 HD
HETATM    3  C   UNL     1      63.425   8.172   5.268  1.00  0.00     0.140 A 
HETATM    4  C   UNL     1      62.933   7.804   3.055  1.00  0.00     0.044 A 
HETATM    5  C   UNL     1      62.478   9.975   4.023  1.00  0.00    -0.045 A 
HETATM    6  C   UNL     1      62.464   9.129   2.888  1.00  0.00    -0.003 A 
HETATM    7  C   UNL     1      62.981   9.481   5.230  1.00  0.00     0.063 A 
HETATM    8  C   UNL     1      61.974  11.391   3.966  1.00  0.00     0.049 C 
HETATM    9  C   UNL     1      62.935   6.954   1.956  1.00  0.00     0.030 A 
HETATM   10  C   UNL     1      62.026   9.543   1.610  1.00  0.00     0.014 A 
HETATM   11  C   UNL     1      62.520   7.378   0.692  1.00  0.00     0.002 A 
HETATM   12  C   UNL     1      62.069   8.677   0.517  1.00  0.00     0.001 A 
ENDROOT
BRANCH   3  13
HETATM   13  O   UNL     1      63.953   7.643   6.409  1.00  0.00    -0.346 OA
HETATM   14  H   UNL     1      64.682   7.057   6.360  1.00  0.00     0.219 HD
ENDBRANCH   3  13
TORSDOF 1
ENDMDL
MODEL 5
REMARK VINA RESULT:      -4.8      2.859      4.037
REMARK  1 active torsions:
REMARK  status: ('A' for Active; 'I' for Inactive)
REMARK    1  A    between atoms: C_3  and  O_8 
ROOT
HETATM    1  N   UNL     1      65.126   9.036   5.961  1.00  0.00    -0.336 N 
ATOM      2  HN  UNL     1      65.183   9.800   6.635  1.00  0.00     0.168 HD
HETATM    3  C   UNL     1      66.023   8.040   5.966  1.00  0.00     0.140 A 
HETATM    4  C   UNL     1      64.150   8.996   5.043  1.00  0.00     0.044 A 
HETATM    5  C   UNL     1      65.027   6.951   4.090  1.00  0.00    -0.045 A 
HETATM    6  C   UNL     1      64.041   7.966   4.077  1.00  0.00    -0.003 A 
HETATM    7  C   UNL     1      66.028   6.991   5.065  1.00  0.00     0.063 A 
HETATM    8  C   UNL     1      65.026   5.828   3.089  1.00  0.00     0.049 C 
HETATM    9  C   UNL     1      63.192  10.002   5.055  1.00  0.00     0.030 A 
HETATM   10  C   UNL     1      62.959   7.993   3.169  1.00  0.00     0.014 A 
HETATM   11  C   UNL     1      62.114  10.008   4.169  1.00  0.00     0.002 A 
HETATM   12  C   UNL     1      61.994   8.999   3.226  1.00  0.00     0.001 A 
ENDROOT
BRANCH   3  13
HETATM   13  O   UNL     1      66.956   8.117   6.958  1.00  0.00    -0.346 OA
HETATM   14  H   UNL     1      67.541   7.401   7.108  1.00  0.00     0.219 HD
ENDBRANCH   3  13
TORSDOF 1
ENDMDL
MODEL 6
REMARK VINA RESULT:      -4.7      2.002      3.359
REMARK  1 active torsions:
REMARK  status: ('A' for Active; 'I' for Inactive)
REMARK    1  A    between atoms: C_3  and  O_8 
ROOT
HETATM    1  N   UNL     1      62.371   8.011   2.379  1.00  0.00    -0.336 N 
ATOM      2  HN  UNL     1      62.235   7.344   1.619  1.00  0.00     0.168 HD
HETATM    3  C   UNL     1      61.541   9.050   2.546  1.00  0.00     0.140 A 
HETATM    4  C   UNL     1      63.386   7.875   3.245  1.00  0.00     0.044 A 
HETATM    5  C   UNL     1      62.749   9.890   4.426  1.00  0.00    -0.045 A 
HETATM    6  C   UNL     1      63.625   8.785   4.303  1.00  0.00    -0.003 A 
HETATM    7  C   UNL     1      61.681  10.010   3.530  1.00  0.00     0.063 A 
HETATM    8  C   UNL     1      62.929  10.934   5.493  1.00  0.00     0.049 C 
HETATM    9  C   UNL     1      64.228   6.779   3.105  1.00  0.00     0.030 A 
HETATM   10  C   UNL     1      64.702   8.541   5.184  1.00  0.00     0.014 A 
HETATM   11  C   UNL     1      65.277   6.534   3.994  1.00  0.00     0.002 A 
HETATM   12  C   UNL     1      65.512   7.414   5.039  1.00  0.00     0.001 A 
ENDROOT
BRANCH   3  13
HETATM   13  O   UNL     1      60.503   9.098   1.662  1.00  0.00    -0.346 OA
HETATM   14  H   UNL     1      60.581   9.598   0.874  1.00  0.00     0.219 HD
ENDBRANCH   3  13
TORSDOF 1
ENDMDL
MODEL 7
REMARK VINA RESULT:      -4.7      4.479      6.760
REMARK  1 active torsions:
REMARK  status: ('A' for Active; 'I' for Inactive)
REMARK    1  A    between atoms: C_3  and  O_8 
ROOT
HETATM    1  N   UNL     1      65.802   7.909   6.834  1.00  0.00    -0.336 N 
ATOM      2  HN  UNL     1      65.456   8.557   7.542  1.00  0.00     0.168 HD
HETATM    3  C   UNL     1      65.566   8.117   5.531  1.00  0.00     0.140 A 
HETATM    4  C   UNL     1      66.507   6.821   7.176  1.00  0.00     0.044 A 
HETATM    5  C   UNL     1      66.692   6.119   4.867  1.00  0.00    -0.045 A 
HETATM    6  C   UNL     1      66.991   5.885   6.231  1.00  0.00    -0.003 A 
HETATM    7  C   UNL     1      65.973   7.268   4.519  1.00  0.00     0.063 A 
HETATM    8  C   UNL     1      67.128   5.173   3.783  1.00  0.00     0.049 C 
HETATM    9  C   UNL     1      66.792   6.618   8.521  1.00  0.00     0.030 A 
HETATM   10  C   UNL     1      67.753   4.786   6.686  1.00  0.00     0.014 A 
HETATM   11  C   UNL     1      67.564   5.541   8.959  1.00  0.00     0.002 A 
HETATM   12  C   UNL     1      68.050   4.625   8.039  1.00  0.00     0.001 A 
ENDROOT
BRANCH   3  13
HETATM   13  O   UNL     1      64.887   9.267   5.251  1.00  0.00    -0.346 OA
HETATM   14  H   UNL     1      65.203   9.846   4.586  1.00  0.00     0.219 HD
ENDBRANCH   3  13
TORSDOF 1
ENDMDL
MODEL 8
REMARK VINA RESULT:      -4.7      2.544      4.288
REMARK  1 active torsions:
REMARK  status: ('A' for Active; 'I' for Inactive)
REMARK    1  A    between atoms: C_3  and  O_8 
ROOT
HETATM    1  N   UNL     1      64.743   9.122   5.806  1.00  0.00    -0.336 N 
ATOM      2  HN  UNL     1      65.091   9.637   6.615  1.00  0.00     0.168 HD
HETATM    3  C   UNL     1      63.580   9.449   5.225  1.00  0.00     0.140 A 
HETATM    4  C   UNL     1      65.435   8.097   5.289  1.00  0.00     0.044 A 
HETATM    5  C   UNL     1      63.734   7.692   3.615  1.00  0.00    -0.045 A 
HETATM    6  C   UNL     1      64.983   7.342   4.180  1.00  0.00    -0.003 A 
HETATM    7  C   UNL     1      63.030   8.777   4.149  1.00  0.00     0.063 A 
HETATM    8  C   UNL     1      63.144   6.937   2.457  1.00  0.00     0.049 C 
HETATM    9  C   UNL     1      66.661   7.776   5.859  1.00  0.00     0.030 A 
HETATM   10  C   UNL     1      65.798   6.298   3.687  1.00  0.00     0.014 A 
HETATM   11  C   UNL     1      67.469   6.758   5.351  1.00  0.00     0.002 A 
HETATM   12  C   UNL     1      67.040   6.020   4.259  1.00  0.00     0.001 A 
ENDROOT
BRANCH   3  13
HETATM   13  O   UNL     1      62.954  10.532   5.769  1.00  0.00    -0.346 OA
HETATM   14  H   UNL     1      63.179  11.395   5.483  1.00  0.00     0.219 HD
ENDBRANCH   3  13
TORSDOF 1
ENDMDL
MODEL 9
REMARK VINA RESULT:      -4.5      1.444      1.890
REMARK  1 active torsions:
REMARK  status: ('A' for Active; 'I' for Inactive)
REMARK    1  A    between atoms: C_3  and  O_8 
ROOT
HETATM    1  N   UNL     1      61.988   8.932   2.676  1.00  0.00    -0.336 N 
ATOM      2  HN  UNL     1      61.253   9.114   1.992  1.00  0.00     0.168 HD
HETATM    3  C   UNL     1      62.166   9.737   3.733  1.00  0.00     0.140 A 
HETATM    4  C   UNL     1      62.808   7.879   2.547  1.00  0.00     0.044 A 
HETATM    5  C   UNL     1      64.032   8.490   4.543  1.00  0.00    -0.045 A 
HETATM    6  C   UNL     1      63.853   7.597   3.460  1.00  0.00    -0.003 A 
HETATM    7  C   UNL     1      63.159   9.573   4.680  1.00  0.00     0.063 A 
HETATM    8  C   UNL     1      65.131   8.304   5.553  1.00  0.00     0.049 C 
HETATM    9  C   UNL     1      62.606   7.015   1.477  1.00  0.00     0.030 A 
HETATM   10  C   UNL     1      64.645   6.445   3.257  1.00  0.00     0.014 A 
HETATM   11  C   UNL     1      63.380   5.868   1.297  1.00  0.00     0.002 A 
HETATM   12  C   UNL     1      64.399   5.578   2.191  1.00  0.00     0.001 A 
ENDROOT
BRANCH   3  13
HETATM   13  O   UNL     1      61.266  10.758   3.830  1.00  0.00    -0.346 OA
HETATM   14  H   UNL     1      61.252  11.300   4.593  1.00  0.00     0.219 HD
ENDBRANCH   3  13
TORSDOF 1
ENDMDL
