MODEL 1
REMARK VINA RESULT:      -5.3      0.000      0.000
REMARK  0 active torsions:
REMARK  status: ('A' for Active; 'I' for Inactive)
ROOT
HETATM    1  N   UNL     1      63.086   9.231   5.530  1.00  0.00    -0.354 N 
HETATM    2  C   UNL     1      63.510   7.936   5.350  1.00  0.00     0.059 A 
HETATM    3  C   UNL     1      62.647   9.773   4.345  1.00  0.00     0.043 A 
HETATM    4  C   UNL     1      62.780   8.786   3.368  1.00  0.00     0.003 A 
HETATM    5  C   UNL     1      63.337   7.630   4.001  1.00  0.00     0.006 A 
HETATM    6  N   UNL     1      64.390   5.794   5.818  1.00  0.00    -0.373 N 
ATOM      7  HN  UNL     1      64.776   5.107   6.466  1.00  0.00     0.164 HD
HETATM    8  C   UNL     1      64.030   7.021   6.256  1.00  0.00     0.117 A 
HETATM    9  C   UNL     1      63.712   6.354   3.557  1.00  0.00     0.031 A 
HETATM   10  C   UNL     1      62.382   9.087   2.049  1.00  0.00     0.014 A 
HETATM   11  C   UNL     1      62.146  11.051   4.069  1.00  0.00     0.030 A 
HETATM   12  C   UNL     1      64.230   5.492   4.511  1.00  0.00     0.088 A 
HETATM   13  C   UNL     1      61.875  10.359   1.756  1.00  0.00     0.001 A 
HETATM   14  C   UNL     1      61.764  11.326   2.752  1.00  0.00     0.002 A 
HETATM   15  H   UNL     1      63.094   9.706   6.393  1.00  0.00     0.166 HD
ENDROOT
TORSDOF 0
ENDMDL
MODEL 2
REMARK VINA RESULT:      -5.1      2.131      2.552
REMARK  0 active torsions:
REMARK  status: ('A' for Active; 'I' for Inactive)
ROOT
HETATM    1  N   UNL     1      64.690   9.065   5.745  1.00  0.00    -0.354 N 
HETATM    2  C   UNL     1      65.745   8.184   5.724  1.00  0.00     0.059 A 
HETATM    3  C   UNL     1      63.812   8.804   4.719  1.00  0.00     0.043 A 
HETATM    4  C   UNL     1      64.313   7.707   4.019  1.00  0.00     0.003 A 
HETATM    5  C   UNL     1      65.540   7.323   4.647  1.00  0.00     0.006 A 
HETATM    6  N   UNL     1      67.771   7.119   6.310  1.00  0.00    -0.373 N 
ATOM      7  HN  UNL     1      68.593   7.025   6.906  1.00  0.00     0.164 HD
HETATM    8  C   UNL     1      66.852   8.080   6.554  1.00  0.00     0.117 A 
HETATM    9  C   UNL     1      66.498   6.328   4.402  1.00  0.00     0.031 A 
HETATM   10  C   UNL     1      63.583   7.224   2.914  1.00  0.00     0.014 A 
HETATM   11  C   UNL     1      62.624   9.453   4.363  1.00  0.00     0.030 A 
HETATM   12  C   UNL     1      67.582   6.284   5.264  1.00  0.00     0.088 A 
HETATM   13  C   UNL     1      62.391   7.858   2.546  1.00  0.00     0.001 A 
HETATM   14  C   UNL     1      61.922   8.958   3.259  1.00  0.00     0.002 A 
HETATM   15  H   UNL     1      64.577   9.785   6.408  1.00  0.00     0.166 HD
ENDROOT
TORSDOF 0
ENDMDL
MODEL 3
REMARK VINA RESULT:      -5.1      1.817      4.380
REMARK  0 active torsions:
REMARK  status: ('A' for Active; 'I' for Inactive)
ROOT
HETATM    1  N   UNL     1      64.280   9.406   5.538  1.00  0.00    -0.354 N 
HETATM    2  C   UNL     1      63.276   9.368   4.600  1.00  0.00     0.059 A 
HETATM    3  C   UNL     1      65.163   8.367   5.353  1.00  0.00     0.043 A 
HETATM    4  C   UNL     1      64.719   7.642   4.247  1.00  0.00     0.003 A 
HETATM    5  C   UNL     1      63.520   8.268   3.779  1.00  0.00     0.006 A 
HETATM    6  N   UNL     1      61.319   9.941   3.408  1.00  0.00    -0.373 N 
ATOM      7  HN  UNL     1      60.508  10.539   3.253  1.00  0.00     0.164 HD
HETATM    8  C   UNL     1      62.184  10.203   4.413  1.00  0.00     0.117 A 
HETATM    9  C   UNL     1      62.618   8.004   2.738  1.00  0.00     0.031 A 
HETATM   10  C   UNL     1      65.466   6.520   3.835  1.00  0.00     0.014 A 
HETATM   11  C   UNL     1      66.311   8.020   6.077  1.00  0.00     0.030 A 
HETATM   12  C   UNL     1      61.545   8.872   2.612  1.00  0.00     0.088 A 
HETATM   13  C   UNL     1      66.618   6.160   4.544  1.00  0.00     0.001 A 
HETATM   14  C   UNL     1      67.030   6.899   5.650  1.00  0.00     0.002 A 
HETATM   15  H   UNL     1      64.358  10.085   6.246  1.00  0.00     0.166 HD
ENDROOT
TORSDOF 0
ENDMDL
MODEL 4
REMARK VINA RESULT:      -5.1      1.218      2.185
REMARK  0 active torsions:
REMARK  status: ('A' for Active; 'I' for Inactive)
ROOT
HETATM    1  N   UNL     1      62.814   7.662   2.331  1.00  0.00    -0.354 N 
HETATM    2  C   UNL     1      63.071   7.095   3.556  1.00  0.00     0.059 A 
HETATM    3  C   UNL     1      62.461   8.984   2.466  1.00  0.00     0.043 A 
HETATM    4  C   UNL     1      62.506   9.284   3.828  1.00  0.00     0.003 A 
HETATM    5  C   UNL     1      62.880   8.086   4.517  1.00  0.00     0.006 A 
HETATM    6  N   UNL     1      63.632   5.486   5.193  1.00  0.00    -0.373 N 
ATOM      7  HN  UNL     1      63.908   4.542   5.463  1.00  0.00     0.164 HD
HETATM    8  C   UNL     1      63.450   5.802   3.891  1.00  0.00     0.117 A 
HETATM    9  C   UNL     1      63.072   7.750   5.865  1.00  0.00     0.031 A 
HETATM   10  C   UNL     1      62.195  10.596   4.239  1.00  0.00     0.014 A 
HETATM   11  C   UNL     1      62.108   9.928   1.494  1.00  0.00     0.030 A 
HETATM   12  C   UNL     1      63.442   6.441   6.131  1.00  0.00     0.088 A 
HETATM   13  C   UNL     1      61.844  11.553   3.280  1.00  0.00     0.001 A 
HETATM   14  C   UNL     1      61.799  11.220   1.928  1.00  0.00     0.002 A 
HETATM   15  H   UNL     1      62.875   7.186   1.471  1.00  0.00     0.166 HD
ENDROOT
TORSDOF 0
ENDMDL
MODEL 5
REMARK VINA RESULT:      -5.1      1.789      4.025
REMARK  0 active torsions:
REMARK  status: ('A' for Active; 'I' for Inactive)
ROOT
HETATM    1  N   UNL     1      63.583   8.038   4.012  1.00  0.00    -0.354 N 
HETATM    2  C   UNL     1      63.116   9.312   4.235  1.00  0.00     0.059 A 
HETATM    3  C   UNL     1      63.216   7.592   2.764  1.00  0.00     0.043 A 
HETATM    4  C   UNL     1      62.497   8.621   2.155  1.00  0.00     0.003 A 
HETATM    5  C   UNL     1      62.424   9.702   3.089  1.00  0.00     0.006 A 
HETATM    6  N   UNL     1      62.669  11.364   5.317  1.00  0.00    -0.373 N 
ATOM      7  HN  UNL     1      62.747  11.988   6.120  1.00  0.00     0.164 HD
HETATM    8  C   UNL     1      63.242  10.139   5.342  1.00  0.00     0.117 A 
HETATM    9  C   UNL     1      61.834  10.975   3.072  1.00  0.00     0.031 A 
HETATM   10  C   UNL     1      62.013   8.420   0.846  1.00  0.00     0.014 A 
HETATM   11  C   UNL     1      63.465   6.366   2.136  1.00  0.00     0.030 A 
HETATM   12  C   UNL     1      61.992  11.747   4.212  1.00  0.00     0.088 A 
HETATM   13  C   UNL     1      62.256   7.201   0.202  1.00  0.00     0.001 A 
HETATM   14  C   UNL     1      62.968   6.190   0.841  1.00  0.00     0.002 A 
HETATM   15  H   UNL     1      64.111   7.516   4.659  1.00  0.00     0.166 HD
ENDROOT
TORSDOF 0
ENDMDL
MODEL 6
REMARK VINA RESULT:      -5.0      1.982      3.138
REMARK  0 active torsions:
REMARK  status: ('A' for Active; 'I' for Inactive)
ROOT
HETATM    1  N   UNL     1      63.483   7.858   4.005  1.00  0.00    -0.354 N 
HETATM    2  C   UNL     1      63.147   7.468   2.732  1.00  0.00     0.059 A 
HETATM    3  C   UNL     1      63.062   9.144   4.252  1.00  0.00     0.043 A 
HETATM    4  C   UNL     1      62.418   9.593   3.099  1.00  0.00     0.003 A 
HETATM    5  C   UNL     1      62.483   8.538   2.135  1.00  0.00     0.006 A 
HETATM    6  N   UNL     1      62.947   6.140   0.788  1.00  0.00    -0.373 N 
ATOM      7  HN  UNL     1      63.105   5.271   0.277  1.00  0.00     0.164 HD
HETATM    8  C   UNL     1      63.374   6.273   2.064  1.00  0.00     0.117 A 
HETATM    9  C   UNL     1      62.042   8.391   0.811  1.00  0.00     0.031 A 
HETATM   10  C   UNL     1      61.875  10.895   3.095  1.00  0.00     0.014 A 
HETATM   11  C   UNL     1      63.202   9.935   5.399  1.00  0.00     0.030 A 
HETATM   12  C   UNL     1      62.308   7.175   0.200  1.00  0.00     0.088 A 
HETATM   13  C   UNL     1      62.003  11.697   4.235  1.00  0.00     0.001 A 
HETATM   14  C   UNL     1      62.660  11.223   5.367  1.00  0.00     0.002 A 
HETATM   15  H   UNL     1      63.961   7.293   4.655  1.00  0.00     0.166 HD
ENDROOT
TORSDOF 0
ENDMDL
MODEL 7
REMARK VINA RESULT:      -4.7      1.974      2.927
REMARK  0 active torsions:
REMARK  status: ('A' for Active; 'I' for Inactive)
ROOT
HETATM    1  N   UNL     1      64.333   6.944   3.342  1.00  0.00    -0.354 N 
HETATM    2  C   UNL     1      65.394   6.883   4.214  1.00  0.00     0.059 A 
HETATM    3  C   UNL     1      63.545   8.040   3.604  1.00  0.00     0.043 A 
HETATM    4  C   UNL     1      64.128   8.718   4.675  1.00  0.00     0.003 A 
HETATM    5  C   UNL     1      65.289   7.979   5.068  1.00  0.00     0.006 A 
HETATM    6  N   UNL     1      67.354   6.117   5.287  1.00  0.00    -0.373 N 
ATOM      7  HN  UNL     1      68.119   5.449   5.385  1.00  0.00     0.164 HD
HETATM    8  C   UNL     1      66.424   5.958   4.319  1.00  0.00     0.117 A 
HETATM    9  C   UNL     1      66.260   8.137   6.068  1.00  0.00     0.031 A 
HETATM   10  C   UNL     1      63.514   9.900   5.138  1.00  0.00     0.014 A 
HETATM   11  C   UNL     1      62.371   8.478   2.978  1.00  0.00     0.030 A 
HETATM   12  C   UNL     1      67.256   7.174   6.123  1.00  0.00     0.088 A 
HETATM   13  C   UNL     1      62.342  10.354   4.521  1.00  0.00     0.001 A 
HETATM   14  C   UNL     1      61.779   9.649   3.460  1.00  0.00     0.002 A 
HETATM   15  H   UNL     1      64.161   6.291   2.625  1.00  0.00     0.166 HD
ENDROOT
TORSDOF 0
ENDMDL
MODEL 8
REMARK VINA RESULT:      -4.7      1.986      4.911
REMARK  0 active torsions:
REMARK  status: ('A' for Active; 'I' for Inactive)
ROOT
HETATM    1  N   UNL     1      63.864   7.123   3.077  1.00  0.00    -0.354 N 
HETATM    2  C   UNL     1      63.160   8.252   3.420  1.00  0.00     0.059 A 
HETATM    3  C   UNL     1      64.960   6.961   3.892  1.00  0.00     0.043 A 
HETATM    4  C   UNL     1      64.954   8.018   4.803  1.00  0.00     0.003 A 
HETATM    5  C   UNL     1      63.823   8.840   4.496  1.00  0.00     0.006 A 
HETATM    6  N   UNL     1      61.512   9.944   3.391  1.00  0.00    -0.373 N 
ATOM      7  HN  UNL     1      60.668  10.365   3.003  1.00  0.00     0.164 HD
HETATM    8  C   UNL     1      62.008   8.799   2.872  1.00  0.00     0.117 A 
HETATM    9  C   UNL     1      63.300  10.027   5.028  1.00  0.00     0.031 A 
HETATM   10  C   UNL     1      65.977   8.079   5.770  1.00  0.00     0.014 A 
HETATM   11  C   UNL     1      65.946   5.967   3.891  1.00  0.00     0.030 A 
HETATM   12  C   UNL     1      62.153  10.523   4.431  1.00  0.00     0.088 A 
HETATM   13  C   UNL     1      66.970   7.091   5.786  1.00  0.00     0.001 A 
HETATM   14  C   UNL     1      66.954   6.054   4.857  1.00  0.00     0.002 A 
HETATM   15  H   UNL     1      63.617   6.510   2.346  1.00  0.00     0.166 HD
ENDROOT
TORSDOF 0
ENDMDL
MODEL 9
REMARK VINA RESULT:      -4.2     12.397     14.306
REMARK  0 active torsions:
REMARK  status: ('A' for Active; 'I' for Inactive)
ROOT
HETATM    1  N   UNL     1      55.941   0.297  14.719  1.00  0.00    -0.354 N 
HETATM    2  C   UNL     1      55.013   1.283  14.487  1.00  0.00     0.059 A 
HETATM    3  C   UNL     1      57.120   0.568  14.064  1.00  0.00     0.043 A 
HETATM    4  C   UNL     1      56.949   1.781  13.397  1.00  0.00     0.003 A 
HETATM    5  C   UNL     1      55.613   2.226  13.654  1.00  0.00     0.006 A 
HETATM    6  N   UNL     1      52.984   2.492  14.548  1.00  0.00    -0.373 N 
ATOM      7  HN  UNL     1      52.022   2.610  14.863  1.00  0.00     0.164 HD
HETATM    8  C   UNL     1      53.706   1.417  14.935  1.00  0.00     0.117 A 
HETATM    9  C   UNL     1      54.857   3.339  13.259  1.00  0.00     0.031 A 
HETATM   10  C   UNL     1      58.028   2.297  12.650  1.00  0.00     0.014 A 
HETATM   11  C   UNL     1      58.313  -0.163  14.014  1.00  0.00     0.030 A 
HETATM   12  C   UNL     1      53.557   3.408  13.736  1.00  0.00     0.088 A 
HETATM   13  C   UNL     1      59.230   1.580  12.592  1.00  0.00     0.001 A 
HETATM   14  C   UNL     1      59.366   0.367  13.262  1.00  0.00     0.002 A 
HETATM   15  H   UNL     1      55.784  -0.498  15.280  1.00  0.00     0.166 HD
ENDROOT
TORSDOF 0
ENDMDL
