MODEL 1
REMARK VINA RESULT:      -4.8      0.000      0.000
REMARK  0 active torsions:
REMARK  status: ('A' for Active; 'I' for Inactive)
ROOT
HETATM    1  C   UNL     1      62.479   8.854   2.835  1.00  0.00     0.048 A 
HETATM    2  N   UNL     1      62.708   7.575   2.370  1.00  0.00    -0.365 N 
HETATM    3  C   UNL     1      62.510   7.515   1.017  1.00  0.00     0.089 A 
HETATM    4  C   UNL     1      62.109   9.622   1.732  1.00  0.00    -0.008 A 
HETATM    5  C   UNL     1      62.140   8.770   0.593  1.00  0.00     0.030 A 
HETATM    6  C   UNL     1      62.574   9.374   4.140  1.00  0.00    -0.035 A 
HETATM    7  C   UNL     1      61.880  11.527   3.204  1.00  0.00     0.002 A 
HETATM    8  C   UNL     1      61.805  10.983   1.920  1.00  0.00     0.014 A 
HETATM    9  C   UNL     1      62.259  10.737   4.290  1.00  0.00     0.009 A 
HETATM   10  C   UNL     1      62.995   8.551   5.320  1.00  0.00     0.050 C 
HETATM   11  H   UNL     1      62.976   6.814   2.933  1.00  0.00     0.165 HD
ENDROOT
TORSDOF 0
ENDMDL
MODEL 2
REMARK VINA RESULT:      -4.8      0.568      2.924
REMARK  0 active torsions:
REMARK  status: ('A' for Active; 'I' for Inactive)
ROOT
HETATM    1  C   UNL     1      62.597   8.910   3.096  1.00  0.00     0.048 A 
HETATM    2  N   UNL     1      63.023   7.626   3.367  1.00  0.00    -0.365 N 
HETATM    3  C   UNL     1      63.307   7.487   4.699  1.00  0.00     0.089 A 
HETATM    4  C   UNL     1      62.629   9.607   4.303  1.00  0.00    -0.008 A 
HETATM    5  C   UNL     1      63.071   8.698   5.306  1.00  0.00     0.030 A 
HETATM    6  C   UNL     1      62.190   9.492   1.880  1.00  0.00    -0.035 A 
HETATM    7  C   UNL     1      61.849  11.570   3.126  1.00  0.00     0.002 A 
HETATM    8  C   UNL     1      62.248  10.962   4.319  1.00  0.00     0.014 A 
HETATM    9  C   UNL     1      61.820  10.848   1.934  1.00  0.00     0.009 A 
HETATM   10  C   UNL     1      62.135   8.732   0.589  1.00  0.00     0.050 C 
HETATM   11  H   UNL     1      63.110   6.910   2.697  1.00  0.00     0.165 HD
ENDROOT
TORSDOF 0
ENDMDL
MODEL 3
REMARK VINA RESULT:      -4.7      1.572      3.200
REMARK  0 active torsions:
REMARK  status: ('A' for Active; 'I' for Inactive)
ROOT
HETATM    1  C   UNL     1      62.868   9.359   3.956  1.00  0.00     0.048 A 
HETATM    2  N   UNL     1      63.262   9.632   5.250  1.00  0.00    -0.365 N 
HETATM    3  C   UNL     1      62.882  10.897   5.610  1.00  0.00     0.089 A 
HETATM    4  C   UNL     1      62.228  10.503   3.481  1.00  0.00    -0.008 A 
HETATM    5  C   UNL     1      62.237  11.461   4.534  1.00  0.00     0.030 A 
HETATM    6  C   UNL     1      63.032   8.191   3.186  1.00  0.00    -0.035 A 
HETATM    7  C   UNL     1      61.882   9.369   1.374  1.00  0.00     0.002 A 
HETATM    8  C   UNL     1      61.725  10.508   2.167  1.00  0.00     0.014 A 
HETATM    9  C   UNL     1      62.520   8.235   1.876  1.00  0.00     0.009 A 
HETATM   10  C   UNL     1      63.700   6.956   3.708  1.00  0.00     0.050 C 
HETATM   11  H   UNL     1      63.748   9.005   5.833  1.00  0.00     0.165 HD
ENDROOT
TORSDOF 0
ENDMDL
MODEL 4
REMARK VINA RESULT:      -4.7      1.186      1.835
REMARK  0 active torsions:
REMARK  status: ('A' for Active; 'I' for Inactive)
ROOT
HETATM    1  C   UNL     1      62.771   9.246   3.733  1.00  0.00     0.048 A 
HETATM    2  N   UNL     1      63.302   8.174   4.420  1.00  0.00    -0.365 N 
HETATM    3  C   UNL     1      63.413   7.085   3.599  1.00  0.00     0.089 A 
HETATM    4  C   UNL     1      62.527   8.807   2.432  1.00  0.00    -0.008 A 
HETATM    5  C   UNL     1      62.942   7.448   2.359  1.00  0.00     0.030 A 
HETATM    6  C   UNL     1      62.496  10.557   4.169  1.00  0.00    -0.035 A 
HETATM    7  C   UNL     1      61.675  11.009   1.908  1.00  0.00     0.002 A 
HETATM    8  C   UNL     1      61.969   9.705   1.503  1.00  0.00     0.014 A 
HETATM    9  C   UNL     1      61.937  11.424   3.213  1.00  0.00     0.009 A 
HETATM   10  C   UNL     1      62.783  11.031   5.561  1.00  0.00     0.050 C 
HETATM   11  H   UNL     1      63.565   8.191   5.369  1.00  0.00     0.165 HD
ENDROOT
TORSDOF 0
ENDMDL
MODEL 5
REMARK VINA RESULT:      -4.6      1.111      2.987
REMARK  0 active torsions:
REMARK  status: ('A' for Active; 'I' for Inactive)
ROOT
HETATM    1  C   UNL     1      62.995   8.782   3.389  1.00  0.00     0.048 A 
HETATM    2  N   UNL     1      63.513   7.526   3.148  1.00  0.00    -0.365 N 
HETATM    3  C   UNL     1      64.175   7.061   4.252  1.00  0.00     0.089 A 
HETATM    4  C   UNL     1      63.358   9.122   4.691  1.00  0.00    -0.008 A 
HETATM    5  C   UNL     1      64.094   8.028   5.226  1.00  0.00     0.030 A 
HETATM    6  C   UNL     1      62.238   9.626   2.553  1.00  0.00    -0.035 A 
HETATM    7  C   UNL     1      62.222  11.236   4.396  1.00  0.00     0.002 A 
HETATM    8  C   UNL     1      62.964  10.372   5.205  1.00  0.00     0.014 A 
HETATM    9  C   UNL     1      61.865  10.867   3.099  1.00  0.00     0.009 A 
HETATM   10  C   UNL     1      61.829   9.246   1.163  1.00  0.00     0.050 C 
HETATM   11  H   UNL     1      63.420   7.034   2.300  1.00  0.00     0.165 HD
ENDROOT
TORSDOF 0
ENDMDL
MODEL 6
REMARK VINA RESULT:      -4.6      1.311      2.972
REMARK  0 active torsions:
REMARK  status: ('A' for Active; 'I' for Inactive)
ROOT
HETATM    1  C   UNL     1      62.302   9.485   3.173  1.00  0.00     0.048 A 
HETATM    2  N   UNL     1      62.186  10.549   4.044  1.00  0.00    -0.365 N 
HETATM    3  C   UNL     1      61.847  11.689   3.366  1.00  0.00     0.089 A 
HETATM    4  C   UNL     1      62.039   9.981   1.896  1.00  0.00    -0.008 A 
HETATM    5  C   UNL     1      61.747  11.368   2.032  1.00  0.00     0.030 A 
HETATM    6  C   UNL     1      62.616   8.136   3.426  1.00  0.00    -0.035 A 
HETATM    7  C   UNL     1      62.417   7.761   1.016  1.00  0.00     0.002 A 
HETATM    8  C   UNL     1      62.097   9.103   0.798  1.00  0.00     0.014 A 
HETATM    9  C   UNL     1      62.668   7.290   2.304  1.00  0.00     0.009 A 
HETATM   10  C   UNL     1      62.875   7.603   4.802  1.00  0.00     0.050 C 
HETATM   11  H   UNL     1      62.327  10.496   5.016  1.00  0.00     0.165 HD
ENDROOT
TORSDOF 0
ENDMDL
MODEL 7
REMARK VINA RESULT:      -4.5      1.554      3.918
REMARK  0 active torsions:
REMARK  status: ('A' for Active; 'I' for Inactive)
ROOT
HETATM    1  C   UNL     1      62.382   9.667   3.182  1.00  0.00     0.048 A 
HETATM    2  N   UNL     1      61.745  10.891   3.172  1.00  0.00    -0.365 N 
HETATM    3  C   UNL     1      62.005  11.575   4.328  1.00  0.00     0.089 A 
HETATM    4  C   UNL     1      63.056   9.575   4.399  1.00  0.00    -0.008 A 
HETATM    5  C   UNL     1      62.816  10.785   5.109  1.00  0.00     0.030 A 
HETATM    6  C   UNL     1      62.407   8.650   2.208  1.00  0.00    -0.035 A 
HETATM    7  C   UNL     1      63.828   7.380   3.743  1.00  0.00     0.002 A 
HETATM    8  C   UNL     1      63.793   8.411   4.685  1.00  0.00     0.014 A 
HETATM    9  C   UNL     1      63.151   7.500   2.530  1.00  0.00     0.009 A 
HETATM   10  C   UNL     1      61.701   8.763   0.891  1.00  0.00     0.050 C 
HETATM   11  H   UNL     1      61.183  11.225   2.436  1.00  0.00     0.165 HD
ENDROOT
TORSDOF 0
ENDMDL
MODEL 8
REMARK VINA RESULT:      -4.5      1.918      3.168
REMARK  0 active torsions:
REMARK  status: ('A' for Active; 'I' for Inactive)
ROOT
HETATM    1  C   UNL     1      63.639   9.059   4.722  1.00  0.00     0.048 A 
HETATM    2  N   UNL     1      64.582   8.693   5.660  1.00  0.00    -0.365 N 
HETATM    3  C   UNL     1      65.178   7.513   5.305  1.00  0.00     0.089 A 
HETATM    4  C   UNL     1      63.634   8.062   3.748  1.00  0.00    -0.008 A 
HETATM    5  C   UNL     1      64.612   7.098   4.122  1.00  0.00     0.030 A 
HETATM    6  C   UNL     1      62.804  10.192   4.672  1.00  0.00    -0.035 A 
HETATM    7  C   UNL     1      61.899   9.283   2.587  1.00  0.00     0.002 A 
HETATM    8  C   UNL     1      62.749   8.176   2.660  1.00  0.00     0.014 A 
HETATM    9  C   UNL     1      61.930  10.270   3.572  1.00  0.00     0.009 A 
HETATM   10  C   UNL     1      62.829  11.273   5.709  1.00  0.00     0.050 C 
HETATM   11  H   UNL     1      64.796   9.208   6.471  1.00  0.00     0.165 HD
ENDROOT
TORSDOF 0
ENDMDL
MODEL 9
REMARK VINA RESULT:      -4.1      2.819      4.522
REMARK  0 active torsions:
REMARK  status: ('A' for Active; 'I' for Inactive)
ROOT
HETATM    1  C   UNL     1      64.724   8.408   5.110  1.00  0.00     0.048 A 
HETATM    2  N   UNL     1      65.548   8.731   6.169  1.00  0.00    -0.365 N 
HETATM    3  C   UNL     1      66.586   7.843   6.256  1.00  0.00     0.089 A 
HETATM    4  C   UNL     1      65.260   7.264   4.519  1.00  0.00    -0.008 A 
HETATM    5  C   UNL     1      66.435   6.923   5.245  1.00  0.00     0.030 A 
HETATM    6  C   UNL     1      63.558   9.045   4.641  1.00  0.00    -0.035 A 
HETATM    7  C   UNL     1      63.443   7.305   2.924  1.00  0.00     0.002 A 
HETATM    8  C   UNL     1      64.608   6.703   3.405  1.00  0.00     0.014 A 
HETATM    9  C   UNL     1      62.932   8.453   3.529  1.00  0.00     0.009 A 
HETATM   10  C   UNL     1      62.999  10.287   5.265  1.00  0.00     0.050 C 
HETATM   11  H   UNL     1      65.408   9.493   6.776  1.00  0.00     0.165 HD
ENDROOT
TORSDOF 0
ENDMDL
