MODEL 1
REMARK VINA RESULT:      -4.4      0.000      0.000
REMARK  2 active torsions:
REMARK  status: ('A' for Active; 'I' for Inactive)
REMARK    1  A    between atoms: C_1  and  C_5 
REMARK    2  A    between atoms: C_5  and  C_7 
ROOT
HETATM    1  N   UNL     1      61.730  11.228   2.996  1.00  0.00    -0.375 N 
ATOM      2  HN  UNL     1      61.384  12.177   3.142  1.00  0.00     0.164 HD
HETATM    3  C   UNL     1      62.663   9.209   3.888  1.00  0.00    -0.033 A 
HETATM    4  C   UNL     1      62.185  10.518   4.062  1.00  0.00     0.095 A 
HETATM    5  C   UNL     1      61.723  10.707   1.739  1.00  0.00     0.087 A 
HETATM    6  C   UNL     1      62.662   8.660   2.597  1.00  0.00     0.010 A 
HETATM    7  C   UNL     1      62.191   9.411   1.519  1.00  0.00     0.018 A 
ENDROOT
BRANCH   3   8
HETATM    8  C   UNL     1      63.171   8.415   5.062  1.00  0.00     0.153 C 
BRANCH   8   9
HETATM    9  C   UNL     1      64.658   8.560   5.206  1.00  0.00     0.176 C 
HETATM   10  O   UNL     1      65.124   9.501   5.833  1.00  0.00    -0.648 OA
HETATM   11  O   UNL     1      65.479   7.653   4.639  1.00  0.00    -0.648 OA
ENDBRANCH   8   9
ENDBRANCH   3   8
TORSDOF 2
ENDMDL
MODEL 2
REMARK VINA RESULT:      -4.3      1.183      1.377
REMARK  2 active torsions:
REMARK  status: ('A' for Active; 'I' for Inactive)
REMARK    1  A    between atoms: C_1  and  C_5 
REMARK    2  A    between atoms: C_5  and  C_7 
ROOT
HETATM    1  N   UNL     1      61.935  11.397   3.568  1.00  0.00    -0.375 N 
ATOM      2  HN  UNL     1      61.805  12.276   4.069  1.00  0.00     0.164 HD
HETATM    3  C   UNL     1      62.416   9.050   3.606  1.00  0.00    -0.033 A 
HETATM    4  C   UNL     1      62.235  10.273   4.272  1.00  0.00     0.095 A 
HETATM    5  C   UNL     1      61.803  11.381   2.214  1.00  0.00     0.087 A 
HETATM    6  C   UNL     1      62.284   9.019   2.210  1.00  0.00     0.010 A 
HETATM    7  C   UNL     1      61.977  10.188   1.511  1.00  0.00     0.018 A 
ENDROOT
BRANCH   3   8
HETATM    8  C   UNL     1      62.751   7.800   4.375  1.00  0.00     0.153 C 
BRANCH   8   9
HETATM    9  C   UNL     1      63.414   8.132   5.680  1.00  0.00     0.176 C 
HETATM   10  O   UNL     1      64.553   8.577   5.693  1.00  0.00    -0.648 OA
HETATM   11  O   UNL     1      62.753   7.933   6.839  1.00  0.00    -0.648 OA
ENDBRANCH   8   9
ENDBRANCH   3   8
TORSDOF 2
ENDMDL
MODEL 3
REMARK VINA RESULT:      -4.2      2.233      2.750
REMARK  2 active torsions:
REMARK  status: ('A' for Active; 'I' for Inactive)
REMARK    1  A    between atoms: C_1  and  C_5 
REMARK    2  A    between atoms: C_5  and  C_7 
ROOT
HETATM    1  N   UNL     1      59.974   8.058   2.557  1.00  0.00    -0.375 N 
ATOM      2  HN  UNL     1      59.067   7.657   2.797  1.00  0.00     0.164 HD
HETATM    3  C   UNL     1      62.083   8.959   3.251  1.00  0.00    -0.033 A 
HETATM    4  C   UNL     1      60.829   8.407   3.556  1.00  0.00     0.095 A 
HETATM    5  C   UNL     1      60.295   8.231   1.247  1.00  0.00     0.087 A 
HETATM    6  C   UNL     1      62.427   9.144   1.904  1.00  0.00     0.010 A 
HETATM    7  C   UNL     1      61.530   8.779   0.898  1.00  0.00     0.018 A 
ENDROOT
BRANCH   3   8
HETATM    8  C   UNL     1      63.036   9.350   4.349  1.00  0.00     0.153 C 
BRANCH   8   9
HETATM    9  C   UNL     1      62.668  10.683   4.932  1.00  0.00     0.176 C 
HETATM   10  O   UNL     1      63.045  10.986   6.055  1.00  0.00    -0.648 OA
HETATM   11  O   UNL     1      61.916  11.545   4.217  1.00  0.00    -0.648 OA
ENDBRANCH   8   9
ENDBRANCH   3   8
TORSDOF 2
ENDMDL
MODEL 4
REMARK VINA RESULT:      -4.2      2.935      4.077
REMARK  2 active torsions:
REMARK  status: ('A' for Active; 'I' for Inactive)
REMARK    1  A    between atoms: C_1  and  C_5 
REMARK    2  A    between atoms: C_5  and  C_7 
ROOT
HETATM    1  N   UNL     1      64.259   7.200   3.303  1.00  0.00    -0.375 N 
ATOM      2  HN  UNL     1      64.492   6.433   2.673  1.00  0.00     0.164 HD
HETATM    3  C   UNL     1      62.795   8.995   3.919  1.00  0.00    -0.033 A 
HETATM    4  C   UNL     1      63.140   7.936   3.065  1.00  0.00     0.095 A 
HETATM    5  C   UNL     1      65.075   7.461   4.360  1.00  0.00     0.087 A 
HETATM    6  C   UNL     1      63.629   9.275   5.012  1.00  0.00     0.010 A 
HETATM    7  C   UNL     1      64.772   8.506   5.234  1.00  0.00     0.018 A 
ENDROOT
BRANCH   3   8
HETATM    8  C   UNL     1      61.560   9.816   3.662  1.00  0.00     0.153 C 
BRANCH   8   9
HETATM    9  C   UNL     1      61.919  11.198   3.198  1.00  0.00     0.176 C 
HETATM   10  O   UNL     1      61.972  12.119   4.000  1.00  0.00    -0.648 OA
HETATM   11  O   UNL     1      62.177  11.422   1.893  1.00  0.00    -0.648 OA
ENDBRANCH   8   9
ENDBRANCH   3   8
TORSDOF 2
ENDMDL
MODEL 5
REMARK VINA RESULT:      -4.1      2.884      4.390
REMARK  2 active torsions:
REMARK  status: ('A' for Active; 'I' for Inactive)
REMARK    1  A    between atoms: C_1  and  C_5 
REMARK    2  A    between atoms: C_5  and  C_7 
ROOT
HETATM    1  N   UNL     1      63.523   6.722   6.560  1.00  0.00    -0.375 N 
ATOM      2  HN  UNL     1      63.011   6.049   7.130  1.00  0.00     0.164 HD
HETATM    3  C   UNL     1      63.509   8.582   5.048  1.00  0.00    -0.033 A 
HETATM    4  C   UNL     1      62.828   7.642   5.838  1.00  0.00     0.095 A 
HETATM    5  C   UNL     1      64.882   6.677   6.541  1.00  0.00     0.087 A 
HETATM    6  C   UNL     1      64.911   8.545   5.019  1.00  0.00     0.010 A 
HETATM    7  C   UNL     1      65.600   7.590   5.768  1.00  0.00     0.018 A 
ENDROOT
BRANCH   3   8
HETATM    8  C   UNL     1      62.748   9.603   4.244  1.00  0.00     0.153 C 
BRANCH   8   9
HETATM    9  C   UNL     1      62.622  10.895   4.996  1.00  0.00     0.176 C 
HETATM   10  O   UNL     1      63.130  11.013   6.102  1.00  0.00    -0.648 OA
HETATM   11  O   UNL     1      61.942  11.926   4.453  1.00  0.00    -0.648 OA
ENDBRANCH   8   9
ENDBRANCH   3   8
TORSDOF 2
ENDMDL
MODEL 6
REMARK VINA RESULT:      -4.0      1.304      1.761
REMARK  2 active torsions:
REMARK  status: ('A' for Active; 'I' for Inactive)
REMARK    1  A    between atoms: C_1  and  C_5 
REMARK    2  A    between atoms: C_5  and  C_7 
ROOT
HETATM    1  N   UNL     1      62.339   8.132   1.354  1.00  0.00    -0.375 N 
ATOM      2  HN  UNL     1      62.410   7.419   0.629  1.00  0.00     0.164 HD
HETATM    3  C   UNL     1      62.673   8.805   3.630  1.00  0.00    -0.033 A 
HETATM    4  C   UNL     1      62.758   7.839   2.614  1.00  0.00     0.095 A 
HETATM    5  C   UNL     1      61.826   9.351   1.036  1.00  0.00     0.087 A 
HETATM    6  C   UNL     1      62.145  10.066   3.315  1.00  0.00     0.010 A 
HETATM    7  C   UNL     1      61.720  10.341   2.014  1.00  0.00     0.018 A 
ENDROOT
BRANCH   3   8
HETATM    8  C   UNL     1      63.132   8.490   5.028  1.00  0.00     0.153 C 
BRANCH   8   9
HETATM    9  C   UNL     1      64.461   9.126   5.315  1.00  0.00     0.176 C 
HETATM   10  O   UNL     1      64.512  10.201   5.897  1.00  0.00    -0.648 OA
HETATM   11  O   UNL     1      65.598   8.515   4.926  1.00  0.00    -0.648 OA
ENDBRANCH   8   9
ENDBRANCH   3   8
TORSDOF 2
ENDMDL
MODEL 7
REMARK VINA RESULT:      -3.8      2.923      4.149
REMARK  2 active torsions:
REMARK  status: ('A' for Active; 'I' for Inactive)
REMARK    1  A    between atoms: C_1  and  C_5 
REMARK    2  A    between atoms: C_5  and  C_7 
ROOT
HETATM    1  N   UNL     1      60.727   7.165   4.544  1.00  0.00    -0.375 N 
ATOM      2  HN  UNL     1      59.875   6.626   4.695  1.00  0.00     0.164 HD
HETATM    3  C   UNL     1      61.934   8.814   3.293  1.00  0.00    -0.033 A 
HETATM    4  C   UNL     1      60.773   8.057   3.519  1.00  0.00     0.095 A 
HETATM    5  C   UNL     1      61.787   6.973   5.374  1.00  0.00     0.087 A 
HETATM    6  C   UNL     1      63.036   8.625   4.140  1.00  0.00     0.010 A 
HETATM    7  C   UNL     1      62.963   7.702   5.185  1.00  0.00     0.018 A 
ENDROOT
BRANCH   3   8
HETATM    8  C   UNL     1      61.996   9.803   2.159  1.00  0.00     0.153 C 
BRANCH   8   9
HETATM    9  C   UNL     1      61.821  11.207   2.658  1.00  0.00     0.176 C 
HETATM   10  O   UNL     1      61.919  12.149   1.884  1.00  0.00    -0.648 OA
HETATM   11  O   UNL     1      61.562  11.429   3.963  1.00  0.00    -0.648 OA
ENDBRANCH   8   9
ENDBRANCH   3   8
TORSDOF 2
ENDMDL
MODEL 8
REMARK VINA RESULT:      -3.8      3.052      4.027
REMARK  2 active torsions:
REMARK  status: ('A' for Active; 'I' for Inactive)
REMARK    1  A    between atoms: C_1  and  C_5 
REMARK    2  A    between atoms: C_5  and  C_7 
ROOT
HETATM    1  N   UNL     1      63.482   9.693   5.500  1.00  0.00    -0.375 N 
ATOM      2  HN  UNL     1      64.031   9.378   6.300  1.00  0.00     0.164 HD
HETATM    3  C   UNL     1      62.568   9.269   3.326  1.00  0.00    -0.033 A 
HETATM    4  C   UNL     1      63.322   8.860   4.437  1.00  0.00     0.095 A 
HETATM    5  C   UNL     1      62.928  10.936   5.525  1.00  0.00     0.087 A 
HETATM    6  C   UNL     1      61.993  10.549   3.338  1.00  0.00     0.010 A 
HETATM    7  C   UNL     1      62.173  11.385   4.441  1.00  0.00     0.018 A 
ENDROOT
BRANCH   3   8
HETATM    8  C   UNL     1      62.388   8.356   2.143  1.00  0.00     0.153 C 
BRANCH   8   9
HETATM    9  C   UNL     1      60.938   8.031   1.929  1.00  0.00     0.176 C 
HETATM   10  O   UNL     1      60.339   7.339   2.740  1.00  0.00    -0.648 OA
HETATM   11  O   UNL     1      60.299   8.499   0.837  1.00  0.00    -0.648 OA
ENDBRANCH   8   9
ENDBRANCH   3   8
TORSDOF 2
ENDMDL
MODEL 9
REMARK VINA RESULT:      -3.7      1.886      2.543
REMARK  2 active torsions:
REMARK  status: ('A' for Active; 'I' for Inactive)
REMARK    1  A    between atoms: C_1  and  C_5 
REMARK    2  A    between atoms: C_5  and  C_7 
ROOT
HETATM    1  N   UNL     1      62.595   8.100   2.900  1.00  0.00    -0.375 N 
ATOM      2  HN  UNL     1      62.309   7.469   2.151  1.00  0.00     0.164 HD
HETATM    3  C   UNL     1      64.117   8.651   4.668  1.00  0.00    -0.033 A 
HETATM    4  C   UNL     1      63.700   7.797   3.634  1.00  0.00     0.095 A 
HETATM    5  C   UNL     1      61.862   9.220   3.139  1.00  0.00     0.087 A 
HETATM    6  C   UNL     1      63.369   9.809   4.926  1.00  0.00     0.010 A 
HETATM    7  C   UNL     1      62.238  10.095   4.159  1.00  0.00     0.018 A 
ENDROOT
BRANCH   3   8
HETATM    8  C   UNL     1      65.337   8.324   5.487  1.00  0.00     0.153 C 
BRANCH   8   9
HETATM    9  C   UNL     1      65.087   7.142   6.377  1.00  0.00     0.176 C 
HETATM   10  O   UNL     1      64.121   7.133   7.127  1.00  0.00    -0.648 OA
HETATM   11  O   UNL     1      65.933   6.092   6.355  1.00  0.00    -0.648 OA
ENDBRANCH   8   9
ENDBRANCH   3   8
TORSDOF 2
ENDMDL
