MODEL 1
REMARK VINA RESULT:      -5.2      0.000      0.000
REMARK  1 active torsions:
REMARK  status: ('A' for Active; 'I' for Inactive)
REMARK    1  A    between atoms: N_1  and  C_2 
ROOT
HETATM    1  N   UNL     1      63.040   7.757   4.075  1.00  0.00    -0.378 N 
HETATM    2  N   UNL     1      63.827   6.372   6.530  1.00  0.00    -0.072 N 
HETATM    3  C   UNL     1      62.095   6.865   4.758  1.00  0.00     0.150 C 
HETATM    4  C   UNL     1      64.464   7.549   4.374  1.00  0.00     0.150 C 
HETATM    5  C   UNL     1      62.417   6.723   6.260  1.00  0.00     0.252 C 
HETATM    6  C   UNL     1      64.693   7.391   5.896  1.00  0.00     0.252 C 
HETATM    7  H   UNL     1      63.992   6.359   7.537  1.00  0.00     0.277 HD
HETATM    8  H   UNL     1      64.037   5.449   6.149  1.00  0.00     0.277 HD
ENDROOT
BRANCH   1   9
HETATM    9  C   UNL     1      62.624   8.924   3.471  1.00  0.00     0.030 A 
HETATM   10  C   UNL     1      62.381  10.084   4.221  1.00  0.00     0.032 A 
HETATM   11  C   UNL     1      61.987  11.273   3.625  1.00  0.00     0.044 A 
HETATM   12  C   UNL     1      61.802  11.317   2.247  1.00  0.00     0.116 A 
HETATM   13  C   UNL     1      62.009  10.185   1.472  1.00  0.00     0.044 A 
HETATM   14  F   UNL     1      61.428  12.461   1.670  1.00  0.00    -0.206 F 
HETATM   15  C   UNL     1      62.421   8.999   2.078  1.00  0.00     0.032 A 
ENDBRANCH   1   9
TORSDOF 1
ENDMDL
MODEL 2
REMARK VINA RESULT:      -5.0      0.780      1.587
REMARK  1 active torsions:
REMARK  status: ('A' for Active; 'I' for Inactive)
REMARK    1  A    between atoms: N_1  and  C_2 
ROOT
HETATM    1  N   UNL     1      62.506   7.573   3.996  1.00  0.00    -0.378 N 
HETATM    2  N   UNL     1      62.322   5.874   6.371  1.00  0.00    -0.072 N 
HETATM    3  C   UNL     1      61.434   6.577   4.113  1.00  0.00     0.150 C 
HETATM    4  C   UNL     1      63.694   7.352   4.831  1.00  0.00     0.150 C 
HETATM    5  C   UNL     1      61.124   6.233   5.584  1.00  0.00     0.252 C 
HETATM    6  C   UNL     1      63.293   6.988   6.281  1.00  0.00     0.252 C 
HETATM    7  H   UNL     1      62.061   5.724   7.346  1.00  0.00     0.277 HD
HETATM    8  H   UNL     1      62.737   5.017   6.005  1.00  0.00     0.277 HD
ENDROOT
BRANCH   1   9
HETATM    9  C   UNL     1      62.287   8.805   3.417  1.00  0.00     0.030 A 
HETATM   10  C   UNL     1      62.201   8.949   2.024  1.00  0.00     0.032 A 
HETATM   11  C   UNL     1      61.955  10.177   1.428  1.00  0.00     0.044 A 
HETATM   12  C   UNL     1      61.813  11.306   2.226  1.00  0.00     0.116 A 
HETATM   13  C   UNL     1      61.914  11.212   3.607  1.00  0.00     0.044 A 
HETATM   14  F   UNL     1      61.571  12.489   1.655  1.00  0.00    -0.206 F 
HETATM   15  C   UNL     1      62.145   9.970   4.198  1.00  0.00     0.032 A 
ENDBRANCH   1   9
TORSDOF 1
ENDMDL
MODEL 3
REMARK VINA RESULT:      -5.0      1.014      1.747
REMARK  1 active torsions:
REMARK  status: ('A' for Active; 'I' for Inactive)
REMARK    1  A    between atoms: N_1  and  C_2 
ROOT
HETATM    1  N   UNL     1      63.524   8.647   5.341  1.00  0.00    -0.378 N 
HETATM    2  N   UNL     1      64.761   6.056   5.907  1.00  0.00    -0.072 N 
HETATM    3  C   UNL     1      64.984   8.530   5.443  1.00  0.00     0.150 C 
HETATM    4  C   UNL     1      62.739   7.587   5.987  1.00  0.00     0.150 C 
HETATM    5  C   UNL     1      65.471   7.099   5.137  1.00  0.00     0.252 C 
HETATM    6  C   UNL     1      63.310   6.189   5.648  1.00  0.00     0.252 C 
HETATM    7  H   UNL     1      65.081   5.133   5.613  1.00  0.00     0.277 HD
HETATM    8  H   UNL     1      64.950   6.168   6.904  1.00  0.00     0.277 HD
ENDROOT
BRANCH   1   9
HETATM    9  C   UNL     1      62.930   9.485   4.422  1.00  0.00     0.030 A 
HETATM   10  C   UNL     1      62.564  10.795   4.763  1.00  0.00     0.032 A 
HETATM   11  C   UNL     1      61.990  11.660   3.843  1.00  0.00     0.044 A 
HETATM   12  C   UNL     1      61.744  11.214   2.549  1.00  0.00     0.116 A 
HETATM   13  C   UNL     1      62.069   9.917   2.177  1.00  0.00     0.044 A 
HETATM   14  F   UNL     1      61.196  12.045   1.660  1.00  0.00    -0.206 F 
HETATM   15  C   UNL     1      62.662   9.061   3.105  1.00  0.00     0.032 A 
ENDBRANCH   1   9
TORSDOF 1
ENDMDL
MODEL 4
REMARK VINA RESULT:      -4.7      2.054      2.782
REMARK  1 active torsions:
REMARK  status: ('A' for Active; 'I' for Inactive)
REMARK    1  A    between atoms: N_1  and  C_2 
ROOT
HETATM    1  N   UNL     1      65.259   7.332   5.173  1.00  0.00    -0.378 N 
HETATM    2  N   UNL     1      67.801   7.003   6.584  1.00  0.00    -0.072 N 
HETATM    3  C   UNL     1      65.278   6.875   6.568  1.00  0.00     0.150 C 
HETATM    4  C   UNL     1      66.501   7.146   4.410  1.00  0.00     0.150 C 
HETATM    5  C   UNL     1      66.553   7.329   7.307  1.00  0.00     0.252 C 
HETATM    6  C   UNL     1      67.730   7.602   5.233  1.00  0.00     0.252 C 
HETATM    7  H   UNL     1      68.600   7.386   7.089  1.00  0.00     0.277 HD
HETATM    8  H   UNL     1      67.910   5.991   6.513  1.00  0.00     0.277 HD
ENDROOT
BRANCH   1   9
HETATM    9  C   UNL     1      64.281   8.183   4.705  1.00  0.00     0.030 A 
HETATM   10  C   UNL     1      63.957   9.364   5.388  1.00  0.00     0.032 A 
HETATM   11  C   UNL     1      62.994  10.244   4.916  1.00  0.00     0.044 A 
HETATM   12  C   UNL     1      62.308   9.941   3.746  1.00  0.00     0.116 A 
HETATM   13  C   UNL     1      62.582   8.771   3.051  1.00  0.00     0.044 A 
HETATM   14  F   UNL     1      61.385  10.788   3.286  1.00  0.00    -0.206 F 
HETATM   15  C   UNL     1      63.564   7.901   3.525  1.00  0.00     0.032 A 
ENDBRANCH   1   9
TORSDOF 1
ENDMDL
MODEL 5
REMARK VINA RESULT:      -4.7      2.101      3.147
REMARK  1 active torsions:
REMARK  status: ('A' for Active; 'I' for Inactive)
REMARK    1  A    between atoms: N_1  and  C_2 
ROOT
HETATM    1  N   UNL     1      65.345   7.270   5.163  1.00  0.00    -0.378 N 
HETATM    2  N   UNL     1      67.881   6.968   6.591  1.00  0.00    -0.072 N 
HETATM    3  C   UNL     1      65.361   6.805   6.556  1.00  0.00     0.150 C 
HETATM    4  C   UNL     1      66.594   7.106   4.408  1.00  0.00     0.150 C 
HETATM    5  C   UNL     1      66.625   7.272   7.306  1.00  0.00     0.252 C 
HETATM    6  C   UNL     1      67.811   7.574   5.242  1.00  0.00     0.252 C 
HETATM    7  H   UNL     1      68.672   7.359   7.103  1.00  0.00     0.277 HD
HETATM    8  H   UNL     1      68.005   5.958   6.514  1.00  0.00     0.277 HD
ENDROOT
BRANCH   1   9
HETATM    9  C   UNL     1      64.358   8.110   4.694  1.00  0.00     0.030 A 
HETATM   10  C   UNL     1      63.650   7.814   3.519  1.00  0.00     0.032 A 
HETATM   11  C   UNL     1      62.636   8.635   3.048  1.00  0.00     0.044 A 
HETATM   12  C   UNL     1      62.324   9.800   3.741  1.00  0.00     0.116 A 
HETATM   13  C   UNL     1      63.016  10.142   4.894  1.00  0.00     0.044 A 
HETATM   14  F   UNL     1      61.346  10.590   3.293  1.00  0.00    -0.206 F 
HETATM   15  C   UNL     1      64.022   9.300   5.369  1.00  0.00     0.032 A 
ENDBRANCH   1   9
TORSDOF 1
ENDMDL
MODEL 6
REMARK VINA RESULT:      -4.6      3.086      5.255
REMARK  1 active torsions:
REMARK  status: ('A' for Active; 'I' for Inactive)
REMARK    1  A    between atoms: N_1  and  C_2 
ROOT
HETATM    1  N   UNL     1      62.717   8.598   3.611  1.00  0.00    -0.378 N 
HETATM    2  N   UNL     1      61.311  10.742   2.202  1.00  0.00    -0.072 N 
HETATM    3  C   UNL     1      62.128   8.353   2.288  1.00  0.00     0.150 C 
HETATM    4  C   UNL     1      62.175   9.736   4.365  1.00  0.00     0.150 C 
HETATM    5  C   UNL     1      61.989   9.653   1.469  1.00  0.00     0.252 C 
HETATM    6  C   UNL     1      62.045  10.987   3.463  1.00  0.00     0.252 C 
HETATM    7  H   UNL     1      61.309  11.590   1.634  1.00  0.00     0.277 HD
HETATM    8  H   UNL     1      60.346  10.480   2.404  1.00  0.00     0.277 HD
ENDROOT
BRANCH   1   9
HETATM    9  C   UNL     1      63.918   8.031   3.982  1.00  0.00     0.030 A 
HETATM   10  C   UNL     1      64.396   6.868   3.361  1.00  0.00     0.032 A 
HETATM   11  C   UNL     1      65.614   6.301   3.704  1.00  0.00     0.044 A 
HETATM   12  C   UNL     1      66.377   6.882   4.710  1.00  0.00     0.116 A 
HETATM   13  C   UNL     1      65.930   8.020   5.367  1.00  0.00     0.044 A 
HETATM   14  F   UNL     1      67.553   6.341   5.040  1.00  0.00    -0.206 F 
HETATM   15  C   UNL     1      64.712   8.593   5.002  1.00  0.00     0.032 A 
ENDBRANCH   1   9
TORSDOF 1
ENDMDL
MODEL 7
REMARK VINA RESULT:      -4.5      1.918      2.676
REMARK  1 active torsions:
REMARK  status: ('A' for Active; 'I' for Inactive)
REMARK    1  A    between atoms: N_1  and  C_2 
ROOT
HETATM    1  N   UNL     1      62.773   8.472   4.979  1.00  0.00    -0.378 N 
HETATM    2  N   UNL     1      64.956   7.383   6.595  1.00  0.00    -0.072 N 
HETATM    3  C   UNL     1      64.043   9.200   5.095  1.00  0.00     0.150 C 
HETATM    4  C   UNL     1      62.483   7.495   6.037  1.00  0.00     0.150 C 
HETATM    5  C   UNL     1      65.218   8.260   5.434  1.00  0.00     0.252 C 
HETATM    6  C   UNL     1      63.720   6.613   6.331  1.00  0.00     0.252 C 
HETATM    7  H   UNL     1      65.739   6.743   6.726  1.00  0.00     0.277 HD
HETATM    8  H   UNL     1      64.844   7.945   7.439  1.00  0.00     0.277 HD
ENDROOT
BRANCH   1   9
HETATM    9  C   UNL     1      62.063   8.443   3.797  1.00  0.00     0.030 A 
HETATM   10  C   UNL     1      62.321   9.364   2.772  1.00  0.00     0.032 A 
HETATM   11  C   UNL     1      61.635   9.332   1.567  1.00  0.00     0.044 A 
HETATM   12  C   UNL     1      60.643   8.377   1.373  1.00  0.00     0.116 A 
HETATM   13  C   UNL     1      60.340   7.462   2.371  1.00  0.00     0.044 A 
HETATM   14  F   UNL     1      59.983   8.339   0.213  1.00  0.00    -0.206 F 
HETATM   15  C   UNL     1      61.049   7.491   3.572  1.00  0.00     0.032 A 
ENDBRANCH   1   9
TORSDOF 1
ENDMDL
MODEL 8
REMARK VINA RESULT:      -4.1      2.929      3.660
REMARK  1 active torsions:
REMARK  status: ('A' for Active; 'I' for Inactive)
REMARK    1  A    between atoms: N_1  and  C_2 
ROOT
HETATM    1  N   UNL     1      62.270   8.948   3.038  1.00  0.00    -0.378 N 
HETATM    2  N   UNL     1      63.890   9.480   5.416  1.00  0.00    -0.072 N 
HETATM    3  C   UNL     1      63.372   8.048   3.400  1.00  0.00     0.150 C 
HETATM    4  C   UNL     1      62.328  10.306   3.594  1.00  0.00     0.150 C 
HETATM    5  C   UNL     1      63.694   8.106   4.907  1.00  0.00     0.252 C 
HETATM    6  C   UNL     1      62.680  10.273   5.101  1.00  0.00     0.252 C 
HETATM    7  H   UNL     1      64.032   9.455   6.426  1.00  0.00     0.277 HD
HETATM    8  H   UNL     1      64.709   9.902   4.977  1.00  0.00     0.277 HD
ENDROOT
BRANCH   1   9
HETATM    9  C   UNL     1      61.092   8.468   2.506  1.00  0.00     0.030 A 
HETATM   10  C   UNL     1      60.146   7.813   3.309  1.00  0.00     0.032 A 
HETATM   11  C   UNL     1      58.944   7.348   2.795  1.00  0.00     0.044 A 
HETATM   12  C   UNL     1      58.673   7.511   1.441  1.00  0.00     0.116 A 
HETATM   13  C   UNL     1      59.592   8.133   0.608  1.00  0.00     0.044 A 
HETATM   14  F   UNL     1      57.515   7.069   0.944  1.00  0.00    -0.206 F 
HETATM   15  C   UNL     1      60.790   8.612   1.138  1.00  0.00     0.032 A 
ENDBRANCH   1   9
TORSDOF 1
ENDMDL
MODEL 9
REMARK VINA RESULT:      -4.0      2.258      3.404
REMARK  1 active torsions:
REMARK  status: ('A' for Active; 'I' for Inactive)
REMARK    1  A    between atoms: N_1  and  C_2 
ROOT
HETATM    1  N   UNL     1      65.067   6.877   5.541  1.00  0.00    -0.378 N 
HETATM    2  N   UNL     1      67.055   7.279   7.650  1.00  0.00    -0.072 N 
HETATM    3  C   UNL     1      65.200   5.901   6.629  1.00  0.00     0.150 C 
HETATM    4  C   UNL     1      66.229   7.741   5.296  1.00  0.00     0.150 C 
HETATM    5  C   UNL     1      65.804   6.532   7.900  1.00  0.00     0.252 C 
HETATM    6  C   UNL     1      66.787   8.310   6.623  1.00  0.00     0.252 C 
HETATM    7  H   UNL     1      67.367   7.725   8.513  1.00  0.00     0.277 HD
HETATM    8  H   UNL     1      67.784   6.643   7.326  1.00  0.00     0.277 HD
ENDROOT
BRANCH   1   9
HETATM    9  C   UNL     1      63.837   7.207   5.013  1.00  0.00     0.030 A 
HETATM   10  C   UNL     1      62.668   6.555   5.432  1.00  0.00     0.032 A 
HETATM   11  C   UNL     1      61.420   6.892   4.930  1.00  0.00     0.044 A 
HETATM   12  C   UNL     1      61.319   7.888   3.965  1.00  0.00     0.116 A 
HETATM   13  C   UNL     1      62.454   8.542   3.506  1.00  0.00     0.044 A 
HETATM   14  F   UNL     1      60.119   8.219   3.483  1.00  0.00    -0.206 F 
HETATM   15  C   UNL     1      63.702   8.207   4.029  1.00  0.00     0.032 A 
ENDBRANCH   1   9
TORSDOF 1
ENDMDL
