MODEL 1
REMARK VINA RESULT:      -4.7      0.000      0.000
REMARK  0 active torsions:
REMARK  status: ('A' for Active; 'I' for Inactive)
ROOT
HETATM    1  C   UNL     1      65.356   8.240   5.503  1.00  0.00     0.222 A 
HETATM    2  N   UNL     1      64.735   7.686   4.403  1.00  0.00    -0.320 N 
HETATM    3  O   UNL     1      64.761   9.437   5.901  1.00  0.00    -0.282 OA
HETATM    4  C   UNL     1      63.702   8.534   4.062  1.00  0.00     0.070 A 
HETATM    5  C   UNL     1      63.740   9.572   4.974  1.00  0.00     0.105 A 
HETATM    6  S   UNL     1      66.658   7.698   6.378  1.00  0.00    -0.032 SA
HETATM    7  C   UNL     1      65.043   6.468   3.692  1.00  0.00     0.159 C 
HETATM    8  C   UNL     1      62.761   8.478   3.055  1.00  0.00     0.033 A 
HETATM    9  C   UNL     1      62.838  10.614   4.928  1.00  0.00     0.040 A 
HETATM   10  C   UNL     1      61.834   9.525   2.990  1.00  0.00     0.002 A 
HETATM   11  C   UNL     1      61.873  10.584   3.918  1.00  0.00     0.003 A 
ENDROOT
TORSDOF 0
ENDMDL
MODEL 2
REMARK VINA RESULT:      -4.4      2.425      3.078
REMARK  0 active torsions:
REMARK  status: ('A' for Active; 'I' for Inactive)
ROOT
HETATM    1  C   UNL     1      63.213   7.098   3.190  1.00  0.00     0.222 A 
HETATM    2  N   UNL     1      63.079   7.972   4.250  1.00  0.00    -0.320 N 
HETATM    3  O   UNL     1      62.858   7.681   1.974  1.00  0.00    -0.282 OA
HETATM    4  C   UNL     1      62.626   9.165   3.725  1.00  0.00     0.070 A 
HETATM    5  C   UNL     1      62.502   8.962   2.364  1.00  0.00     0.105 A 
HETATM    6  S   UNL     1      63.716   5.517   3.170  1.00  0.00    -0.032 SA
HETATM    7  C   UNL     1      63.340   7.759   5.654  1.00  0.00     0.159 C 
HETATM    8  C   UNL     1      62.322  10.372   4.317  1.00  0.00     0.033 A 
HETATM    9  C   UNL     1      62.066   9.960   1.518  1.00  0.00     0.040 A 
HETATM   10  C   UNL     1      61.878  11.400   3.477  1.00  0.00     0.002 A 
HETATM   11  C   UNL     1      61.751  11.196   2.089  1.00  0.00     0.003 A 
ENDROOT
TORSDOF 0
ENDMDL
MODEL 3
REMARK VINA RESULT:      -4.2      1.994      4.047
REMARK  0 active torsions:
REMARK  status: ('A' for Active; 'I' for Inactive)
ROOT
HETATM    1  C   UNL     1      64.050   9.137   5.002  1.00  0.00     0.222 A 
HETATM    2  N   UNL     1      64.092   8.060   4.141  1.00  0.00    -0.320 N 
HETATM    3  O   UNL     1      65.170   9.199   5.830  1.00  0.00    -0.282 OA
HETATM    4  C   UNL     1      65.269   7.389   4.404  1.00  0.00     0.070 A 
HETATM    5  C   UNL     1      65.893   8.092   5.417  1.00  0.00     0.105 A 
HETATM    6  S   UNL     1      62.896  10.317   5.175  1.00  0.00    -0.032 SA
HETATM    7  C   UNL     1      63.138   7.646   3.140  1.00  0.00     0.159 C 
HETATM    8  C   UNL     1      65.824   6.254   3.850  1.00  0.00     0.033 A 
HETATM    9  C   UNL     1      67.109   7.696   5.934  1.00  0.00     0.040 A 
HETATM   10  C   UNL     1      67.058   5.834   4.359  1.00  0.00     0.002 A 
HETATM   11  C   UNL     1      67.695   6.549   5.392  1.00  0.00     0.003 A 
ENDROOT
TORSDOF 0
ENDMDL
MODEL 4
REMARK VINA RESULT:      -4.0      3.079      3.422
REMARK  0 active torsions:
REMARK  status: ('A' for Active; 'I' for Inactive)
ROOT
HETATM    1  C   UNL     1      61.778   6.952   3.304  1.00  0.00     0.222 A 
HETATM    2  N   UNL     1      61.777   7.531   2.052  1.00  0.00    -0.320 N 
HETATM    3  O   UNL     1      61.830   7.900   4.326  1.00  0.00    -0.282 OA
HETATM    4  C   UNL     1      61.828   8.896   2.246  1.00  0.00     0.070 A 
HETATM    5  C   UNL     1      61.859   9.088   3.614  1.00  0.00     0.105 A 
HETATM    6  S   UNL     1      61.729   5.351   3.739  1.00  0.00    -0.032 SA
HETATM    7  C   UNL     1      61.734   6.905   0.752  1.00  0.00     0.159 C 
HETATM    8  C   UNL     1      61.849   9.950   1.357  1.00  0.00     0.033 A 
HETATM    9  C   UNL     1      61.913  10.349   4.169  1.00  0.00     0.040 A 
HETATM   10  C   UNL     1      61.903  11.239   1.898  1.00  0.00     0.002 A 
HETATM   11  C   UNL     1      61.935  11.437   3.293  1.00  0.00     0.003 A 
ENDROOT
TORSDOF 0
ENDMDL
MODEL 5
REMARK VINA RESULT:      -3.8     13.391     13.802
REMARK  0 active torsions:
REMARK  status: ('A' for Active; 'I' for Inactive)
ROOT
HETATM    1  C   UNL     1      55.084   2.784  12.712  1.00  0.00     0.222 A 
HETATM    2  N   UNL     1      55.359   1.816  13.655  1.00  0.00    -0.320 N 
HETATM    3  O   UNL     1      56.220   3.168  12.000  1.00  0.00    -0.282 OA
HETATM    4  C   UNL     1      56.711   1.549  13.568  1.00  0.00     0.070 A 
HETATM    5  C   UNL     1      57.200   2.371  12.570  1.00  0.00     0.105 A 
HETATM    6  S   UNL     1      53.647   3.520  12.328  1.00  0.00    -0.032 SA
HETATM    7  C   UNL     1      54.471   1.162  14.586  1.00  0.00     0.159 C 
HETATM    8  C   UNL     1      57.522   0.678  14.262  1.00  0.00     0.033 A 
HETATM    9  C   UNL     1      58.531   2.367  12.212  1.00  0.00     0.040 A 
HETATM   10  C   UNL     1      58.878   0.655  13.915  1.00  0.00     0.002 A 
HETATM   11  C   UNL     1      59.378   1.493  12.899  1.00  0.00     0.003 A 
ENDROOT
TORSDOF 0
ENDMDL
MODEL 6
REMARK VINA RESULT:      -3.7      2.975      4.509
REMARK  0 active torsions:
REMARK  status: ('A' for Active; 'I' for Inactive)
ROOT
HETATM    1  C   UNL     1      62.146   8.324   2.245  1.00  0.00     0.222 A 
HETATM    2  N   UNL     1      62.505   9.144   3.296  1.00  0.00    -0.320 N 
HETATM    3  O   UNL     1      62.944   7.183   2.167  1.00  0.00    -0.282 OA
HETATM    4  C   UNL     1      63.566   8.533   3.931  1.00  0.00     0.070 A 
HETATM    5  C   UNL     1      63.807   7.363   3.236  1.00  0.00     0.105 A 
HETATM    6  S   UNL     1      60.946   8.506   1.113  1.00  0.00    -0.032 SA
HETATM    7  C   UNL     1      61.936  10.404   3.712  1.00  0.00     0.159 C 
HETATM    8  C   UNL     1      64.314   8.900   5.030  1.00  0.00     0.033 A 
HETATM    9  C   UNL     1      64.813   6.494   3.603  1.00  0.00     0.040 A 
HETATM   10  C   UNL     1      65.341   8.032   5.421  1.00  0.00     0.002 A 
HETATM   11  C   UNL     1      65.588   6.840   4.713  1.00  0.00     0.003 A 
ENDROOT
TORSDOF 0
ENDMDL
MODEL 7
REMARK VINA RESULT:      -3.7      2.293      2.865
REMARK  0 active torsions:
REMARK  status: ('A' for Active; 'I' for Inactive)
ROOT
HETATM    1  C   UNL     1      65.670   6.524   7.436  1.00  0.00     0.222 A 
HETATM    2  N   UNL     1      64.874   5.644   6.732  1.00  0.00    -0.320 N 
HETATM    3  O   UNL     1      65.655   7.807   6.888  1.00  0.00    -0.282 OA
HETATM    4  C   UNL     1      64.316   6.359   5.692  1.00  0.00     0.070 A 
HETATM    5  C   UNL     1      64.800   7.648   5.809  1.00  0.00     0.105 A 
HETATM    6  S   UNL     1      66.600   6.273   8.787  1.00  0.00    -0.032 SA
HETATM    7  C   UNL     1      64.622   4.243   6.970  1.00  0.00     0.159 C 
HETATM    8  C   UNL     1      63.450   5.991   4.684  1.00  0.00     0.033 A 
HETATM    9  C   UNL     1      64.443   8.642   4.923  1.00  0.00     0.040 A 
HETATM   10  C   UNL     1      63.073   6.983   3.773  1.00  0.00     0.002 A 
HETATM   11  C   UNL     1      63.566   8.298   3.891  1.00  0.00     0.003 A 
ENDROOT
TORSDOF 0
ENDMDL
MODEL 8
REMARK VINA RESULT:      -3.5      3.877      4.389
REMARK  0 active torsions:
REMARK  status: ('A' for Active; 'I' for Inactive)
ROOT
HETATM    1  C   UNL     1      61.130   6.152   2.481  1.00  0.00     0.222 A 
HETATM    2  N   UNL     1      61.175   6.941   3.613  1.00  0.00    -0.320 N 
HETATM    3  O   UNL     1      61.379   6.879   1.318  1.00  0.00    -0.282 OA
HETATM    4  C   UNL     1      61.462   8.223   3.190  1.00  0.00     0.070 A 
HETATM    5  C   UNL     1      61.579   8.157   1.815  1.00  0.00     0.105 A 
HETATM    6  S   UNL     1      60.832   4.527   2.327  1.00  0.00    -0.032 SA
HETATM    7  C   UNL     1      60.974   6.576   4.995  1.00  0.00     0.159 C 
HETATM    8  C   UNL     1      61.625   9.404   3.884  1.00  0.00     0.033 A 
HETATM    9  C   UNL     1      61.865   9.272   1.056  1.00  0.00     0.040 A 
HETATM   10  C   UNL     1      61.917  10.548   3.133  1.00  0.00     0.002 A 
HETATM   11  C   UNL     1      62.035  10.483   1.731  1.00  0.00     0.003 A 
ENDROOT
TORSDOF 0
ENDMDL
MODEL 9
REMARK VINA RESULT:      -3.4      2.768      4.766
REMARK  0 active torsions:
REMARK  status: ('A' for Active; 'I' for Inactive)
ROOT
HETATM    1  C   UNL     1      63.414   6.687   6.046  1.00  0.00     0.222 A 
HETATM    2  N   UNL     1      64.149   7.630   5.358  1.00  0.00    -0.320 N 
HETATM    3  O   UNL     1      64.222   5.746   6.684  1.00  0.00    -0.282 OA
HETATM    4  C   UNL     1      65.478   7.309   5.544  1.00  0.00     0.070 A 
HETATM    5  C   UNL     1      65.492   6.179   6.340  1.00  0.00     0.105 A 
HETATM    6  S   UNL     1      61.770   6.529   6.209  1.00  0.00    -0.032 SA
HETATM    7  C   UNL     1      63.696   8.756   4.576  1.00  0.00     0.159 C 
HETATM    8  C   UNL     1      66.639   7.900   5.091  1.00  0.00     0.033 A 
HETATM    9  C   UNL     1      66.671   5.578   6.727  1.00  0.00     0.040 A 
HETATM   10  C   UNL     1      67.847   7.308   5.473  1.00  0.00     0.002 A 
HETATM   11  C   UNL     1      67.864   6.156   6.284  1.00  0.00     0.003 A 
ENDROOT
TORSDOF 0
ENDMDL
