MODEL 1
REMARK VINA RESULT:      -5.2      0.000      0.000
REMARK  1 active torsions:
REMARK  status: ('A' for Active; 'I' for Inactive)
REMARK    1  A    between atoms: C_3  and  C_7 
ROOT
HETATM    1  N   UNL     1      63.914   8.613   5.716  1.00  0.00    -0.300 N 
ATOM      2  HN  UNL     1      64.575   9.389   5.711  1.00  0.00     0.187 HD
HETATM    3  C   UNL     1      62.848   8.438   4.918  1.00  0.00     0.059 A 
HETATM    4  N   UNL     1      63.914   7.541   6.523  1.00  0.00    -0.311 N 
HETATM    5  C   UNL     1      62.198   7.210   5.223  1.00  0.00     0.050 A 
HETATM    6  C   UNL     1      62.911   6.660   6.259  1.00  0.00     0.109 A 
HETATM    7  H   UNL     1      64.576   7.405   7.239  1.00  0.00     0.186 HD
ENDROOT
BRANCH   3   8
HETATM    8  C   UNL     1      62.474   9.423   3.902  1.00  0.00    -0.008 A 
HETATM    9  C   UNL     1      62.371   9.050   2.553  1.00  0.00     0.014 A 
HETATM   10  C   UNL     1      62.012   9.987   1.581  1.00  0.00     0.001 A 
HETATM   11  C   UNL     1      61.757  11.308   1.947  1.00  0.00     0.000 A 
HETATM   12  C   UNL     1      61.860  11.693   3.282  1.00  0.00     0.001 A 
HETATM   13  C   UNL     1      62.215  10.755   4.255  1.00  0.00     0.014 A 
ENDBRANCH   3   8
TORSDOF 1
ENDMDL
MODEL 2
REMARK VINA RESULT:      -5.1      1.355      1.526
REMARK  1 active torsions:
REMARK  status: ('A' for Active; 'I' for Inactive)
REMARK    1  A    between atoms: C_3  and  C_7 
ROOT
HETATM    1  N   UNL     1      63.434   7.813   6.378  1.00  0.00    -0.300 N 
ATOM      2  HN  UNL     1      62.478   7.895   6.722  1.00  0.00     0.187 HD
HETATM    3  C   UNL     1      63.970   8.402   5.296  1.00  0.00     0.059 A 
HETATM    4  N   UNL     1      64.437   7.093   6.904  1.00  0.00    -0.311 N 
HETATM    5  C   UNL     1      65.345   8.058   5.176  1.00  0.00     0.050 A 
HETATM    6  C   UNL     1      65.610   7.216   6.227  1.00  0.00     0.109 A 
HETATM    7  H   UNL     1      64.333   6.527   7.704  1.00  0.00     0.186 HD
ENDROOT
BRANCH   3   8
HETATM    8  C   UNL     1      63.180   9.261   4.413  1.00  0.00    -0.008 A 
HETATM    9  C   UNL     1      62.833   8.830   3.124  1.00  0.00     0.014 A 
HETATM   10  C   UNL     1      62.076   9.646   2.280  1.00  0.00     0.001 A 
HETATM   11  C   UNL     1      61.664  10.906   2.714  1.00  0.00     0.000 A 
HETATM   12  C   UNL     1      62.006  11.348   3.990  1.00  0.00     0.001 A 
HETATM   13  C   UNL     1      62.758  10.530   4.836  1.00  0.00     0.014 A 
ENDBRANCH   3   8
TORSDOF 1
ENDMDL
MODEL 3
REMARK VINA RESULT:      -4.6      2.478      3.521
REMARK  1 active torsions:
REMARK  status: ('A' for Active; 'I' for Inactive)
REMARK    1  A    between atoms: C_3  and  C_7 
ROOT
HETATM    1  N   UNL     1      62.047  11.138   3.560  1.00  0.00    -0.300 N 
ATOM      2  HN  UNL     1      61.594  11.524   2.732  1.00  0.00     0.187 HD
HETATM    3  C   UNL     1      62.576   9.913   3.711  1.00  0.00     0.059 A 
HETATM    4  N   UNL     1      62.246  11.742   4.742  1.00  0.00    -0.311 N 
HETATM    5  C   UNL     1      63.143   9.775   5.009  1.00  0.00     0.050 A 
HETATM    6  C   UNL     1      62.912  10.971   5.643  1.00  0.00     0.109 A 
HETATM    7  H   UNL     1      61.938  12.657   4.939  1.00  0.00     0.186 HD
ENDROOT
BRANCH   3   8
HETATM    8  C   UNL     1      62.532   8.916   2.641  1.00  0.00    -0.008 A 
HETATM    9  C   UNL     1      63.052   7.629   2.846  1.00  0.00     0.014 A 
HETATM   10  C   UNL     1      63.010   6.674   1.827  1.00  0.00     0.001 A 
HETATM   11  C   UNL     1      62.451   6.997   0.591  1.00  0.00     0.000 A 
HETATM   12  C   UNL     1      61.936   8.272   0.373  1.00  0.00     0.001 A 
HETATM   13  C   UNL     1      61.974   9.227   1.393  1.00  0.00     0.014 A 
ENDBRANCH   3   8
TORSDOF 1
ENDMDL
MODEL 4
REMARK VINA RESULT:      -4.5      2.611      3.395
REMARK  1 active torsions:
REMARK  status: ('A' for Active; 'I' for Inactive)
REMARK    1  A    between atoms: C_3  and  C_7 
ROOT
HETATM    1  N   UNL     1      65.930   8.316   6.544  1.00  0.00    -0.300 N 
ATOM      2  HN  UNL     1      65.323   8.801   7.203  1.00  0.00     0.187 HD
HETATM    3  C   UNL     1      65.679   8.025   5.257  1.00  0.00     0.059 A 
HETATM    4  N   UNL     1      67.159   7.825   6.770  1.00  0.00    -0.311 N 
HETATM    5  C   UNL     1      66.797   7.367   4.671  1.00  0.00     0.050 A 
HETATM    6  C   UNL     1      67.728   7.256   5.673  1.00  0.00     0.109 A 
HETATM    7  H   UNL     1      67.605   7.871   7.646  1.00  0.00     0.186 HD
ENDROOT
BRANCH   3   8
HETATM    8  C   UNL     1      64.406   8.368   4.622  1.00  0.00    -0.008 A 
HETATM    9  C   UNL     1      63.686   9.498   5.036  1.00  0.00     0.014 A 
HETATM   10  C   UNL     1      62.472   9.830   4.430  1.00  0.00     0.001 A 
HETATM   11  C   UNL     1      61.962   9.032   3.407  1.00  0.00     0.000 A 
HETATM   12  C   UNL     1      62.664   7.904   2.989  1.00  0.00     0.001 A 
HETATM   13  C   UNL     1      63.881   7.574   3.592  1.00  0.00     0.014 A 
ENDBRANCH   3   8
TORSDOF 1
ENDMDL
MODEL 5
REMARK VINA RESULT:      -4.4      1.990      4.692
REMARK  1 active torsions:
REMARK  status: ('A' for Active; 'I' for Inactive)
REMARK    1  A    between atoms: C_3  and  C_7 
ROOT
HETATM    1  N   UNL     1      63.327  10.629   5.760  1.00  0.00    -0.300 N 
ATOM      2  HN  UNL     1      63.831  10.746   6.638  1.00  0.00     0.187 HD
HETATM    3  C   UNL     1      63.258   9.529   4.993  1.00  0.00     0.059 A 
HETATM    4  N   UNL     1      62.585  11.542   5.113  1.00  0.00    -0.311 N 
HETATM    5  C   UNL     1      62.424   9.765   3.864  1.00  0.00     0.050 A 
HETATM    6  C   UNL     1      62.009  11.068   3.975  1.00  0.00     0.109 A 
HETATM    7  H   UNL     1      62.468  12.466   5.432  1.00  0.00     0.186 HD
ENDROOT
BRANCH   3   8
HETATM    8  C   UNL     1      63.971   8.300   5.339  1.00  0.00    -0.008 A 
HETATM    9  C   UNL     1      63.323   7.274   6.044  1.00  0.00     0.014 A 
HETATM   10  C   UNL     1      64.001   6.099   6.374  1.00  0.00     0.001 A 
HETATM   11  C   UNL     1      65.337   5.938   6.008  1.00  0.00     0.000 A 
HETATM   12  C   UNL     1      65.994   6.950   5.313  1.00  0.00     0.001 A 
HETATM   13  C   UNL     1      65.315   8.124   4.978  1.00  0.00     0.014 A 
ENDBRANCH   3   8
TORSDOF 1
ENDMDL
MODEL 6
REMARK VINA RESULT:      -4.4      1.976      4.585
REMARK  1 active torsions:
REMARK  status: ('A' for Active; 'I' for Inactive)
REMARK    1  A    between atoms: C_3  and  C_7 
ROOT
HETATM    1  N   UNL     1      62.112  10.640   3.978  1.00  0.00    -0.300 N 
ATOM      2  HN  UNL     1      62.110  11.067   4.904  1.00  0.00     0.187 HD
HETATM    3  C   UNL     1      62.574   9.426   3.636  1.00  0.00     0.059 A 
HETATM    4  N   UNL     1      61.655  11.166   2.832  1.00  0.00    -0.311 N 
HETATM    5  C   UNL     1      62.363   9.191   2.248  1.00  0.00     0.050 A 
HETATM    6  C   UNL     1      61.771  10.331   1.764  1.00  0.00     0.109 A 
HETATM    7  H   UNL     1      61.274  12.072   2.768  1.00  0.00     0.186 HD
ENDROOT
BRANCH   3   8
HETATM    8  C   UNL     1      63.194   8.531   4.613  1.00  0.00    -0.008 A 
HETATM    9  C   UNL     1      64.574   8.594   4.859  1.00  0.00     0.014 A 
HETATM   10  C   UNL     1      65.169   7.743   5.794  1.00  0.00     0.001 A 
HETATM   11  C   UNL     1      64.392   6.816   6.487  1.00  0.00     0.000 A 
HETATM   12  C   UNL     1      63.022   6.740   6.248  1.00  0.00     0.001 A 
HETATM   13  C   UNL     1      62.425   7.594   5.317  1.00  0.00     0.014 A 
ENDBRANCH   3   8
TORSDOF 1
ENDMDL
MODEL 7
REMARK VINA RESULT:      -4.4      2.816      4.134
REMARK  1 active torsions:
REMARK  status: ('A' for Active; 'I' for Inactive)
REMARK    1  A    between atoms: C_3  and  C_7 
ROOT
HETATM    1  N   UNL     1      59.882   8.377   2.493  1.00  0.00    -0.300 N 
ATOM      2  HN  UNL     1      59.367   8.413   3.372  1.00  0.00     0.187 HD
HETATM    3  C   UNL     1      61.166   8.711   2.280  1.00  0.00     0.059 A 
HETATM    4  N   UNL     1      59.429   7.986   1.292  1.00  0.00    -0.311 N 
HETATM    5  C   UNL     1      61.516   8.487   0.919  1.00  0.00     0.050 A 
HETATM    6  C   UNL     1      60.375   8.021   0.315  1.00  0.00     0.109 A 
HETATM    7  H   UNL     1      58.500   7.702   1.132  1.00  0.00     0.186 HD
ENDROOT
BRANCH   3   8
HETATM    8  C   UNL     1      62.018   9.227   3.352  1.00  0.00    -0.008 A 
HETATM    9  C   UNL     1      63.066   8.450   3.865  1.00  0.00     0.014 A 
HETATM   10  C   UNL     1      63.883   8.941   4.886  1.00  0.00     0.001 A 
HETATM   11  C   UNL     1      63.656  10.213   5.410  1.00  0.00     0.000 A 
HETATM   12  C   UNL     1      62.614  10.993   4.914  1.00  0.00     0.001 A 
HETATM   13  C   UNL     1      61.800  10.505   3.889  1.00  0.00     0.014 A 
ENDBRANCH   3   8
TORSDOF 1
ENDMDL
MODEL 8
REMARK VINA RESULT:      -4.3      3.023      4.836
REMARK  1 active torsions:
REMARK  status: ('A' for Active; 'I' for Inactive)
REMARK    1  A    between atoms: C_3  and  C_7 
ROOT
HETATM    1  N   UNL     1      64.179   9.807   5.746  1.00  0.00    -0.300 N 
ATOM      2  HN  UNL     1      64.833   9.983   6.509  1.00  0.00     0.187 HD
HETATM    3  C   UNL     1      64.228   8.821   4.835  1.00  0.00     0.059 A 
HETATM    4  N   UNL     1      63.080  10.508   5.430  1.00  0.00    -0.311 N 
HETATM    5  C   UNL     1      63.110   8.903   3.958  1.00  0.00     0.050 A 
HETATM    6  C   UNL     1      62.394   9.999   4.370  1.00  0.00     0.109 A 
HETATM    7  H   UNL     1      62.797  11.316   5.917  1.00  0.00     0.186 HD
ENDROOT
BRANCH   3   8
HETATM    8  C   UNL     1      65.314   7.841   4.814  1.00  0.00    -0.008 A 
HETATM    9  C   UNL     1      65.286   6.767   3.913  1.00  0.00     0.014 A 
HETATM   10  C   UNL     1      66.323   5.831   3.889  1.00  0.00     0.001 A 
HETATM   11  C   UNL     1      67.396   5.956   4.771  1.00  0.00     0.000 A 
HETATM   12  C   UNL     1      67.433   7.014   5.675  1.00  0.00     0.001 A 
HETATM   13  C   UNL     1      66.399   7.954   5.696  1.00  0.00     0.014 A 
ENDBRANCH   3   8
TORSDOF 1
ENDMDL
MODEL 9
REMARK VINA RESULT:      -4.3      3.925      6.815
REMARK  1 active torsions:
REMARK  status: ('A' for Active; 'I' for Inactive)
REMARK    1  A    between atoms: C_3  and  C_7 
ROOT
HETATM    1  N   UNL     1      64.218   7.435   6.757  1.00  0.00    -0.300 N 
ATOM      2  HN  UNL     1      63.711   7.062   7.560  1.00  0.00     0.187 HD
HETATM    3  C   UNL     1      65.500   7.215   6.423  1.00  0.00     0.059 A 
HETATM    4  N   UNL     1      63.752   8.254   5.802  1.00  0.00    -0.311 N 
HETATM    5  C   UNL     1      65.818   7.893   5.212  1.00  0.00     0.050 A 
HETATM    6  C   UNL     1      64.670   8.549   4.842  1.00  0.00     0.109 A 
HETATM    7  H   UNL     1      62.833   8.608   5.796  1.00  0.00     0.186 HD
ENDROOT
BRANCH   3   8
HETATM    8  C   UNL     1      66.382   6.385   7.243  1.00  0.00    -0.008 A 
HETATM    9  C   UNL     1      66.778   5.114   6.802  1.00  0.00     0.014 A 
HETATM   10  C   UNL     1      67.621   4.320   7.582  1.00  0.00     0.001 A 
HETATM   11  C   UNL     1      68.074   4.786   8.816  1.00  0.00     0.000 A 
HETATM   12  C   UNL     1      67.685   6.045   9.269  1.00  0.00     0.001 A 
HETATM   13  C   UNL     1      66.845   6.841   8.487  1.00  0.00     0.014 A 
ENDBRANCH   3   8
TORSDOF 1
ENDMDL
