MODEL 1
REMARK VINA RESULT:      -4.6      0.000      0.000
REMARK  1 active torsions:
REMARK  status: ('A' for Active; 'I' for Inactive)
REMARK    1  A    between atoms: C_9  and  N_10 
ROOT
HETATM    1  N   UNL     1      63.027  10.949   6.036  1.00  0.00    -0.311 N 
ATOM      2  HN  UNL     1      63.241  11.275   6.979  1.00  0.00     0.186 HD
HETATM    3  C   UNL     1      62.789   9.640   4.173  1.00  0.00     0.011 A 
HETATM    4  N   UNL     1      62.482  11.640   5.019  1.00  0.00    -0.300 N 
HETATM    5  C   UNL     1      62.309  10.909   3.872  1.00  0.00     0.059 A 
HETATM    6  C   UNL     1      63.219   9.734   5.516  1.00  0.00     0.120 A 
HETATM    7  C   UNL     1      62.766   8.644   3.181  1.00  0.00     0.044 A 
HETATM    8  C   UNL     1      61.803  11.248   2.617  1.00  0.00     0.034 A 
HETATM    9  C   UNL     1      62.215   8.935   1.924  1.00  0.00     0.026 A 
HETATM   10  C   UNL     1      61.789  10.237   1.645  1.00  0.00     0.031 A 
HETATM   11  H   UNL     1      62.228  12.589   5.090  1.00  0.00     0.187 HD
ENDROOT
BRANCH   9  12
HETATM   12  N   UNL     1      62.308   7.993   0.888  1.00  0.00    -0.399 N 
HETATM   13  H   UNL     1      62.233   7.032   1.088  1.00  0.00     0.156 HD
HETATM   14  H   UNL     1      62.448   8.294  -0.039  1.00  0.00     0.156 HD
ENDBRANCH   9  12
TORSDOF 1
ENDMDL
MODEL 2
REMARK VINA RESULT:      -4.5      0.922      1.969
REMARK  1 active torsions:
REMARK  status: ('A' for Active; 'I' for Inactive)
REMARK    1  A    between atoms: C_9  and  N_10 
ROOT
HETATM    1  N   UNL     1      63.218  11.110   6.097  1.00  0.00    -0.311 N 
ATOM      2  HN  UNL     1      63.403  11.654   6.939  1.00  0.00     0.186 HD
HETATM    3  C   UNL     1      62.445  10.438   4.049  1.00  0.00     0.011 A 
HETATM    4  N   UNL     1      63.674   9.884   5.778  1.00  0.00    -0.300 N 
HETATM    5  C   UNL     1      63.249   9.426   4.558  1.00  0.00     0.059 A 
HETATM    6  C   UNL     1      62.465  11.441   5.044  1.00  0.00     0.120 A 
HETATM    7  C   UNL     1      61.834  10.264   2.794  1.00  0.00     0.044 A 
HETATM    8  C   UNL     1      63.478   8.228   3.881  1.00  0.00     0.034 A 
HETATM    9  C   UNL     1      62.085   9.095   2.061  1.00  0.00     0.026 A 
HETATM   10  C   UNL     1      62.858   8.079   2.632  1.00  0.00     0.031 A 
HETATM   11  H   UNL     1      64.262   9.361   6.370  1.00  0.00     0.187 HD
ENDROOT
BRANCH   9  12
HETATM   12  N   UNL     1      61.378   8.852   0.874  1.00  0.00    -0.399 N 
HETATM   13  H   UNL     1      60.761   9.533   0.520  1.00  0.00     0.156 HD
HETATM   14  H   UNL     1      61.498   8.000   0.396  1.00  0.00     0.156 HD
ENDBRANCH   9  12
TORSDOF 1
ENDMDL
MODEL 3
REMARK VINA RESULT:      -4.5      1.093      3.707
REMARK  1 active torsions:
REMARK  status: ('A' for Active; 'I' for Inactive)
REMARK    1  A    between atoms: C_9  and  N_10 
ROOT
HETATM    1  N   UNL     1      63.177   7.126   2.296  1.00  0.00    -0.311 N 
ATOM      2  HN  UNL     1      63.285   6.294   1.717  1.00  0.00     0.186 HD
HETATM    3  C   UNL     1      63.371   8.657   3.986  1.00  0.00     0.011 A 
HETATM    4  N   UNL     1      62.432   8.220   2.054  1.00  0.00    -0.300 N 
HETATM    5  C   UNL     1      62.509   9.179   3.030  1.00  0.00     0.059 A 
HETATM    6  C   UNL     1      63.742   7.393   3.476  1.00  0.00     0.120 A 
HETATM    7  C   UNL     1      63.650   9.408   5.143  1.00  0.00     0.044 A 
HETATM    8  C   UNL     1      61.894  10.424   3.165  1.00  0.00     0.034 A 
HETATM    9  C   UNL     1      63.090  10.686   5.286  1.00  0.00     0.026 A 
HETATM   10  C   UNL     1      62.188  11.153   4.326  1.00  0.00     0.031 A 
HETATM   11  H   UNL     1      61.879   8.324   1.245  1.00  0.00     0.187 HD
ENDROOT
BRANCH   9  12
HETATM   12  N   UNL     1      63.252  11.386   6.492  1.00  0.00    -0.399 N 
HETATM   13  H   UNL     1      63.837  12.177   6.528  1.00  0.00     0.156 HD
HETATM   14  H   UNL     1      62.782  11.084   7.302  1.00  0.00     0.156 HD
ENDBRANCH   9  12
TORSDOF 1
ENDMDL
MODEL 4
REMARK VINA RESULT:      -4.5      1.719      3.465
REMARK  1 active torsions:
REMARK  status: ('A' for Active; 'I' for Inactive)
REMARK    1  A    between atoms: C_9  and  N_10 
ROOT
HETATM    1  N   UNL     1      61.188   9.960   1.344  1.00  0.00    -0.311 N 
ATOM      2  HN  UNL     1      60.664  10.044   0.473  1.00  0.00     0.186 HD
HETATM    3  C   UNL     1      62.536   9.180   3.022  1.00  0.00     0.011 A 
HETATM    4  N   UNL     1      61.274  10.844   2.355  1.00  0.00    -0.300 N 
HETATM    5  C   UNL     1      62.073  10.437   3.391  1.00  0.00     0.059 A 
HETATM    6  C   UNL     1      61.952   8.945   1.757  1.00  0.00     0.120 A 
HETATM    7  C   UNL     1      63.383   8.475   3.896  1.00  0.00     0.044 A 
HETATM    8  C   UNL     1      62.407  11.039   4.605  1.00  0.00     0.034 A 
HETATM    9  C   UNL     1      63.781   9.073   5.101  1.00  0.00     0.026 A 
HETATM   10  C   UNL     1      63.253  10.317   5.459  1.00  0.00     0.031 A 
HETATM   11  H   UNL     1      60.805  11.710   2.351  1.00  0.00     0.187 HD
ENDROOT
BRANCH   9  12
HETATM   12  N   UNL     1      64.514   8.329   6.039  1.00  0.00    -0.399 N 
HETATM   13  H   UNL     1      64.156   7.478   6.381  1.00  0.00     0.156 HD
HETATM   14  H   UNL     1      65.386   8.659   6.355  1.00  0.00     0.156 HD
ENDBRANCH   9  12
TORSDOF 1
ENDMDL
MODEL 5
REMARK VINA RESULT:      -4.5      0.953      4.129
REMARK  1 active torsions:
REMARK  status: ('A' for Active; 'I' for Inactive)
REMARK    1  A    between atoms: C_9  and  N_10 
ROOT
HETATM    1  N   UNL     1      61.731   8.809   0.976  1.00  0.00    -0.311 N 
ATOM      2  HN  UNL     1      61.384   8.564   0.048  1.00  0.00     0.186 HD
HETATM    3  C   UNL     1      62.153   9.919   2.933  1.00  0.00     0.011 A 
HETATM    4  N   UNL     1      62.508   8.078   1.796  1.00  0.00    -0.300 N 
HETATM    5  C   UNL     1      62.794   8.688   2.990  1.00  0.00     0.059 A 
HETATM    6  C   UNL     1      61.522   9.931   1.669  1.00  0.00     0.120 A 
HETATM    7  C   UNL     1      62.268  10.804   4.020  1.00  0.00     0.044 A 
HETATM    8  C   UNL     1      63.561   8.284   4.083  1.00  0.00     0.034 A 
HETATM    9  C   UNL     1      62.986  10.408   5.158  1.00  0.00     0.026 A 
HETATM   10  C   UNL     1      63.659   9.182   5.155  1.00  0.00     0.031 A 
HETATM   11  H   UNL     1      62.843   7.183   1.559  1.00  0.00     0.187 HD
ENDROOT
BRANCH   9  12
HETATM   12  N   UNL     1      63.220  11.331   6.189  1.00  0.00    -0.399 N 
HETATM   13  H   UNL     1      62.942  12.269   6.083  1.00  0.00     0.156 HD
HETATM   14  H   UNL     1      63.662  11.039   7.019  1.00  0.00     0.156 HD
ENDBRANCH   9  12
TORSDOF 1
ENDMDL
MODEL 6
REMARK VINA RESULT:      -4.4      1.814      3.438
REMARK  1 active torsions:
REMARK  status: ('A' for Active; 'I' for Inactive)
REMARK    1  A    between atoms: C_9  and  N_10 
ROOT
HETATM    1  N   UNL     1      61.434  11.362   2.274  1.00  0.00    -0.311 N 
ATOM      2  HN  UNL     1      61.014  12.122   1.739  1.00  0.00     0.186 HD
HETATM    3  C   UNL     1      62.401  10.136   3.949  1.00  0.00     0.011 A 
HETATM    4  N   UNL     1      61.660  10.093   1.886  1.00  0.00    -0.300 N 
HETATM    5  C   UNL     1      62.235   9.305   2.848  1.00  0.00     0.059 A 
HETATM    6  C   UNL     1      61.893  11.385   3.528  1.00  0.00     0.120 A 
HETATM    7  C   UNL     1      62.991   9.620   5.117  1.00  0.00     0.044 A 
HETATM    8  C   UNL     1      62.635   7.968   2.843  1.00  0.00     0.034 A 
HETATM    9  C   UNL     1      63.355   8.266   5.165  1.00  0.00     0.026 A 
HETATM   10  C   UNL     1      63.219   7.477   4.019  1.00  0.00     0.031 A 
HETATM   11  H   UNL     1      61.432   9.760   0.988  1.00  0.00     0.187 HD
ENDROOT
BRANCH   9  12
HETATM   12  N   UNL     1      64.064   7.775   6.271  1.00  0.00    -0.399 N 
HETATM   13  H   UNL     1      64.265   6.814   6.341  1.00  0.00     0.156 HD
HETATM   14  H   UNL     1      64.360   8.392   6.979  1.00  0.00     0.156 HD
ENDBRANCH   9  12
TORSDOF 1
ENDMDL
MODEL 7
REMARK VINA RESULT:      -4.2      1.782      2.223
REMARK  1 active torsions:
REMARK  status: ('A' for Active; 'I' for Inactive)
REMARK    1  A    between atoms: C_9  and  N_10 
ROOT
HETATM    1  N   UNL     1      65.105   8.145   5.646  1.00  0.00    -0.311 N 
ATOM      2  HN  UNL     1      65.853   7.776   6.234  1.00  0.00     0.186 HD
HETATM    3  C   UNL     1      63.529   8.387   4.004  1.00  0.00     0.011 A 
HETATM    4  N   UNL     1      64.438   9.306   5.774  1.00  0.00    -0.300 N 
HETATM    5  C   UNL     1      63.474   9.509   4.821  1.00  0.00     0.059 A 
HETATM    6  C   UNL     1      64.553   7.591   4.563  1.00  0.00     0.120 A 
HETATM    7  C   UNL     1      62.659   8.296   2.902  1.00  0.00     0.044 A 
HETATM    8  C   UNL     1      62.592  10.566   4.596  1.00  0.00     0.034 A 
HETATM    9  C   UNL     1      61.722   9.316   2.678  1.00  0.00     0.026 A 
HETATM   10  C   UNL     1      61.735  10.452   3.493  1.00  0.00     0.031 A 
HETATM   11  H   UNL     1      64.625   9.955   6.491  1.00  0.00     0.187 HD
ENDROOT
BRANCH   9  12
HETATM   12  N   UNL     1      60.944   9.302   1.511  1.00  0.00    -0.399 N 
HETATM   13  H   UNL     1      60.744  10.144   1.042  1.00  0.00     0.156 HD
HETATM   14  H   UNL     1      60.597   8.449   1.161  1.00  0.00     0.156 HD
ENDBRANCH   9  12
TORSDOF 1
ENDMDL
MODEL 8
REMARK VINA RESULT:      -4.0      2.029      3.325
REMARK  1 active torsions:
REMARK  status: ('A' for Active; 'I' for Inactive)
REMARK    1  A    between atoms: C_9  and  N_10 
ROOT
HETATM    1  N   UNL     1      63.471   6.409   3.554  1.00  0.00    -0.311 N 
ATOM      2  HN  UNL     1      63.779   5.438   3.605  1.00  0.00     0.186 HD
HETATM    3  C   UNL     1      62.656   8.411   2.799  1.00  0.00     0.011 A 
HETATM    4  N   UNL     1      63.444   7.328   4.536  1.00  0.00    -0.300 N 
HETATM    5  C   UNL     1      62.960   8.551   4.148  1.00  0.00     0.059 A 
HETATM    6  C   UNL     1      62.997   7.073   2.497  1.00  0.00     0.120 A 
HETATM    7  C   UNL     1      62.144   9.514   2.092  1.00  0.00     0.044 A 
HETATM    8  C   UNL     1      62.786   9.748   4.842  1.00  0.00     0.034 A 
HETATM    9  C   UNL     1      61.907  10.718   2.772  1.00  0.00     0.026 A 
HETATM   10  C   UNL     1      62.274  10.833   4.116  1.00  0.00     0.031 A 
HETATM   11  H   UNL     1      63.745   7.140   5.454  1.00  0.00     0.187 HD
ENDROOT
BRANCH   9  12
HETATM   12  N   UNL     1      61.525  11.860   2.052  1.00  0.00    -0.399 N 
HETATM   13  H   UNL     1      60.668  11.873   1.568  1.00  0.00     0.156 HD
HETATM   14  H   UNL     1      62.115  12.647   2.030  1.00  0.00     0.156 HD
ENDBRANCH   9  12
TORSDOF 1
ENDMDL
MODEL 9
REMARK VINA RESULT:      -4.0      2.136      3.076
REMARK  1 active torsions:
REMARK  status: ('A' for Active; 'I' for Inactive)
REMARK    1  A    between atoms: C_9  and  N_10 
ROOT
HETATM    1  N   UNL     1      62.678   6.740   4.828  1.00  0.00    -0.311 N 
ATOM      2  HN  UNL     1      62.838   5.976   5.485  1.00  0.00     0.186 HD
HETATM    3  C   UNL     1      62.296   8.810   3.928  1.00  0.00     0.011 A 
HETATM    4  N   UNL     1      62.628   6.688   3.485  1.00  0.00    -0.300 N 
HETATM    5  C   UNL     1      62.405   7.900   2.884  1.00  0.00     0.059 A 
HETATM    6  C   UNL     1      62.469   8.032   5.095  1.00  0.00     0.120 A 
HETATM    7  C   UNL     1      62.046  10.163   3.637  1.00  0.00     0.044 A 
HETATM    8  C   UNL     1      62.272   8.267   1.545  1.00  0.00     0.034 A 
HETATM    9  C   UNL     1      61.960  10.576   2.299  1.00  0.00     0.026 A 
HETATM   10  C   UNL     1      62.025   9.621   1.280  1.00  0.00     0.031 A 
HETATM   11  H   UNL     1      62.742   5.853   2.976  1.00  0.00     0.187 HD
ENDROOT
BRANCH   9  12
HETATM   12  N   UNL     1      61.579  11.893   2.000  1.00  0.00    -0.399 N 
HETATM   13  H   UNL     1      61.520  12.564   2.718  1.00  0.00     0.156 HD
HETATM   14  H   UNL     1      61.370  12.145   1.072  1.00  0.00     0.156 HD
ENDBRANCH   9  12
TORSDOF 1
ENDMDL
