MODEL 1
REMARK VINA RESULT:      -4.3      0.000      0.000
REMARK  1 active torsions:
REMARK  status: ('A' for Active; 'I' for Inactive)
REMARK    1  A    between atoms: C_1  and  C_2 
ROOT
HETATM    1  C   UNL     1      62.124   9.780   2.518  1.00  0.00     0.071 A 
HETATM    2  C   UNL     1      62.858   8.794   3.159  1.00  0.00     0.065 A 
HETATM    3  C   UNL     1      61.650   9.174   1.314  1.00  0.00     0.045 A 
HETATM    4  O   UNL     1      62.852   7.645   2.421  1.00  0.00    -0.326 OA
HETATM    5  C   UNL     1      62.119   7.885   1.307  1.00  0.00     0.143 A 
HETATM    6  C   UNL     1      63.620   8.713   4.425  1.00  0.00     0.078 C 
ENDROOT
BRANCH   1   7
HETATM    7  C   UNL     1      61.896  11.131   2.980  1.00  0.00     0.211 C 
HETATM    8  O   UNL     1      61.695  11.480   4.132  1.00  0.00    -0.644 OA
HETATM    9  O   UNL     1      61.919  12.055   1.992  1.00  0.00    -0.644 OA
ENDBRANCH   1   7
TORSDOF 1
ENDMDL
MODEL 2
REMARK VINA RESULT:      -4.2      1.434      3.256
REMARK  1 active torsions:
REMARK  status: ('A' for Active; 'I' for Inactive)
REMARK    1  A    between atoms: C_1  and  C_2 
ROOT
HETATM    1  C   UNL     1      62.211   9.707   3.292  1.00  0.00     0.071 A 
HETATM    2  C   UNL     1      62.314  10.837   4.089  1.00  0.00     0.065 A 
HETATM    3  C   UNL     1      61.804  10.187   2.010  1.00  0.00     0.045 A 
HETATM    4  O   UNL     1      61.999  11.955   3.369  1.00  0.00    -0.326 OA
HETATM    5  C   UNL     1      61.691  11.550   2.113  1.00  0.00     0.143 A 
HETATM    6  C   UNL     1      62.681  11.093   5.499  1.00  0.00     0.078 C 
ENDROOT
BRANCH   1   7
HETATM    7  C   UNL     1      62.462   8.341   3.689  1.00  0.00     0.211 C 
HETATM    8  O   UNL     1      61.714   7.622   4.332  1.00  0.00    -0.644 OA
HETATM    9  O   UNL     1      63.662   7.867   3.281  1.00  0.00    -0.644 OA
ENDBRANCH   1   7
TORSDOF 1
ENDMDL
MODEL 3
REMARK VINA RESULT:      -4.1      0.739      2.277
REMARK  1 active torsions:
REMARK  status: ('A' for Active; 'I' for Inactive)
REMARK    1  A    between atoms: C_1  and  C_2 
ROOT
HETATM    1  C   UNL     1      62.329   9.884   3.211  1.00  0.00     0.071 A 
HETATM    2  C   UNL     1      62.299   8.928   2.207  1.00  0.00     0.065 A 
HETATM    3  C   UNL     1      62.783   9.193   4.375  1.00  0.00     0.045 A 
HETATM    4  O   UNL     1      62.706   7.718   2.694  1.00  0.00    -0.326 OA
HETATM    5  C   UNL     1      62.996   7.889   4.006  1.00  0.00     0.143 A 
HETATM    6  C   UNL     1      61.939   8.929   0.772  1.00  0.00     0.078 C 
ENDROOT
BRANCH   1   7
HETATM    7  C   UNL     1      61.971  11.279   3.090  1.00  0.00     0.211 C 
HETATM    8  O   UNL     1      61.858  11.913   2.053  1.00  0.00    -0.644 OA
HETATM    9  O   UNL     1      61.754  11.890   4.278  1.00  0.00    -0.644 OA
ENDBRANCH   1   7
TORSDOF 1
ENDMDL
MODEL 4
REMARK VINA RESULT:      -4.1      1.355      2.686
REMARK  1 active torsions:
REMARK  status: ('A' for Active; 'I' for Inactive)
REMARK    1  A    between atoms: C_1  and  C_2 
ROOT
HETATM    1  C   UNL     1      62.868   9.748   4.263  1.00  0.00     0.071 A 
HETATM    2  C   UNL     1      62.527   9.385   2.969  1.00  0.00     0.065 A 
HETATM    3  C   UNL     1      63.568   8.624   4.798  1.00  0.00     0.045 A 
HETATM    4  O   UNL     1      62.977   8.123   2.698  1.00  0.00    -0.326 OA
HETATM    5  C   UNL     1      63.605   7.672   3.811  1.00  0.00     0.143 A 
HETATM    6  C   UNL     1      61.811  10.039   1.852  1.00  0.00     0.078 C 
ENDROOT
BRANCH   1   7
HETATM    7  C   UNL     1      62.570  11.002   4.918  1.00  0.00     0.211 C 
HETATM    8  O   UNL     1      61.912  11.922   4.460  1.00  0.00    -0.644 OA
HETATM    9  O   UNL     1      63.101  11.108   6.158  1.00  0.00    -0.644 OA
ENDBRANCH   1   7
TORSDOF 1
ENDMDL
MODEL 5
REMARK VINA RESULT:      -4.0      2.320      3.778
REMARK  1 active torsions:
REMARK  status: ('A' for Active; 'I' for Inactive)
REMARK    1  A    between atoms: C_1  and  C_2 
ROOT
HETATM    1  C   UNL     1      63.356   9.087   4.541  1.00  0.00     0.071 A 
HETATM    2  C   UNL     1      62.702  10.280   4.809  1.00  0.00     0.065 A 
HETATM    3  C   UNL     1      62.681   8.533   3.411  1.00  0.00     0.045 A 
HETATM    4  O   UNL     1      61.686  10.473   3.916  1.00  0.00    -0.326 OA
HETATM    5  C   UNL     1      61.682   9.410   3.075  1.00  0.00     0.143 A 
HETATM    6  C   UNL     1      62.855  11.355   5.813  1.00  0.00     0.078 C 
ENDROOT
BRANCH   1   7
HETATM    7  C   UNL     1      64.481   8.535   5.262  1.00  0.00     0.211 C 
HETATM    8  O   UNL     1      65.662   8.722   5.019  1.00  0.00    -0.644 OA
HETATM    9  O   UNL     1      64.125   7.738   6.296  1.00  0.00    -0.644 OA
ENDBRANCH   1   7
TORSDOF 1
ENDMDL
MODEL 6
REMARK VINA RESULT:      -4.0      2.021      3.089
REMARK  1 active torsions:
REMARK  status: ('A' for Active; 'I' for Inactive)
REMARK    1  A    between atoms: C_1  and  C_2 
ROOT
HETATM    1  C   UNL     1      62.680   9.820   4.127  1.00  0.00     0.071 A 
HETATM    2  C   UNL     1      62.546   9.104   2.947  1.00  0.00     0.065 A 
HETATM    3  C   UNL     1      62.134  11.110   3.850  1.00  0.00     0.045 A 
HETATM    4  O   UNL     1      61.956   9.879   1.989  1.00  0.00    -0.326 OA
HETATM    5  C   UNL     1      61.711  11.091   2.545  1.00  0.00     0.143 A 
HETATM    6  C   UNL     1      62.885   7.732   2.511  1.00  0.00     0.078 C 
ENDROOT
BRANCH   1   7
HETATM    7  C   UNL     1      63.255   9.348   5.367  1.00  0.00     0.211 C 
HETATM    8  O   UNL     1      62.832   8.439   6.064  1.00  0.00    -0.644 OA
HETATM    9  O   UNL     1      64.369  10.019   5.740  1.00  0.00    -0.644 OA
ENDBRANCH   1   7
TORSDOF 1
ENDMDL
MODEL 7
REMARK VINA RESULT:      -4.0      1.968      2.965
REMARK  1 active torsions:
REMARK  status: ('A' for Active; 'I' for Inactive)
REMARK    1  A    between atoms: C_1  and  C_2 
ROOT
HETATM    1  C   UNL     1      62.517   9.471   4.420  1.00  0.00     0.071 A 
HETATM    2  C   UNL     1      61.907  10.011   3.298  1.00  0.00     0.065 A 
HETATM    3  C   UNL     1      62.178   8.084   4.402  1.00  0.00     0.045 A 
HETATM    4  O   UNL     1      61.231   9.041   2.614  1.00  0.00    -0.326 OA
HETATM    5  C   UNL     1      61.401   7.879   3.291  1.00  0.00     0.143 A 
HETATM    6  C   UNL     1      61.831  11.360   2.695  1.00  0.00     0.078 C 
ENDROOT
BRANCH   1   7
HETATM    7  C   UNL     1      63.321  10.176   5.393  1.00  0.00     0.211 C 
HETATM    8  O   UNL     1      62.983  11.151   6.044  1.00  0.00    -0.644 OA
HETATM    9  O   UNL     1      64.560   9.657   5.553  1.00  0.00    -0.644 OA
ENDBRANCH   1   7
TORSDOF 1
ENDMDL
MODEL 8
REMARK VINA RESULT:      -3.7      2.108      3.393
REMARK  1 active torsions:
REMARK  status: ('A' for Active; 'I' for Inactive)
REMARK    1  A    between atoms: C_1  and  C_2 
ROOT
HETATM    1  C   UNL     1      63.019   8.972   4.140  1.00  0.00     0.071 A 
HETATM    2  C   UNL     1      63.393   9.926   5.074  1.00  0.00     0.065 A 
HETATM    3  C   UNL     1      64.048   7.983   4.180  1.00  0.00     0.045 A 
HETATM    4  O   UNL     1      64.573   9.572   5.666  1.00  0.00    -0.326 OA
HETATM    5  C   UNL     1      64.961   8.395   5.117  1.00  0.00     0.143 A 
HETATM    6  C   UNL     1      62.817  11.200   5.557  1.00  0.00     0.078 C 
ENDROOT
BRANCH   1   7
HETATM    7  C   UNL     1      61.836   8.989   3.310  1.00  0.00     0.211 C 
HETATM    8  O   UNL     1      61.673   9.641   2.291  1.00  0.00    -0.644 OA
HETATM    9  O   UNL     1      60.845   8.185   3.759  1.00  0.00    -0.644 OA
ENDBRANCH   1   7
TORSDOF 1
ENDMDL
MODEL 9
REMARK VINA RESULT:      -3.6      1.257      3.601
REMARK  1 active torsions:
REMARK  status: ('A' for Active; 'I' for Inactive)
REMARK    1  A    between atoms: C_1  and  C_2 
ROOT
HETATM    1  C   UNL     1      62.362   9.337   3.250  1.00  0.00     0.071 A 
HETATM    2  C   UNL     1      62.130   9.622   1.913  1.00  0.00     0.065 A 
HETATM    3  C   UNL     1      62.158  10.572   3.939  1.00  0.00     0.045 A 
HETATM    4  O   UNL     1      61.801  10.940   1.760  1.00  0.00    -0.326 OA
HETATM    5  C   UNL     1      61.821  11.505   2.992  1.00  0.00     0.143 A 
HETATM    6  C   UNL     1      62.157   8.842   0.656  1.00  0.00     0.078 C 
ENDROOT
BRANCH   1   7
HETATM    7  C   UNL     1      62.733   8.059   3.811  1.00  0.00     0.211 C 
HETATM    8  O   UNL     1      63.748   7.425   3.568  1.00  0.00    -0.644 OA
HETATM    9  O   UNL     1      61.826   7.564   4.685  1.00  0.00    -0.644 OA
ENDBRANCH   1   7
TORSDOF 1
ENDMDL
