MODEL 1
REMARK VINA RESULT:      -4.9      0.000      0.000
REMARK  1 active torsions:
REMARK  status: ('A' for Active; 'I' for Inactive)
REMARK    1  A    between atoms: C_8  and  N_9 
ROOT
HETATM    1  N   UNL     1      62.090   8.758   1.702  1.00  0.00    -0.359 N 
HETATM    2  C   UNL     1      63.021   8.807   3.726  1.00  0.00    -0.005 A 
HETATM    3  C   UNL     1      62.771   7.573   1.841  1.00  0.00     0.006 A 
HETATM    4  C   UNL     1      63.307   7.558   3.113  1.00  0.00     0.038 A 
HETATM    5  C   UNL     1      62.260   9.544   2.819  1.00  0.00     0.042 A 
HETATM    6  C   UNL     1      63.372   9.402   4.956  1.00  0.00     0.042 A 
HETATM    7  C   UNL     1      61.830  10.847   3.082  1.00  0.00     0.033 A 
HETATM    8  C   UNL     1      62.939  10.702   5.257  1.00  0.00     0.026 A 
HETATM    9  C   UNL     1      62.213  11.418   4.304  1.00  0.00     0.031 A 
HETATM   10  C   UNL     1      62.868   6.581   0.744  1.00  0.00     0.068 C 
HETATM   11  H   UNL     1      61.556   9.009   0.914  1.00  0.00     0.166 HD
ENDROOT
BRANCH   8  12
HETATM   12  N   UNL     1      63.443  11.356   6.391  1.00  0.00    -0.399 N 
HETATM   13  H   UNL     1      62.828  11.664   7.096  1.00  0.00     0.156 HD
HETATM   14  H   UNL     1      64.412  11.508   6.483  1.00  0.00     0.156 HD
ENDBRANCH   8  12
TORSDOF 1
ENDMDL
MODEL 2
REMARK VINA RESULT:      -4.7      1.813      3.236
REMARK  1 active torsions:
REMARK  status: ('A' for Active; 'I' for Inactive)
REMARK    1  A    between atoms: C_8  and  N_9 
ROOT
HETATM    1  N   UNL     1      63.762   8.399   6.020  1.00  0.00    -0.359 N 
HETATM    2  C   UNL     1      62.994   8.669   3.946  1.00  0.00    -0.005 A 
HETATM    3  C   UNL     1      63.857   7.170   5.412  1.00  0.00     0.006 A 
HETATM    4  C   UNL     1      63.441   7.329   4.105  1.00  0.00     0.038 A 
HETATM    5  C   UNL     1      63.202   9.318   5.161  1.00  0.00     0.042 A 
HETATM    6  C   UNL     1      62.391   9.384   2.890  1.00  0.00     0.042 A 
HETATM    7  C   UNL     1      62.839  10.650   5.374  1.00  0.00     0.033 A 
HETATM    8  C   UNL     1      62.033  10.729   3.066  1.00  0.00     0.026 A 
HETATM    9  C   UNL     1      62.223  11.328   4.313  1.00  0.00     0.031 A 
HETATM   10  C   UNL     1      64.310   5.960   6.137  1.00  0.00     0.068 C 
HETATM   11  H   UNL     1      64.053   8.594   6.940  1.00  0.00     0.166 HD
ENDROOT
BRANCH   8  12
HETATM   12  N   UNL     1      61.270  11.379   2.085  1.00  0.00    -0.399 N 
HETATM   13  H   UNL     1      60.724  12.162   2.326  1.00  0.00     0.156 HD
HETATM   14  H   UNL     1      61.280  11.052   1.156  1.00  0.00     0.156 HD
ENDBRANCH   8  12
TORSDOF 1
ENDMDL
MODEL 3
REMARK VINA RESULT:      -4.6      2.029      3.292
REMARK  1 active torsions:
REMARK  status: ('A' for Active; 'I' for Inactive)
REMARK    1  A    between atoms: C_8  and  N_9 
ROOT
HETATM    1  N   UNL     1      63.115   7.304   3.954  1.00  0.00    -0.359 N 
HETATM    2  C   UNL     1      62.568   9.456   4.145  1.00  0.00    -0.005 A 
HETATM    3  C   UNL     1      63.345   7.644   5.265  1.00  0.00     0.006 A 
HETATM    4  C   UNL     1      62.956   8.960   5.419  1.00  0.00     0.038 A 
HETATM    5  C   UNL     1      62.681   8.400   3.242  1.00  0.00     0.042 A 
HETATM    6  C   UNL     1      62.169  10.720   3.663  1.00  0.00     0.042 A 
HETATM    7  C   UNL     1      62.411   8.544   1.879  1.00  0.00     0.033 A 
HETATM    8  C   UNL     1      61.873  10.892   2.303  1.00  0.00     0.026 A 
HETATM    9  C   UNL     1      62.037   9.817   1.427  1.00  0.00     0.031 A 
HETATM   10  C   UNL     1      63.935   6.695   6.238  1.00  0.00     0.068 C 
HETATM   11  H   UNL     1      63.244   6.404   3.577  1.00  0.00     0.166 HD
ENDROOT
BRANCH   8  12
HETATM   12  N   UNL     1      61.659  12.182   1.796  1.00  0.00    -0.399 N 
HETATM   13  H   UNL     1      60.756  12.459   1.517  1.00  0.00     0.156 HD
HETATM   14  H   UNL     1      62.413  12.812   1.720  1.00  0.00     0.156 HD
ENDBRANCH   8  12
TORSDOF 1
ENDMDL
MODEL 4
REMARK VINA RESULT:      -4.6      1.130      2.054
REMARK  1 active torsions:
REMARK  status: ('A' for Active; 'I' for Inactive)
REMARK    1  A    between atoms: C_8  and  N_9 
ROOT
HETATM    1  N   UNL     1      62.436   7.690   2.106  1.00  0.00    -0.359 N 
HETATM    2  C   UNL     1      62.123   9.698   3.019  1.00  0.00    -0.005 A 
HETATM    3  C   UNL     1      61.489   8.320   1.335  1.00  0.00     0.006 A 
HETATM    4  C   UNL     1      61.324   9.590   1.850  1.00  0.00     0.038 A 
HETATM    5  C   UNL     1      62.808   8.492   3.161  1.00  0.00     0.042 A 
HETATM    6  C   UNL     1      62.301  10.697   4.000  1.00  0.00     0.042 A 
HETATM    7  C   UNL     1      63.665   8.236   4.234  1.00  0.00     0.033 A 
HETATM    8  C   UNL     1      63.169  10.476   5.079  1.00  0.00     0.026 A 
HETATM    9  C   UNL     1      63.804   9.239   5.203  1.00  0.00     0.031 A 
HETATM   10  C   UNL     1      60.816   7.646   0.200  1.00  0.00     0.068 C 
HETATM   11  H   UNL     1      62.797   6.791   1.929  1.00  0.00     0.166 HD
ENDROOT
BRANCH   8  12
HETATM   12  N   UNL     1      63.200  11.390   6.143  1.00  0.00    -0.399 N 
HETATM   13  H   UNL     1      64.030  11.877   6.350  1.00  0.00     0.156 HD
HETATM   14  H   UNL     1      62.391  11.544   6.684  1.00  0.00     0.156 HD
ENDBRANCH   8  12
TORSDOF 1
ENDMDL
MODEL 5
REMARK VINA RESULT:      -4.1      3.170      4.926
REMARK  1 active torsions:
REMARK  status: ('A' for Active; 'I' for Inactive)
REMARK    1  A    between atoms: C_8  and  N_9 
ROOT
HETATM    1  N   UNL     1      64.158   9.267   5.377  1.00  0.00    -0.359 N 
HETATM    2  C   UNL     1      64.601   7.519   4.068  1.00  0.00    -0.005 A 
HETATM    3  C   UNL     1      63.174   9.246   4.419  1.00  0.00     0.006 A 
HETATM    4  C   UNL     1      63.397   8.134   3.631  1.00  0.00     0.038 A 
HETATM    5  C   UNL     1      65.062   8.251   5.161  1.00  0.00     0.042 A 
HETATM    6  C   UNL     1      65.370   6.429   3.609  1.00  0.00     0.042 A 
HETATM    7  C   UNL     1      66.254   7.944   5.823  1.00  0.00     0.033 A 
HETATM    8  C   UNL     1      66.562   6.085   4.264  1.00  0.00     0.026 A 
HETATM    9  C   UNL     1      67.006   6.869   5.331  1.00  0.00     0.031 A 
HETATM   10  C   UNL     1      62.133  10.296   4.330  1.00  0.00     0.068 C 
HETATM   11  H   UNL     1      64.210   9.917   6.114  1.00  0.00     0.166 HD
ENDROOT
BRANCH   8  12
HETATM   12  N   UNL     1      67.414   5.125   3.697  1.00  0.00    -0.399 N 
HETATM   13  H   UNL     1      68.186   4.790   4.207  1.00  0.00     0.156 HD
HETATM   14  H   UNL     1      67.239   4.787   2.789  1.00  0.00     0.156 HD
ENDBRANCH   8  12
TORSDOF 1
ENDMDL
MODEL 6
REMARK VINA RESULT:      -4.0      2.626      3.723
REMARK  1 active torsions:
REMARK  status: ('A' for Active; 'I' for Inactive)
REMARK    1  A    between atoms: C_8  and  N_9 
ROOT
HETATM    1  N   UNL     1      65.287   6.538   4.148  1.00  0.00    -0.359 N 
HETATM    2  C   UNL     1      64.345   8.451   4.793  1.00  0.00    -0.005 A 
HETATM    3  C   UNL     1      66.051   7.011   5.188  1.00  0.00     0.006 A 
HETATM    4  C   UNL     1      65.449   8.168   5.641  1.00  0.00     0.038 A 
HETATM    5  C   UNL     1      64.266   7.417   3.862  1.00  0.00     0.042 A 
HETATM    6  C   UNL     1      63.424   9.516   4.701  1.00  0.00     0.042 A 
HETATM    7  C   UNL     1      63.310   7.392   2.844  1.00  0.00     0.033 A 
HETATM    8  C   UNL     1      62.440   9.510   3.702  1.00  0.00     0.026 A 
HETATM    9  C   UNL     1      62.423   8.474   2.766  1.00  0.00     0.031 A 
HETATM   10  C   UNL     1      67.290   6.333   5.633  1.00  0.00     0.068 C 
HETATM   11  H   UNL     1      65.448   5.690   3.675  1.00  0.00     0.166 HD
ENDROOT
BRANCH   8  12
HETATM   12  N   UNL     1      61.651  10.652   3.497  1.00  0.00    -0.399 N 
HETATM   13  H   UNL     1      61.079  10.992   4.223  1.00  0.00     0.156 HD
HETATM   14  H   UNL     1      61.668  11.113   2.627  1.00  0.00     0.156 HD
ENDBRANCH   8  12
TORSDOF 1
ENDMDL
MODEL 7
REMARK VINA RESULT:      -3.9      1.818      3.012
REMARK  1 active torsions:
REMARK  status: ('A' for Active; 'I' for Inactive)
REMARK    1  A    between atoms: C_8  and  N_9 
ROOT
HETATM    1  N   UNL     1      62.360   7.299   1.741  1.00  0.00    -0.359 N 
HETATM    2  C   UNL     1      62.951   8.613   3.440  1.00  0.00    -0.005 A 
HETATM    3  C   UNL     1      61.420   8.299   1.797  1.00  0.00     0.006 A 
HETATM    4  C   UNL     1      61.801   9.159   2.807  1.00  0.00     0.038 A 
HETATM    5  C   UNL     1      63.280   7.444   2.755  1.00  0.00     0.042 A 
HETATM    6  C   UNL     1      63.724   8.982   4.561  1.00  0.00     0.042 A 
HETATM    7  C   UNL     1      64.346   6.626   3.134  1.00  0.00     0.033 A 
HETATM    8  C   UNL     1      64.812   8.191   4.955  1.00  0.00     0.026 A 
HETATM    9  C   UNL     1      65.081   7.007   4.265  1.00  0.00     0.031 A 
HETATM   10  C   UNL     1      60.239   8.328   0.903  1.00  0.00     0.068 C 
HETATM   11  H   UNL     1      62.374   6.578   1.070  1.00  0.00     0.166 HD
ENDROOT
BRANCH   8  12
HETATM   12  N   UNL     1      65.459   8.455   6.171  1.00  0.00    -0.399 N 
HETATM   13  H   UNL     1      66.076   9.218   6.245  1.00  0.00     0.156 HD
HETATM   14  H   UNL     1      65.295   7.877   6.952  1.00  0.00     0.156 HD
ENDBRANCH   8  12
TORSDOF 1
ENDMDL
MODEL 8
REMARK VINA RESULT:      -3.9      3.237      4.552
REMARK  1 active torsions:
REMARK  status: ('A' for Active; 'I' for Inactive)
REMARK    1  A    between atoms: C_8  and  N_9 
ROOT
HETATM    1  N   UNL     1      63.732   7.640   3.401  1.00  0.00    -0.359 N 
HETATM    2  C   UNL     1      65.079   8.219   5.078  1.00  0.00    -0.005 A 
HETATM    3  C   UNL     1      63.147   8.726   4.006  1.00  0.00     0.006 A 
HETATM    4  C   UNL     1      63.997   9.138   5.013  1.00  0.00     0.038 A 
HETATM    5  C   UNL     1      64.889   7.287   4.059  1.00  0.00     0.042 A 
HETATM    6  C   UNL     1      66.188   8.067   5.936  1.00  0.00     0.042 A 
HETATM    7  C   UNL     1      65.754   6.210   3.854  1.00  0.00     0.033 A 
HETATM    8  C   UNL     1      67.085   7.007   5.744  1.00  0.00     0.026 A 
HETATM    9  C   UNL     1      66.834   6.073   4.736  1.00  0.00     0.031 A 
HETATM   10  C   UNL     1      61.827   9.251   3.586  1.00  0.00     0.068 C 
HETATM   11  H   UNL     1      63.374   7.179   2.608  1.00  0.00     0.166 HD
ENDROOT
BRANCH   8  12
HETATM   12  N   UNL     1      68.075   6.750   6.705  1.00  0.00    -0.399 N 
HETATM   13  H   UNL     1      68.752   7.435   6.910  1.00  0.00     0.156 HD
HETATM   14  H   UNL     1      68.091   5.885   7.176  1.00  0.00     0.156 HD
ENDBRANCH   8  12
TORSDOF 1
ENDMDL
MODEL 9
REMARK VINA RESULT:      -3.8      2.595      3.772
REMARK  1 active torsions:
REMARK  status: ('A' for Active; 'I' for Inactive)
REMARK    1  A    between atoms: C_8  and  N_9 
ROOT
HETATM    1  N   UNL     1      60.937   9.321   2.426  1.00  0.00    -0.359 N 
HETATM    2  C   UNL     1      62.076   8.573   4.188  1.00  0.00    -0.005 A 
HETATM    3  C   UNL     1      61.804  10.327   2.778  1.00  0.00     0.006 A 
HETATM    4  C   UNL     1      62.563   9.860   3.833  1.00  0.00     0.038 A 
HETATM    5  C   UNL     1      61.054   8.259   3.294  1.00  0.00     0.042 A 
HETATM    6  C   UNL     1      62.382   7.656   5.216  1.00  0.00     0.042 A 
HETATM    7  C   UNL     1      60.323   7.072   3.374  1.00  0.00     0.033 A 
HETATM    8  C   UNL     1      61.678   6.447   5.311  1.00  0.00     0.026 A 
HETATM    9  C   UNL     1      60.635   6.191   4.419  1.00  0.00     0.031 A 
HETATM   10  C   UNL     1      61.812  11.642   2.095  1.00  0.00     0.068 C 
HETATM   11  H   UNL     1      60.318   9.356   1.661  1.00  0.00     0.166 HD
ENDROOT
BRANCH   8  12
HETATM   12  N   UNL     1      61.854   5.628   6.437  1.00  0.00    -0.399 N 
HETATM   13  H   UNL     1      61.725   4.654   6.362  1.00  0.00     0.156 HD
HETATM   14  H   UNL     1      62.106   6.026   7.302  1.00  0.00     0.156 HD
ENDBRANCH   8  12
TORSDOF 1
ENDMDL
