MODEL 1
REMARK VINA RESULT:      -4.3      0.000      0.000
REMARK  2 active torsions:
REMARK  status: ('A' for Active; 'I' for Inactive)
REMARK    1  A    between atoms: C_2  and  C_6 
REMARK    2  A    between atoms: C_6  and  O_7 
ROOT
HETATM    1  O   UNL     1      64.740   9.405   5.535  1.00  0.00    -0.318 OA
HETATM    2  C   UNL     1      63.511   9.912   5.212  1.00  0.00     0.076 A 
HETATM    3  C   UNL     1      64.887   8.244   4.835  1.00  0.00     0.049 A 
HETATM    4  C   UNL     1      63.767   8.005   4.070  1.00  0.00     0.035 A 
HETATM    5  C   UNL     1      62.880   9.080   4.311  1.00  0.00     0.037 A 
HETATM    6  C   UNL     1      66.155   7.511   5.024  1.00  0.00     0.076 C 
ENDROOT
BRANCH   2   7
HETATM    7  C   UNL     1      63.124  11.185   5.860  1.00  0.00     0.229 C 
BRANCH   7   8
HETATM    8  O   UNL     1      64.266  11.705   6.528  1.00  0.00    -0.394 OA
HETATM    9  H   UNL     1      64.278  12.671   6.444  1.00  0.00     0.209 HD
ENDBRANCH   7   8
ENDBRANCH   2   7
TORSDOF 2
ENDMDL
MODEL 2
REMARK VINA RESULT:      -4.2      1.712      2.769
REMARK  2 active torsions:
REMARK  status: ('A' for Active; 'I' for Inactive)
REMARK    1  A    between atoms: C_2  and  C_6 
REMARK    2  A    between atoms: C_6  and  O_7 
ROOT
HETATM    1  O   UNL     1      62.273  10.770   3.919  1.00  0.00    -0.318 OA
HETATM    2  C   UNL     1      62.950  10.412   5.053  1.00  0.00     0.076 A 
HETATM    3  C   UNL     1      62.328   9.703   3.071  1.00  0.00     0.049 A 
HETATM    4  C   UNL     1      63.031   8.671   3.651  1.00  0.00     0.035 A 
HETATM    5  C   UNL     1      63.431   9.126   4.929  1.00  0.00     0.037 A 
HETATM    6  C   UNL     1      61.655   9.859   1.765  1.00  0.00     0.076 C 
ENDROOT
BRANCH   2   7
HETATM    7  C   UNL     1      63.027  11.424   6.130  1.00  0.00     0.229 C 
BRANCH   7   8
HETATM    8  O   UNL     1      64.393  11.590   6.484  1.00  0.00    -0.394 OA
HETATM    9  H   UNL     1      64.465  12.239   7.201  1.00  0.00     0.209 HD
ENDBRANCH   7   8
ENDBRANCH   2   7
TORSDOF 2
ENDMDL
MODEL 3
REMARK VINA RESULT:      -4.0      2.538      3.479
REMARK  2 active torsions:
REMARK  status: ('A' for Active; 'I' for Inactive)
REMARK    1  A    between atoms: C_2  and  C_6 
REMARK    2  A    between atoms: C_6  and  O_7 
ROOT
HETATM    1  O   UNL     1      62.569   9.424   3.146  1.00  0.00    -0.318 OA
HETATM    2  C   UNL     1      62.462  10.421   4.077  1.00  0.00     0.076 A 
HETATM    3  C   UNL     1      62.098   9.928   1.970  1.00  0.00     0.049 A 
HETATM    4  C   UNL     1      61.693  11.233   2.140  1.00  0.00     0.035 A 
HETATM    5  C   UNL     1      61.929  11.552   3.497  1.00  0.00     0.037 A 
HETATM    6  C   UNL     1      62.116   9.020   0.805  1.00  0.00     0.076 C 
ENDROOT
BRANCH   2   7
HETATM    7  C   UNL     1      62.918  10.103   5.449  1.00  0.00     0.229 C 
BRANCH   7   8
HETATM    8  O   UNL     1      63.908  11.054   5.817  1.00  0.00    -0.394 OA
HETATM    9  H   UNL     1      63.586  11.585   6.561  1.00  0.00     0.209 HD
ENDBRANCH   7   8
ENDBRANCH   2   7
TORSDOF 2
ENDMDL
MODEL 4
REMARK VINA RESULT:      -3.8      1.144      3.047
REMARK  2 active torsions:
REMARK  status: ('A' for Active; 'I' for Inactive)
REMARK    1  A    between atoms: C_2  and  C_6 
REMARK    2  A    between atoms: C_6  and  O_7 
ROOT
HETATM    1  O   UNL     1      64.723   9.509   5.759  1.00  0.00    -0.318 OA
HETATM    2  C   UNL     1      65.268   8.312   5.383  1.00  0.00     0.076 A 
HETATM    3  C   UNL     1      63.576   9.666   5.038  1.00  0.00     0.049 A 
HETATM    4  C   UNL     1      63.383   8.584   4.209  1.00  0.00     0.035 A 
HETATM    5  C   UNL     1      64.473   7.710   4.432  1.00  0.00     0.037 A 
HETATM    6  C   UNL     1      62.804  10.903   5.280  1.00  0.00     0.076 C 
ENDROOT
BRANCH   2   7
HETATM    7  C   UNL     1      66.536   7.923   6.039  1.00  0.00     0.229 C 
BRANCH   7   8
HETATM    8  O   UNL     1      66.869   8.926   6.989  1.00  0.00    -0.394 OA
HETATM    9  H   UNL     1      67.324   9.656   6.541  1.00  0.00     0.209 HD
ENDBRANCH   7   8
ENDBRANCH   2   7
TORSDOF 2
ENDMDL
MODEL 5
REMARK VINA RESULT:      -3.7      2.878      3.210
REMARK  2 active torsions:
REMARK  status: ('A' for Active; 'I' for Inactive)
REMARK    1  A    between atoms: C_2  and  C_6 
REMARK    2  A    between atoms: C_6  and  O_7 
ROOT
HETATM    1  O   UNL     1      62.681   8.867   3.317  1.00  0.00    -0.318 OA
HETATM    2  C   UNL     1      62.265  10.170   3.343  1.00  0.00     0.076 A 
HETATM    3  C   UNL     1      62.505   8.420   2.041  1.00  0.00     0.049 A 
HETATM    4  C   UNL     1      61.984   9.422   1.254  1.00  0.00     0.035 A 
HETATM    5  C   UNL     1      61.830  10.551   2.092  1.00  0.00     0.037 A 
HETATM    6  C   UNL     1      62.891   7.020   1.768  1.00  0.00     0.076 C 
ENDROOT
BRANCH   2   7
HETATM    7  C   UNL     1      62.362  10.874   4.641  1.00  0.00     0.229 C 
BRANCH   7   8
HETATM    8  O   UNL     1      62.109  12.254   4.415  1.00  0.00    -0.394 OA
HETATM    9  H   UNL     1      62.951  12.733   4.360  1.00  0.00     0.209 HD
ENDBRANCH   7   8
ENDBRANCH   2   7
TORSDOF 2
ENDMDL
MODEL 6
REMARK VINA RESULT:      -3.5      2.029      3.436
REMARK  2 active torsions:
REMARK  status: ('A' for Active; 'I' for Inactive)
REMARK    1  A    between atoms: C_2  and  C_6 
REMARK    2  A    between atoms: C_6  and  O_7 
ROOT
HETATM    1  O   UNL     1      65.614   7.647   6.968  1.00  0.00    -0.318 OA
HETATM    2  C   UNL     1      65.724   7.944   5.637  1.00  0.00     0.076 A 
HETATM    3  C   UNL     1      66.746   6.972   7.319  1.00  0.00     0.049 A 
HETATM    4  C   UNL     1      67.576   6.837   6.229  1.00  0.00     0.035 A 
HETATM    5  C   UNL     1      66.919   7.464   5.144  1.00  0.00     0.037 A 
HETATM    6  C   UNL     1      66.852   6.544   8.729  1.00  0.00     0.076 C 
ENDROOT
BRANCH   2   7
HETATM    7  C   UNL     1      64.599   8.684   5.023  1.00  0.00     0.229 C 
BRANCH   7   8
HETATM    8  O   UNL     1      64.445   9.912   5.722  1.00  0.00    -0.394 OA
HETATM    9  H   UNL     1      63.775   9.808   6.415  1.00  0.00     0.209 HD
ENDBRANCH   7   8
ENDBRANCH   2   7
TORSDOF 2
ENDMDL
MODEL 7
REMARK VINA RESULT:      -3.3     11.472     11.863
REMARK  2 active torsions:
REMARK  status: ('A' for Active; 'I' for Inactive)
REMARK    1  A    between atoms: C_2  and  C_6 
REMARK    2  A    between atoms: C_6  and  O_7 
ROOT
HETATM    1  O   UNL     1      56.855   3.095  11.877  1.00  0.00    -0.318 OA
HETATM    2  C   UNL     1      58.118   2.836  11.419  1.00  0.00     0.076 A 
HETATM    3  C   UNL     1      56.741   2.485  13.092  1.00  0.00     0.049 A 
HETATM    4  C   UNL     1      57.915   1.841  13.413  1.00  0.00     0.035 A 
HETATM    5  C   UNL     1      58.804   2.068  12.336  1.00  0.00     0.037 A 
HETATM    6  C   UNL     1      55.446   2.630  13.788  1.00  0.00     0.076 C 
ENDROOT
BRANCH   2   7
HETATM    7  C   UNL     1      58.478   3.403  10.100  1.00  0.00     0.229 C 
BRANCH   7   8
HETATM    8  O   UNL     1      58.640   4.807  10.252  1.00  0.00    -0.394 OA
HETATM    9  H   UNL     1      59.190   5.148   9.531  1.00  0.00     0.209 HD
ENDBRANCH   7   8
ENDBRANCH   2   7
TORSDOF 2
ENDMDL
MODEL 8
REMARK VINA RESULT:      -3.2      2.687      3.519
REMARK  2 active torsions:
REMARK  status: ('A' for Active; 'I' for Inactive)
REMARK    1  A    between atoms: C_2  and  C_6 
REMARK    2  A    between atoms: C_6  and  O_7 
ROOT
HETATM    1  O   UNL     1      63.085   8.821   3.381  1.00  0.00    -0.318 OA
HETATM    2  C   UNL     1      62.227   9.808   2.983  1.00  0.00     0.076 A 
HETATM    3  C   UNL     1      63.469   9.118   4.656  1.00  0.00     0.049 A 
HETATM    4  C   UNL     1      62.864  10.282   5.075  1.00  0.00     0.035 A 
HETATM    5  C   UNL     1      62.062  10.727   3.998  1.00  0.00     0.037 A 
HETATM    6  C   UNL     1      64.407   8.179   5.303  1.00  0.00     0.076 C 
ENDROOT
BRANCH   2   7
HETATM    7  C   UNL     1      61.674   9.699   1.615  1.00  0.00     0.229 C 
BRANCH   7   8
HETATM    8  O   UNL     1      60.477   8.934   1.683  1.00  0.00    -0.394 OA
HETATM    9  H   UNL     1      59.780   9.461   2.102  1.00  0.00     0.209 HD
ENDBRANCH   7   8
ENDBRANCH   2   7
TORSDOF 2
ENDMDL
MODEL 9
REMARK VINA RESULT:      -3.2      2.210      2.700
REMARK  2 active torsions:
REMARK  status: ('A' for Active; 'I' for Inactive)
REMARK    1  A    between atoms: C_2  and  C_6 
REMARK    2  A    between atoms: C_6  and  O_7 
ROOT
HETATM    1  O   UNL     1      62.749   8.617   3.182  1.00  0.00    -0.318 OA
HETATM    2  C   UNL     1      63.088   9.373   4.271  1.00  0.00     0.076 A 
HETATM    3  C   UNL     1      63.546   7.511   3.203  1.00  0.00     0.049 A 
HETATM    4  C   UNL     1      64.387   7.552   4.292  1.00  0.00     0.035 A 
HETATM    5  C   UNL     1      64.093   8.751   4.982  1.00  0.00     0.037 A 
HETATM    6  C   UNL     1      63.356   6.535   2.110  1.00  0.00     0.076 C 
ENDROOT
BRANCH   2   7
HETATM    7  C   UNL     1      62.347  10.640   4.459  1.00  0.00     0.229 C 
BRANCH   7   8
HETATM    8  O   UNL     1      61.148  10.568   3.700  1.00  0.00    -0.394 OA
HETATM    9  H   UNL     1      60.729   9.705   3.839  1.00  0.00     0.209 HD
ENDBRANCH   7   8
ENDBRANCH   2   7
TORSDOF 2
ENDMDL
