MODEL 1
REMARK VINA RESULT:      -5.7      0.000      0.000
REMARK  5 active torsions:
REMARK  status: ('A' for Active; 'I' for Inactive)
REMARK    1  A    between atoms: N_1  and  C_3 
REMARK    2  A    between atoms: N_2  and  C_15 
REMARK    3  A    between atoms: C_3  and  C_8 
REMARK    4  A    between atoms: C_15  and  C_17 
REMARK    5  A    between atoms: O_16  and  C_17 
ROOT
HETATM    1  N   UNL     1      63.996   8.017   5.605  1.00  0.00    -0.064 N 
HETATM    2  N   UNL     1      66.207   5.956   6.111  1.00  0.00    -0.066 N 
HETATM    3  C   UNL     1      65.431   8.326   5.453  1.00  0.00     0.263 C 
HETATM    4  C   UNL     1      63.851   6.894   6.552  1.00  0.00     0.263 C 
HETATM    5  C   UNL     1      66.355   7.106   5.190  1.00  0.00     0.262 C 
HETATM    6  C   UNL     1      64.770   5.667   6.302  1.00  0.00     0.262 C 
HETATM    7  H   UNL     1      63.529   8.848   5.971  1.00  0.00     0.280 HD
HETATM    8  H   UNL     1      66.637   5.129   5.697  1.00  0.00     0.280 HD
ENDROOT
BRANCH   1   9
HETATM    9  C   UNL     1      63.328   7.727   4.324  1.00  0.00     0.273 C 
BRANCH   9  10
HETATM   10  C   UNL     1      62.699   8.935   3.640  1.00  0.00    -0.032 A 
HETATM   11  C   UNL     1      62.452  10.111   4.365  1.00  0.00     0.012 A 
HETATM   12  C   UNL     1      62.006  11.271   3.723  1.00  0.00     0.043 A 
HETATM   13  C   UNL     1      61.808  11.262   2.348  1.00  0.00     0.116 A 
HETATM   14  C   UNL     1      62.029  10.106   1.608  1.00  0.00     0.043 A 
HETATM   15  F   UNL     1      61.419  12.382   1.727  1.00  0.00    -0.206 F 
HETATM   16  C   UNL     1      62.468   8.945   2.250  1.00  0.00     0.012 A 
ENDBRANCH   9  10
ENDBRANCH   1   9
BRANCH   2  17
HETATM   17  C   UNL     1      66.936   6.173   7.378  1.00  0.00     0.260 C 
BRANCH  17  18
HETATM   18  C   UNL     1      67.636   4.897   7.895  1.00  0.00     0.192 C 
BRANCH  18  19
HETATM   19  O   UNL     1      66.795   4.206   8.818  1.00  0.00    -0.399 OA
HETATM   20  H   UNL     1      66.392   4.843   9.427  1.00  0.00     0.209 HD
ENDBRANCH  18  19
ENDBRANCH  17  18
ENDBRANCH   2  17
TORSDOF 5
ENDMDL
MODEL 2
REMARK VINA RESULT:      -5.7      1.034      1.938
REMARK  5 active torsions:
REMARK  status: ('A' for Active; 'I' for Inactive)
REMARK    1  A    between atoms: N_1  and  C_3 
REMARK    2  A    between atoms: N_2  and  C_15 
REMARK    3  A    between atoms: C_3  and  C_8 
REMARK    4  A    between atoms: C_15  and  C_17 
REMARK    5  A    between atoms: O_16  and  C_17 
ROOT
HETATM    1  N   UNL     1      64.175   7.112   4.595  1.00  0.00    -0.064 N 
HETATM    2  N   UNL     1      66.104   6.891   6.966  1.00  0.00    -0.066 N 
HETATM    3  C   UNL     1      64.343   5.874   5.379  1.00  0.00     0.263 C 
HETATM    4  C   UNL     1      65.407   7.917   4.711  1.00  0.00     0.263 C 
HETATM    5  C   UNL     1      64.884   6.063   6.823  1.00  0.00     0.262 C 
HETATM    6  C   UNL     1      65.961   8.114   6.149  1.00  0.00     0.262 C 
HETATM    7  H   UNL     1      64.016   6.852   3.621  1.00  0.00     0.280 HD
HETATM    8  H   UNL     1      66.209   7.179   7.939  1.00  0.00     0.280 HD
ENDROOT
BRANCH   1   9
HETATM    9  C   UNL     1      62.988   7.891   4.989  1.00  0.00     0.273 C 
BRANCH   9  10
HETATM   10  C   UNL     1      62.674   9.081   4.091  1.00  0.00    -0.032 A 
HETATM   11  C   UNL     1      62.452   8.894   2.717  1.00  0.00     0.012 A 
HETATM   12  C   UNL     1      62.028   9.952   1.906  1.00  0.00     0.043 A 
HETATM   13  C   UNL     1      61.817  11.205   2.467  1.00  0.00     0.116 A 
HETATM   14  C   UNL     1      62.044  11.422   3.821  1.00  0.00     0.043 A 
HETATM   15  F   UNL     1      61.373  12.209   1.700  1.00  0.00    -0.206 F 
HETATM   16  C   UNL     1      62.476  10.368   4.631  1.00  0.00     0.012 A 
ENDBRANCH   9  10
ENDBRANCH   1   9
BRANCH   2  17
HETATM   17  C   UNL     1      67.327   6.119   6.661  1.00  0.00     0.260 C 
BRANCH  17  18
HETATM   18  C   UNL     1      68.075   5.652   7.929  1.00  0.00     0.192 C 
BRANCH  18  19
HETATM   19  O   UNL     1      67.934   6.613   8.974  1.00  0.00    -0.399 OA
HETATM   20  H   UNL     1      68.338   6.270   9.785  1.00  0.00     0.209 HD
ENDBRANCH  18  19
ENDBRANCH  17  18
ENDBRANCH   2  17
TORSDOF 5
ENDMDL
MODEL 3
REMARK VINA RESULT:      -4.7      1.185      2.291
REMARK  5 active torsions:
REMARK  status: ('A' for Active; 'I' for Inactive)
REMARK    1  A    between atoms: N_1  and  C_3 
REMARK    2  A    between atoms: N_2  and  C_15 
REMARK    3  A    between atoms: C_3  and  C_8 
REMARK    4  A    between atoms: C_15  and  C_17 
REMARK    5  A    between atoms: O_16  and  C_17 
ROOT
HETATM    1  N   UNL     1      64.975   6.535   5.248  1.00  0.00    -0.064 N 
HETATM    2  N   UNL     1      66.823   5.505   7.465  1.00  0.00    -0.066 N 
HETATM    3  C   UNL     1      64.682   5.324   6.038  1.00  0.00     0.263 C 
HETATM    4  C   UNL     1      66.434   6.763   5.254  1.00  0.00     0.263 C 
HETATM    5  C   UNL     1      65.364   5.251   7.432  1.00  0.00     0.262 C 
HETATM    6  C   UNL     1      67.130   6.692   6.641  1.00  0.00     0.262 C 
HETATM    7  H   UNL     1      64.648   6.379   4.293  1.00  0.00     0.280 HD
HETATM    8  H   UNL     1      67.112   5.708   8.422  1.00  0.00     0.280 HD
ENDROOT
BRANCH   1   9
HETATM    9  C   UNL     1      64.246   7.724   5.719  1.00  0.00     0.273 C 
BRANCH   9  10
HETATM   10  C   UNL     1      63.548   8.525   4.627  1.00  0.00    -0.032 A 
HETATM   11  C   UNL     1      63.372   7.975   3.347  1.00  0.00     0.012 A 
HETATM   12  C   UNL     1      62.615   8.639   2.376  1.00  0.00     0.043 A 
HETATM   13  C   UNL     1      62.023   9.858   2.683  1.00  0.00     0.116 A 
HETATM   14  C   UNL     1      62.195  10.434   3.936  1.00  0.00     0.043 A 
HETATM   15  F   UNL     1      61.265  10.475   1.768  1.00  0.00    -0.206 F 
HETATM   16  C   UNL     1      62.958   9.774   4.904  1.00  0.00     0.012 A 
ENDBRANCH   9  10
ENDBRANCH   1   9
BRANCH   2  17
HETATM   17  C   UNL     1      67.596   4.305   7.079  1.00  0.00     0.260 C 
BRANCH  17  18
HETATM   18  C   UNL     1      67.128   3.028   7.811  1.00  0.00     0.192 C 
BRANCH  18  19
HETATM   19  O   UNL     1      67.424   3.116   9.205  1.00  0.00    -0.399 OA
HETATM   20  H   UNL     1      66.597   3.176   9.707  1.00  0.00     0.209 HD
ENDBRANCH  18  19
ENDBRANCH  17  18
ENDBRANCH   2  17
TORSDOF 5
ENDMDL
MODEL 4
REMARK VINA RESULT:      -4.7      3.109      3.916
REMARK  5 active torsions:
REMARK  status: ('A' for Active; 'I' for Inactive)
REMARK    1  A    between atoms: N_1  and  C_3 
REMARK    2  A    between atoms: N_2  and  C_15 
REMARK    3  A    between atoms: C_3  and  C_8 
REMARK    4  A    between atoms: C_15  and  C_17 
REMARK    5  A    between atoms: O_16  and  C_17 
ROOT
HETATM    1  N   UNL     1      62.216   6.225   3.838  1.00  0.00    -0.064 N 
HETATM    2  N   UNL     1      61.536   5.091   6.602  1.00  0.00    -0.066 N 
HETATM    3  C   UNL     1      60.900   6.411   4.479  1.00  0.00     0.263 C 
HETATM    4  C   UNL     1      62.843   5.007   4.387  1.00  0.00     0.263 C 
HETATM    5  C   UNL     1      60.887   6.292   6.028  1.00  0.00     0.262 C 
HETATM    6  C   UNL     1      62.836   4.874   5.935  1.00  0.00     0.262 C 
HETATM    7  H   UNL     1      62.068   6.121   2.833  1.00  0.00     0.280 HD
HETATM    8  H   UNL     1      61.718   5.243   7.594  1.00  0.00     0.280 HD
ENDROOT
BRANCH   1   9
HETATM    9  C   UNL     1      63.101   7.394   3.982  1.00  0.00     0.273 C 
BRANCH   9  10
HETATM   10  C   UNL     1      62.561   8.686   3.381  1.00  0.00    -0.032 A 
HETATM   11  C   UNL     1      62.371   9.818   4.189  1.00  0.00     0.012 A 
HETATM   12  C   UNL     1      62.009  11.048   3.630  1.00  0.00     0.043 A 
HETATM   13  C   UNL     1      61.839  11.154   2.256  1.00  0.00     0.116 A 
HETATM   14  C   UNL     1      62.005  10.045   1.434  1.00  0.00     0.043 A 
HETATM   15  F   UNL     1      61.532  12.340   1.715  1.00  0.00    -0.206 F 
HETATM   16  C   UNL     1      62.359   8.814   1.993  1.00  0.00     0.012 A 
ENDBRANCH   9  10
ENDBRANCH   1   9
BRANCH   2  17
HETATM   17  C   UNL     1      60.645   3.912   6.554  1.00  0.00     0.260 C 
BRANCH  17  18
HETATM   18  C   UNL     1      60.211   3.429   7.954  1.00  0.00     0.192 C 
BRANCH  18  19
HETATM   19  O   UNL     1      59.399   4.414   8.592  1.00  0.00    -0.399 OA
HETATM   20  H   UNL     1      59.169   5.106   7.954  1.00  0.00     0.209 HD
ENDBRANCH  18  19
ENDBRANCH  17  18
ENDBRANCH   2  17
TORSDOF 5
ENDMDL
MODEL 5
REMARK VINA RESULT:      -4.6      1.888      2.513
REMARK  5 active torsions:
REMARK  status: ('A' for Active; 'I' for Inactive)
REMARK    1  A    between atoms: N_1  and  C_3 
REMARK    2  A    between atoms: N_2  and  C_15 
REMARK    3  A    between atoms: C_3  and  C_8 
REMARK    4  A    between atoms: C_15  and  C_17 
REMARK    5  A    between atoms: O_16  and  C_17 
ROOT
HETATM    1  N   UNL     1      64.364   7.289   4.227  1.00  0.00    -0.064 N 
HETATM    2  N   UNL     1      65.574   7.196   7.042  1.00  0.00    -0.066 N 
HETATM    3  C   UNL     1      63.996   6.267   5.225  1.00  0.00     0.263 C 
HETATM    4  C   UNL     1      65.716   7.793   4.543  1.00  0.00     0.263 C 
HETATM    5  C   UNL     1      64.233   6.662   6.709  1.00  0.00     0.262 C 
HETATM    6  C   UNL     1      65.968   8.190   6.023  1.00  0.00     0.262 C 
HETATM    7  H   UNL     1      64.359   6.850   3.306  1.00  0.00     0.280 HD
HETATM    8  H   UNL     1      65.536   7.673   7.943  1.00  0.00     0.280 HD
ENDROOT
BRANCH   1   9
HETATM    9  C   UNL     1      63.390   8.390   4.140  1.00  0.00     0.273 C 
BRANCH   9  10
HETATM   10  C   UNL     1      62.331   8.226   3.056  1.00  0.00    -0.032 A 
HETATM   11  C   UNL     1      61.085   7.659   3.362  1.00  0.00     0.012 A 
HETATM   12  C   UNL     1      60.056   7.628   2.416  1.00  0.00     0.043 A 
HETATM   13  C   UNL     1      60.267   8.170   1.155  1.00  0.00     0.116 A 
HETATM   14  C   UNL     1      61.497   8.724   0.818  1.00  0.00     0.043 A 
HETATM   15  F   UNL     1      59.271   8.177   0.260  1.00  0.00    -0.206 F 
HETATM   16  C   UNL     1      62.528   8.748   1.762  1.00  0.00     0.012 A 
ENDBRANCH   9  10
ENDBRANCH   1   9
BRANCH   2  17
HETATM   17  C   UNL     1      66.564   6.114   7.223  1.00  0.00     0.260 C 
BRANCH  17  18
HETATM   18  C   UNL     1      66.595   5.562   8.665  1.00  0.00     0.192 C 
BRANCH  18  19
HETATM   19  O   UNL     1      66.483   4.140   8.658  1.00  0.00    -0.399 OA
HETATM   20  H   UNL     1      67.111   3.770   8.020  1.00  0.00     0.209 HD
ENDBRANCH  18  19
ENDBRANCH  17  18
ENDBRANCH   2  17
TORSDOF 5
ENDMDL
MODEL 6
REMARK VINA RESULT:      -4.3      3.297      4.056
REMARK  5 active torsions:
REMARK  status: ('A' for Active; 'I' for Inactive)
REMARK    1  A    between atoms: N_1  and  C_3 
REMARK    2  A    between atoms: N_2  and  C_15 
REMARK    3  A    between atoms: C_3  and  C_8 
REMARK    4  A    between atoms: C_15  and  C_17 
REMARK    5  A    between atoms: O_16  and  C_17 
ROOT
HETATM    1  N   UNL     1      62.383   7.248   3.835  1.00  0.00    -0.064 N 
HETATM    2  N   UNL     1      64.345   7.837   6.114  1.00  0.00    -0.066 N 
HETATM    3  C   UNL     1      62.323   6.566   5.141  1.00  0.00     0.263 C 
HETATM    4  C   UNL     1      63.764   7.719   3.610  1.00  0.00     0.263 C 
HETATM    5  C   UNL     1      62.969   7.331   6.328  1.00  0.00     0.262 C 
HETATM    6  C   UNL     1      64.425   8.485   4.789  1.00  0.00     0.262 C 
HETATM    7  H   UNL     1      62.119   6.577   3.113  1.00  0.00     0.280 HD
HETATM    8  H   UNL     1      64.562   8.543   6.818  1.00  0.00     0.280 HD
ENDROOT
BRANCH   1   9
HETATM    9  C   UNL     1      61.415   8.352   3.713  1.00  0.00     0.273 C 
BRANCH   9  10
HETATM   10  C   UNL     1      60.159   8.019   2.916  1.00  0.00    -0.032 A 
HETATM   11  C   UNL     1      60.178   8.059   1.513  1.00  0.00     0.012 A 
HETATM   12  C   UNL     1      59.078   7.624   0.766  1.00  0.00     0.043 A 
HETATM   13  C   UNL     1      57.952   7.140   1.420  1.00  0.00     0.116 A 
HETATM   14  C   UNL     1      57.900   7.105   2.809  1.00  0.00     0.043 A 
HETATM   15  F   UNL     1      56.914   6.687   0.706  1.00  0.00    -0.206 F 
HETATM   16  C   UNL     1      58.995   7.547   3.556  1.00  0.00     0.012 A 
ENDBRANCH   9  10
ENDBRANCH   1   9
BRANCH   2  17
HETATM   17  C   UNL     1      65.355   6.776   6.312  1.00  0.00     0.260 C 
BRANCH  17  18
HETATM   18  C   UNL     1      66.357   7.104   7.440  1.00  0.00     0.192 C 
BRANCH  18  19
HETATM   19  O   UNL     1      66.911   8.405   7.253  1.00  0.00    -0.399 OA
HETATM   20  H   UNL     1      67.876   8.361   7.340  1.00  0.00     0.209 HD
ENDBRANCH  18  19
ENDBRANCH  17  18
ENDBRANCH   2  17
TORSDOF 5
ENDMDL
MODEL 7
REMARK VINA RESULT:      -4.2      4.007      4.554
REMARK  5 active torsions:
REMARK  status: ('A' for Active; 'I' for Inactive)
REMARK    1  A    between atoms: N_1  and  C_3 
REMARK    2  A    between atoms: N_2  and  C_15 
REMARK    3  A    between atoms: C_3  and  C_8 
REMARK    4  A    between atoms: C_15  and  C_17 
REMARK    5  A    between atoms: O_16  and  C_17 
ROOT
HETATM    1  N   UNL     1      62.050   7.681   4.281  1.00  0.00    -0.064 N 
HETATM    2  N   UNL     1      64.943   6.918   4.946  1.00  0.00    -0.066 N 
HETATM    3  C   UNL     1      63.161   7.834   3.321  1.00  0.00     0.263 C 
HETATM    4  C   UNL     1      62.600   7.716   5.651  1.00  0.00     0.263 C 
HETATM    5  C   UNL     1      64.392   6.920   3.571  1.00  0.00     0.262 C 
HETATM    6  C   UNL     1      63.833   6.808   5.915  1.00  0.00     0.262 C 
HETATM    7  H   UNL     1      61.402   8.458   4.143  1.00  0.00     0.280 HD
HETATM    8  H   UNL     1      65.545   6.104   5.071  1.00  0.00     0.280 HD
ENDROOT
BRANCH   1   9
HETATM    9  C   UNL     1      61.253   6.464   4.055  1.00  0.00     0.273 C 
BRANCH   9  10
HETATM   10  C   UNL     1      59.804   6.550   4.519  1.00  0.00    -0.032 A 
HETATM   11  C   UNL     1      59.384   5.855   5.665  1.00  0.00     0.012 A 
HETATM   12  C   UNL     1      58.097   6.032   6.182  1.00  0.00     0.043 A 
HETATM   13  C   UNL     1      57.221   6.911   5.558  1.00  0.00     0.116 A 
HETATM   14  C   UNL     1      57.605   7.600   4.413  1.00  0.00     0.043 A 
HETATM   15  F   UNL     1      56.002   7.112   6.075  1.00  0.00    -0.206 F 
HETATM   16  C   UNL     1      58.888   7.417   3.891  1.00  0.00     0.012 A 
ENDBRANCH   9  10
ENDBRANCH   1   9
BRANCH   2  17
HETATM   17  C   UNL     1      65.820   8.083   5.185  1.00  0.00     0.260 C 
BRANCH  17  18
HETATM   18  C   UNL     1      66.953   7.786   6.192  1.00  0.00     0.192 C 
BRANCH  18  19
HETATM   19  O   UNL     1      66.949   8.747   7.246  1.00  0.00    -0.399 OA
HETATM   20  H   UNL     1      66.709   9.616   6.889  1.00  0.00     0.209 HD
ENDBRANCH  18  19
ENDBRANCH  17  18
ENDBRANCH   2  17
TORSDOF 5
ENDMDL
MODEL 8
REMARK VINA RESULT:      -4.2      2.796      3.631
REMARK  5 active torsions:
REMARK  status: ('A' for Active; 'I' for Inactive)
REMARK    1  A    between atoms: N_1  and  C_3 
REMARK    2  A    between atoms: N_2  and  C_15 
REMARK    3  A    between atoms: C_3  and  C_8 
REMARK    4  A    between atoms: C_15  and  C_17 
REMARK    5  A    between atoms: O_16  and  C_17 
ROOT
HETATM    1  N   UNL     1      62.463   6.117   3.744  1.00  0.00    -0.064 N 
HETATM    2  N   UNL     1      62.817   4.094   6.019  1.00  0.00    -0.066 N 
HETATM    3  C   UNL     1      61.694   6.182   5.001  1.00  0.00     0.263 C 
HETATM    4  C   UNL     1      62.895   4.722   3.524  1.00  0.00     0.263 C 
HETATM    5  C   UNL     1      62.350   5.485   6.225  1.00  0.00     0.262 C 
HETATM    6  C   UNL     1      63.552   4.012   4.740  1.00  0.00     0.262 C 
HETATM    7  H   UNL     1      61.854   6.419   2.983  1.00  0.00     0.280 HD
HETATM    8  H   UNL     1      63.463   3.837   6.765  1.00  0.00     0.280 HD
ENDROOT
BRANCH   1   9
HETATM    9  C   UNL     1      63.609   7.042   3.717  1.00  0.00     0.273 C 
BRANCH   9  10
HETATM   10  C   UNL     1      63.252   8.512   3.905  1.00  0.00    -0.032 A 
HETATM   11  C   UNL     1      62.435   9.168   2.971  1.00  0.00     0.012 A 
HETATM   12  C   UNL     1      61.986  10.473   3.199  1.00  0.00     0.043 A 
HETATM   13  C   UNL     1      62.347  11.128   4.369  1.00  0.00     0.116 A 
HETATM   14  C   UNL     1      63.168  10.508   5.304  1.00  0.00     0.043 A 
HETATM   15  F   UNL     1      61.886  12.362   4.608  1.00  0.00    -0.206 F 
HETATM   16  C   UNL     1      63.624   9.207   5.073  1.00  0.00     0.012 A 
ENDBRANCH   9  10
ENDBRANCH   1   9
BRANCH   2  17
HETATM   17  C   UNL     1      61.707   3.124   6.124  1.00  0.00     0.260 C 
BRANCH  17  18
HETATM   18  C   UNL     1      61.954   2.041   7.196  1.00  0.00     0.192 C 
BRANCH  18  19
HETATM   19  O   UNL     1      63.007   2.439   8.073  1.00  0.00    -0.399 OA
HETATM   20  H   UNL     1      62.638   2.654   8.944  1.00  0.00     0.209 HD
ENDBRANCH  18  19
ENDBRANCH  17  18
ENDBRANCH   2  17
TORSDOF 5
ENDMDL
MODEL 9
REMARK VINA RESULT:      -4.1      2.924      3.668
REMARK  5 active torsions:
REMARK  status: ('A' for Active; 'I' for Inactive)
REMARK    1  A    between atoms: N_1  and  C_3 
REMARK    2  A    between atoms: N_2  and  C_15 
REMARK    3  A    between atoms: C_3  and  C_8 
REMARK    4  A    between atoms: C_15  and  C_17 
REMARK    5  A    between atoms: O_16  and  C_17 
ROOT
HETATM    1  N   UNL     1      62.189   6.339   4.413  1.00  0.00    -0.064 N 
HETATM    2  N   UNL     1      61.138   3.768   5.709  1.00  0.00    -0.066 N 
HETATM    3  C   UNL     1      62.090   5.058   3.688  1.00  0.00     0.263 C 
HETATM    4  C   UNL     1      62.303   6.058   5.858  1.00  0.00     0.263 C 
HETATM    5  C   UNL     1      61.059   4.044   4.256  1.00  0.00     0.262 C 
HETATM    6  C   UNL     1      61.280   5.044   6.440  1.00  0.00     0.262 C 
HETATM    7  H   UNL     1      63.022   6.827   4.083  1.00  0.00     0.280 HD
HETATM    8  H   UNL     1      60.273   3.327   6.020  1.00  0.00     0.280 HD
ENDROOT
BRANCH   1   9
HETATM    9  C   UNL     1      61.066   7.250   4.133  1.00  0.00     0.273 C 
BRANCH   9  10
HETATM   10  C   UNL     1      61.457   8.566   3.472  1.00  0.00    -0.032 A 
HETATM   11  C   UNL     1      61.450   8.686   2.073  1.00  0.00     0.012 A 
HETATM   12  C   UNL     1      61.671   9.922   1.456  1.00  0.00     0.043 A 
HETATM   13  C   UNL     1      61.896  11.048   2.237  1.00  0.00     0.116 A 
HETATM   14  C   UNL     1      61.925  10.956   3.623  1.00  0.00     0.043 A 
HETATM   15  F   UNL     1      62.069  12.239   1.649  1.00  0.00    -0.206 F 
HETATM   16  C   UNL     1      61.712   9.720   4.241  1.00  0.00     0.012 A 
ENDBRANCH   9  10
ENDBRANCH   1   9
BRANCH   2  17
HETATM   17  C   UNL     1      62.201   2.789   6.023  1.00  0.00     0.260 C 
BRANCH  17  18
HETATM   18  C   UNL     1      62.495   2.685   7.535  1.00  0.00     0.192 C 
BRANCH  18  19
HETATM   19  O   UNL     1      63.855   3.021   7.803  1.00  0.00    -0.399 OA
HETATM   20  H   UNL     1      64.018   3.941   7.542  1.00  0.00     0.209 HD
ENDBRANCH  18  19
ENDBRANCH  17  18
ENDBRANCH   2  17
TORSDOF 5
ENDMDL
