MODEL 1
REMARK VINA RESULT:      -5.3      0.000      0.000
REMARK  2 active torsions:
REMARK  status: ('A' for Active; 'I' for Inactive)
REMARK    1  A    between atoms: C_3  and  C_7 
REMARK    2  A    between atoms: C_10  and  N_11 
ROOT
HETATM    1  C   UNL     1      63.277   8.660   4.618  1.00  0.00    -0.009 A 
HETATM    2  C   UNL     1      62.919   8.392   3.291  1.00  0.00     0.016 A 
HETATM    3  C   UNL     1      62.992   9.928   5.141  1.00  0.00     0.016 A 
HETATM    4  C   UNL     1      61.955  10.611   3.050  1.00  0.00     0.025 A 
HETATM    5  C   UNL     1      62.283   9.366   2.512  1.00  0.00     0.030 A 
HETATM    6  C   UNL     1      62.352  10.897   4.358  1.00  0.00     0.030 A 
ENDROOT
BRANCH   1   7
HETATM    7  C   UNL     1      63.975   7.678   5.440  1.00  0.00     0.049 A 
HETATM    8  N   UNL     1      65.059   8.035   6.230  1.00  0.00    -0.353 N 
HETATM    9  C   UNL     1      65.533   6.979   6.854  1.00  0.00     0.047 A 
ATOM     10  HN  UNL     1      65.434   8.981   6.313  1.00  0.00     0.166 HD
HETATM   11  S   UNL     1      64.696   5.508   6.561  1.00  0.00    -0.087 SA
HETATM   12  C   UNL     1      66.708   6.994   7.768  1.00  0.00     0.076 C 
HETATM   13  C   UNL     1      63.626   6.342   5.514  1.00  0.00     0.081 A 
ENDBRANCH   1   7
BRANCH   4  14
HETATM   14  N   UNL     1      61.464  11.627   2.223  1.00  0.00    -0.399 N 
HETATM   15  H   UNL     1      60.941  12.367   2.608  1.00  0.00     0.156 HD
HETATM   16  H   UNL     1      61.641  11.602   1.255  1.00  0.00     0.156 HD
ENDBRANCH   4  14
TORSDOF 2
ENDMDL
MODEL 2
REMARK VINA RESULT:      -5.1      0.357      1.379
REMARK  2 active torsions:
REMARK  status: ('A' for Active; 'I' for Inactive)
REMARK    1  A    between atoms: C_3  and  C_7 
REMARK    2  A    between atoms: C_10  and  N_11 
ROOT
HETATM    1  C   UNL     1      63.254   8.494   4.633  1.00  0.00    -0.009 A 
HETATM    2  C   UNL     1      62.959   9.760   5.152  1.00  0.00     0.016 A 
HETATM    3  C   UNL     1      62.924   8.228   3.298  1.00  0.00     0.016 A 
HETATM    4  C   UNL     1      62.073  10.488   3.008  1.00  0.00     0.025 A 
HETATM    5  C   UNL     1      62.356  10.738   4.352  1.00  0.00     0.030 A 
HETATM    6  C   UNL     1      62.324   9.212   2.500  1.00  0.00     0.030 A 
ENDROOT
BRANCH   1   7
HETATM    7  C   UNL     1      63.847   7.444   5.455  1.00  0.00     0.049 A 
HETATM    8  N   UNL     1      64.768   7.740   6.450  1.00  0.00    -0.353 N 
HETATM    9  C   UNL     1      65.176   6.634   7.033  1.00  0.00     0.047 A 
ATOM     10  HN  UNL     1      65.083   8.680   6.694  1.00  0.00     0.166 HD
HETATM   11  S   UNL     1      64.463   5.183   6.450  1.00  0.00    -0.087 SA
HETATM   12  C   UNL     1      66.180   6.577   8.130  1.00  0.00     0.076 C 
HETATM   13  C   UNL     1      63.547   6.100   5.329  1.00  0.00     0.081 A 
ENDBRANCH   1   7
BRANCH   4  14
HETATM   14  N   UNL     1      61.331  11.411   2.263  1.00  0.00    -0.399 N 
HETATM   15  H   UNL     1      61.620  11.656   1.354  1.00  0.00     0.156 HD
HETATM   16  H   UNL     1      60.521  11.817   2.647  1.00  0.00     0.156 HD
ENDBRANCH   4  14
TORSDOF 2
ENDMDL
MODEL 3
REMARK VINA RESULT:      -5.1      1.346      1.513
REMARK  2 active torsions:
REMARK  status: ('A' for Active; 'I' for Inactive)
REMARK    1  A    between atoms: C_3  and  C_7 
REMARK    2  A    between atoms: C_10  and  N_11 
ROOT
HETATM    1  C   UNL     1      64.166   8.352   4.753  1.00  0.00    -0.009 A 
HETATM    2  C   UNL     1      63.731   7.833   3.527  1.00  0.00     0.016 A 
HETATM    3  C   UNL     1      63.585   9.540   5.215  1.00  0.00     0.016 A 
HETATM    4  C   UNL     1      62.123   9.639   3.275  1.00  0.00     0.025 A 
HETATM    5  C   UNL     1      62.735   8.482   2.789  1.00  0.00     0.030 A 
HETATM    6  C   UNL     1      62.586  10.184   4.474  1.00  0.00     0.030 A 
ENDROOT
BRANCH   1   7
HETATM    7  C   UNL     1      65.229   7.717   5.524  1.00  0.00     0.049 A 
HETATM    8  N   UNL     1      65.056   7.393   6.863  1.00  0.00    -0.353 N 
HETATM    9  C   UNL     1      66.155   6.857   7.345  1.00  0.00     0.047 A 
ATOM     10  HN  UNL     1      64.199   7.548   7.395  1.00  0.00     0.166 HD
HETATM   11  S   UNL     1      67.446   6.680   6.225  1.00  0.00    -0.087 SA
HETATM   12  C   UNL     1      66.330   6.410   8.754  1.00  0.00     0.076 C 
HETATM   13  C   UNL     1      66.466   7.380   5.006  1.00  0.00     0.081 A 
ENDBRANCH   1   7
BRANCH   4  14
HETATM   14  N   UNL     1      61.245  10.363   2.462  1.00  0.00    -0.399 N 
HETATM   15  H   UNL     1      61.545  11.197   2.033  1.00  0.00     0.156 HD
HETATM   16  H   UNL     1      60.326  10.040   2.318  1.00  0.00     0.156 HD
ENDBRANCH   4  14
TORSDOF 2
ENDMDL
MODEL 4
REMARK VINA RESULT:      -4.6      2.436      5.705
REMARK  2 active torsions:
REMARK  status: ('A' for Active; 'I' for Inactive)
REMARK    1  A    between atoms: C_3  and  C_7 
REMARK    2  A    between atoms: C_10  and  N_11 
ROOT
HETATM    1  C   UNL     1      64.942   7.878   5.396  1.00  0.00    -0.009 A 
HETATM    2  C   UNL     1      64.647   7.039   6.479  1.00  0.00     0.016 A 
HETATM    3  C   UNL     1      66.287   8.128   5.095  1.00  0.00     0.016 A 
HETATM    4  C   UNL     1      67.013   6.671   6.902  1.00  0.00     0.025 A 
HETATM    5  C   UNL     1      65.674   6.461   7.234  1.00  0.00     0.030 A 
HETATM    6  C   UNL     1      67.310   7.543   5.853  1.00  0.00     0.030 A 
ENDROOT
BRANCH   1   7
HETATM    7  C   UNL     1      63.892   8.524   4.616  1.00  0.00     0.049 A 
HETATM    8  N   UNL     1      63.544   8.065   3.353  1.00  0.00    -0.353 N 
HETATM    9  C   UNL     1      62.597   8.821   2.842  1.00  0.00     0.047 A 
ATOM     10  HN  UNL     1      63.961   7.257   2.890  1.00  0.00     0.166 HD
HETATM   11  S   UNL     1      62.047  10.101   3.847  1.00  0.00    -0.087 SA
HETATM   12  C   UNL     1      61.998   8.629   1.493  1.00  0.00     0.076 C 
HETATM   13  C   UNL     1      63.164   9.616   5.053  1.00  0.00     0.081 A 
ENDBRANCH   1   7
BRANCH   4  14
HETATM   14  N   UNL     1      68.027   6.219   7.753  1.00  0.00    -0.399 N 
HETATM   15  H   UNL     1      68.278   5.267   7.758  1.00  0.00     0.156 HD
HETATM   16  H   UNL     1      68.490   6.852   8.348  1.00  0.00     0.156 HD
ENDBRANCH   4  14
TORSDOF 2
ENDMDL
MODEL 5
REMARK VINA RESULT:      -4.6      3.033      5.164
REMARK  2 active torsions:
REMARK  status: ('A' for Active; 'I' for Inactive)
REMARK    1  A    between atoms: C_3  and  C_7 
REMARK    2  A    between atoms: C_10  and  N_11 
ROOT
HETATM    1  C   UNL     1      62.251   8.799   3.319  1.00  0.00    -0.009 A 
HETATM    2  C   UNL     1      61.707  10.081   3.468  1.00  0.00     0.016 A 
HETATM    3  C   UNL     1      63.287   8.412   4.177  1.00  0.00     0.016 A 
HETATM    4  C   UNL     1      63.183  10.543   5.345  1.00  0.00     0.025 A 
HETATM    5  C   UNL     1      62.184  10.948   4.458  1.00  0.00     0.030 A 
HETATM    6  C   UNL     1      63.759   9.283   5.168  1.00  0.00     0.030 A 
ENDROOT
BRANCH   1   7
HETATM    7  C   UNL     1      61.799   7.890   2.271  1.00  0.00     0.049 A 
HETATM    8  N   UNL     1      60.489   7.909   1.814  1.00  0.00    -0.353 N 
HETATM    9  C   UNL     1      60.317   6.986   0.893  1.00  0.00     0.047 A 
ATOM     10  HN  UNL     1      59.764   8.547   2.144  1.00  0.00     0.166 HD
HETATM   11  S   UNL     1      61.713   6.064   0.499  1.00  0.00    -0.087 SA
HETATM   12  C   UNL     1      59.029   6.712   0.200  1.00  0.00     0.076 C 
HETATM   13  C   UNL     1      62.612   6.959   1.651  1.00  0.00     0.081 A 
ENDBRANCH   1   7
BRANCH   4  14
HETATM   14  N   UNL     1      63.759  11.466   6.224  1.00  0.00    -0.399 N 
HETATM   15  H   UNL     1      64.112  12.319   5.881  1.00  0.00     0.156 HD
HETATM   16  H   UNL     1      63.813  11.263   7.186  1.00  0.00     0.156 HD
ENDBRANCH   4  14
TORSDOF 2
ENDMDL
MODEL 6
REMARK VINA RESULT:      -4.4      2.407      5.438
REMARK  2 active torsions:
REMARK  status: ('A' for Active; 'I' for Inactive)
REMARK    1  A    between atoms: C_3  and  C_7 
REMARK    2  A    between atoms: C_10  and  N_11 
ROOT
HETATM    1  C   UNL     1      64.193   7.662   5.383  1.00  0.00    -0.009 A 
HETATM    2  C   UNL     1      65.399   8.354   5.217  1.00  0.00     0.016 A 
HETATM    3  C   UNL     1      64.103   6.722   6.418  1.00  0.00     0.016 A 
HETATM    4  C   UNL     1      66.375   7.217   7.132  1.00  0.00     0.025 A 
HETATM    5  C   UNL     1      66.483   8.117   6.071  1.00  0.00     0.030 A 
HETATM    6  C   UNL     1      65.190   6.491   7.271  1.00  0.00     0.030 A 
ENDROOT
BRANCH   1   7
HETATM    7  C   UNL     1      63.062   7.861   4.485  1.00  0.00     0.049 A 
HETATM    8  N   UNL     1      63.185   8.611   3.323  1.00  0.00    -0.353 N 
HETATM    9  C   UNL     1      62.030   8.668   2.697  1.00  0.00     0.047 A 
ATOM     10  HN  UNL     1      64.046   9.053   3.002  1.00  0.00     0.166 HD
HETATM   11  S   UNL     1      60.741   7.807   3.438  1.00  0.00    -0.087 SA
HETATM   12  C   UNL     1      61.793   9.407   1.427  1.00  0.00     0.076 C 
HETATM   13  C   UNL     1      61.802   7.329   4.696  1.00  0.00     0.081 A 
ENDBRANCH   1   7
BRANCH   4  14
HETATM   14  N   UNL     1      67.506   6.872   7.879  1.00  0.00    -0.399 N 
HETATM   15  H   UNL     1      67.863   5.956   7.838  1.00  0.00     0.156 HD
HETATM   16  H   UNL     1      67.946   7.547   8.446  1.00  0.00     0.156 HD
ENDBRANCH   4  14
TORSDOF 2
ENDMDL
MODEL 7
REMARK VINA RESULT:      -4.3      2.030      2.194
REMARK  2 active torsions:
REMARK  status: ('A' for Active; 'I' for Inactive)
REMARK    1  A    between atoms: C_3  and  C_7 
REMARK    2  A    between atoms: C_10  and  N_11 
ROOT
HETATM    1  C   UNL     1      62.825   8.384   3.277  1.00  0.00    -0.009 A 
HETATM    2  C   UNL     1      62.551   8.584   1.918  1.00  0.00     0.016 A 
HETATM    3  C   UNL     1      62.630   9.453   4.159  1.00  0.00     0.016 A 
HETATM    4  C   UNL     1      61.844  10.871   2.346  1.00  0.00     0.025 A 
HETATM    5  C   UNL     1      62.085   9.821   1.458  1.00  0.00     0.030 A 
HETATM    6  C   UNL     1      62.160  10.688   3.694  1.00  0.00     0.030 A 
ENDROOT
BRANCH   1   7
HETATM    7  C   UNL     1      63.348   7.117   3.777  1.00  0.00     0.049 A 
HETATM    8  N   UNL     1      62.848   6.537   4.935  1.00  0.00    -0.353 N 
HETATM    9  C   UNL     1      63.491   5.420   5.196  1.00  0.00     0.047 A 
ATOM     10  HN  UNL     1      62.091   6.921   5.502  1.00  0.00     0.166 HD
HETATM   11  S   UNL     1      64.705   4.982   4.062  1.00  0.00    -0.087 SA
HETATM   12  C   UNL     1      63.229   4.549   6.374  1.00  0.00     0.076 C 
HETATM   13  C   UNL     1      64.352   6.395   3.159  1.00  0.00     0.081 A 
ENDBRANCH   1   7
BRANCH   4  14
HETATM   14  N   UNL     1      61.531  12.145   1.860  1.00  0.00    -0.399 N 
HETATM   15  H   UNL     1      60.597  12.377   1.654  1.00  0.00     0.156 HD
HETATM   16  H   UNL     1      62.244  12.809   1.723  1.00  0.00     0.156 HD
ENDBRANCH   4  14
TORSDOF 2
ENDMDL
MODEL 8
REMARK VINA RESULT:      -4.3      1.893      2.532
REMARK  2 active torsions:
REMARK  status: ('A' for Active; 'I' for Inactive)
REMARK    1  A    between atoms: C_3  and  C_7 
REMARK    2  A    between atoms: C_10  and  N_11 
ROOT
HETATM    1  C   UNL     1      64.472   8.050   4.757  1.00  0.00    -0.009 A 
HETATM    2  C   UNL     1      64.014   9.233   5.350  1.00  0.00     0.016 A 
HETATM    3  C   UNL     1      63.848   7.608   3.584  1.00  0.00     0.016 A 
HETATM    4  C   UNL     1      62.375   9.544   3.581  1.00  0.00     0.025 A 
HETATM    5  C   UNL     1      62.963   9.959   4.777  1.00  0.00     0.030 A 
HETATM    6  C   UNL     1      62.799   8.341   3.013  1.00  0.00     0.030 A 
ENDROOT
BRANCH   1   7
HETATM    7  C   UNL     1      65.539   7.254   5.353  1.00  0.00     0.049 A 
HETATM    8  N   UNL     1      65.885   6.010   4.842  1.00  0.00    -0.353 N 
HETATM    9  C   UNL     1      66.851   5.478   5.559  1.00  0.00     0.047 A 
ATOM     10  HN  UNL     1      65.453   5.573   4.027  1.00  0.00     0.166 HD
HETATM   11  S   UNL     1      67.422   6.440   6.863  1.00  0.00    -0.087 SA
HETATM   12  C   UNL     1      67.452   4.141   5.307  1.00  0.00     0.076 C 
HETATM   13  C   UNL     1      66.289   7.656   6.444  1.00  0.00     0.081 A 
ENDBRANCH   1   7
BRANCH   4  14
HETATM   14  N   UNL     1      61.228  10.186   3.102  1.00  0.00    -0.399 N 
HETATM   15  H   UNL     1      61.270  11.130   2.826  1.00  0.00     0.156 HD
HETATM   16  H   UNL     1      60.377   9.694   3.043  1.00  0.00     0.156 HD
ENDBRANCH   4  14
TORSDOF 2
ENDMDL
MODEL 9
REMARK VINA RESULT:      -4.0     11.375     12.493
REMARK  2 active torsions:
REMARK  status: ('A' for Active; 'I' for Inactive)
REMARK    1  A    between atoms: C_3  and  C_7 
REMARK    2  A    between atoms: C_10  and  N_11 
ROOT
HETATM    1  C   UNL     1      60.159   0.064  12.788  1.00  0.00    -0.009 A 
HETATM    2  C   UNL     1      59.729   1.351  13.132  1.00  0.00     0.016 A 
HETATM    3  C   UNL     1      59.307  -1.016  13.055  1.00  0.00     0.016 A 
HETATM    4  C   UNL     1      57.606   0.481  13.940  1.00  0.00     0.025 A 
HETATM    5  C   UNL     1      58.474   1.552  13.720  1.00  0.00     0.030 A 
HETATM    6  C   UNL     1      58.051  -0.808  13.640  1.00  0.00     0.030 A 
ENDROOT
BRANCH   1   7
HETATM    7  C   UNL     1      61.476  -0.179  12.210  1.00  0.00     0.049 A 
HETATM    8  N   UNL     1      62.597  -0.348  13.012  1.00  0.00    -0.353 N 
HETATM    9  C   UNL     1      63.665  -0.526  12.265  1.00  0.00     0.047 A 
ATOM     10  HN  UNL     1      62.592  -0.337  14.032  1.00  0.00     0.166 HD
HETATM   11  S   UNL     1      63.391  -0.531  10.569  1.00  0.00    -0.087 SA
HETATM   12  C   UNL     1      65.042  -0.718  12.793  1.00  0.00     0.076 C 
HETATM   13  C   UNL     1      61.721  -0.268  10.852  1.00  0.00     0.081 A 
ENDBRANCH   1   7
BRANCH   4  14
HETATM   14  N   UNL     1      56.427   0.670  14.667  1.00  0.00    -0.399 N 
HETATM   15  H   UNL     1      55.974   1.544  14.653  1.00  0.00     0.156 HD
HETATM   16  H   UNL     1      56.049  -0.070  15.195  1.00  0.00     0.156 HD
ENDBRANCH   4  14
TORSDOF 2
ENDMDL
