MODEL 1
REMARK VINA RESULT:      -5.6      0.000      0.000
REMARK  2 active torsions:
REMARK  status: ('A' for Active; 'I' for Inactive)
REMARK    1  A    between atoms: C_1  and  C_2 
REMARK    2  A    between atoms: C_2  and  N_3 
ROOT
HETATM    1  N   UNL     1      64.446   7.484   5.233  1.00  0.00    -0.065 N 
HETATM    2  N   UNL     1      66.927   6.136   6.632  1.00  0.00    -0.073 N 
HETATM    3  C   UNL     1      65.338   6.852   4.257  1.00  0.00     0.237 C 
HETATM    4  C   UNL     1      66.817   7.230   4.337  1.00  0.00     0.055 C 
HETATM    5  C   UNL     1      67.589   6.947   5.622  1.00  0.00     0.234 C 
HETATM    6  C   UNL     1      64.501   6.851   6.563  1.00  0.00     0.262 C 
HETATM    7  C   UNL     1      65.858   6.890   7.289  1.00  0.00     0.260 C 
HETATM    8  H   UNL     1      64.794   8.435   5.349  1.00  0.00     0.280 HD
HETATM    9  H   UNL     1      66.529   5.309   6.188  1.00  0.00     0.277 HD
HETATM   10  H   UNL     1      67.616   5.866   7.335  1.00  0.00     0.277 HD
ENDROOT
BRANCH   1  11
HETATM   11  C   UNL     1      63.043   7.566   4.735  1.00  0.00     0.278 C 
BRANCH  11  12
HETATM   12  C   UNL     1      62.687   8.757   3.863  1.00  0.00     0.028 A 
HETATM   13  C   UNL     1      62.497   8.682   2.472  1.00  0.00     0.045 A 
HETATM   14 CL   UNL     1      62.858   7.265   1.551  1.00  0.00    -0.084 Cl
HETATM   15  C   UNL     1      62.036   9.791   1.750  1.00  0.00     0.024 A 
HETATM   16  C   UNL     1      61.807  11.007   2.387  1.00  0.00     0.005 A 
HETATM   17  C   UNL     1      62.068  11.123   3.746  1.00  0.00     0.043 A 
HETATM   18  C   UNL     1      62.505  10.010   4.463  1.00  0.00     0.126 A 
HETATM   19  F   UNL     1      62.740  10.165   5.775  1.00  0.00    -0.205 F 
ENDBRANCH  11  12
ENDBRANCH   1  11
TORSDOF 2
ENDMDL
MODEL 2
REMARK VINA RESULT:      -5.2      1.999      2.604
REMARK  2 active torsions:
REMARK  status: ('A' for Active; 'I' for Inactive)
REMARK    1  A    between atoms: C_1  and  C_2 
REMARK    2  A    between atoms: C_2  and  N_3 
ROOT
HETATM    1  N   UNL     1      64.134   7.476   5.422  1.00  0.00    -0.065 N 
HETATM    2  N   UNL     1      67.175   7.010   6.101  1.00  0.00    -0.073 N 
HETATM    3  C   UNL     1      64.297   6.643   6.616  1.00  0.00     0.237 C 
HETATM    4  C   UNL     1      65.218   5.429   6.483  1.00  0.00     0.055 C 
HETATM    5  C   UNL     1      66.681   5.642   6.106  1.00  0.00     0.234 C 
HETATM    6  C   UNL     1      65.262   8.398   5.198  1.00  0.00     0.262 C 
HETATM    7  C   UNL     1      66.640   7.755   4.960  1.00  0.00     0.260 C 
HETATM    8  H   UNL     1      64.126   6.830   4.633  1.00  0.00     0.280 HD
HETATM    9  H   UNL     1      66.890   7.471   6.965  1.00  0.00     0.277 HD
HETATM   10  H   UNL     1      68.192   6.987   6.029  1.00  0.00     0.277 HD
ENDROOT
BRANCH   1  11
HETATM   11  C   UNL     1      62.835   8.208   5.426  1.00  0.00     0.278 C 
BRANCH  11  12
HETATM   12  C   UNL     1      62.385   8.828   4.116  1.00  0.00     0.028 A 
HETATM   13  C   UNL     1      62.299  10.214   3.893  1.00  0.00     0.045 A 
HETATM   14 CL   UNL     1      62.487  11.380   5.155  1.00  0.00    -0.084 Cl
HETATM   15  C   UNL     1      62.008  10.720   2.619  1.00  0.00     0.024 A 
HETATM   16  C   UNL     1      61.747   9.859   1.557  1.00  0.00     0.005 A 
HETATM   17  C   UNL     1      61.746   8.488   1.777  1.00  0.00     0.043 A 
HETATM   18  C   UNL     1      62.058   7.991   3.042  1.00  0.00     0.126 A 
HETATM   19  F   UNL     1      62.051   6.659   3.209  1.00  0.00    -0.205 F 
ENDBRANCH  11  12
ENDBRANCH   1  11
TORSDOF 2
ENDMDL
MODEL 3
REMARK VINA RESULT:      -4.9      2.748      4.084
REMARK  2 active torsions:
REMARK  status: ('A' for Active; 'I' for Inactive)
REMARK    1  A    between atoms: C_1  and  C_2 
REMARK    2  A    between atoms: C_2  and  N_3 
ROOT
HETATM    1  N   UNL     1      61.605   6.666   4.595  1.00  0.00    -0.065 N 
HETATM    2  N   UNL     1      59.906   4.144   5.420  1.00  0.00    -0.073 N 
HETATM    3  C   UNL     1      61.901   6.242   5.966  1.00  0.00     0.237 C 
HETATM    4  C   UNL     1      60.703   6.056   6.898  1.00  0.00     0.055 C 
HETATM    5  C   UNL     1      59.627   5.038   6.533  1.00  0.00     0.234 C 
HETATM    6  C   UNL     1      61.148   5.562   3.732  1.00  0.00     0.262 C 
HETATM    7  C   UNL     1      59.842   4.861   4.145  1.00  0.00     0.260 C 
HETATM    8  H   UNL     1      60.825   7.318   4.670  1.00  0.00     0.280 HD
HETATM    9  H   UNL     1      60.840   3.749   5.535  1.00  0.00     0.277 HD
HETATM   10  H   UNL     1      59.205   3.403   5.415  1.00  0.00     0.277 HD
ENDROOT
BRANCH   1  11
HETATM   11  C   UNL     1      62.751   7.392   3.977  1.00  0.00     0.278 C 
BRANCH  11  12
HETATM   12  C   UNL     1      62.489   8.801   3.477  1.00  0.00     0.028 A 
HETATM   13  C   UNL     1      62.234   9.121   2.131  1.00  0.00     0.045 A 
HETATM   14 CL   UNL     1      62.401   7.977   0.847  1.00  0.00    -0.084 Cl
HETATM   15  C   UNL     1      61.865  10.421   1.760  1.00  0.00     0.024 A 
HETATM   16  C   UNL     1      61.795  11.437   2.709  1.00  0.00     0.005 A 
HETATM   17  C   UNL     1      62.124  11.159   4.029  1.00  0.00     0.043 A 
HETATM   18  C   UNL     1      62.469   9.858   4.396  1.00  0.00     0.126 A 
HETATM   19  F   UNL     1      62.774   9.632   5.683  1.00  0.00    -0.205 F 
ENDBRANCH  11  12
ENDBRANCH   1  11
TORSDOF 2
ENDMDL
MODEL 4
REMARK VINA RESULT:      -4.6      2.401      5.756
REMARK  2 active torsions:
REMARK  status: ('A' for Active; 'I' for Inactive)
REMARK    1  A    between atoms: C_1  and  C_2 
REMARK    2  A    between atoms: C_2  and  N_3 
ROOT
HETATM    1  N   UNL     1      64.194   7.948   4.749  1.00  0.00    -0.065 N 
HETATM    2  N   UNL     1      62.067  10.088   3.839  1.00  0.00    -0.073 N 
HETATM    3  C   UNL     1      63.668   7.651   3.414  1.00  0.00     0.237 C 
HETATM    4  C   UNL     1      62.146   7.608   3.273  1.00  0.00     0.055 C 
HETATM    5  C   UNL     1      61.332   8.855   3.606  1.00  0.00     0.234 C 
HETATM    6  C   UNL     1      64.157   9.384   5.081  1.00  0.00     0.262 C 
HETATM    7  C   UNL     1      62.767  10.045   5.125  1.00  0.00     0.260 C 
HETATM    8  H   UNL     1      63.566   7.482   5.403  1.00  0.00     0.280 HD
HETATM    9  H   UNL     1      62.749  10.216   3.091  1.00  0.00     0.277 HD
HETATM   10  H   UNL     1      61.405  10.864   3.853  1.00  0.00     0.277 HD
ENDROOT
BRANCH   1  11
HETATM   11  C   UNL     1      65.561   7.387   4.947  1.00  0.00     0.278 C 
BRANCH  11  12
HETATM   12  C   UNL     1      65.844   6.705   6.274  1.00  0.00     0.028 A 
HETATM   13  C   UNL     1      65.470   5.383   6.572  1.00  0.00     0.045 A 
HETATM   14 CL   UNL     1      64.450   4.442   5.541  1.00  0.00    -0.084 Cl
HETATM   15  C   UNL     1      65.881   4.771   7.763  1.00  0.00     0.024 A 
HETATM   16  C   UNL     1      66.627   5.478   8.703  1.00  0.00     0.005 A 
HETATM   17  C   UNL     1      66.935   6.810   8.464  1.00  0.00     0.043 A 
HETATM   18  C   UNL     1      66.542   7.407   7.266  1.00  0.00     0.126 A 
HETATM   19  F   UNL     1      66.865   8.695   7.072  1.00  0.00    -0.205 F 
ENDBRANCH  11  12
ENDBRANCH   1  11
TORSDOF 2
ENDMDL
MODEL 5
REMARK VINA RESULT:      -4.6      2.051      5.458
REMARK  2 active torsions:
REMARK  status: ('A' for Active; 'I' for Inactive)
REMARK    1  A    between atoms: C_1  and  C_2 
REMARK    2  A    between atoms: C_2  and  N_3 
ROOT
HETATM    1  N   UNL     1      62.930   8.254   3.477  1.00  0.00    -0.065 N 
HETATM    2  N   UNL     1      61.193  10.452   2.033  1.00  0.00    -0.073 N 
HETATM    3  C   UNL     1      62.172   9.059   4.438  1.00  0.00     0.237 C 
HETATM    4  C   UNL     1      62.308  10.577   4.317  1.00  0.00     0.055 C 
HETATM    5  C   UNL     1      61.896  11.261   3.017  1.00  0.00     0.234 C 
HETATM    6  C   UNL     1      62.287   8.173   2.153  1.00  0.00     0.262 C 
HETATM    7  C   UNL     1      62.103   9.499   1.393  1.00  0.00     0.260 C 
HETATM    8  H   UNL     1      63.813   8.746   3.341  1.00  0.00     0.280 HD
HETATM    9  H   UNL     1      60.444   9.938   2.497  1.00  0.00     0.277 HD
HETATM   10  H   UNL     1      60.811  11.070   1.317  1.00  0.00     0.277 HD
ENDROOT
BRANCH   1  11
HETATM   11  C   UNL     1      63.239   6.896   4.008  1.00  0.00     0.278 C 
BRANCH  11  12
HETATM   12  C   UNL     1      64.698   6.574   4.278  1.00  0.00     0.028 A 
HETATM   13  C   UNL     1      65.510   5.828   3.406  1.00  0.00     0.045 A 
HETATM   14 CL   UNL     1      64.888   5.001   2.021  1.00  0.00    -0.084 Cl
HETATM   15  C   UNL     1      66.883   5.683   3.650  1.00  0.00     0.024 A 
HETATM   16  C   UNL     1      67.462   6.232   4.791  1.00  0.00     0.005 A 
HETATM   17  C   UNL     1      66.660   6.901   5.706  1.00  0.00     0.043 A 
HETATM   18  C   UNL     1      65.299   7.061   5.446  1.00  0.00     0.126 A 
HETATM   19  F   UNL     1      64.562   7.719   6.354  1.00  0.00    -0.205 F 
ENDBRANCH  11  12
ENDBRANCH   1  11
TORSDOF 2
ENDMDL
MODEL 6
REMARK VINA RESULT:      -4.4      3.684      5.188
REMARK  2 active torsions:
REMARK  status: ('A' for Active; 'I' for Inactive)
REMARK    1  A    between atoms: C_1  and  C_2 
REMARK    2  A    between atoms: C_2  and  N_3 
ROOT
HETATM    1  N   UNL     1      60.083   6.552   3.931  1.00  0.00    -0.065 N 
HETATM    2  N   UNL     1      57.841   6.481   6.145  1.00  0.00    -0.073 N 
HETATM    3  C   UNL     1      59.085   7.604   3.721  1.00  0.00     0.237 C 
HETATM    4  C   UNL     1      57.620   7.164   3.704  1.00  0.00     0.055 C 
HETATM    5  C   UNL     1      57.032   6.484   4.936  1.00  0.00     0.234 C 
HETATM    6  C   UNL     1      60.220   6.155   5.344  1.00  0.00     0.262 C 
HETATM    7  C   UNL     1      58.971   5.557   6.016  1.00  0.00     0.260 C 
HETATM    8  H   UNL     1      59.731   5.735   3.433  1.00  0.00     0.280 HD
HETATM    9  H   UNL     1      58.197   7.422   6.311  1.00  0.00     0.277 HD
HETATM   10  H   UNL     1      57.259   6.177   6.925  1.00  0.00     0.277 HD
ENDROOT
BRANCH   1  11
HETATM   11  C   UNL     1      61.405   6.913   3.343  1.00  0.00     0.278 C 
BRANCH  11  12
HETATM   12  C   UNL     1      61.674   8.386   3.098  1.00  0.00     0.028 A 
HETATM   13  C   UNL     1      61.513   9.016   1.851  1.00  0.00     0.045 A 
HETATM   14 CL   UNL     1      61.197   8.143   0.394  1.00  0.00    -0.084 Cl
HETATM   15  C   UNL     1      61.648  10.405   1.726  1.00  0.00     0.024 A 
HETATM   16  C   UNL     1      61.995  11.187   2.825  1.00  0.00     0.005 A 
HETATM   17  C   UNL     1      62.239  10.573   4.046  1.00  0.00     0.043 A 
HETATM   18  C   UNL     1      62.082   9.192   4.169  1.00  0.00     0.126 A 
HETATM   19  F   UNL     1      62.323   8.640   5.369  1.00  0.00    -0.205 F 
ENDBRANCH  11  12
ENDBRANCH   1  11
TORSDOF 2
ENDMDL
MODEL 7
REMARK VINA RESULT:      -4.3      3.398      4.873
REMARK  2 active torsions:
REMARK  status: ('A' for Active; 'I' for Inactive)
REMARK    1  A    between atoms: C_1  and  C_2 
REMARK    2  A    between atoms: C_2  and  N_3 
ROOT
HETATM    1  N   UNL     1      60.638   6.368   5.030  1.00  0.00    -0.065 N 
HETATM    2  N   UNL     1      58.454   4.326   6.025  1.00  0.00    -0.073 N 
HETATM    3  C   UNL     1      61.088   5.632   6.215  1.00  0.00     0.237 C 
HETATM    4  C   UNL     1      60.141   5.626   7.416  1.00  0.00     0.055 C 
HETATM    5  C   UNL     1      58.741   5.041   7.258  1.00  0.00     0.234 C 
HETATM    6  C   UNL     1      59.664   5.617   4.216  1.00  0.00     0.262 C 
HETATM    7  C   UNL     1      58.332   5.253   4.898  1.00  0.00     0.260 C 
HETATM    8  H   UNL     1      60.149   7.189   5.384  1.00  0.00     0.280 HD
HETATM    9  H   UNL     1      59.210   3.668   5.837  1.00  0.00     0.277 HD
HETATM   10  H   UNL     1      57.569   3.829   6.136  1.00  0.00     0.277 HD
ENDROOT
BRANCH   1  11
HETATM   11  C   UNL     1      61.782   6.839   4.199  1.00  0.00     0.278 C 
BRANCH  11  12
HETATM   12  C   UNL     1      62.066   8.330   4.194  1.00  0.00     0.028 A 
HETATM   13  C   UNL     1      61.653   9.203   3.172  1.00  0.00     0.045 A 
HETATM   14 CL   UNL     1      60.958   8.650   1.689  1.00  0.00    -0.084 Cl
HETATM   15  C   UNL     1      61.829  10.588   3.297  1.00  0.00     0.024 A 
HETATM   16  C   UNL     1      62.466  11.125   4.412  1.00  0.00     0.005 A 
HETATM   17  C   UNL     1      62.955  10.271   5.392  1.00  0.00     0.043 A 
HETATM   18  C   UNL     1      62.756   8.896   5.274  1.00  0.00     0.126 A 
HETATM   19  F   UNL     1      63.240   8.108   6.246  1.00  0.00    -0.205 F 
ENDBRANCH  11  12
ENDBRANCH   1  11
TORSDOF 2
ENDMDL
MODEL 8
REMARK VINA RESULT:      -4.3      2.751      5.852
REMARK  2 active torsions:
REMARK  status: ('A' for Active; 'I' for Inactive)
REMARK    1  A    between atoms: C_1  and  C_2 
REMARK    2  A    between atoms: C_2  and  N_3 
ROOT
HETATM    1  N   UNL     1      64.003   7.542   4.220  1.00  0.00    -0.065 N 
HETATM    2  N   UNL     1      62.278  10.173   4.026  1.00  0.00    -0.073 N 
HETATM    3  C   UNL     1      63.344   7.659   2.917  1.00  0.00     0.237 C 
HETATM    4  C   UNL     1      61.836   7.918   2.933  1.00  0.00     0.055 C 
HETATM    5  C   UNL     1      61.303   9.175   3.613  1.00  0.00     0.234 C 
HETATM    6  C   UNL     1      64.267   8.845   4.856  1.00  0.00     0.262 C 
HETATM    7  C   UNL     1      63.038   9.711   5.189  1.00  0.00     0.260 C 
HETATM    8  H   UNL     1      63.340   7.054   4.821  1.00  0.00     0.280 HD
HETATM    9  H   UNL     1      62.922  10.349   3.255  1.00  0.00     0.277 HD
HETATM   10  H   UNL     1      61.782  11.027   4.278  1.00  0.00     0.277 HD
ENDROOT
BRANCH   1  11
HETATM   11  C   UNL     1      65.244   6.720   4.144  1.00  0.00     0.278 C 
BRANCH  11  12
HETATM   12  C   UNL     1      65.814   6.206   5.454  1.00  0.00     0.028 A 
HETATM   13  C   UNL     1      67.002   6.686   6.034  1.00  0.00     0.045 A 
HETATM   14 CL   UNL     1      68.073   7.770   5.218  1.00  0.00    -0.084 Cl
HETATM   15  C   UNL     1      67.398   6.264   7.310  1.00  0.00     0.024 A 
HETATM   16  C   UNL     1      66.652   5.320   8.010  1.00  0.00     0.005 A 
HETATM   17  C   UNL     1      65.521   4.773   7.418  1.00  0.00     0.043 A 
HETATM   18  C   UNL     1      65.119   5.213   6.157  1.00  0.00     0.126 A 
HETATM   19  F   UNL     1      64.017   4.662   5.625  1.00  0.00    -0.205 F 
ENDBRANCH  11  12
ENDBRANCH   1  11
TORSDOF 2
ENDMDL
MODEL 9
REMARK VINA RESULT:      -4.2      2.402      5.444
REMARK  2 active torsions:
REMARK  status: ('A' for Active; 'I' for Inactive)
REMARK    1  A    between atoms: C_1  and  C_2 
REMARK    2  A    between atoms: C_2  and  N_3 
ROOT
HETATM    1  N   UNL     1      62.225   7.661   3.626  1.00  0.00    -0.065 N 
HETATM    2  N   UNL     1      59.742   8.252   1.777  1.00  0.00    -0.073 N 
HETATM    3  C   UNL     1      62.283   9.012   3.061  1.00  0.00     0.237 C 
HETATM    4  C   UNL     1      62.121   9.126   1.544  1.00  0.00     0.055 C 
HETATM    5  C   UNL     1      60.836   8.622   0.893  1.00  0.00     0.234 C 
HETATM    6  C   UNL     1      60.849   7.151   3.768  1.00  0.00     0.262 C 
HETATM    7  C   UNL     1      60.034   6.996   2.471  1.00  0.00     0.260 C 
HETATM    8  H   UNL     1      62.689   7.058   2.948  1.00  0.00     0.280 HD
HETATM    9  H   UNL     1      59.605   8.991   2.466  1.00  0.00     0.277 HD
HETATM   10  H   UNL     1      58.900   8.127   1.216  1.00  0.00     0.277 HD
ENDROOT
BRANCH   1  11
HETATM   11  C   UNL     1      62.970   7.563   4.913  1.00  0.00     0.278 C 
BRANCH  11  12
HETATM   12  C   UNL     1      64.426   7.139   4.839  1.00  0.00     0.028 A 
HETATM   13  C   UNL     1      64.849   5.847   4.478  1.00  0.00     0.045 A 
HETATM   14 CL   UNL     1      63.756   4.522   4.282  1.00  0.00    -0.084 Cl
HETATM   15  C   UNL     1      66.209   5.562   4.297  1.00  0.00     0.024 A 
HETATM   16  C   UNL     1      67.175   6.538   4.524  1.00  0.00     0.005 A 
HETATM   17  C   UNL     1      66.782   7.796   4.962  1.00  0.00     0.043 A 
HETATM   18  C   UNL     1      65.425   8.080   5.118  1.00  0.00     0.126 A 
HETATM   19  F   UNL     1      65.088   9.310   5.537  1.00  0.00    -0.205 F 
ENDBRANCH  11  12
ENDBRANCH   1  11
TORSDOF 2
ENDMDL
