MODEL 1
REMARK VINA RESULT:      -5.9      0.000      0.000
REMARK  0 active torsions:
REMARK  status: ('A' for Active; 'I' for Inactive)
ROOT
HETATM    1  C   UNL     1      64.184   7.274   5.250  1.00  0.00     0.147 A 
HETATM    2  N   UNL     1      63.886   8.398   5.869  1.00  0.00    -0.336 N 
ATOM      3  HN  UNL     1      64.083   8.581   6.853  1.00  0.00     0.168 HD
HETATM    4  S   UNL     1      63.710   7.261   3.582  1.00  0.00    -0.052 SA
HETATM    5  C   UNL     1      63.071   8.840   3.717  1.00  0.00     0.036 A 
HETATM    6  N   UNL     1      64.794   6.215   5.859  1.00  0.00    -0.360 N 
HETATM    7  C   UNL     1      63.271   9.297   5.016  1.00  0.00     0.051 A 
HETATM    8  C   UNL     1      62.446   9.620   2.732  1.00  0.00     0.045 A 
HETATM    9  N   UNL     1      67.318   5.132   7.162  1.00  0.00    -0.074 N 
HETATM   10  C   UNL     1      62.849  10.601   5.346  1.00  0.00     0.032 A 
HETATM   11  C   UNL     1      62.045  10.909   3.083  1.00  0.00     0.035 A 
HETATM   12  C   UNL     1      62.247  11.402   4.370  1.00  0.00     0.026 A 
HETATM   13  C   UNL     1      65.180   5.004   5.154  1.00  0.00     0.126 C 
HETATM   14 CL   UNL     1      61.297  11.904   1.894  1.00  0.00    -0.084 Cl
HETATM   15  C   UNL     1      65.023   6.243   7.307  1.00  0.00     0.152 C 
HETATM   16  C   UNL     1      66.635   5.039   4.700  1.00  0.00     0.047 C 
HETATM   17  C   UNL     1      67.695   5.333   5.766  1.00  0.00     0.234 C 
HETATM   18  C   UNL     1      66.521   6.262   7.672  1.00  0.00     0.252 C 
HETATM   19  H   UNL     1      66.767   4.277   7.237  1.00  0.00     0.277 HD
HETATM   20  H   UNL     1      68.171   5.065   7.718  1.00  0.00     0.277 HD
ENDROOT
TORSDOF 0
ENDMDL
MODEL 2
REMARK VINA RESULT:      -5.3      3.477      6.474
REMARK  0 active torsions:
REMARK  status: ('A' for Active; 'I' for Inactive)
ROOT
HETATM    1  C   UNL     1      62.672   7.933   4.633  1.00  0.00     0.147 A 
HETATM    2  N   UNL     1      62.662   6.715   5.135  1.00  0.00    -0.336 N 
ATOM      3  HN  UNL     1      61.883   6.063   5.045  1.00  0.00     0.168 HD
HETATM    4  S   UNL     1      64.135   8.801   4.966  1.00  0.00    -0.052 SA
HETATM    5  C   UNL     1      64.768   7.470   5.830  1.00  0.00     0.036 A 
HETATM    6  N   UNL     1      61.632   8.469   3.930  1.00  0.00    -0.360 N 
HETATM    7  C   UNL     1      63.841   6.432   5.801  1.00  0.00     0.051 A 
HETATM    8  C   UNL     1      66.008   7.354   6.479  1.00  0.00     0.045 A 
HETATM    9  N   UNL     1      59.963   8.391   1.390  1.00  0.00    -0.074 N 
HETATM   10  C   UNL     1      64.171   5.213   6.428  1.00  0.00     0.032 A 
HETATM   11  C   UNL     1      66.312   6.135   7.084  1.00  0.00     0.035 A 
HETATM   12  C   UNL     1      65.413   5.072   7.058  1.00  0.00     0.026 A 
HETATM   13  C   UNL     1      61.676   9.788   3.322  1.00  0.00     0.126 C 
HETATM   14 CL   UNL     1      67.833   5.949   7.869  1.00  0.00    -0.084 Cl
HETATM   15  C   UNL     1      60.370   7.730   3.823  1.00  0.00     0.152 C 
HETATM   16  C   UNL     1      62.088   9.735   1.855  1.00  0.00     0.047 C 
HETATM   17  C   UNL     1      61.286   8.808   0.935  1.00  0.00     0.234 C 
HETATM   18  C   UNL     1      60.053   7.299   2.376  1.00  0.00     0.252 C 
HETATM   19  H   UNL     1      59.493   9.187   1.819  1.00  0.00     0.277 HD
HETATM   20  H   UNL     1      59.440   8.051   0.583  1.00  0.00     0.277 HD
ENDROOT
TORSDOF 0
ENDMDL
MODEL 3
REMARK VINA RESULT:      -5.2      2.118      2.662
REMARK  0 active torsions:
REMARK  status: ('A' for Active; 'I' for Inactive)
ROOT
HETATM    1  C   UNL     1      64.092   7.560   5.377  1.00  0.00     0.147 A 
HETATM    2  N   UNL     1      64.041   8.367   4.337  1.00  0.00    -0.336 N 
ATOM      3  HN  UNL     1      64.799   8.988   4.054  1.00  0.00     0.168 HD
HETATM    4  S   UNL     1      62.640   6.641   5.605  1.00  0.00    -0.052 SA
HETATM    5  C   UNL     1      61.920   7.377   4.241  1.00  0.00     0.036 A 
HETATM    6  N   UNL     1      65.172   7.464   6.206  1.00  0.00    -0.360 N 
HETATM    7  C   UNL     1      62.830   8.266   3.677  1.00  0.00     0.051 A 
HETATM    8  C   UNL     1      60.639   7.169   3.706  1.00  0.00     0.045 A 
HETATM    9  N   UNL     1      68.073   6.610   6.522  1.00  0.00    -0.074 N 
HETATM   10  C   UNL     1      62.456   8.965   2.511  1.00  0.00     0.032 A 
HETATM   11  C   UNL     1      60.299   7.867   2.548  1.00  0.00     0.035 A 
HETATM   12  C   UNL     1      61.193   8.751   1.949  1.00  0.00     0.026 A 
HETATM   13  C   UNL     1      65.247   6.524   7.312  1.00  0.00     0.126 C 
HETATM   14 CL   UNL     1      58.745   7.619   1.849  1.00  0.00    -0.084 Cl
HETATM   15  C   UNL     1      66.301   8.385   6.039  1.00  0.00     0.152 C 
HETATM   16  C   UNL     1      65.958   5.232   6.926  1.00  0.00     0.047 C 
HETATM   17  C   UNL     1      67.354   5.359   6.308  1.00  0.00     0.234 C 
HETATM   18  C   UNL     1      67.597   7.667   5.611  1.00  0.00     0.252 C 
HETATM   19  H   UNL     1      67.931   6.914   7.485  1.00  0.00     0.277 HD
HETATM   20  H   UNL     1      69.063   6.448   6.335  1.00  0.00     0.277 HD
ENDROOT
TORSDOF 0
ENDMDL
MODEL 4
REMARK VINA RESULT:      -4.8      3.725      6.246
REMARK  0 active torsions:
REMARK  status: ('A' for Active; 'I' for Inactive)
ROOT
HETATM    1  C   UNL     1      63.231   6.748   4.416  1.00  0.00     0.147 A 
HETATM    2  N   UNL     1      64.193   7.647   4.457  1.00  0.00    -0.336 N 
ATOM      3  HN  UNL     1      64.305   8.400   3.778  1.00  0.00     0.168 HD
HETATM    4  S   UNL     1      63.317   5.591   5.704  1.00  0.00    -0.052 SA
HETATM    5  C   UNL     1      64.718   6.342   6.330  1.00  0.00     0.036 A 
HETATM    6  N   UNL     1      62.267   6.718   3.450  1.00  0.00    -0.360 N 
HETATM    7  C   UNL     1      65.031   7.442   5.537  1.00  0.00     0.051 A 
HETATM    8  C   UNL     1      65.478   5.983   7.454  1.00  0.00     0.045 A 
HETATM    9  N   UNL     1      59.837   8.077   2.229  1.00  0.00    -0.074 N 
HETATM   10  C   UNL     1      66.141   8.237   5.893  1.00  0.00     0.032 A 
HETATM   11  C   UNL     1      66.565   6.790   7.788  1.00  0.00     0.035 A 
HETATM   12  C   UNL     1      66.894   7.908   7.025  1.00  0.00     0.026 A 
HETATM   13  C   UNL     1      61.171   5.763   3.447  1.00  0.00     0.126 C 
HETATM   14 CL   UNL     1      67.505   6.394   9.174  1.00  0.00    -0.084 Cl
HETATM   15  C   UNL     1      62.352   7.635   2.309  1.00  0.00     0.152 C 
HETATM   16  C   UNL     1      59.911   6.329   4.093  1.00  0.00     0.047 C 
HETATM   17  C   UNL     1      59.387   7.664   3.554  1.00  0.00     0.234 C 
HETATM   18  C   UNL     1      61.193   8.653   2.277  1.00  0.00     0.252 C 
HETATM   19  H   UNL     1      59.844   7.265   1.612  1.00  0.00     0.277 HD
HETATM   20  H   UNL     1      59.198   8.792   1.881  1.00  0.00     0.277 HD
ENDROOT
TORSDOF 0
ENDMDL
MODEL 5
REMARK VINA RESULT:      -4.6      3.322      3.732
REMARK  0 active torsions:
REMARK  status: ('A' for Active; 'I' for Inactive)
ROOT
HETATM    1  C   UNL     1      63.383   6.195   5.585  1.00  0.00     0.147 A 
HETATM    2  N   UNL     1      62.474   5.850   6.475  1.00  0.00    -0.336 N 
ATOM      3  HN  UNL     1      62.689   5.480   7.401  1.00  0.00     0.168 HD
HETATM    4  S   UNL     1      62.703   6.778   4.100  1.00  0.00    -0.052 SA
HETATM    5  C   UNL     1      61.119   6.543   4.694  1.00  0.00     0.036 A 
HETATM    6  N   UNL     1      64.727   6.093   5.800  1.00  0.00    -0.360 N 
HETATM    7  C   UNL     1      61.193   6.053   5.995  1.00  0.00     0.051 A 
HETATM    8  C   UNL     1      59.895   6.787   4.050  1.00  0.00     0.045 A 
HETATM    9  N   UNL     1      67.144   7.096   7.347  1.00  0.00    -0.074 N 
HETATM   10  C   UNL     1      59.994   5.817   6.697  1.00  0.00     0.032 A 
HETATM   11  C   UNL     1      58.725   6.553   4.771  1.00  0.00     0.035 A 
HETATM   12  C   UNL     1      58.766   6.079   6.080  1.00  0.00     0.026 A 
HETATM   13  C   UNL     1      65.723   6.537   4.839  1.00  0.00     0.126 C 
HETATM   14 CL   UNL     1      57.206   6.864   4.022  1.00  0.00    -0.084 Cl
HETATM   15  C   UNL     1      65.221   5.447   7.020  1.00  0.00     0.152 C 
HETATM   16  C   UNL     1      66.211   7.953   5.126  1.00  0.00     0.047 C 
HETATM   17  C   UNL     1      66.741   8.240   6.535  1.00  0.00     0.234 C 
HETATM   18  C   UNL     1      65.977   6.423   7.946  1.00  0.00     0.252 C 
HETATM   19  H   UNL     1      67.645   6.431   6.759  1.00  0.00     0.277 HD
HETATM   20  H   UNL     1      67.740   7.434   8.103  1.00  0.00     0.277 HD
ENDROOT
TORSDOF 0
ENDMDL
MODEL 6
REMARK VINA RESULT:      -4.6      4.681      6.572
REMARK  0 active torsions:
REMARK  status: ('A' for Active; 'I' for Inactive)
ROOT
HETATM    1  C   UNL     1      60.875   6.432   5.037  1.00  0.00     0.147 A 
HETATM    2  N   UNL     1      61.541   7.381   4.410  1.00  0.00    -0.336 N 
ATOM      3  HN  UNL     1      61.160   7.942   3.648  1.00  0.00     0.168 HD
HETATM    4  S   UNL     1      61.799   5.651   6.279  1.00  0.00    -0.052 SA
HETATM    5  C   UNL     1      63.152   6.638   5.941  1.00  0.00     0.036 A 
HETATM    6  N   UNL     1      59.590   6.085   4.734  1.00  0.00    -0.360 N 
HETATM    7  C   UNL     1      62.820   7.521   4.916  1.00  0.00     0.051 A 
HETATM    8  C   UNL     1      64.415   6.635   6.552  1.00  0.00     0.045 A 
HETATM    9  N   UNL     1      56.663   6.905   4.725  1.00  0.00    -0.074 N 
HETATM   10  C   UNL     1      63.785   8.459   4.495  1.00  0.00     0.032 A 
HETATM   11  C   UNL     1      65.347   7.579   6.122  1.00  0.00     0.035 A 
HETATM   12  C   UNL     1      65.040   8.486   5.111  1.00  0.00     0.026 A 
HETATM   13  C   UNL     1      58.840   5.083   5.472  1.00  0.00     0.126 C 
HETATM   14 CL   UNL     1      66.899   7.619   6.866  1.00  0.00    -0.084 Cl
HETATM   15  C   UNL     1      58.930   6.685   3.570  1.00  0.00     0.152 C 
HETATM   16  C   UNL     1      57.970   5.700   6.562  1.00  0.00     0.047 C 
HETATM   17  C   UNL     1      57.003   6.811   6.141  1.00  0.00     0.234 C 
HETATM   18  C   UNL     1      57.730   7.573   3.958  1.00  0.00     0.252 C 
HETATM   19  H   UNL     1      56.526   5.966   4.353  1.00  0.00     0.277 HD
HETATM   20  H   UNL     1      55.811   7.459   4.636  1.00  0.00     0.277 HD
ENDROOT
TORSDOF 0
ENDMDL
MODEL 7
REMARK VINA RESULT:      -4.5      3.035      4.211
REMARK  0 active torsions:
REMARK  status: ('A' for Active; 'I' for Inactive)
ROOT
HETATM    1  C   UNL     1      62.460   6.019   4.295  1.00  0.00     0.147 A 
HETATM    2  N   UNL     1      62.458   6.178   2.988  1.00  0.00    -0.336 N 
ATOM      3  HN  UNL     1      62.566   5.417   2.316  1.00  0.00     0.168 HD
HETATM    4  S   UNL     1      62.268   7.505   5.168  1.00  0.00    -0.052 SA
HETATM    5  C   UNL     1      62.187   8.390   3.709  1.00  0.00     0.036 A 
HETATM    6  N   UNL     1      62.612   4.809   4.909  1.00  0.00    -0.360 N 
HETATM    7  C   UNL     1      62.290   7.506   2.639  1.00  0.00     0.051 A 
HETATM    8  C   UNL     1      62.031   9.774   3.530  1.00  0.00     0.045 A 
HETATM    9  N   UNL     1      61.423   2.068   5.469  1.00  0.00    -0.074 N 
HETATM   10  C   UNL     1      62.213   8.019   1.328  1.00  0.00     0.032 A 
HETATM   11  C   UNL     1      61.949  10.254   2.223  1.00  0.00     0.035 A 
HETATM   12  C   UNL     1      62.032   9.393   1.132  1.00  0.00     0.026 A 
HETATM   13  C   UNL     1      62.548   4.633   6.350  1.00  0.00     0.126 C 
HETATM   14 CL   UNL     1      61.734  11.942   1.965  1.00  0.00    -0.084 Cl
HETATM   15  C   UNL     1      62.925   3.622   4.107  1.00  0.00     0.152 C 
HETATM   16  C   UNL     1      61.157   4.223   6.820  1.00  0.00     0.047 C 
HETATM   17  C   UNL     1      60.527   2.993   6.157  1.00  0.00     0.234 C 
HETATM   18  C   UNL     1      61.795   2.572   4.135  1.00  0.00     0.252 C 
HETATM   19  H   UNL     1      62.268   1.949   6.026  1.00  0.00     0.277 HD
HETATM   20  H   UNL     1      60.936   1.179   5.351  1.00  0.00     0.277 HD
ENDROOT
TORSDOF 0
ENDMDL
MODEL 8
REMARK VINA RESULT:      -4.4      5.303      6.249
REMARK  0 active torsions:
REMARK  status: ('A' for Active; 'I' for Inactive)
ROOT
HETATM    1  C   UNL     1      60.039   6.859   4.311  1.00  0.00     0.147 A 
HETATM    2  N   UNL     1      59.417   6.231   5.288  1.00  0.00    -0.336 N 
ATOM      3  HN  UNL     1      59.876   5.878   6.129  1.00  0.00     0.168 HD
HETATM    4  S   UNL     1      58.987   7.326   3.015  1.00  0.00    -0.052 SA
HETATM    5  C   UNL     1      57.642   6.640   3.815  1.00  0.00     0.036 A 
HETATM    6  N   UNL     1      61.382   7.108   4.308  1.00  0.00    -0.360 N 
HETATM    7  C   UNL     1      58.063   6.112   5.032  1.00  0.00     0.051 A 
HETATM    8  C   UNL     1      56.304   6.587   3.393  1.00  0.00     0.045 A 
HETATM    9  N   UNL     1      63.695   8.627   5.565  1.00  0.00    -0.074 N 
HETATM   10  C   UNL     1      57.104   5.522   5.881  1.00  0.00     0.032 A 
HETATM   11  C   UNL     1      55.375   6.005   4.256  1.00  0.00     0.035 A 
HETATM   12  C   UNL     1      55.762   5.483   5.487  1.00  0.00     0.026 A 
HETATM   13  C   UNL     1      62.050   7.858   3.258  1.00  0.00     0.126 C 
HETATM   14 CL   UNL     1      53.721   5.943   3.782  1.00  0.00    -0.084 Cl
HETATM   15  C   UNL     1      62.228   6.546   5.366  1.00  0.00     0.152 C 
HETATM   16  C   UNL     1      62.205   9.333   3.612  1.00  0.00     0.047 C 
HETATM   17  C   UNL     1      62.880   9.667   4.946  1.00  0.00     0.234 C 
HETATM   18  C   UNL     1      62.860   7.631   6.261  1.00  0.00     0.252 C 
HETATM   19  H   UNL     1      64.239   8.157   4.843  1.00  0.00     0.277 HD
HETATM   20  H   UNL     1      64.308   9.067   6.253  1.00  0.00     0.277 HD
ENDROOT
TORSDOF 0
ENDMDL
MODEL 9
REMARK VINA RESULT:      -4.4      4.723      5.268
REMARK  0 active torsions:
REMARK  status: ('A' for Active; 'I' for Inactive)
ROOT
HETATM    1  C   UNL     1      61.568   6.142   5.637  1.00  0.00     0.147 A 
HETATM    2  N   UNL     1      61.136   5.782   6.829  1.00  0.00    -0.336 N 
ATOM      3  HN  UNL     1      61.743   5.504   7.601  1.00  0.00     0.168 HD
HETATM    4  S   UNL     1      60.291   6.546   4.537  1.00  0.00    -0.052 SA
HETATM    5  C   UNL     1      59.113   6.211   5.728  1.00  0.00     0.036 A 
HETATM    6  N   UNL     1      62.889   6.181   5.293  1.00  0.00    -0.360 N 
HETATM    7  C   UNL     1      59.756   5.829   6.902  1.00  0.00     0.051 A 
HETATM    8  C   UNL     1      57.715   6.293   5.627  1.00  0.00     0.045 A 
HETATM    9  N   UNL     1      65.590   7.516   5.698  1.00  0.00    -0.074 N 
HETATM   10  C   UNL     1      58.972   5.536   8.037  1.00  0.00     0.032 A 
HETATM   11  C   UNL     1      56.964   6.005   6.767  1.00  0.00     0.035 A 
HETATM   12  C   UNL     1      57.578   5.637   7.961  1.00  0.00     0.026 A 
HETATM   13  C   UNL     1      63.362   6.641   3.998  1.00  0.00     0.126 C 
HETATM   14 CL   UNL     1      55.249   6.118   6.686  1.00  0.00    -0.084 Cl
HETATM   15  C   UNL     1      63.899   5.676   6.229  1.00  0.00     0.152 C 
HETATM   16  C   UNL     1      63.757   8.113   4.018  1.00  0.00     0.047 C 
HETATM   17  C   UNL     1      64.768   8.553   5.083  1.00  0.00     0.234 C 
HETATM   18  C   UNL     1      64.844   6.784   6.738  1.00  0.00     0.252 C 
HETATM   19  H   UNL     1      65.887   6.857   4.979  1.00  0.00     0.277 HD
HETATM   20  H   UNL     1      66.395   7.963   6.137  1.00  0.00     0.277 HD
ENDROOT
TORSDOF 0
ENDMDL
