MODEL 1
REMARK VINA RESULT:      -5.6      0.000      0.000
REMARK  2 active torsions:
REMARK  status: ('A' for Active; 'I' for Inactive)
REMARK    1  A    between atoms: C_1  and  N_6 
REMARK    2  A    between atoms: C_2  and  C_3 
ROOT
HETATM    1  C   UNL     1      65.122   6.892   6.420  1.00  0.00     0.104 A 
HETATM    2  C   UNL     1      63.386   8.468   4.920  1.00  0.00     0.065 A 
HETATM    3  N   UNL     1      63.783   6.757   6.588  1.00  0.00    -0.354 N 
ATOM      4  HN  UNL     1      63.406   6.088   7.260  1.00  0.00     0.166 HD
HETATM    5  C   UNL     1      65.641   7.832   5.507  1.00  0.00     0.073 A 
HETATM    6  C   UNL     1      64.764   8.621   4.760  1.00  0.00     0.044 A 
HETATM    7  C   UNL     1      62.957   7.531   5.842  1.00  0.00     0.105 A 
HETATM    8 CL   UNL     1      67.335   8.019   5.214  1.00  0.00    -0.081 Cl
ENDROOT
BRANCH   1   9
HETATM    9  N   UNL     1      65.984   6.049   7.147  1.00  0.00    -0.266 NA
HETATM   10  C   UNL     1      65.607   4.632   7.142  1.00  0.00     0.098 C 
HETATM   11  C   UNL     1      66.839   3.756   6.935  1.00  0.00     0.042 C 
HETATM   12  C   UNL     1      68.075   4.056   7.789  1.00  0.00     0.233 C 
HETATM   13  N   UNL     1      67.859   4.675   9.095  1.00  0.00    -0.074 N 
HETATM   14  C   UNL     1      67.667   6.133   8.971  1.00  0.00     0.247 C 
HETATM   15  H   UNL     1      67.029   4.266   9.524  1.00  0.00     0.277 HD
HETATM   16  H   UNL     1      68.683   4.506   9.672  1.00  0.00     0.277 HD
HETATM   17  C   UNL     1      66.270   6.580   8.496  1.00  0.00     0.124 C 
ENDBRANCH   1   9
BRANCH   2  18
HETATM   18  C   UNL     1      62.387   9.252   4.132  1.00  0.00     0.418 C 
HETATM   19  F   UNL     1      62.077  10.453   4.691  1.00  0.00    -0.166 F 
HETATM   20  F   UNL     1      62.819   9.526   2.871  1.00  0.00    -0.166 F 
HETATM   21  F   UNL     1      61.204   8.591   3.988  1.00  0.00    -0.166 F 
ENDBRANCH   2  18
TORSDOF 2
ENDMDL
MODEL 2
REMARK VINA RESULT:      -5.4      1.870      2.408
REMARK  2 active torsions:
REMARK  status: ('A' for Active; 'I' for Inactive)
REMARK    1  A    between atoms: C_1  and  N_6 
REMARK    2  A    between atoms: C_2  and  C_3 
ROOT
HETATM    1  C   UNL     1      64.709   7.680   4.984  1.00  0.00     0.104 A 
HETATM    2  C   UNL     1      62.804   8.904   3.367  1.00  0.00     0.065 A 
HETATM    3  N   UNL     1      64.153   8.853   5.377  1.00  0.00    -0.354 N 
ATOM      4  HN  UNL     1      64.428   9.293   6.255  1.00  0.00     0.166 HD
HETATM    5  C   UNL     1      64.343   7.086   3.760  1.00  0.00     0.073 A 
HETATM    6  C   UNL     1      63.389   7.707   2.952  1.00  0.00     0.044 A 
HETATM    7  C   UNL     1      63.223   9.427   4.575  1.00  0.00     0.105 A 
HETATM    8 CL   UNL     1      64.980   5.569   3.226  1.00  0.00    -0.081 Cl
ENDROOT
BRANCH   1   9
HETATM    9  N   UNL     1      65.629   7.047   5.840  1.00  0.00    -0.266 NA
HETATM   10  C   UNL     1      65.078   6.618   7.130  1.00  0.00     0.098 C 
HETATM   11  C   UNL     1      65.580   5.222   7.484  1.00  0.00     0.042 C 
HETATM   12  C   UNL     1      67.081   4.950   7.342  1.00  0.00     0.233 C 
HETATM   13  N   UNL     1      67.989   6.086   7.486  1.00  0.00    -0.074 N 
HETATM   14  C   UNL     1      68.075   6.865   6.236  1.00  0.00     0.247 C 
HETATM   15  H   UNL     1      67.648   6.692   8.232  1.00  0.00     0.277 HD
HETATM   16  H   UNL     1      68.919   5.729   7.708  1.00  0.00     0.277 HD
HETATM   17  C   UNL     1      66.889   7.811   5.961  1.00  0.00     0.124 C 
ENDBRANCH   1   9
BRANCH   2  18
HETATM   18  C   UNL     1      61.752   9.609   2.572  1.00  0.00     0.418 C 
HETATM   19  F   UNL     1      60.609   8.886   2.424  1.00  0.00    -0.166 F 
HETATM   20  F   UNL     1      61.378  10.789   3.137  1.00  0.00    -0.166 F 
HETATM   21  F   UNL     1      62.168   9.912   1.311  1.00  0.00    -0.166 F 
ENDBRANCH   2  18
TORSDOF 2
ENDMDL
MODEL 3
REMARK VINA RESULT:      -5.4      4.088      6.774
REMARK  2 active torsions:
REMARK  status: ('A' for Active; 'I' for Inactive)
REMARK    1  A    between atoms: C_1  and  N_6 
REMARK    2  A    between atoms: C_2  and  C_3 
ROOT
HETATM    1  C   UNL     1      63.380   7.965   3.595  1.00  0.00     0.104 A 
HETATM    2  C   UNL     1      65.703   7.835   5.123  1.00  0.00     0.065 A 
HETATM    3  N   UNL     1      63.592   8.885   4.569  1.00  0.00    -0.354 N 
ATOM      4  HN  UNL     1      62.908   9.620   4.751  1.00  0.00     0.166 HD
HETATM    5  C   UNL     1      64.316   6.937   3.362  1.00  0.00     0.073 A 
HETATM    6  C   UNL     1      65.478   6.877   4.135  1.00  0.00     0.044 A 
HETATM    7  C   UNL     1      64.733   8.805   5.296  1.00  0.00     0.105 A 
HETATM    8 CL   UNL     1      64.127   5.764   2.106  1.00  0.00    -0.081 Cl
ENDROOT
BRANCH   1   9
HETATM    9  N   UNL     1      62.227   8.078   2.796  1.00  0.00    -0.266 NA
HETATM   10  C   UNL     1      62.301   9.102   1.750  1.00  0.00     0.098 C 
HETATM   11  C   UNL     1      61.725   8.568   0.442  1.00  0.00     0.042 C 
HETATM   12  C   UNL     1      60.371   7.854   0.503  1.00  0.00     0.233 C 
HETATM   13  N   UNL     1      59.455   8.234   1.577  1.00  0.00    -0.074 N 
HETATM   14  C   UNL     1      59.800   7.555   2.840  1.00  0.00     0.247 C 
HETATM   15  H   UNL     1      59.507   9.243   1.717  1.00  0.00     0.277 HD
HETATM   16  H   UNL     1      58.511   7.957   1.308  1.00  0.00     0.277 HD
HETATM   17  C   UNL     1      60.996   8.152   3.609  1.00  0.00     0.124 C 
ENDBRANCH   1   9
BRANCH   2  18
HETATM   18  C   UNL     1      66.938   7.855   5.966  1.00  0.00     0.418 C 
HETATM   19  F   UNL     1      68.075   8.087   5.256  1.00  0.00    -0.166 F 
HETATM   20  F   UNL     1      66.895   8.816   6.928  1.00  0.00    -0.166 F 
HETATM   21  F   UNL     1      67.140   6.678   6.620  1.00  0.00    -0.166 F 
ENDBRANCH   2  18
TORSDOF 2
ENDMDL
MODEL 4
REMARK VINA RESULT:      -5.2      4.015      6.451
REMARK  2 active torsions:
REMARK  status: ('A' for Active; 'I' for Inactive)
REMARK    1  A    between atoms: C_1  and  N_6 
REMARK    2  A    between atoms: C_2  and  C_3 
ROOT
HETATM    1  C   UNL     1      64.097   7.706   5.401  1.00  0.00     0.104 A 
HETATM    2  C   UNL     1      65.905   6.712   7.269  1.00  0.00     0.065 A 
HETATM    3  N   UNL     1      65.237   8.395   5.660  1.00  0.00    -0.354 N 
ATOM      4  HN  UNL     1      65.436   9.273   5.182  1.00  0.00     0.166 HD
HETATM    5  C   UNL     1      63.814   6.503   6.080  1.00  0.00     0.073 A 
HETATM    6  C   UNL     1      64.725   6.013   7.018  1.00  0.00     0.044 A 
HETATM    7  C   UNL     1      66.105   7.888   6.570  1.00  0.00     0.105 A 
HETATM    8 CL   UNL     1      62.403   5.556   5.760  1.00  0.00    -0.081 Cl
ENDROOT
BRANCH   1   9
HETATM    9  N   UNL     1      63.221   8.194   4.414  1.00  0.00    -0.266 NA
HETATM   10  C   UNL     1      63.437   7.644   3.072  1.00  0.00     0.098 C 
HETATM   11  C   UNL     1      62.102   7.302   2.418  1.00  0.00     0.042 C 
HETATM   12  C   UNL     1      60.993   8.358   2.473  1.00  0.00     0.233 C 
HETATM   13  N   UNL     1      61.399   9.759   2.562  1.00  0.00    -0.074 N 
HETATM   14  C   UNL     1      61.738  10.132   3.949  1.00  0.00     0.247 C 
HETATM   15  H   UNL     1      62.216   9.907   1.969  1.00  0.00     0.277 HD
HETATM   16  H   UNL     1      60.620  10.340   2.253  1.00  0.00     0.277 HD
HETATM   17  C   UNL     1      63.124   9.668   4.440  1.00  0.00     0.124 C 
ENDBRANCH   1   9
BRANCH   2  18
HETATM   18  C   UNL     1      66.942   6.231   8.233  1.00  0.00     0.418 C 
HETATM   19  F   UNL     1      68.074   5.777   7.630  1.00  0.00    -0.166 F 
HETATM   20  F   UNL     1      67.342   7.206   9.094  1.00  0.00    -0.166 F 
HETATM   21  F   UNL     1      66.494   5.206   9.010  1.00  0.00    -0.166 F 
ENDBRANCH   2  18
TORSDOF 2
ENDMDL
MODEL 5
REMARK VINA RESULT:      -4.8      1.815      2.057
REMARK  2 active torsions:
REMARK  status: ('A' for Active; 'I' for Inactive)
REMARK    1  A    between atoms: C_1  and  N_6 
REMARK    2  A    between atoms: C_2  and  C_3 
ROOT
HETATM    1  C   UNL     1      64.494   6.673   5.200  1.00  0.00     0.104 A 
HETATM    2  C   UNL     1      63.043   8.883   4.330  1.00  0.00     0.065 A 
HETATM    3  N   UNL     1      63.351   6.486   4.494  1.00  0.00    -0.354 N 
ATOM      4  HN  UNL     1      63.016   5.547   4.282  1.00  0.00     0.166 HD
HETATM    5  C   UNL     1      64.943   7.973   5.510  1.00  0.00     0.073 A 
HETATM    6  C   UNL     1      64.208   9.076   5.072  1.00  0.00     0.044 A 
HETATM    7  C   UNL     1      62.665   7.578   4.076  1.00  0.00     0.105 A 
HETATM    8 CL   UNL     1      66.415   8.277   6.365  1.00  0.00    -0.081 Cl
ENDROOT
BRANCH   1   9
HETATM    9  N   UNL     1      65.244   5.546   5.585  1.00  0.00    -0.266 NA
HETATM   10  C   UNL     1      66.269   5.131   4.622  1.00  0.00     0.098 C 
HETATM   11  C   UNL     1      67.565   4.777   5.346  1.00  0.00     0.042 C 
HETATM   12  C   UNL     1      67.466   3.857   6.568  1.00  0.00     0.233 C 
HETATM   13  N   UNL     1      66.349   2.917   6.616  1.00  0.00    -0.074 N 
HETATM   14  C   UNL     1      65.116   3.574   7.089  1.00  0.00     0.247 C 
HETATM   15  H   UNL     1      66.188   2.542   5.681  1.00  0.00     0.277 HD
HETATM   16  H   UNL     1      66.586   2.168   7.268  1.00  0.00     0.277 HD
HETATM   17  C   UNL     1      64.381   4.438   6.044  1.00  0.00     0.124 C 
ENDBRANCH   1   9
BRANCH   2  18
HETATM   18  C   UNL     1      62.223  10.015   3.799  1.00  0.00     0.418 C 
HETATM   19  F   UNL     1      62.442  11.192   4.445  1.00  0.00    -0.166 F 
HETATM   20  F   UNL     1      62.466  10.260   2.483  1.00  0.00    -0.166 F 
HETATM   21  F   UNL     1      60.885   9.778   3.896  1.00  0.00    -0.166 F 
ENDBRANCH   2  18
TORSDOF 2
ENDMDL
MODEL 6
REMARK VINA RESULT:      -4.7      3.840      6.536
REMARK  2 active torsions:
REMARK  status: ('A' for Active; 'I' for Inactive)
REMARK    1  A    between atoms: C_1  and  N_6 
REMARK    2  A    between atoms: C_2  and  C_3 
ROOT
HETATM    1  C   UNL     1      62.828   7.533   4.192  1.00  0.00     0.104 A 
HETATM    2  C   UNL     1      65.348   7.826   5.336  1.00  0.00     0.065 A 
HETATM    3  N   UNL     1      63.602   6.437   4.392  1.00  0.00    -0.354 N 
ATOM      4  HN  UNL     1      63.274   5.510   4.125  1.00  0.00     0.166 HD
HETATM    5  C   UNL     1      63.294   8.816   4.543  1.00  0.00     0.073 A 
HETATM    6  C   UNL     1      64.560   8.956   5.113  1.00  0.00     0.044 A 
HETATM    7  C   UNL     1      64.824   6.604   4.956  1.00  0.00     0.105 A 
HETATM    8 CL   UNL     1      62.337  10.244   4.356  1.00  0.00    -0.081 Cl
ENDROOT
BRANCH   1   9
HETATM    9  N   UNL     1      61.535   7.361   3.664  1.00  0.00    -0.266 NA
HETATM   10  C   UNL     1      60.780   6.241   4.235  1.00  0.00     0.098 C 
HETATM   11  C   UNL     1      59.338   6.657   4.508  1.00  0.00     0.042 C 
HETATM   12  C   UNL     1      58.588   7.391   3.391  1.00  0.00     0.233 C 
HETATM   13  N   UNL     1      59.000   7.127   2.015  1.00  0.00    -0.074 N 
HETATM   14  C   UNL     1      60.191   7.918   1.650  1.00  0.00     0.247 C 
HETATM   15  H   UNL     1      59.218   6.135   1.917  1.00  0.00     0.277 HD
HETATM   16  H   UNL     1      58.236   7.390   1.393  1.00  0.00     0.277 HD
HETATM   17  C   UNL     1      61.534   7.380   2.186  1.00  0.00     0.124 C 
ENDBRANCH   1   9
BRANCH   2  18
HETATM   18  C   UNL     1      66.699   7.893   5.973  1.00  0.00     0.418 C 
HETATM   19  F   UNL     1      67.075   6.730   6.570  1.00  0.00    -0.166 F 
HETATM   20  F   UNL     1      67.680   8.190   5.079  1.00  0.00    -0.166 F 
HETATM   21  F   UNL     1      66.770   8.850   6.940  1.00  0.00    -0.166 F 
ENDBRANCH   2  18
TORSDOF 2
ENDMDL
MODEL 7
REMARK VINA RESULT:      -4.4      2.372      3.343
REMARK  2 active torsions:
REMARK  status: ('A' for Active; 'I' for Inactive)
REMARK    1  A    between atoms: C_1  and  N_6 
REMARK    2  A    between atoms: C_2  and  C_3 
ROOT
HETATM    1  C   UNL     1      64.066   6.919   4.455  1.00  0.00     0.104 A 
HETATM    2  C   UNL     1      62.610   7.923   2.307  1.00  0.00     0.065 A 
HETATM    3  N   UNL     1      64.315   6.455   3.205  1.00  0.00    -0.354 N 
ATOM      4  HN  UNL     1      65.025   5.742   3.044  1.00  0.00     0.166 HD
HETATM    5  C   UNL     1      63.068   7.889   4.677  1.00  0.00     0.073 A 
HETATM    6  C   UNL     1      62.340   8.386   3.595  1.00  0.00     0.044 A 
HETATM    7  C   UNL     1      63.597   6.964   2.174  1.00  0.00     0.105 A 
HETATM    8 CL   UNL     1      62.737   8.553   6.239  1.00  0.00    -0.081 Cl
ENDROOT
BRANCH   1   9
HETATM    9  N   UNL     1      64.849   6.440   5.522  1.00  0.00    -0.266 NA
HETATM   10  C   UNL     1      66.199   7.009   5.599  1.00  0.00     0.098 C 
HETATM   11  C   UNL     1      66.548   7.355   7.044  1.00  0.00     0.042 C 
HETATM   12  C   UNL     1      66.271   6.294   8.114  1.00  0.00     0.233 C 
HETATM   13  N   UNL     1      66.290   4.894   7.697  1.00  0.00    -0.074 N 
HETATM   14  C   UNL     1      65.013   4.504   7.069  1.00  0.00     0.247 C 
HETATM   15  H   UNL     1      67.046   4.756   7.026  1.00  0.00     0.277 HD
HETATM   16  H   UNL     1      66.433   4.313   8.524  1.00  0.00     0.277 HD
HETATM   17  C   UNL     1      64.824   4.965   5.610  1.00  0.00     0.124 C 
ENDBRANCH   1   9
BRANCH   2  18
HETATM   18  C   UNL     1      61.895   8.432   1.096  1.00  0.00     0.418 C 
HETATM   19  F   UNL     1      61.241   7.461   0.404  1.00  0.00    -0.166 F 
HETATM   20  F   UNL     1      60.959   9.370   1.402  1.00  0.00    -0.166 F 
HETATM   21  F   UNL     1      62.739   9.022   0.204  1.00  0.00    -0.166 F 
ENDBRANCH   2  18
TORSDOF 2
ENDMDL
MODEL 8
REMARK VINA RESULT:      -4.3      5.157      7.085
REMARK  2 active torsions:
REMARK  status: ('A' for Active; 'I' for Inactive)
REMARK    1  A    between atoms: C_1  and  N_6 
REMARK    2  A    between atoms: C_2  and  C_3 
ROOT
HETATM    1  C   UNL     1      59.870   7.537   3.497  1.00  0.00     0.104 A 
HETATM    2  C   UNL     1      57.293   6.693   2.875  1.00  0.00     0.065 A 
HETATM    3  N   UNL     1      59.296   7.943   2.338  1.00  0.00    -0.354 N 
ATOM      4  HN  UNL     1      59.799   8.550   1.691  1.00  0.00     0.166 HD
HETATM    5  C   UNL     1      59.181   6.681   4.379  1.00  0.00     0.073 A 
HETATM    6  C   UNL     1      57.890   6.259   4.059  1.00  0.00     0.044 A 
HETATM    7  C   UNL     1      58.038   7.524   2.059  1.00  0.00     0.105 A 
HETATM    8 CL   UNL     1      59.840   6.166   5.893  1.00  0.00    -0.081 Cl
ENDROOT
BRANCH   1   9
HETATM    9  N   UNL     1      61.153   8.018   3.822  1.00  0.00    -0.266 NA
HETATM   10  C   UNL     1      61.501   9.304   3.211  1.00  0.00     0.098 C 
HETATM   11  C   UNL     1      62.191  10.206   4.230  1.00  0.00     0.042 C 
HETATM   12  C   UNL     1      63.325   9.599   5.062  1.00  0.00     0.233 C 
HETATM   13  N   UNL     1      64.076   8.493   4.474  1.00  0.00    -0.074 N 
HETATM   14  C   UNL     1      63.359   7.213   4.632  1.00  0.00     0.247 C 
HETATM   15  H   UNL     1      64.214   8.675   3.480  1.00  0.00     0.277 HD
HETATM   16  H   UNL     1      64.974   8.420   4.954  1.00  0.00     0.277 HD
HETATM   17  C   UNL     1      62.192   6.981   3.651  1.00  0.00     0.124 C 
ENDBRANCH   1   9
BRANCH   2  18
HETATM   18  C   UNL     1      55.902   6.311   2.481  1.00  0.00     0.418 C 
HETATM   19  F   UNL     1      55.456   6.957   1.371  1.00  0.00    -0.166 F 
HETATM   20  F   UNL     1      55.784   4.982   2.214  1.00  0.00    -0.166 F 
HETATM   21  F   UNL     1      54.993   6.579   3.460  1.00  0.00    -0.166 F 
ENDBRANCH   2  18
TORSDOF 2
ENDMDL
MODEL 9
REMARK VINA RESULT:      -4.3      4.040      6.444
REMARK  2 active torsions:
REMARK  status: ('A' for Active; 'I' for Inactive)
REMARK    1  A    between atoms: C_1  and  N_6 
REMARK    2  A    between atoms: C_2  and  C_3 
ROOT
HETATM    1  C   UNL     1      63.053   7.112   4.446  1.00  0.00     0.104 A 
HETATM    2  C   UNL     1      65.300   7.410   6.061  1.00  0.00     0.065 A 
HETATM    3  N   UNL     1      64.171   7.685   3.936  1.00  0.00    -0.354 N 
ATOM      4  HN  UNL     1      64.196   8.012   2.970  1.00  0.00     0.166 HD
HETATM    5  C   UNL     1      63.014   6.682   5.787  1.00  0.00     0.073 A 
HETATM    6  C   UNL     1      64.144   6.837   6.592  1.00  0.00     0.044 A 
HETATM    7  C   UNL     1      65.255   7.815   4.740  1.00  0.00     0.105 A 
HETATM    8 CL   UNL     1      61.636   5.901   6.482  1.00  0.00    -0.081 Cl
ENDROOT
BRANCH   1   9
HETATM    9  N   UNL     1      61.945   6.919   3.600  1.00  0.00    -0.266 NA
HETATM   10  C   UNL     1      62.280   6.540   2.223  1.00  0.00     0.098 C 
HETATM   11  C   UNL     1      61.354   5.427   1.739  1.00  0.00     0.042 C 
HETATM   12  C   UNL     1      59.851   5.602   1.976  1.00  0.00     0.233 C 
HETATM   13  N   UNL     1      59.334   6.966   2.057  1.00  0.00    -0.074 N 
HETATM   14  C   UNL     1      59.549   7.541   3.399  1.00  0.00     0.247 C 
HETATM   15  H   UNL     1      59.813   7.545   1.367  1.00  0.00     0.277 HD
HETATM   16  H   UNL     1      58.331   6.943   1.873  1.00  0.00     0.277 HD
HETATM   17  C   UNL     1      60.981   8.035   3.687  1.00  0.00     0.124 C 
ENDBRANCH   1   9
BRANCH   2  18
HETATM   18  C   UNL     1      66.558   7.578   6.851  1.00  0.00     0.418 C 
HETATM   19  F   UNL     1      66.499   7.017   8.089  1.00  0.00    -0.166 F 
HETATM   20  F   UNL     1      67.635   7.019   6.237  1.00  0.00    -0.166 F 
HETATM   21  F   UNL     1      66.877   8.887   7.049  1.00  0.00    -0.166 F 
ENDBRANCH   2  18
TORSDOF 2
ENDMDL
