MODEL 1
REMARK VINA RESULT:      -5.6      0.000      0.000
REMARK  2 active torsions:
REMARK  status: ('A' for Active; 'I' for Inactive)
REMARK    1  A    between atoms: N_1  and  C_3 
REMARK    2  A    between atoms: C_3  and  C_4 
ROOT
HETATM    1  N   UNL     1      64.367   7.517   5.303  1.00  0.00    -0.066 N 
HETATM    2  N   UNL     1      66.928   6.333   6.656  1.00  0.00    -0.073 N 
HETATM    3  C   UNL     1      65.314   7.042   4.289  1.00  0.00     0.237 C 
HETATM    4  C   UNL     1      66.742   7.570   4.441  1.00  0.00     0.055 C 
HETATM    5  C   UNL     1      67.474   7.344   5.763  1.00  0.00     0.234 C 
HETATM    6  C   UNL     1      64.426   6.731   6.546  1.00  0.00     0.262 C 
HETATM    7  C   UNL     1      65.737   6.832   7.348  1.00  0.00     0.260 C 
HETATM    8  H   UNL     1      64.660   8.465   5.536  1.00  0.00     0.280 HD
HETATM    9  H   UNL     1      66.676   5.507   6.111  1.00  0.00     0.277 HD
HETATM   10  H   UNL     1      67.635   6.096   7.353  1.00  0.00     0.277 HD
ENDROOT
BRANCH   1  11
HETATM   11  C   UNL     1      62.985   7.596   4.781  1.00  0.00     0.273 C 
BRANCH  11  12
HETATM   12  C   UNL     1      62.615   8.824   3.967  1.00  0.00    -0.032 A 
HETATM   13  C   UNL     1      62.385   8.727   2.583  1.00  0.00     0.012 A 
HETATM   14  C   UNL     1      62.024   9.854   1.841  1.00  0.00     0.043 A 
HETATM   15  C   UNL     1      61.884  11.079   2.478  1.00  0.00     0.116 A 
HETATM   16  C   UNL     1      62.105  11.202   3.844  1.00  0.00     0.043 A 
HETATM   17  F   UNL     1      61.524  12.156   1.770  1.00  0.00    -0.206 F 
HETATM   18  C   UNL     1      62.471  10.076   4.588  1.00  0.00     0.012 A 
ENDBRANCH  11  12
ENDBRANCH   1  11
TORSDOF 2
ENDMDL
MODEL 2
REMARK VINA RESULT:      -5.2      3.078      6.039
REMARK  2 active torsions:
REMARK  status: ('A' for Active; 'I' for Inactive)
REMARK    1  A    between atoms: N_1  and  C_3 
REMARK    2  A    between atoms: C_3  and  C_4 
ROOT
HETATM    1  N   UNL     1      63.238   8.420   3.343  1.00  0.00    -0.066 N 
HETATM    2  N   UNL     1      61.195  10.425   2.078  1.00  0.00    -0.073 N 
HETATM    3  C   UNL     1      62.396   9.023   4.381  1.00  0.00     0.237 C 
HETATM    4  C   UNL     1      62.328  10.552   4.351  1.00  0.00     0.055 C 
HETATM    5  C   UNL     1      61.881  11.245   3.066  1.00  0.00     0.234 C 
HETATM    6  C   UNL     1      62.536   8.272   2.057  1.00  0.00     0.262 C 
HETATM    7  C   UNL     1      62.145   9.582   1.347  1.00  0.00     0.260 C 
HETATM    8  H   UNL     1      64.004   9.076   3.190  1.00  0.00     0.280 HD
HETATM    9  H   UNL     1      60.516   9.829   2.551  1.00  0.00     0.277 HD
HETATM   10  H   UNL     1      60.726  11.040   1.412  1.00  0.00     0.277 HD
ENDROOT
BRANCH   1  11
HETATM   11  C   UNL     1      63.832   7.139   3.781  1.00  0.00     0.273 C 
BRANCH  11  12
HETATM   12  C   UNL     1      64.734   7.170   5.004  1.00  0.00    -0.032 A 
HETATM   13  C   UNL     1      65.846   8.029   5.056  1.00  0.00     0.012 A 
HETATM   14  C   UNL     1      66.660   8.071   6.190  1.00  0.00     0.043 A 
HETATM   15  C   UNL     1      66.364   7.262   7.278  1.00  0.00     0.116 A 
HETATM   16  C   UNL     1      65.271   6.404   7.252  1.00  0.00     0.043 A 
HETATM   17  F   UNL     1      67.136   7.313   8.371  1.00  0.00    -0.206 F 
HETATM   18  C   UNL     1      64.458   6.358   6.117  1.00  0.00     0.012 A 
ENDBRANCH  11  12
ENDBRANCH   1  11
TORSDOF 2
ENDMDL
MODEL 3
REMARK VINA RESULT:      -5.0      1.315      2.257
REMARK  2 active torsions:
REMARK  status: ('A' for Active; 'I' for Inactive)
REMARK    1  A    between atoms: N_1  and  C_3 
REMARK    2  A    between atoms: C_3  and  C_4 
ROOT
HETATM    1  N   UNL     1      65.015   7.160   5.850  1.00  0.00    -0.066 N 
HETATM    2  N   UNL     1      68.075   6.773   6.379  1.00  0.00    -0.073 N 
HETATM    3  C   UNL     1      65.233   6.202   6.938  1.00  0.00     0.237 C 
HETATM    4  C   UNL     1      66.205   5.065   6.612  1.00  0.00     0.055 C 
HETATM    5  C   UNL     1      67.615   5.413   6.139  1.00  0.00     0.234 C 
HETATM    6  C   UNL     1      66.060   8.196   5.787  1.00  0.00     0.262 C 
HETATM    7  C   UNL     1      67.474   7.706   5.422  1.00  0.00     0.260 C 
HETATM    8  H   UNL     1      65.077   6.621   4.987  1.00  0.00     0.280 HD
HETATM    9  H   UNL     1      67.814   7.052   7.325  1.00  0.00     0.277 HD
HETATM   10  H   UNL     1      69.089   6.800   6.267  1.00  0.00     0.277 HD
ENDROOT
BRANCH   1  11
HETATM   11  C   UNL     1      63.665   7.762   5.900  1.00  0.00     0.273 C 
BRANCH  11  12
HETATM   12  C   UNL     1      63.113   8.347   4.611  1.00  0.00    -0.032 A 
HETATM   13  C   UNL     1      62.501   9.613   4.599  1.00  0.00     0.012 A 
HETATM   14  C   UNL     1      62.016  10.157   3.408  1.00  0.00     0.043 A 
HETATM   15  C   UNL     1      62.143   9.442   2.224  1.00  0.00     0.116 A 
HETATM   16  C   UNL     1      62.743   8.189   2.209  1.00  0.00     0.043 A 
HETATM   17  F   UNL     1      61.690   9.970   1.080  1.00  0.00    -0.206 F 
HETATM   18  C   UNL     1      63.227   7.642   3.400  1.00  0.00     0.012 A 
ENDBRANCH  11  12
ENDBRANCH   1  11
TORSDOF 2
ENDMDL
MODEL 4
REMARK VINA RESULT:      -5.0      3.317      4.738
REMARK  2 active torsions:
REMARK  status: ('A' for Active; 'I' for Inactive)
REMARK    1  A    between atoms: N_1  and  C_3 
REMARK    2  A    between atoms: C_3  and  C_4 
ROOT
HETATM    1  N   UNL     1      60.794   6.823   4.892  1.00  0.00    -0.066 N 
HETATM    2  N   UNL     1      58.219   5.419   5.985  1.00  0.00    -0.073 N 
HETATM    3  C   UNL     1      61.145   5.786   5.867  1.00  0.00     0.237 C 
HETATM    4  C   UNL     1      60.404   5.877   7.203  1.00  0.00     0.055 C 
HETATM    5  C   UNL     1      58.876   5.877   7.200  1.00  0.00     0.234 C 
HETATM    6  C   UNL     1      59.575   6.498   4.132  1.00  0.00     0.262 C 
HETATM    7  C   UNL     1      58.266   6.450   4.944  1.00  0.00     0.260 C 
HETATM    8  H   UNL     1      60.590   7.661   5.437  1.00  0.00     0.280 HD
HETATM    9  H   UNL     1      58.690   4.580   5.645  1.00  0.00     0.277 HD
HETATM   10  H   UNL     1      57.241   5.217   6.198  1.00  0.00     0.277 HD
ENDROOT
BRANCH   1  11
HETATM   11  C   UNL     1      61.920   7.144   3.989  1.00  0.00     0.273 C 
BRANCH  11  12
HETATM   12  C   UNL     1      61.932   8.524   3.352  1.00  0.00    -0.032 A 
HETATM   13  C   UNL     1      61.900   8.671   1.954  1.00  0.00     0.012 A 
HETATM   14  C   UNL     1      61.889   9.941   1.372  1.00  0.00     0.043 A 
HETATM   15  C   UNL     1      61.903  11.067   2.183  1.00  0.00     0.116 A 
HETATM   16  C   UNL     1      61.935  10.949   3.567  1.00  0.00     0.043 A 
HETATM   17  F   UNL     1      61.878  12.284   1.626  1.00  0.00    -0.206 F 
HETATM   18  C   UNL     1      61.950   9.680   4.151  1.00  0.00     0.012 A 
ENDBRANCH  11  12
ENDBRANCH   1  11
TORSDOF 2
ENDMDL
MODEL 5
REMARK VINA RESULT:      -4.9      2.562      4.084
REMARK  2 active torsions:
REMARK  status: ('A' for Active; 'I' for Inactive)
REMARK    1  A    between atoms: N_1  and  C_3 
REMARK    2  A    between atoms: C_3  and  C_4 
ROOT
HETATM    1  N   UNL     1      62.036   6.808   4.829  1.00  0.00    -0.066 N 
HETATM    2  N   UNL     1      60.849   3.946   5.268  1.00  0.00    -0.073 N 
HETATM    3  C   UNL     1      61.865   6.534   6.259  1.00  0.00     0.237 C 
HETATM    4  C   UNL     1      60.473   6.041   6.661  1.00  0.00     0.055 C 
HETATM    5  C   UNL     1      59.906   4.798   5.977  1.00  0.00     0.234 C 
HETATM    6  C   UNL     1      62.343   5.596   4.051  1.00  0.00     0.262 C 
HETATM    7  C   UNL     1      61.225   4.538   3.982  1.00  0.00     0.260 C 
HETATM    8  H   UNL     1      61.133   7.152   4.501  1.00  0.00     0.280 HD
HETATM    9  H   UNL     1      61.687   3.828   5.839  1.00  0.00     0.277 HD
HETATM   10  H   UNL     1      60.407   3.043   5.094  1.00  0.00     0.277 HD
ENDROOT
BRANCH   1  11
HETATM   11  C   UNL     1      63.032   7.873   4.581  1.00  0.00     0.273 C 
BRANCH  11  12
HETATM   12  C   UNL     1      62.576   9.085   3.787  1.00  0.00    -0.032 A 
HETATM   13  C   UNL     1      62.359  10.321   4.421  1.00  0.00     0.012 A 
HETATM   14  C   UNL     1      61.961  11.439   3.684  1.00  0.00     0.043 A 
HETATM   15  C   UNL     1      61.784  11.328   2.311  1.00  0.00     0.116 A 
HETATM   16  C   UNL     1      61.992  10.119   1.660  1.00  0.00     0.043 A 
HETATM   17  F   UNL     1      61.417  12.403   1.603  1.00  0.00    -0.206 F 
HETATM   18  C   UNL     1      62.387   8.998   2.397  1.00  0.00     0.012 A 
ENDBRANCH  11  12
ENDBRANCH   1  11
TORSDOF 2
ENDMDL
MODEL 6
REMARK VINA RESULT:      -4.5      3.290      6.040
REMARK  2 active torsions:
REMARK  status: ('A' for Active; 'I' for Inactive)
REMARK    1  A    between atoms: N_1  and  C_3 
REMARK    2  A    between atoms: C_3  and  C_4 
ROOT
HETATM    1  N   UNL     1      62.275   8.676   3.861  1.00  0.00    -0.066 N 
HETATM    2  N   UNL     1      59.985   8.255   1.769  1.00  0.00    -0.073 N 
HETATM    3  C   UNL     1      61.978   9.930   3.161  1.00  0.00     0.237 C 
HETATM    4  C   UNL     1      61.976   9.832   1.633  1.00  0.00     0.055 C 
HETATM    5  C   UNL     1      61.061   8.810   0.961  1.00  0.00     0.234 C 
HETATM    6  C   UNL     1      61.090   7.815   4.010  1.00  0.00     0.262 C 
HETATM    7  C   UNL     1      60.498   7.250   2.705  1.00  0.00     0.260 C 
HETATM    8  H   UNL     1      62.935   8.175   3.266  1.00  0.00     0.280 HD
HETATM    9  H   UNL     1      59.542   9.007   2.297  1.00  0.00     0.277 HD
HETATM   10  H   UNL     1      59.309   7.808   1.150  1.00  0.00     0.277 HD
ENDROOT
BRANCH   1  11
HETATM   11  C   UNL     1      62.938   8.908   5.162  1.00  0.00     0.273 C 
BRANCH  11  12
HETATM   12  C   UNL     1      64.114   8.013   5.516  1.00  0.00    -0.032 A 
HETATM   13  C   UNL     1      65.398   8.277   5.009  1.00  0.00     0.012 A 
HETATM   14  C   UNL     1      66.481   7.464   5.355  1.00  0.00     0.043 A 
HETATM   15  C   UNL     1      66.286   6.390   6.212  1.00  0.00     0.116 A 
HETATM   16  C   UNL     1      65.027   6.107   6.727  1.00  0.00     0.043 A 
HETATM   17  F   UNL     1      67.326   5.620   6.555  1.00  0.00    -0.206 F 
HETATM   18  C   UNL     1      63.942   6.917   6.379  1.00  0.00     0.012 A 
ENDBRANCH  11  12
ENDBRANCH   1  11
TORSDOF 2
ENDMDL
MODEL 7
REMARK VINA RESULT:      -4.5      4.053      5.196
REMARK  2 active torsions:
REMARK  status: ('A' for Active; 'I' for Inactive)
REMARK    1  A    between atoms: N_1  and  C_3 
REMARK    2  A    between atoms: C_3  and  C_4 
ROOT
HETATM    1  N   UNL     1      61.395   8.621   3.473  1.00  0.00    -0.066 N 
HETATM    2  N   UNL     1      63.693   9.551   5.383  1.00  0.00    -0.073 N 
HETATM    3  C   UNL     1      62.011   9.855   2.977  1.00  0.00     0.237 C 
HETATM    4  C   UNL     1      62.110  10.986   4.004  1.00  0.00     0.055 C 
HETATM    5  C   UNL     1      62.830  10.721   5.324  1.00  0.00     0.234 C 
HETATM    6  C   UNL     1      62.349   7.760   4.191  1.00  0.00     0.262 C 
HETATM    7  C   UNL     1      62.904   8.323   5.513  1.00  0.00     0.260 C 
HETATM    8  H   UNL     1      60.690   8.913   4.149  1.00  0.00     0.280 HD
HETATM    9  H   UNL     1      64.248   9.502   4.527  1.00  0.00     0.277 HD
HETATM   10  H   UNL     1      64.303   9.635   6.197  1.00  0.00     0.277 HD
ENDROOT
BRANCH   1  11
HETATM   11  C   UNL     1      60.700   7.875   2.402  1.00  0.00     0.273 C 
BRANCH  11  12
HETATM   12  C   UNL     1      59.234   7.541   2.623  1.00  0.00    -0.032 A 
HETATM   13  C   UNL     1      58.412   7.163   1.546  1.00  0.00     0.012 A 
HETATM   14  C   UNL     1      57.071   6.834   1.757  1.00  0.00     0.043 A 
HETATM   15  C   UNL     1      56.547   6.875   3.042  1.00  0.00     0.116 A 
HETATM   16  C   UNL     1      57.338   7.245   4.122  1.00  0.00     0.043 A 
HETATM   17  F   UNL     1      55.266   6.546   3.245  1.00  0.00    -0.206 F 
HETATM   18  C   UNL     1      58.679   7.578   3.914  1.00  0.00     0.012 A 
ENDBRANCH  11  12
ENDBRANCH   1  11
TORSDOF 2
ENDMDL
MODEL 8
REMARK VINA RESULT:      -4.3      3.532      5.021
REMARK  2 active torsions:
REMARK  status: ('A' for Active; 'I' for Inactive)
REMARK    1  A    between atoms: N_1  and  C_3 
REMARK    2  A    between atoms: C_3  and  C_4 
ROOT
HETATM    1  N   UNL     1      61.614   6.402   2.170  1.00  0.00    -0.066 N 
HETATM    2  N   UNL     1      59.304   4.297   2.339  1.00  0.00    -0.073 N 
HETATM    3  C   UNL     1      62.045   5.117   1.612  1.00  0.00     0.237 C 
HETATM    4  C   UNL     1      61.811   3.907   2.520  1.00  0.00     0.055 C 
HETATM    5  C   UNL     1      60.398   3.631   3.031  1.00  0.00     0.234 C 
HETATM    6  C   UNL     1      60.176   6.652   1.977  1.00  0.00     0.262 C 
HETATM    7  C   UNL     1      59.220   5.708   2.730  1.00  0.00     0.260 C 
HETATM    8  H   UNL     1      61.772   6.336   3.176  1.00  0.00     0.280 HD
HETATM    9  H   UNL     1      59.460   4.238   1.333  1.00  0.00     0.277 HD
HETATM   10  H   UNL     1      58.429   3.836   2.592  1.00  0.00     0.277 HD
ENDROOT
BRANCH   1  11
HETATM   11  C   UNL     1      62.428   7.529   1.666  1.00  0.00     0.273 C 
BRANCH  11  12
HETATM   12  C   UNL     1      62.262   8.873   2.356  1.00  0.00    -0.032 A 
HETATM   13  C   UNL     1      62.474   9.002   3.740  1.00  0.00     0.012 A 
HETATM   14  C   UNL     1      62.343  10.244   4.367  1.00  0.00     0.043 A 
HETATM   15  C   UNL     1      62.006  11.361   3.614  1.00  0.00     0.116 A 
HETATM   16  C   UNL     1      61.792  11.260   2.245  1.00  0.00     0.043 A 
HETATM   17  F   UNL     1      61.894  12.553   4.212  1.00  0.00    -0.206 F 
HETATM   18  C   UNL     1      61.919  10.018   1.617  1.00  0.00     0.012 A 
ENDBRANCH  11  12
ENDBRANCH   1  11
TORSDOF 2
ENDMDL
MODEL 9
REMARK VINA RESULT:      -4.1      3.425      5.552
REMARK  2 active torsions:
REMARK  status: ('A' for Active; 'I' for Inactive)
REMARK    1  A    between atoms: N_1  and  C_3 
REMARK    2  A    between atoms: C_3  and  C_4 
ROOT
HETATM    1  N   UNL     1      61.351   6.899   1.683  1.00  0.00    -0.066 N 
HETATM    2  N   UNL     1      58.594   5.649   2.476  1.00  0.00    -0.073 N 
HETATM    3  C   UNL     1      60.267   7.502   0.901  1.00  0.00     0.237 C 
HETATM    4  C   UNL     1      59.343   6.502   0.200  1.00  0.00     0.055 C 
HETATM    5  C   UNL     1      58.643   5.433   1.038  1.00  0.00     0.234 C 
HETATM    6  C   UNL     1      60.920   6.494   3.031  1.00  0.00     0.262 C 
HETATM    7  C   UNL     1      59.888   5.352   3.095  1.00  0.00     0.260 C 
HETATM    8  H   UNL     1      61.614   6.049   1.186  1.00  0.00     0.280 HD
HETATM    9  H   UNL     1      58.352   6.623   2.660  1.00  0.00     0.277 HD
HETATM   10  H   UNL     1      57.891   5.027   2.876  1.00  0.00     0.277 HD
ENDROOT
BRANCH   1  11
HETATM   11  C   UNL     1      62.546   7.768   1.739  1.00  0.00     0.273 C 
BRANCH  11  12
HETATM   12  C   UNL     1      62.647   8.742   2.900  1.00  0.00    -0.032 A 
HETATM   13  C   UNL     1      61.886   9.924   2.917  1.00  0.00     0.012 A 
HETATM   14  C   UNL     1      61.964  10.806   3.997  1.00  0.00     0.043 A 
HETATM   15  C   UNL     1      62.798  10.509   5.067  1.00  0.00     0.116 A 
HETATM   16  C   UNL     1      63.560   9.348   5.075  1.00  0.00     0.043 A 
HETATM   17  F   UNL     1      62.862  11.348   6.108  1.00  0.00    -0.206 F 
HETATM   18  C   UNL     1      63.486   8.466   3.994  1.00  0.00     0.012 A 
ENDBRANCH  11  12
ENDBRANCH   1  11
TORSDOF 2
ENDMDL
