MODEL 1
REMARK VINA RESULT:      -5.6      0.000      0.000
REMARK  5 active torsions:
REMARK  status: ('A' for Active; 'I' for Inactive)
REMARK    1  A    between atoms: N_1  and  C_4 
REMARK    2  A    between atoms: C_2  and  C_4 
REMARK    3  A    between atoms: N_3  and  C_11 
REMARK    4  A    between atoms: C_11  and  C_15 
REMARK    5  A    between atoms: O_13  and  C_15 
ROOT
HETATM    1  N   UNL     1      64.017   7.338   4.874  1.00  0.00    -0.064 N 
HETATM    2  N   UNL     1      66.237   7.146   6.959  1.00  0.00    -0.066 N 
HETATM    3  C   UNL     1      64.148   6.202   5.810  1.00  0.00     0.263 C 
HETATM    4  C   UNL     1      65.334   7.978   4.705  1.00  0.00     0.263 C 
HETATM    5  C   UNL     1      64.914   6.496   7.123  1.00  0.00     0.262 C 
HETATM    6  C   UNL     1      66.103   8.273   6.014  1.00  0.00     0.262 C 
HETATM    7  H   UNL     1      63.704   6.976   3.973  1.00  0.00     0.280 HD
HETATM    8  H   UNL     1      66.563   7.544   7.841  1.00  0.00     0.280 HD
ENDROOT
BRANCH   1   9
HETATM    9  C   UNL     1      62.976   8.300   5.279  1.00  0.00     0.276 C 
BRANCH   9  10
HETATM   10  C   UNL     1      62.598   9.250   4.157  1.00  0.00     0.006 A 
HETATM   11  C   UNL     1      62.410  10.613   4.401  1.00  0.00     0.124 A 
HETATM   12  F   UNL     1      62.657  11.116   5.621  1.00  0.00    -0.206 F 
HETATM   13  C   UNL     1      61.943  11.469   3.407  1.00  0.00     0.043 A 
HETATM   14  C   UNL     1      61.671  10.966   2.134  1.00  0.00     0.003 A 
HETATM   15  C   UNL     1      61.905   9.621   1.856  1.00  0.00     0.001 A 
HETATM   16  C   UNL     1      62.374   8.768   2.857  1.00  0.00     0.012 A 
ENDBRANCH   9  10
ENDBRANCH   1   9
BRANCH   2  17
HETATM   17  C   UNL     1      67.263   6.146   6.590  1.00  0.00     0.260 C 
BRANCH  17  18
HETATM   18  C   UNL     1      68.069   5.609   7.786  1.00  0.00     0.192 C 
BRANCH  18  19
HETATM   19  O   UNL     1      68.075   6.553   8.854  1.00  0.00    -0.399 OA
HETATM   20  H   UNL     1      68.189   7.447   8.495  1.00  0.00     0.209 HD
ENDBRANCH  18  19
ENDBRANCH  17  18
ENDBRANCH   2  17
TORSDOF 5
ENDMDL
MODEL 2
REMARK VINA RESULT:      -5.4      1.737      2.530
REMARK  5 active torsions:
REMARK  status: ('A' for Active; 'I' for Inactive)
REMARK    1  A    between atoms: N_1  and  C_4 
REMARK    2  A    between atoms: C_2  and  C_4 
REMARK    3  A    between atoms: N_3  and  C_11 
REMARK    4  A    between atoms: C_11  and  C_15 
REMARK    5  A    between atoms: O_13  and  C_15 
ROOT
HETATM    1  N   UNL     1      64.879   7.833   6.080  1.00  0.00    -0.064 N 
HETATM    2  N   UNL     1      66.746   5.566   6.907  1.00  0.00    -0.066 N 
HETATM    3  C   UNL     1      66.327   8.023   6.307  1.00  0.00     0.263 C 
HETATM    4  C   UNL     1      64.423   6.654   6.837  1.00  0.00     0.263 C 
HETATM    5  C   UNL     1      67.205   6.757   6.153  1.00  0.00     0.262 C 
HETATM    6  C   UNL     1      65.297   5.387   6.686  1.00  0.00     0.262 C 
HETATM    7  H   UNL     1      64.390   8.660   6.423  1.00  0.00     0.280 HD
HETATM    8  H   UNL     1      67.199   4.717   6.565  1.00  0.00     0.280 HD
ENDROOT
BRANCH   1   9
HETATM    9  C   UNL     1      64.528   7.750   4.651  1.00  0.00     0.276 C 
BRANCH   9  10
HETATM   10  C   UNL     1      63.517   8.806   4.241  1.00  0.00     0.006 A 
HETATM   11  C   UNL     1      62.887   8.753   2.995  1.00  0.00     0.124 A 
HETATM   12  F   UNL     1      63.101   7.708   2.179  1.00  0.00    -0.206 F 
HETATM   13  C   UNL     1      62.053   9.781   2.560  1.00  0.00     0.043 A 
HETATM   14  C   UNL     1      61.824  10.881   3.388  1.00  0.00     0.003 A 
HETATM   15  C   UNL     1      62.399  10.926   4.656  1.00  0.00     0.001 A 
HETATM   16  C   UNL     1      63.234   9.891   5.086  1.00  0.00     0.012 A 
ENDBRANCH   9  10
ENDBRANCH   1   9
BRANCH   2  17
HETATM   17  C   UNL     1      67.149   5.665   8.328  1.00  0.00     0.260 C 
BRANCH  17  18
HETATM   18  C   UNL     1      67.974   4.467   8.828  1.00  0.00     0.192 C 
BRANCH  18  19
HETATM   19  O   UNL     1      67.164   3.296   8.906  1.00  0.00    -0.399 OA
HETATM   20  H   UNL     1      67.510   2.709   9.596  1.00  0.00     0.209 HD
ENDBRANCH  18  19
ENDBRANCH  17  18
ENDBRANCH   2  17
TORSDOF 5
ENDMDL
MODEL 3
REMARK VINA RESULT:      -4.7      3.306      6.846
REMARK  5 active torsions:
REMARK  status: ('A' for Active; 'I' for Inactive)
REMARK    1  A    between atoms: N_1  and  C_4 
REMARK    2  A    between atoms: C_2  and  C_4 
REMARK    3  A    between atoms: N_3  and  C_11 
REMARK    4  A    between atoms: C_11  and  C_15 
REMARK    5  A    between atoms: O_13  and  C_15 
ROOT
HETATM    1  N   UNL     1      64.162   7.299   6.407  1.00  0.00    -0.064 N 
HETATM    2  N   UNL     1      62.366   7.863   4.005  1.00  0.00    -0.066 N 
HETATM    3  C   UNL     1      62.700   7.079   6.423  1.00  0.00     0.263 C 
HETATM    4  C   UNL     1      64.486   8.307   5.382  1.00  0.00     0.263 C 
HETATM    5  C   UNL     1      62.037   6.856   5.041  1.00  0.00     0.262 C 
HETATM    6  C   UNL     1      63.826   8.088   4.001  1.00  0.00     0.262 C 
HETATM    7  H   UNL     1      64.442   7.651   7.322  1.00  0.00     0.280 HD
HETATM    8  H   UNL     1      62.122   7.526   3.073  1.00  0.00     0.280 HD
ENDROOT
BRANCH   1   9
HETATM    9  C   UNL     1      64.928   6.053   6.228  1.00  0.00     0.276 C 
BRANCH   9  10
HETATM   10  C   UNL     1      66.070   5.929   7.220  1.00  0.00     0.006 A 
HETATM   11  C   UNL     1      66.902   4.805   7.223  1.00  0.00     0.124 A 
HETATM   12  F   UNL     1      66.756   3.861   6.279  1.00  0.00    -0.206 F 
HETATM   13  C   UNL     1      67.872   4.625   8.206  1.00  0.00     0.043 A 
HETATM   14  C   UNL     1      68.034   5.589   9.202  1.00  0.00     0.003 A 
HETATM   15  C   UNL     1      67.252   6.742   9.184  1.00  0.00     0.001 A 
HETATM   16  C   UNL     1      66.282   6.918   8.195  1.00  0.00     0.012 A 
ENDBRANCH   9  10
ENDBRANCH   1   9
BRANCH   2  17
HETATM   17  C   UNL     1      61.552   9.085   4.192  1.00  0.00     0.260 C 
BRANCH  17  18
HETATM   18  C   UNL     1      62.045  10.295   3.379  1.00  0.00     0.192 C 
BRANCH  18  19
HETATM   19  O   UNL     1      62.024  11.477   4.175  1.00  0.00    -0.399 OA
HETATM   20  H   UNL     1      62.877  11.933   4.099  1.00  0.00     0.209 HD
ENDBRANCH  18  19
ENDBRANCH  17  18
ENDBRANCH   2  17
TORSDOF 5
ENDMDL
MODEL 4
REMARK VINA RESULT:      -4.6      2.204      2.895
REMARK  5 active torsions:
REMARK  status: ('A' for Active; 'I' for Inactive)
REMARK    1  A    between atoms: N_1  and  C_4 
REMARK    2  A    between atoms: C_2  and  C_4 
REMARK    3  A    between atoms: N_3  and  C_11 
REMARK    4  A    between atoms: C_11  and  C_15 
REMARK    5  A    between atoms: O_13  and  C_15 
ROOT
HETATM    1  N   UNL     1      63.079   7.251   4.913  1.00  0.00    -0.064 N 
HETATM    2  N   UNL     1      64.170   4.452   5.453  1.00  0.00    -0.066 N 
HETATM    3  C   UNL     1      64.489   6.990   5.271  1.00  0.00     0.263 C 
HETATM    4  C   UNL     1      62.242   6.146   5.416  1.00  0.00     0.263 C 
HETATM    5  C   UNL     1      65.012   5.567   4.956  1.00  0.00     0.262 C 
HETATM    6  C   UNL     1      62.761   4.723   5.103  1.00  0.00     0.262 C 
HETATM    7  H   UNL     1      62.790   8.120   5.363  1.00  0.00     0.280 HD
HETATM    8  H   UNL     1      64.418   3.573   4.998  1.00  0.00     0.280 HD
ENDROOT
BRANCH   1   9
HETATM    9  C   UNL     1      62.886   7.487   3.472  1.00  0.00     0.276 C 
BRANCH   9  10
HETATM   10  C   UNL     1      62.439   8.906   3.173  1.00  0.00     0.006 A 
HETATM   11  C   UNL     1      62.274   9.346   1.856  1.00  0.00     0.124 A 
HETATM   12  F   UNL     1      62.420   8.484   0.838  1.00  0.00    -0.206 F 
HETATM   13  C   UNL     1      61.985  10.678   1.569  1.00  0.00     0.043 A 
HETATM   14  C   UNL     1      61.838  11.594   2.611  1.00  0.00     0.003 A 
HETATM   15  C   UNL     1      61.943  11.163   3.932  1.00  0.00     0.001 A 
HETATM   16  C   UNL     1      62.233   9.826   4.214  1.00  0.00     0.012 A 
ENDBRANCH   9  10
ENDBRANCH   1   9
BRANCH   2  17
HETATM   17  C   UNL     1      64.417   4.219   6.893  1.00  0.00     0.260 C 
BRANCH  17  18
HETATM   18  C   UNL     1      65.907   4.203   7.276  1.00  0.00     0.192 C 
BRANCH  18  19
HETATM   19  O   UNL     1      66.106   4.811   8.550  1.00  0.00    -0.399 OA
HETATM   20  H   UNL     1      67.048   4.783   8.779  1.00  0.00     0.209 HD
ENDBRANCH  18  19
ENDBRANCH  17  18
ENDBRANCH   2  17
TORSDOF 5
ENDMDL
MODEL 5
REMARK VINA RESULT:      -4.4      4.623      5.399
REMARK  5 active torsions:
REMARK  status: ('A' for Active; 'I' for Inactive)
REMARK    1  A    between atoms: N_1  and  C_4 
REMARK    2  A    between atoms: C_2  and  C_4 
REMARK    3  A    between atoms: N_3  and  C_11 
REMARK    4  A    between atoms: C_11  and  C_15 
REMARK    5  A    between atoms: O_13  and  C_15 
ROOT
HETATM    1  N   UNL     1      59.750   6.126   4.342  1.00  0.00    -0.064 N 
HETATM    2  N   UNL     1      59.657   5.802   7.375  1.00  0.00    -0.066 N 
HETATM    3  C   UNL     1      58.557   5.637   5.064  1.00  0.00     0.263 C 
HETATM    4  C   UNL     1      60.949   5.865   5.158  1.00  0.00     0.263 C 
HETATM    5  C   UNL     1      58.451   6.056   6.551  1.00  0.00     0.262 C 
HETATM    6  C   UNL     1      60.847   6.283   6.643  1.00  0.00     0.262 C 
HETATM    7  H   UNL     1      59.826   5.613   3.464  1.00  0.00     0.280 HD
HETATM    8  H   UNL     1      59.622   6.326   8.249  1.00  0.00     0.280 HD
ENDROOT
BRANCH   1   9
HETATM    9  C   UNL     1      59.641   7.542   3.946  1.00  0.00     0.276 C 
BRANCH   9  10
HETATM   10  C   UNL     1      60.581   7.899   2.808  1.00  0.00     0.006 A 
HETATM   11  C   UNL     1      61.393   9.035   2.875  1.00  0.00     0.124 A 
HETATM   12  F   UNL     1      61.418   9.775   3.994  1.00  0.00    -0.206 F 
HETATM   13  C   UNL     1      62.164   9.438   1.788  1.00  0.00     0.043 A 
HETATM   14  C   UNL     1      62.145   8.688   0.611  1.00  0.00     0.003 A 
HETATM   15  C   UNL     1      61.386   7.522   0.544  1.00  0.00     0.001 A 
HETATM   16  C   UNL     1      60.614   7.122   1.638  1.00  0.00     0.012 A 
ENDBRANCH   9  10
ENDBRANCH   1   9
BRANCH   2  17
HETATM   17  C   UNL     1      59.714   4.381   7.785  1.00  0.00     0.260 C 
BRANCH  17  18
HETATM   18  C   UNL     1      58.903   4.065   9.054  1.00  0.00     0.192 C 
BRANCH  18  19
HETATM   19  O   UNL     1      58.778   5.225   9.873  1.00  0.00    -0.399 OA
HETATM   20  H   UNL     1      58.278   5.906   9.395  1.00  0.00     0.209 HD
ENDBRANCH  18  19
ENDBRANCH  17  18
ENDBRANCH   2  17
TORSDOF 5
ENDMDL
MODEL 6
REMARK VINA RESULT:      -4.1      3.261      6.394
REMARK  5 active torsions:
REMARK  status: ('A' for Active; 'I' for Inactive)
REMARK    1  A    between atoms: N_1  and  C_4 
REMARK    2  A    between atoms: C_2  and  C_4 
REMARK    3  A    between atoms: N_3  and  C_11 
REMARK    4  A    between atoms: C_11  and  C_15 
REMARK    5  A    between atoms: O_13  and  C_15 
ROOT
HETATM    1  N   UNL     1      63.207   6.226   4.929  1.00  0.00    -0.064 N 
HETATM    2  N   UNL     1      63.148   8.964   3.581  1.00  0.00    -0.066 N 
HETATM    3  C   UNL     1      62.200   6.605   3.915  1.00  0.00     0.263 C 
HETATM    4  C   UNL     1      63.729   7.447   5.569  1.00  0.00     0.263 C 
HETATM    5  C   UNL     1      62.615   7.736   2.943  1.00  0.00     0.262 C 
HETATM    6  C   UNL     1      64.145   8.579   4.601  1.00  0.00     0.262 C 
HETATM    7  H   UNL     1      62.749   5.649   5.634  1.00  0.00     0.280 HD
HETATM    8  H   UNL     1      63.637   9.549   2.903  1.00  0.00     0.280 HD
ENDROOT
BRANCH   1   9
HETATM    9  C   UNL     1      64.281   5.378   4.382  1.00  0.00     0.276 C 
BRANCH   9  10
HETATM   10  C   UNL     1      65.390   5.128   5.388  1.00  0.00     0.006 A 
HETATM   11  C   UNL     1      66.668   5.660   5.197  1.00  0.00     0.124 A 
HETATM   12  F   UNL     1      66.905   6.480   4.161  1.00  0.00    -0.206 F 
HETATM   13  C   UNL     1      67.722   5.335   6.047  1.00  0.00     0.043 A 
HETATM   14  C   UNL     1      67.501   4.476   7.125  1.00  0.00     0.003 A 
HETATM   15  C   UNL     1      66.221   3.981   7.365  1.00  0.00     0.001 A 
HETATM   16  C   UNL     1      65.168   4.311   6.509  1.00  0.00     0.012 A 
ENDBRANCH   9  10
ENDBRANCH   1   9
BRANCH   2  17
HETATM   17  C   UNL     1      62.041   9.809   4.084  1.00  0.00     0.260 C 
BRANCH  17  18
HETATM   18  C   UNL     1      62.507  11.016   4.916  1.00  0.00     0.192 C 
BRANCH  18  19
HETATM   19  O   UNL     1      62.064  12.235   4.325  1.00  0.00    -0.399 OA
HETATM   20  H   UNL     1      62.717  12.933   4.494  1.00  0.00     0.209 HD
ENDBRANCH  18  19
ENDBRANCH  17  18
ENDBRANCH   2  17
TORSDOF 5
ENDMDL
MODEL 7
REMARK VINA RESULT:      -4.1      3.667      6.610
REMARK  5 active torsions:
REMARK  status: ('A' for Active; 'I' for Inactive)
REMARK    1  A    between atoms: N_1  and  C_4 
REMARK    2  A    between atoms: C_2  and  C_4 
REMARK    3  A    between atoms: N_3  and  C_11 
REMARK    4  A    between atoms: C_11  and  C_15 
REMARK    5  A    between atoms: O_13  and  C_15 
ROOT
HETATM    1  N   UNL     1      62.832   6.333   4.424  1.00  0.00    -0.064 N 
HETATM    2  N   UNL     1      60.946   7.985   2.684  1.00  0.00    -0.066 N 
HETATM    3  C   UNL     1      63.266   7.015   3.187  1.00  0.00     0.263 C 
HETATM    4  C   UNL     1      61.381   6.085   4.354  1.00  0.00     0.263 C 
HETATM    5  C   UNL     1      62.408   8.227   2.749  1.00  0.00     0.262 C 
HETATM    6  C   UNL     1      60.520   7.293   3.917  1.00  0.00     0.262 C 
HETATM    7  H   UNL     1      63.320   5.439   4.485  1.00  0.00     0.280 HD
HETATM    8  H   UNL     1      60.429   8.864   2.651  1.00  0.00     0.280 HD
ENDROOT
BRANCH   1   9
HETATM    9  C   UNL     1      63.216   7.060   5.647  1.00  0.00     0.276 C 
BRANCH   9  10
HETATM   10  C   UNL     1      64.704   6.970   5.930  1.00  0.00     0.006 A 
HETATM   11  C   UNL     1      65.553   8.049   5.669  1.00  0.00     0.124 A 
HETATM   12  F   UNL     1      65.042   9.218   5.250  1.00  0.00    -0.206 F 
HETATM   13  C   UNL     1      66.934   7.935   5.809  1.00  0.00     0.043 A 
HETATM   14  C   UNL     1      67.488   6.726   6.234  1.00  0.00     0.003 A 
HETATM   15  C   UNL     1      66.654   5.656   6.553  1.00  0.00     0.001 A 
HETATM   16  C   UNL     1      65.270   5.778   6.411  1.00  0.00     0.012 A 
ENDBRANCH   9  10
ENDBRANCH   1   9
BRANCH   2  17
HETATM   17  C   UNL     1      60.592   7.288   1.428  1.00  0.00     0.260 C 
BRANCH  17  18
HETATM   18  C   UNL     1      59.652   8.091   0.512  1.00  0.00     0.192 C 
BRANCH  18  19
HETATM   19  O   UNL     1      58.474   8.477   1.215  1.00  0.00    -0.399 OA
HETATM   20  H   UNL     1      58.277   9.408   1.028  1.00  0.00     0.209 HD
ENDBRANCH  18  19
ENDBRANCH  17  18
ENDBRANCH   2  17
TORSDOF 5
ENDMDL
MODEL 8
REMARK VINA RESULT:      -4.1     11.064     12.892
REMARK  5 active torsions:
REMARK  status: ('A' for Active; 'I' for Inactive)
REMARK    1  A    between atoms: N_1  and  C_4 
REMARK    2  A    between atoms: C_2  and  C_4 
REMARK    3  A    between atoms: N_3  and  C_11 
REMARK    4  A    between atoms: C_11  and  C_15 
REMARK    5  A    between atoms: O_13  and  C_15 
ROOT
HETATM    1  N   UNL     1      59.699   0.991  12.101  1.00  0.00    -0.064 N 
HETATM    2  N   UNL     1      56.859   1.025  13.216  1.00  0.00    -0.066 N 
HETATM    3  C   UNL     1      59.355   1.580  13.412  1.00  0.00     0.263 C 
HETATM    4  C   UNL     1      58.501   0.989  11.243  1.00  0.00     0.263 C 
HETATM    5  C   UNL     1      58.066   1.036  14.077  1.00  0.00     0.262 C 
HETATM    6  C   UNL     1      57.212   0.447  11.903  1.00  0.00     0.262 C 
HETATM    7  H   UNL     1      60.418   1.572  11.669  1.00  0.00     0.280 HD
HETATM    8  H   UNL     1      56.131   0.428  13.610  1.00  0.00     0.280 HD
ENDROOT
BRANCH   1   9
HETATM    9  C   UNL     1      60.309  -0.346  12.214  1.00  0.00     0.276 C 
BRANCH   9  10
HETATM   10  C   UNL     1      61.782  -0.343  11.850  1.00  0.00     0.006 A 
HETATM   11  C   UNL     1      62.197  -0.166  10.527  1.00  0.00     0.124 A 
HETATM   12  F   UNL     1      61.292   0.098   9.571  1.00  0.00    -0.206 F 
HETATM   13  C   UNL     1      63.536  -0.285  10.166  1.00  0.00     0.043 A 
HETATM   14  C   UNL     1      64.493  -0.570  11.142  1.00  0.00     0.003 A 
HETATM   15  C   UNL     1      64.107  -0.694  12.475  1.00  0.00     0.001 A 
HETATM   16  C   UNL     1      62.761  -0.572  12.831  1.00  0.00     0.012 A 
ENDBRANCH   9  10
ENDBRANCH   1   9
BRANCH   2  17
HETATM   17  C   UNL     1      56.252   2.374  13.156  1.00  0.00     0.260 C 
BRANCH  17  18
HETATM   18  C   UNL     1      54.935   2.501  13.941  1.00  0.00     0.192 C 
BRANCH  18  19
HETATM   19  O   UNL     1      55.083   3.414  15.026  1.00  0.00    -0.399 OA
HETATM   20  H   UNL     1      54.251   3.895  15.159  1.00  0.00     0.209 HD
ENDBRANCH  18  19
ENDBRANCH  17  18
ENDBRANCH   2  17
TORSDOF 5
ENDMDL
MODEL 9
REMARK VINA RESULT:      -4.0      2.258      2.851
REMARK  5 active torsions:
REMARK  status: ('A' for Active; 'I' for Inactive)
REMARK    1  A    between atoms: N_1  and  C_4 
REMARK    2  A    between atoms: C_2  and  C_4 
REMARK    3  A    between atoms: N_3  and  C_11 
REMARK    4  A    between atoms: C_11  and  C_15 
REMARK    5  A    between atoms: O_13  and  C_15 
ROOT
HETATM    1  N   UNL     1      64.293   7.084   4.390  1.00  0.00    -0.064 N 
HETATM    2  N   UNL     1      66.045   5.250   6.087  1.00  0.00    -0.066 N 
HETATM    3  C   UNL     1      65.559   6.499   3.901  1.00  0.00     0.263 C 
HETATM    4  C   UNL     1      64.327   7.144   5.863  1.00  0.00     0.263 C 
HETATM    5  C   UNL     1      66.016   5.198   4.606  1.00  0.00     0.262 C 
HETATM    6  C   UNL     1      64.783   5.847   6.571  1.00  0.00     0.262 C 
HETATM    7  H   UNL     1      64.215   8.031   4.020  1.00  0.00     0.280 HD
HETATM    8  H   UNL     1      66.095   4.313   6.488  1.00  0.00     0.280 HD
ENDROOT
BRANCH   1   9
HETATM    9  C   UNL     1      63.101   6.379   3.887  1.00  0.00     0.276 C 
BRANCH   9  10
HETATM   10  C   UNL     1      62.286   7.230   2.931  1.00  0.00     0.006 A 
HETATM   11  C   UNL     1      61.090   6.755   2.385  1.00  0.00     0.124 A 
HETATM   12  F   UNL     1      60.600   5.568   2.777  1.00  0.00    -0.206 F 
HETATM   13  C   UNL     1      60.400   7.476   1.414  1.00  0.00     0.043 A 
HETATM   14  C   UNL     1      60.896   8.708   0.985  1.00  0.00     0.003 A 
HETATM   15  C   UNL     1      62.057   9.225   1.558  1.00  0.00     0.001 A 
HETATM   16  C   UNL     1      62.744   8.497   2.532  1.00  0.00     0.012 A 
ENDBRANCH   9  10
ENDBRANCH   1   9
BRANCH   2  17
HETATM   17  C   UNL     1      67.273   5.931   6.558  1.00  0.00     0.260 C 
BRANCH  17  18
HETATM   18  C   UNL     1      67.348   6.094   8.086  1.00  0.00     0.192 C 
BRANCH  18  19
HETATM   19  O   UNL     1      67.368   7.474   8.444  1.00  0.00    -0.399 OA
HETATM   20  H   UNL     1      68.287   7.777   8.510  1.00  0.00     0.209 HD
ENDBRANCH  18  19
ENDBRANCH  17  18
ENDBRANCH   2  17
TORSDOF 5
ENDMDL
